MODEL 1
REMARK VINA RESULT:    -4.411      0.000      0.000
REMARK INTER + INTRA:          -9.285
REMARK INTER:                  -8.022
REMARK INTRA:                  -1.264
REMARK UNBOUND:                -1.264
REMARK SMILES CCCCCCCCCCCCCCCC(=O)[O-]
REMARK SMILES IDX 9 1 10 2 11 3 12 4 13 5 14 6 15 7 16 8 17 9 18 10 8 11 7 12
REMARK SMILES IDX 6 13 5 14 4 15 3 16 2 17 1 18
REMARK H PARENT
REMARK Flexibility Score: inf
ROOT
ATOM      1  C   UNL     1       3.679  -2.592  -7.968  1.00  0.00     0.000 C 
ENDROOT
BRANCH   1   2
ATOM      2  C   UNL     1       2.242  -3.123  -7.894  1.00  0.00     0.000 C 
BRANCH   2   3
ATOM      3  C   UNL     1       2.188  -4.460  -7.139  1.00  0.00     0.000 C 
BRANCH   3   4
ATOM      4  C   UNL     1       2.746  -5.631  -7.964  1.00  0.00     0.000 C 
BRANCH   4   5
ATOM      5  C   UNL     1       3.560  -6.620  -7.112  1.00  0.00     0.000 C 
BRANCH   5   6
ATOM      6  C   UNL     1       4.065  -5.994  -5.802  1.00  0.00     0.006 C 
BRANCH   6   7
ATOM      7  C   UNL     1       3.622  -6.780  -4.561  1.00  0.00     0.053 C 
BRANCH   7   8
ATOM      8  C   UNL     1       4.600  -7.871  -4.258  1.00  0.00     0.041 C 
ATOM      9  O   UNL     1       5.419  -7.742  -3.310  1.00  0.00    -0.550 OA
ATOM     10  O   UNL     1       4.575  -9.050  -4.991  1.00  0.00    -0.550 OA
ENDBRANCH   7   8
ENDBRANCH   6   7
ENDBRANCH   5   6
ENDBRANCH   4   5
ENDBRANCH   3   4
ENDBRANCH   2   3
ENDBRANCH   1   2
BRANCH   1  11
ATOM     11  C   UNL     1       4.216  -2.654  -9.406  1.00  0.00     0.000 C 
BRANCH  11  12
ATOM     12  C   UNL     1       5.396  -3.627  -9.559  1.00  0.00    -0.000 C 
BRANCH  12  13
ATOM     13  C   UNL     1       6.709  -2.909  -9.918  1.00  0.00    -0.000 C 
BRANCH  13  14
ATOM     14  C   UNL     1       6.547  -1.382  -9.990  1.00  0.00    -0.000 C 
BRANCH  14  15
ATOM     15  C   UNL     1       7.276  -0.649  -8.850  1.00  0.00    -0.000 C 
BRANCH  15  16
ATOM     16  C   UNL     1       6.293  -0.015  -7.843  1.00  0.00    -0.000 C 
BRANCH  16  17
ATOM     17  C   UNL     1       6.988   0.728  -6.690  1.00  0.00    -0.003 C 
ATOM     18  C   UNL     1       8.363   0.157  -6.353  1.00  0.00     0.004 C 
ENDBRANCH  16  17
ENDBRANCH  15  16
ENDBRANCH  14  15
ENDBRANCH  13  14
ENDBRANCH  12  13
ENDBRANCH  11  12
ENDBRANCH   1  11
TORSDOF 14
ENDMDL
MODEL 2
REMARK VINA RESULT:    -4.383      2.460      4.188
REMARK INTER + INTRA:          -9.234
REMARK INTER:                  -7.010
REMARK INTRA:                  -2.224
REMARK UNBOUND:                -1.264
REMARK SMILES CCCCCCCCCCCCCCCC(=O)[O-]
REMARK SMILES IDX 9 1 10 2 11 3 12 4 13 5 14 6 15 7 16 8 17 9 18 10 8 11 7 12
REMARK SMILES IDX 6 13 5 14 4 15 3 16 2 17 1 18
REMARK H PARENT
REMARK Flexibility Score: inf
ROOT
ATOM      1  C   UNL     1       4.638  -7.154  -9.742  1.00  0.00     0.000 C 
ENDROOT
BRANCH   1   2
ATOM      2  C   UNL     1       4.369  -7.711  -8.338  1.00  0.00     0.000 C 
BRANCH   2   3
ATOM      3  C   UNL     1       3.136  -7.043  -7.708  1.00  0.00     0.000 C 
BRANCH   3   4
ATOM      4  C   UNL     1       3.321  -6.748  -6.211  1.00  0.00     0.000 C 
BRANCH   4   5
ATOM      5  C   UNL     1       4.499  -5.798  -5.935  1.00  0.00     0.000 C 
BRANCH   5   6
ATOM      6  C   UNL     1       5.459  -6.343  -4.865  1.00  0.00     0.006 C 
BRANCH   6   7
ATOM      7  C   UNL     1       6.691  -7.029  -5.468  1.00  0.00     0.053 C 
BRANCH   7   8
ATOM      8  C   UNL     1       6.860  -8.399  -4.891  1.00  0.00     0.041 C 
ATOM      9  O   UNL     1       6.088  -9.332  -5.237  1.00  0.00    -0.550 OA
ATOM     10  O   UNL     1       7.901  -8.658  -4.009  1.00  0.00    -0.550 OA
ENDBRANCH   7   8
ENDBRANCH   6   7
ENDBRANCH   5   6
ENDBRANCH   4   5
ENDBRANCH   3   4
ENDBRANCH   2   3
ENDBRANCH   1   2
BRANCH   1  11
ATOM     11  C   UNL     1       4.403  -5.636  -9.786  1.00  0.00     0.000 C 
BRANCH  11  12
ATOM     12  C   UNL     1       5.642  -4.830  -9.369  1.00  0.00    -0.000 C 
BRANCH  12  13
ATOM     13  C   UNL     1       5.366  -3.317  -9.300  1.00  0.00    -0.000 C 
BRANCH  13  14
ATOM     14  C   UNL     1       3.866  -2.995  -9.197  1.00  0.00    -0.000 C 
BRANCH  14  15
ATOM     15  C   UNL     1       3.410  -2.733  -7.751  1.00  0.00    -0.000 C 
BRANCH  15  16
ATOM     16  C   UNL     1       2.097  -3.471  -7.411  1.00  0.00    -0.000 C 
BRANCH  16  17
ATOM     17  C   UNL     1       1.229  -3.778  -8.643  1.00  0.00    -0.003 C 
ATOM     18  C   UNL     1       0.240  -2.662  -8.971  1.00  0.00     0.004 C 
ENDBRANCH  16  17
ENDBRANCH  15  16
ENDBRANCH  14  15
ENDBRANCH  13  14
ENDBRANCH  12  13
ENDBRANCH  11  12
ENDBRANCH   1  11
TORSDOF 14
ENDMDL
MODEL 3
REMARK VINA RESULT:    -4.322      3.897      6.308
REMARK INTER + INTRA:          -9.123
REMARK INTER:                  -6.694
REMARK INTRA:                  -2.429
REMARK UNBOUND:                -1.264
REMARK SMILES CCCCCCCCCCCCCCCC(=O)[O-]
REMARK SMILES IDX 9 1 10 2 11 3 12 4 13 5 14 6 15 7 16 8 17 9 18 10 8 11 7 12
REMARK SMILES IDX 6 13 5 14 4 15 3 16 2 17 1 18
REMARK H PARENT
REMARK Flexibility Score: inf
ROOT
ATOM      1  C   UNL     1       3.132  -7.084  -8.074  1.00  0.00     0.000 C 
ENDROOT
BRANCH   1   2
ATOM      2  C   UNL     1       4.176  -7.175  -9.195  1.00  0.00     0.000 C 
BRANCH   2   3
ATOM      3  C   UNL     1       4.488  -5.784  -9.770  1.00  0.00     0.000 C 
BRANCH   3   4
ATOM      4  C   UNL     1       4.875  -4.766  -8.685  1.00  0.00     0.000 C 
BRANCH   4   5
ATOM      5  C   UNL     1       3.974  -3.520  -8.694  1.00  0.00     0.000 C 
BRANCH   5   6
ATOM      6  C   UNL     1       3.255  -3.302  -7.352  1.00  0.00     0.006 C 
BRANCH   6   7
ATOM      7  C   UNL     1       1.839  -3.894  -7.336  1.00  0.00     0.053 C 
BRANCH   7   8
ATOM      8  C   UNL     1       1.058  -3.410  -8.517  1.00  0.00     0.041 C 
ATOM      9  O   UNL     1       0.669  -2.214  -8.572  1.00  0.00    -0.550 OA
ATOM     10  O   UNL     1       0.802  -4.267  -9.579  1.00  0.00    -0.550 OA
ENDBRANCH   7   8
ENDBRANCH   6   7
ENDBRANCH   5   6
ENDBRANCH   4   5
ENDBRANCH   3   4
ENDBRANCH   2   3
ENDBRANCH   1   2
BRANCH   1  11
ATOM     11  C   UNL     1       3.647  -7.748  -6.788  1.00  0.00     0.000 C 
BRANCH  11  12
ATOM     12  C   UNL     1       3.634  -6.797  -5.581  1.00  0.00    -0.000 C 
BRANCH  12  13
ATOM     13  C   UNL     1       4.963  -6.041  -5.412  1.00  0.00    -0.000 C 
BRANCH  13  14
ATOM     14  C   UNL     1       5.924  -6.746  -4.441  1.00  0.00    -0.000 C 
BRANCH  14  15
ATOM     15  C   UNL     1       7.251  -7.155  -5.105  1.00  0.00    -0.000 C 
BRANCH  15  16
ATOM     16  C   UNL     1       7.125  -8.475  -5.894  1.00  0.00    -0.000 C 
BRANCH  16  17
ATOM     17  C   UNL     1       7.284  -8.301  -7.414  1.00  0.00    -0.003 C 
ATOM     18  C   UNL     1       7.895  -6.957  -7.801  1.00  0.00     0.004 C 
ENDBRANCH  16  17
ENDBRANCH  15  16
ENDBRANCH  14  15
ENDBRANCH  13  14
ENDBRANCH  12  13
ENDBRANCH  11  12
ENDBRANCH   1  11
TORSDOF 14
ENDMDL
MODEL 4
REMARK VINA RESULT:    -4.320      4.066      6.963
REMARK INTER + INTRA:          -9.119
REMARK INTER:                  -6.988
REMARK INTRA:                  -2.131
REMARK UNBOUND:                -1.264
REMARK SMILES CCCCCCCCCCCCCCCC(=O)[O-]
REMARK SMILES IDX 9 1 10 2 11 3 12 4 13 5 14 6 15 7 16 8 17 9 18 10 8 11 7 12
REMARK SMILES IDX 6 13 5 14 4 15 3 16 2 17 1 18
REMARK H PARENT
REMARK Flexibility Score: inf
ROOT
ATOM      1  C   UNL     1       4.879  -6.045  -5.346  1.00  0.00     0.000 C 
ENDROOT
BRANCH   1   2
ATOM      2  C   UNL     1       3.393  -6.303  -5.630  1.00  0.00     0.000 C 
BRANCH   2   3
ATOM      3  C   UNL     1       3.002  -5.786  -7.023  1.00  0.00     0.000 C 
BRANCH   3   4
ATOM      4  C   UNL     1       3.919  -4.655  -7.515  1.00  0.00     0.000 C 
BRANCH   4   5
ATOM      5  C   UNL     1       3.238  -3.277  -7.466  1.00  0.00     0.000 C 
BRANCH   5   6
ATOM      6  C   UNL     1       1.704  -3.377  -7.430  1.00  0.00     0.006 C 
BRANCH   6   7
ATOM      7  C   UNL     1       1.036  -2.671  -8.617  1.00  0.00     0.053 C 
BRANCH   7   8
ATOM      8  C   UNL     1       0.313  -3.663  -9.473  1.00  0.00     0.041 C 
ATOM      9  O   UNL     1       0.821  -4.792  -9.703  1.00  0.00    -0.550 OA
ATOM     10  O   UNL     1      -0.945  -3.359  -9.978  1.00  0.00    -0.550 OA
ENDBRANCH   7   8
ENDBRANCH   6   7
ENDBRANCH   5   6
ENDBRANCH   4   5
ENDBRANCH   3   4
ENDBRANCH   2   3
ENDBRANCH   1   2
BRANCH   1  11
ATOM     11  C   UNL     1       5.421  -7.041  -4.309  1.00  0.00     0.000 C 
BRANCH  11  12
ATOM     12  C   UNL     1       4.540  -8.291  -4.166  1.00  0.00    -0.000 C 
BRANCH  12  13
ATOM     13  C   UNL     1       5.013  -9.451  -5.060  1.00  0.00    -0.000 C 
BRANCH  13  14
ATOM     14  C   UNL     1       6.524  -9.401  -5.342  1.00  0.00    -0.000 C 
BRANCH  14  15
ATOM     15  C   UNL     1       6.846  -9.168  -6.829  1.00  0.00    -0.000 C 
BRANCH  15  16
ATOM     16  C   UNL     1       5.574  -8.930  -7.671  1.00  0.00    -0.000 C 
BRANCH  16  17
ATOM     17  C   UNL     1       5.700  -7.757  -8.657  1.00  0.00    -0.003 C 
ATOM     18  C   UNL     1       6.866  -6.826  -8.335  1.00  0.00     0.004 C 
ENDBRANCH  16  17
ENDBRANCH  15  16
ENDBRANCH  14  15
ENDBRANCH  13  14
ENDBRANCH  12  13
ENDBRANCH  11  12
ENDBRANCH   1  11
TORSDOF 14
ENDMDL
MODEL 5
REMARK VINA RESULT:    -4.275      3.239      6.691
REMARK INTER + INTRA:          -9.037
REMARK INTER:                  -7.989
REMARK INTRA:                  -1.048
REMARK UNBOUND:                -1.264
REMARK SMILES CCCCCCCCCCCCCCCC(=O)[O-]
REMARK SMILES IDX 9 1 10 2 11 3 12 4 13 5 14 6 15 7 16 8 17 9 18 10 8 11 7 12
REMARK SMILES IDX 6 13 5 14 4 15 3 16 2 17 1 18
REMARK H PARENT
REMARK Flexibility Score: inf
ROOT
ATOM      1  C   UNL     1       2.166  -3.601  -7.545  1.00  0.00     0.000 C 
ENDROOT
BRANCH   1   2
ATOM      2  C   UNL     1       2.647  -2.390  -8.355  1.00  0.00     0.000 C 
BRANCH   2   3
ATOM      3  C   UNL     1       4.161  -2.182  -8.185  1.00  0.00     0.000 C 
BRANCH   3   4
ATOM      4  C   UNL     1       4.971  -2.726  -9.373  1.00  0.00     0.000 C 
BRANCH   4   5
ATOM      5  C   UNL     1       6.303  -1.983  -9.570  1.00  0.00     0.000 C 
BRANCH   5   6
ATOM      6  C   UNL     1       6.321  -0.609  -8.880  1.00  0.00     0.006 C 
BRANCH   6   7
ATOM      7  C   UNL     1       7.664  -0.303  -8.203  1.00  0.00     0.053 C 
BRANCH   7   8
ATOM      8  C   UNL     1       7.441   0.255  -6.833  1.00  0.00     0.041 C 
ATOM      9  O   UNL     1       6.334   0.774  -6.532  1.00  0.00    -0.550 OA
ATOM     10  O   UNL     1       8.439   0.158  -5.873  1.00  0.00    -0.550 OA
ENDBRANCH   7   8
ENDBRANCH   6   7
ENDBRANCH   5   6
ENDBRANCH   4   5
ENDBRANCH   3   4
ENDBRANCH   2   3
ENDBRANCH   1   2
BRANCH   1  11
ATOM     11  C   UNL     1       2.070  -4.853  -8.430  1.00  0.00     0.000 C 
BRANCH  11  12
ATOM     12  C   UNL     1       3.211  -5.850  -8.176  1.00  0.00    -0.000 C 
BRANCH  12  13
ATOM     13  C   UNL     1       3.077  -6.568  -6.822  1.00  0.00    -0.000 C 
BRANCH  13  14
ATOM     14  C   UNL     1       4.053  -6.024  -5.766  1.00  0.00    -0.000 C 
BRANCH  14  15
ATOM     15  C   UNL     1       4.036  -6.841  -4.461  1.00  0.00    -0.000 C 
BRANCH  15  16
ATOM     16  C   UNL     1       5.370  -7.577  -4.218  1.00  0.00    -0.000 C 
BRANCH  16  17
ATOM     17  C   UNL     1       6.609  -6.740  -4.576  1.00  0.00    -0.003 C 
ATOM     18  C   UNL     1       7.418  -7.331  -5.728  1.00  0.00     0.004 C 
ENDBRANCH  16  17
ENDBRANCH  15  16
ENDBRANCH  14  15
ENDBRANCH  13  14
ENDBRANCH  12  13
ENDBRANCH  11  12
ENDBRANCH   1  11
TORSDOF 14
ENDMDL
MODEL 6
REMARK VINA RESULT:    -4.185      1.670      2.597
REMARK INTER + INTRA:          -8.874
REMARK INTER:                  -7.216
REMARK INTRA:                  -1.658
REMARK UNBOUND:                -1.264
REMARK SMILES CCCCCCCCCCCCCCCC(=O)[O-]
REMARK SMILES IDX 9 1 10 2 11 3 12 4 13 5 14 6 15 7 16 8 17 9 18 10 8 11 7 12
REMARK SMILES IDX 6 13 5 14 4 15 3 16 2 17 1 18
REMARK H PARENT
REMARK Flexibility Score: inf
ROOT
ATOM      1  C   UNL     1       1.852  -3.206  -7.495  1.00  0.00     0.000 C 
ENDROOT
BRANCH   1   2
ATOM      2  C   UNL     1       1.337  -2.800  -8.882  1.00  0.00     0.000 C 
BRANCH   2   3
ATOM      3  C   UNL     1       0.700  -3.998  -9.605  1.00  0.00     0.000 C 
BRANCH   3   4
ATOM      4  C   UNL     1       1.743  -5.009 -10.109  1.00  0.00     0.000 C 
BRANCH   4   5
ATOM      5  C   UNL     1       1.294  -6.467  -9.918  1.00  0.00     0.000 C 
BRANCH   5   6
ATOM      6  C   UNL     1       2.421  -7.366  -9.383  1.00  0.00     0.006 C 
BRANCH   6   7
ATOM      7  C   UNL     1       3.416  -6.605  -8.497  1.00  0.00     0.053 C 
BRANCH   7   8
ATOM      8  C   UNL     1       3.365  -7.122  -7.094  1.00  0.00     0.041 C 
ATOM      9  O   UNL     1       2.927  -6.392  -6.166  1.00  0.00    -0.550 OA
ATOM     10  O   UNL     1       3.756  -8.425  -6.818  1.00  0.00    -0.550 OA
ENDBRANCH   7   8
ENDBRANCH   6   7
ENDBRANCH   5   6
ENDBRANCH   4   5
ENDBRANCH   3   4
ENDBRANCH   2   3
ENDBRANCH   1   2
BRANCH   1  11
ATOM     11  C   UNL     1       3.384  -3.119  -7.430  1.00  0.00     0.000 C 
BRANCH  11  12
ATOM     12  C   UNL     1       3.993  -2.420  -8.656  1.00  0.00    -0.000 C 
BRANCH  12  13
ATOM     13  C   UNL     1       5.023  -3.299  -9.386  1.00  0.00    -0.000 C 
BRANCH  13  14
ATOM     14  C   UNL     1       6.304  -2.530  -9.750  1.00  0.00    -0.000 C 
BRANCH  14  15
ATOM     15  C   UNL     1       6.333  -1.107  -9.162  1.00  0.00    -0.000 C 
BRANCH  15  16
ATOM     16  C   UNL     1       7.736  -0.718  -8.649  1.00  0.00    -0.000 C 
BRANCH  16  17
ATOM     17  C   UNL     1       7.713   0.035  -7.308  1.00  0.00    -0.003 C 
ATOM     18  C   UNL     1       6.380   0.727  -7.033  1.00  0.00     0.004 C 
ENDBRANCH  16  17
ENDBRANCH  15  16
ENDBRANCH  14  15
ENDBRANCH  13  14
ENDBRANCH  12  13
ENDBRANCH  11  12
ENDBRANCH   1  11
TORSDOF 14
ENDMDL
MODEL 7
REMARK VINA RESULT:    -4.169      1.269      2.215
REMARK INTER + INTRA:          -8.844
REMARK INTER:                  -7.306
REMARK INTRA:                  -1.539
REMARK UNBOUND:                -1.264
REMARK SMILES CCCCCCCCCCCCCCCC(=O)[O-]
REMARK SMILES IDX 9 1 10 2 11 3 12 4 13 5 14 6 15 7 16 8 17 9 18 10 8 11 7 12
REMARK SMILES IDX 6 13 5 14 4 15 3 16 2 17 1 18
REMARK H PARENT
REMARK Flexibility Score: inf
ROOT
ATOM      1  C   UNL     1       1.166  -4.064  -8.612  1.00  0.00     0.000 C 
ENDROOT
BRANCH   1   2
ATOM      2  C   UNL     1       1.661  -4.877  -9.815  1.00  0.00     0.000 C 
BRANCH   2   3
ATOM      3  C   UNL     1       2.170  -6.258  -9.375  1.00  0.00     0.000 C 
BRANCH   3   4
ATOM      4  C   UNL     1       3.694  -6.401  -9.513  1.00  0.00     0.000 C 
BRANCH   4   5
ATOM      5  C   UNL     1       4.444  -6.009  -8.229  1.00  0.00     0.000 C 
BRANCH   5   6
ATOM      6  C   UNL     1       3.951  -6.786  -6.997  1.00  0.00     0.006 C 
BRANCH   6   7
ATOM      7  C   UNL     1       4.098  -5.987  -5.695  1.00  0.00     0.053 C 
BRANCH   7   8
ATOM      8  C   UNL     1       4.967  -6.725  -4.726  1.00  0.00     0.041 C 
ATOM      9  O   UNL     1       4.505  -7.698  -4.075  1.00  0.00    -0.550 OA
ATOM     10  O   UNL     1       6.300  -6.368  -4.577  1.00  0.00    -0.550 OA
ENDBRANCH   7   8
ENDBRANCH   6   7
ENDBRANCH   5   6
ENDBRANCH   4   5
ENDBRANCH   3   4
ENDBRANCH   2   3
ENDBRANCH   1   2
BRANCH   1  11
ATOM     11  C   UNL     1       1.955  -2.754  -8.470  1.00  0.00     0.000 C 
BRANCH  11  12
ATOM     12  C   UNL     1       3.262  -2.929  -7.681  1.00  0.00    -0.000 C 
BRANCH  12  13
ATOM     13  C   UNL     1       4.348  -1.926  -8.109  1.00  0.00    -0.000 C 
BRANCH  13  14
ATOM     14  C   UNL     1       5.189  -2.436  -9.291  1.00  0.00    -0.000 C 
BRANCH  14  15
ATOM     15  C   UNL     1       6.172  -1.378  -9.824  1.00  0.00    -0.000 C 
BRANCH  15  16
ATOM     16  C   UNL     1       7.188  -0.934  -8.750  1.00  0.00    -0.000 C 
BRANCH  16  17
ATOM     17  C   UNL     1       7.074   0.553  -8.374  1.00  0.00    -0.003 C 
ATOM     18  C   UNL     1       6.483   0.776  -6.984  1.00  0.00     0.004 C 
ENDBRANCH  16  17
ENDBRANCH  15  16
ENDBRANCH  14  15
ENDBRANCH  13  14
ENDBRANCH  12  13
ENDBRANCH  11  12
ENDBRANCH   1  11
TORSDOF 14
ENDMDL
MODEL 8
REMARK VINA RESULT:    -4.160      1.804      2.930
REMARK INTER + INTRA:          -8.828
REMARK INTER:                  -7.713
REMARK INTRA:                  -1.115
REMARK UNBOUND:                -1.264
REMARK SMILES CCCCCCCCCCCCCCCC(=O)[O-]
REMARK SMILES IDX 9 1 10 2 11 3 12 4 13 5 14 6 15 7 16 8 17 9 18 10 8 11 7 12
REMARK SMILES IDX 6 13 5 14 4 15 3 16 2 17 1 18
REMARK H PARENT
REMARK Flexibility Score: inf
ROOT
ATOM      1  C   UNL     1       3.149  -4.789  -6.934  1.00  0.00     0.000 C 
ENDROOT
BRANCH   1   2
ATOM      2  C   UNL     1       2.805  -6.259  -7.207  1.00  0.00     0.000 C 
BRANCH   2   3
ATOM      3  C   UNL     1       3.721  -7.197  -6.406  1.00  0.00     0.000 C 
BRANCH   3   4
ATOM      4  C   UNL     1       4.014  -6.675  -4.991  1.00  0.00     0.000 C 
BRANCH   4   5
ATOM      5  C   UNL     1       5.520  -6.546  -4.707  1.00  0.00     0.000 C 
BRANCH   5   6
ATOM      6  C   UNL     1       6.374  -6.680  -5.978  1.00  0.00     0.006 C 
BRANCH   6   7
ATOM      7  C   UNL     1       7.652  -7.497  -5.749  1.00  0.00     0.053 C 
BRANCH   7   8
ATOM      8  C   UNL     1       7.326  -8.952  -5.625  1.00  0.00     0.041 C 
ATOM      9  O   UNL     1       6.504  -9.487  -6.416  1.00  0.00    -0.550 OA
ATOM     10  O   UNL     1       7.965  -9.729  -4.668  1.00  0.00    -0.550 OA
ENDBRANCH   7   8
ENDBRANCH   6   7
ENDBRANCH   5   6
ENDBRANCH   4   5
ENDBRANCH   3   4
ENDBRANCH   2   3
ENDBRANCH   1   2
BRANCH   1  11
ATOM     11  C   UNL     1       2.008  -3.863  -7.381  1.00  0.00     0.000 C 
BRANCH  11  12
ATOM     12  C   UNL     1       2.507  -2.636  -8.158  1.00  0.00    -0.000 C 
BRANCH  12  13
ATOM     13  C   UNL     1       3.401  -3.017  -9.352  1.00  0.00    -0.000 C 
BRANCH  13  14
ATOM     14  C   UNL     1       4.836  -2.481  -9.209  1.00  0.00    -0.000 C 
BRANCH  14  15
ATOM     15  C   UNL     1       4.965  -1.405  -8.116  1.00  0.00    -0.000 C 
BRANCH  15  16
ATOM     16  C   UNL     1       6.164  -0.464  -8.363  1.00  0.00    -0.000 C 
BRANCH  16  17
ATOM     17  C   UNL     1       6.413   0.528  -7.215  1.00  0.00    -0.003 C 
ATOM     18  C   UNL     1       7.850   0.500  -6.701  1.00  0.00     0.004 C 
ENDBRANCH  16  17
ENDBRANCH  15  16
ENDBRANCH  14  15
ENDBRANCH  13  14
ENDBRANCH  12  13
ENDBRANCH  11  12
ENDBRANCH   1  11
TORSDOF 14
ENDMDL
MODEL 9
REMARK VINA RESULT:    -3.822      4.313      6.653
REMARK INTER + INTRA:          -8.213
REMARK INTER:                  -6.221
REMARK INTRA:                  -1.992
REMARK UNBOUND:                -1.264
REMARK SMILES CCCCCCCCCCCCCCCC(=O)[O-]
REMARK SMILES IDX 9 1 10 2 11 3 12 4 13 5 14 6 15 7 16 8 17 9 18 10 8 11 7 12
REMARK SMILES IDX 6 13 5 14 4 15 3 16 2 17 1 18
REMARK H PARENT
REMARK Flexibility Score: inf
ROOT
ATOM      1  C   UNL     1       4.479  -9.315  -7.313  1.00  0.00     0.000 C 
ENDROOT
BRANCH   1   2
ATOM      2  C   UNL     1       4.131  -8.321  -8.429  1.00  0.00     0.000 C 
BRANCH   2   3
ATOM      3  C   UNL     1       2.623  -8.330  -8.723  1.00  0.00     0.000 C 
BRANCH   3   4
ATOM      4  C   UNL     1       2.144  -7.038  -9.404  1.00  0.00     0.000 C 
BRANCH   4   5
ATOM      5  C   UNL     1       3.301  -6.080  -9.737  1.00  0.00     0.000 C 
BRANCH   5   6
ATOM      6  C   UNL     1       2.824  -4.636  -9.967  1.00  0.00     0.006 C 
BRANCH   6   7
ATOM      7  C   UNL     1       1.721  -4.214  -8.988  1.00  0.00     0.053 C 
BRANCH   7   8
ATOM      8  C   UNL     1       1.999  -2.848  -8.446  1.00  0.00     0.041 C 
ATOM      9  O   UNL     1       3.184  -2.485  -8.221  1.00  0.00    -0.550 OA
ATOM     10  O   UNL     1       0.955  -1.958  -8.235  1.00  0.00    -0.550 OA
ENDBRANCH   7   8
ENDBRANCH   6   7
ENDBRANCH   5   6
ENDBRANCH   4   5
ENDBRANCH   3   4
ENDBRANCH   2   3
ENDBRANCH   1   2
BRANCH   1  11
ATOM     11  C   UNL     1       5.988  -9.314  -7.025  1.00  0.00     0.000 C 
BRANCH  11  12
ATOM     12  C   UNL     1       6.323  -9.802  -5.607  1.00  0.00    -0.000 C 
BRANCH  12  13
ATOM     13  C   UNL     1       6.980  -8.708  -4.747  1.00  0.00    -0.000 C 
BRANCH  13  14
ATOM     14  C   UNL     1       6.850  -7.309  -5.370  1.00  0.00    -0.000 C 
BRANCH  14  15
ATOM     15  C   UNL     1       5.895  -6.392  -4.586  1.00  0.00    -0.000 C 
BRANCH  15  16
ATOM     16  C   UNL     1       4.515  -7.045  -4.362  1.00  0.00    -0.000 C 
BRANCH  16  17
ATOM     17  C   UNL     1       3.393  -6.417  -5.206  1.00  0.00    -0.003 C 
ATOM     18  C   UNL     1       3.907  -5.403  -6.225  1.00  0.00     0.004 C 
ENDBRANCH  16  17
ENDBRANCH  15  16
ENDBRANCH  14  15
ENDBRANCH  13  14
ENDBRANCH  12  13
ENDBRANCH  11  12
ENDBRANCH   1  11
TORSDOF 14
ENDMDL
