MODEL 1
REMARK VINA RESULT:     6.802      0.000      0.000
REMARK INTER + INTRA:          10.550
REMARK INTER:                  10.778
REMARK INTRA:                  -0.228
REMARK UNBOUND:                -0.228
REMARK SMILES CCCCCCCCCCCC(=O)[O-]
REMARK SMILES IDX 7 1 8 2 9 3 10 4 11 5 12 6 13 7 14 8 6 9 5 10 4 11 3 12 2 13
REMARK SMILES IDX 1 14
REMARK H PARENT
REMARK Flexibility Score: inf
ROOT
ATOM      1  C   UNL     1       9.357  18.094  28.921  1.00  0.00     0.000 C 
ENDROOT
BRANCH   1   2
ATOM      2  C   UNL     1       9.854  17.044  27.911  1.00  0.00     0.000 C 
BRANCH   2   3
ATOM      3  C   UNL     1       8.715  16.430  27.077  1.00  0.00     0.000 C 
BRANCH   3   4
ATOM      4  C   UNL     1       7.662  17.433  26.571  1.00  0.00     0.006 C 
BRANCH   4   5
ATOM      5  C   UNL     1       6.418  17.497  27.467  1.00  0.00     0.053 C 
BRANCH   5   6
ATOM      6  C   UNL     1       5.276  18.123  26.730  1.00  0.00     0.041 C 
ATOM      7  O   UNL     1       4.093  17.945  27.123  1.00  0.00    -0.550 OA
ATOM      8  O   UNL     1       5.522  18.944  25.637  1.00  0.00    -0.550 OA
ENDBRANCH   5   6
ENDBRANCH   4   5
ENDBRANCH   3   4
ENDBRANCH   2   3
ENDBRANCH   1   2
BRANCH   1   9
ATOM      9  C   UNL     1       8.574  17.465  30.085  1.00  0.00     0.000 C 
BRANCH   9  10
ATOM     10  C   UNL     1       9.292  17.633  31.436  1.00  0.00    -0.000 C 
BRANCH  10  11
ATOM     11  C   UNL     1       8.475  17.077  32.615  1.00  0.00    -0.000 C 
BRANCH  11  12
ATOM     12  C   UNL     1       7.407  18.065  33.113  1.00  0.00    -0.000 C 
BRANCH  12  13
ATOM     13  C   UNL     1       7.802  19.529  32.870  1.00  0.00    -0.003 C 
ATOM     14  C   UNL     1       6.651  20.503  33.125  1.00  0.00     0.004 C 
ENDBRANCH  12  13
ENDBRANCH  11  12
ENDBRANCH  10  11
ENDBRANCH   9  10
ENDBRANCH   1   9
TORSDOF 10
ENDMDL
MODEL 2
REMARK VINA RESULT:     6.934      0.724      1.487
REMARK INTER + INTRA:          10.760
REMARK INTER:                  11.240
REMARK INTRA:                  -0.481
REMARK UNBOUND:                -0.228
REMARK SMILES CCCCCCCCCCCC(=O)[O-]
REMARK SMILES IDX 7 1 8 2 9 3 10 4 11 5 12 6 13 7 14 8 6 9 5 10 4 11 3 12 2 13
REMARK SMILES IDX 1 14
REMARK H PARENT
REMARK Flexibility Score: inf
ROOT
ATOM      1  C   UNL     1       8.757  17.630  29.892  1.00  0.00     0.000 C 
ENDROOT
BRANCH   1   2
ATOM      2  C   UNL     1       9.866  17.512  28.831  1.00  0.00     0.000 C 
BRANCH   2   3
ATOM      3  C   UNL     1       9.327  17.122  27.443  1.00  0.00     0.000 C 
BRANCH   3   4
ATOM      4  C   UNL     1       7.797  17.199  27.291  1.00  0.00     0.006 C 
BRANCH   4   5
ATOM      5  C   UNL     1       7.359  17.861  25.977  1.00  0.00     0.053 C 
BRANCH   5   6
ATOM      6  C   UNL     1       5.931  18.300  26.066  1.00  0.00     0.041 C 
ATOM      7  O   UNL     1       5.410  18.955  25.125  1.00  0.00    -0.550 OA
ATOM      8  O   UNL     1       5.162  17.945  27.167  1.00  0.00    -0.550 OA
ENDBRANCH   5   6
ENDBRANCH   4   5
ENDBRANCH   3   4
ENDBRANCH   2   3
ENDBRANCH   1   2
BRANCH   1   9
ATOM      9  C   UNL     1       9.318  17.825  31.310  1.00  0.00     0.000 C 
BRANCH   9  10
ATOM     10  C   UNL     1       8.509  17.061  32.373  1.00  0.00    -0.000 C 
BRANCH  10  11
ATOM     11  C   UNL     1       7.516  17.964  33.124  1.00  0.00    -0.000 C 
BRANCH  11  12
ATOM     12  C   UNL     1       7.728  19.457  32.823  1.00  0.00    -0.000 C 
BRANCH  12  13
ATOM     13  C   UNL     1       6.480  20.301  33.125  1.00  0.00    -0.003 C 
ATOM     14  C   UNL     1       6.369  21.536  32.231  1.00  0.00     0.004 C 
ENDBRANCH  12  13
ENDBRANCH  11  12
ENDBRANCH  10  11
ENDBRANCH   9  10
ENDBRANCH   1   9
TORSDOF 10
ENDMDL
MODEL 3
REMARK VINA RESULT:     8.103      3.559      7.050
REMARK INTER + INTRA:          12.612
REMARK INTER:                  12.879
REMARK INTRA:                  -0.267
REMARK UNBOUND:                -0.228
REMARK SMILES CCCCCCCCCCCC(=O)[O-]
REMARK SMILES IDX 7 1 8 2 9 3 10 4 11 5 12 6 13 7 14 8 6 9 5 10 4 11 3 12 2 13
REMARK SMILES IDX 1 14
REMARK H PARENT
REMARK Flexibility Score: inf
ROOT
ATOM      1  C   UNL     1       7.278  17.250  27.218  1.00  0.00     0.000 C 
ENDROOT
BRANCH   1   2
ATOM      2  C   UNL     1       8.763  16.970  27.513  1.00  0.00     0.000 C 
BRANCH   2   3
ATOM      3  C   UNL     1       9.254  17.650  28.805  1.00  0.00     0.000 C 
BRANCH   3   4
ATOM      4  C   UNL     1       8.335  17.472  30.027  1.00  0.00     0.006 C 
BRANCH   4   5
ATOM      5  C   UNL     1       9.089  17.564  31.360  1.00  0.00     0.053 C 
BRANCH   5   6
ATOM      6  C   UNL     1       8.140  17.409  32.507  1.00  0.00     0.041 C 
ATOM      7  O   UNL     1       7.873  16.266  32.960  1.00  0.00    -0.550 OA
ATOM      8  O   UNL     1       7.587  18.534  33.106  1.00  0.00    -0.550 OA
ENDBRANCH   5   6
ENDBRANCH   4   5
ENDBRANCH   3   4
ENDBRANCH   2   3
ENDBRANCH   1   2
BRANCH   1   9
ATOM      9  C   UNL     1       7.086  18.245  26.062  1.00  0.00     0.000 C 
BRANCH   9  10
ATOM     10  C   UNL     1       5.629  18.299  25.569  1.00  0.00    -0.000 C 
BRANCH  10  11
ATOM     11  C   UNL     1       5.314  19.591  24.795  1.00  0.00    -0.000 C 
BRANCH  11  12
ATOM     12  C   UNL     1       4.718  19.318  23.404  1.00  0.00    -0.000 C 
BRANCH  12  13
ATOM     13  C   UNL     1       4.332  20.609  22.666  1.00  0.00    -0.003 C 
ATOM     14  C   UNL     1       2.824  20.745  22.459  1.00  0.00     0.004 C 
ENDBRANCH  12  13
ENDBRANCH  11  12
ENDBRANCH  10  11
ENDBRANCH   9  10
ENDBRANCH   1   9
TORSDOF 10
ENDMDL
MODEL 4
REMARK VINA RESULT:     8.145      2.751      5.769
REMARK INTER + INTRA:          12.679
REMARK INTER:                  11.997
REMARK INTRA:                   0.682
REMARK UNBOUND:                -0.228
REMARK SMILES CCCCCCCCCCCC(=O)[O-]
REMARK SMILES IDX 7 1 8 2 9 3 10 4 11 5 12 6 13 7 14 8 6 9 5 10 4 11 3 12 2 13
REMARK SMILES IDX 1 14
REMARK H PARENT
REMARK Flexibility Score: inf
ROOT
ATOM      1  C   UNL     1       9.441  17.812  28.691  1.00  0.00     0.000 C 
ENDROOT
BRANCH   1   2
ATOM      2  C   UNL     1       8.541  17.471  29.892  1.00  0.00     0.000 C 
BRANCH   2   3
ATOM      3  C   UNL     1       9.195  17.807  31.244  1.00  0.00     0.000 C 
BRANCH   3   4
ATOM      4  C   UNL     1       8.593  17.080  32.460  1.00  0.00     0.006 C 
BRANCH   4   5
ATOM      5  C   UNL     1       7.456  17.867  33.124  1.00  0.00     0.053 C 
BRANCH   5   6
ATOM      6  C   UNL     1       7.579  19.325  32.812  1.00  0.00     0.041 C 
ATOM      7  O   UNL     1       8.678  19.799  32.419  1.00  0.00    -0.550 OA
ATOM      8  O   UNL     1       6.468  20.153  32.909  1.00  0.00    -0.550 OA
ENDBRANCH   5   6
ENDBRANCH   4   5
ENDBRANCH   3   4
ENDBRANCH   2   3
ENDBRANCH   1   2
BRANCH   1   9
ATOM      9  C   UNL     1       9.166  16.912  27.475  1.00  0.00     0.000 C 
BRANCH   9  10
ATOM     10  C   UNL     1       7.689  16.943  27.042  1.00  0.00    -0.000 C 
BRANCH  10  11
ATOM     11  C   UNL     1       7.374  18.115  26.096  1.00  0.00    -0.000 C 
BRANCH  11  12
ATOM     12  C   UNL     1       5.884  18.496  26.101  1.00  0.00    -0.000 C 
BRANCH  12  13
ATOM     13  C   UNL     1       5.125  17.885  27.288  1.00  0.00    -0.003 C 
ATOM     14  C   UNL     1       3.611  17.868  27.077  1.00  0.00     0.004 C 
ENDBRANCH  12  13
ENDBRANCH  11  12
ENDBRANCH  10  11
ENDBRANCH   9  10
ENDBRANCH   1   9
TORSDOF 10
ENDMDL
MODEL 5
REMARK VINA RESULT:     8.428      3.109      6.211
REMARK INTER + INTRA:          13.127
REMARK INTER:                  13.607
REMARK INTRA:                  -0.481
REMARK UNBOUND:                -0.228
REMARK SMILES CCCCCCCCCCCC(=O)[O-]
REMARK SMILES IDX 7 1 8 2 9 3 10 4 11 5 12 6 13 7 14 8 6 9 5 10 4 11 3 12 2 13
REMARK SMILES IDX 1 14
REMARK H PARENT
REMARK Flexibility Score: inf
ROOT
ATOM      1  C   UNL     1       7.485  17.400  27.489  1.00  0.00     0.000 C 
ENDROOT
BRANCH   1   2
ATOM      2  C   UNL     1       9.015  17.443  27.657  1.00  0.00     0.000 C 
BRANCH   2   3
ATOM      3  C   UNL     1       9.449  17.896  29.062  1.00  0.00     0.000 C 
BRANCH   3   4
ATOM      4  C   UNL     1       8.469  17.542  30.195  1.00  0.00     0.006 C 
BRANCH   4   5
ATOM      5  C   UNL     1       9.162  17.361  31.552  1.00  0.00     0.053 C 
BRANCH   5   6
ATOM      6  C   UNL     1       8.148  17.277  32.649  1.00  0.00     0.041 C 
ATOM      7  O   UNL     1       7.627  18.324  33.113  1.00  0.00    -0.550 OA
ATOM      8  O   UNL     1       7.742  16.036  33.125  1.00  0.00    -0.550 OA
ENDBRANCH   5   6
ENDBRANCH   4   5
ENDBRANCH   3   4
ENDBRANCH   2   3
ENDBRANCH   1   2
BRANCH   1   9
ATOM      9  C   UNL     1       7.033  17.869  26.096  1.00  0.00     0.000 C 
BRANCH   9  10
ATOM     10  C   UNL     1       5.571  18.347  26.082  1.00  0.00    -0.000 C 
BRANCH  10  11
ATOM     11  C   UNL     1       4.765  17.824  27.284  1.00  0.00    -0.000 C 
BRANCH  11  12
ATOM     12  C   UNL     1       3.268  18.161  27.186  1.00  0.00    -0.000 C 
BRANCH  12  13
ATOM     13  C   UNL     1       2.575  17.429  26.027  1.00  0.00    -0.003 C 
ATOM     14  C   UNL     1       1.304  18.134  25.555  1.00  0.00     0.004 C 
ENDBRANCH  12  13
ENDBRANCH  11  12
ENDBRANCH  10  11
ENDBRANCH   9  10
ENDBRANCH   1   9
TORSDOF 10
ENDMDL
MODEL 6
REMARK VINA RESULT:     8.634      1.493      1.887
REMARK INTER + INTRA:          13.454
REMARK INTER:                  13.928
REMARK INTRA:                  -0.474
REMARK UNBOUND:                -0.228
REMARK SMILES CCCCCCCCCCCC(=O)[O-]
REMARK SMILES IDX 7 1 8 2 9 3 10 4 11 5 12 6 13 7 14 8 6 9 5 10 4 11 3 12 2 13
REMARK SMILES IDX 1 14
REMARK H PARENT
REMARK Flexibility Score: inf
ROOT
ATOM      1  C   UNL     1       9.295  17.987  28.189  1.00  0.00     0.000 C 
ENDROOT
BRANCH   1   2
ATOM      2  C   UNL     1       8.453  16.890  27.514  1.00  0.00     0.000 C 
BRANCH   2   3
ATOM      3  C   UNL     1       7.049  17.377  27.110  1.00  0.00     0.000 C 
BRANCH   3   4
ATOM      4  C   UNL     1       7.013  18.350  25.919  1.00  0.00     0.006 C 
BRANCH   4   5
ATOM      5  C   UNL     1       5.589  18.764  25.527  1.00  0.00     0.053 C 
BRANCH   5   6
ATOM      6  C   UNL     1       5.429  18.739  24.039  1.00  0.00     0.041 C 
ATOM      7  O   UNL     1       5.990  17.842  23.356  1.00  0.00    -0.550 OA
ATOM      8  O   UNL     1       4.620  19.678  23.412  1.00  0.00    -0.550 OA
ENDBRANCH   5   6
ENDBRANCH   4   5
ENDBRANCH   3   4
ENDBRANCH   2   3
ENDBRANCH   1   2
BRANCH   1   9
ATOM      9  C   UNL     1       9.536  17.710  29.682  1.00  0.00     0.000 C 
BRANCH   9  10
ATOM     10  C   UNL     1       8.225  17.605  30.480  1.00  0.00    -0.000 C 
BRANCH  10  11
ATOM     11  C   UNL     1       8.438  17.053  31.900  1.00  0.00    -0.000 C 
BRANCH  11  12
ATOM     12  C   UNL     1       7.712  17.880  32.974  1.00  0.00    -0.000 C 
BRANCH  12  13
ATOM     13  C   UNL     1       7.942  19.390  32.807  1.00  0.00    -0.003 C 
ATOM     14  C   UNL     1       6.671  20.211  33.030  1.00  0.00     0.004 C 
ENDBRANCH  12  13
ENDBRANCH  11  12
ENDBRANCH  10  11
ENDBRANCH   9  10
ENDBRANCH   1   9
TORSDOF 10
ENDMDL
MODEL 7
REMARK VINA RESULT:     9.661      1.177      2.064
REMARK INTER + INTRA:          15.081
REMARK INTER:                  15.544
REMARK INTRA:                  -0.463
REMARK UNBOUND:                -0.228
REMARK SMILES CCCCCCCCCCCC(=O)[O-]
REMARK SMILES IDX 7 1 8 2 9 3 10 4 11 5 12 6 13 7 14 8 6 9 5 10 4 11 3 12 2 13
REMARK SMILES IDX 1 14
REMARK H PARENT
REMARK Flexibility Score: inf
ROOT
ATOM      1  C   UNL     1       9.658  18.607  28.584  1.00  0.00     0.000 C 
ENDROOT
BRANCH   1   2
ATOM      2  C   UNL     1       9.985  17.138  28.261  1.00  0.00     0.000 C 
BRANCH   2   3
ATOM      3  C   UNL     1       9.002  16.514  27.253  1.00  0.00     0.000 C 
BRANCH   3   4
ATOM      4  C   UNL     1       7.582  17.107  27.273  1.00  0.00     0.006 C 
BRANCH   4   5
ATOM      5  C   UNL     1       7.231  17.863  25.985  1.00  0.00     0.053 C 
BRANCH   5   6
ATOM      6  C   UNL     1       5.826  18.375  26.046  1.00  0.00     0.041 C 
ATOM      7  O   UNL     1       5.385  19.127  25.138  1.00  0.00    -0.550 OA
ATOM      8  O   UNL     1       4.989  17.982  27.083  1.00  0.00    -0.550 OA
ENDBRANCH   5   6
ENDBRANCH   4   5
ENDBRANCH   3   4
ENDBRANCH   2   3
ENDBRANCH   1   2
BRANCH   1   9
ATOM      9  C   UNL     1       9.213  18.804  30.042  1.00  0.00     0.000 C 
BRANCH   9  10
ATOM     10  C   UNL     1       9.086  17.473  30.803  1.00  0.00    -0.000 C 
BRANCH  10  11
ATOM     11  C   UNL     1       9.191  17.650  32.328  1.00  0.00    -0.000 C 
BRANCH  11  12
ATOM     12  C   UNL     1       7.815  17.752  33.009  1.00  0.00    -0.000 C 
BRANCH  12  13
ATOM     13  C   UNL     1       7.096  16.397  33.087  1.00  0.00    -0.003 C 
ATOM     14  C   UNL     1       8.063  15.214  33.125  1.00  0.00     0.004 C 
ENDBRANCH  12  13
ENDBRANCH  11  12
ENDBRANCH  10  11
ENDBRANCH   9  10
ENDBRANCH   1   9
TORSDOF 10
ENDMDL
