MODEL 1
REMARK VINA RESULT:    -2.489      0.000      0.000
REMARK INTER + INTRA:          -8.456
REMARK INTER:                  -5.689
REMARK INTRA:                  -2.767
REMARK UNBOUND:                -2.767
REMARK SMILES CCCCCCCCCCCCCCCCCCCCCCCC(=O)[O-]
REMARK SMILES IDX 13 1 14 2 15 3 16 4 17 5 18 6 19 7 20 8 21 9 22 10 23 11
REMARK SMILES IDX 24 12 25 13 26 14 12 15 11 16 10 17 9 18 8 19 7 20 6 21 5 22
REMARK SMILES IDX 4 23 3 24 2 25 1 26
REMARK H PARENT
REMARK Flexibility Score: inf
ROOT
ATOM      1  C   UNL     1      45.603  59.279  50.514  1.00  0.00     0.000 C 
ENDROOT
BRANCH   1   2
ATOM      2  C   UNL     1      46.034  57.827  50.247  1.00  0.00     0.000 C 
BRANCH   2   3
ATOM      3  C   UNL     1      46.691  57.612  48.864  1.00  0.00     0.000 C 
BRANCH   3   4
ATOM      4  C   UNL     1      45.952  56.611  47.955  1.00  0.00     0.000 C 
BRANCH   4   5
ATOM      5  C   UNL     1      44.442  56.453  48.231  1.00  0.00     0.000 C 
BRANCH   5   6
ATOM      6  C   UNL     1      43.530  57.187  47.224  1.00  0.00     0.000 C 
BRANCH   6   7
ATOM      7  C   UNL     1      44.220  58.344  46.478  1.00  0.00     0.000 C 
BRANCH   7   8
ATOM      8  C   UNL     1      44.172  58.181  44.947  1.00  0.00     0.000 C 
BRANCH   8   9
ATOM      9  C   UNL     1      43.492  56.868  44.523  1.00  0.00     0.000 C 
BRANCH   9  10
ATOM     10  C   UNL     1      42.100  57.106  43.909  1.00  0.00     0.006 C 
BRANCH  10  11
ATOM     11  C   UNL     1      41.326  58.216  44.634  1.00  0.00     0.053 C 
BRANCH  11  12
ATOM     12  C   UNL     1      39.950  58.399  44.072  1.00  0.00     0.041 C 
ATOM     13  O   UNL     1      38.997  57.684  44.480  1.00  0.00    -0.550 OA
ATOM     14  O   UNL     1      39.719  59.369  43.103  1.00  0.00    -0.550 OA
ENDBRANCH  11  12
ENDBRANCH  10  11
ENDBRANCH   9  10
ENDBRANCH   8   9
ENDBRANCH   7   8
ENDBRANCH   6   7
ENDBRANCH   5   6
ENDBRANCH   4   5
ENDBRANCH   3   4
ENDBRANCH   2   3
ENDBRANCH   1   2
BRANCH   1  15
ATOM     15  C   UNL     1      44.909  59.927  49.305  1.00  0.00     0.000 C 
BRANCH  15  16
ATOM     16  C   UNL     1      45.142  61.443  49.230  1.00  0.00     0.000 C 
BRANCH  16  17
ATOM     17  C   UNL     1      43.915  62.254  49.685  1.00  0.00     0.000 C 
BRANCH  17  18
ATOM     18  C   UNL     1      42.675  61.359  49.896  1.00  0.00    -0.000 C 
BRANCH  18  19
ATOM     19  C   UNL     1      41.811  61.181  48.632  1.00  0.00    -0.000 C 
BRANCH  19  20
ATOM     20  C   UNL     1      41.503  59.722  48.256  1.00  0.00    -0.000 C 
BRANCH  20  21
ATOM     21  C   UNL     1      41.446  58.789  49.478  1.00  0.00    -0.000 C 
BRANCH  21  22
ATOM     22  C   UNL     1      40.178  57.920  49.495  1.00  0.00    -0.000 C 
BRANCH  22  23
ATOM     23  C   UNL     1      39.620  57.656  48.086  1.00  0.00    -0.000 C 
BRANCH  23  24
ATOM     24  C   UNL     1      40.299  56.462  47.398  1.00  0.00    -0.000 C 
BRANCH  24  25
ATOM     25  C   UNL     1      39.320  55.320  47.086  1.00  0.00    -0.003 C 
ATOM     26  C   UNL     1      39.994  53.961  47.249  1.00  0.00     0.004 C 
ENDBRANCH  24  25
ENDBRANCH  23  24
ENDBRANCH  22  23
ENDBRANCH  21  22
ENDBRANCH  20  21
ENDBRANCH  19  20
ENDBRANCH  18  19
ENDBRANCH  17  18
ENDBRANCH  16  17
ENDBRANCH  15  16
ENDBRANCH   1  15
TORSDOF 22
ENDMDL
MODEL 2
REMARK VINA RESULT:    -2.195      2.775      5.104
REMARK INTER + INTRA:          -7.785
REMARK INTER:                  -4.572
REMARK INTRA:                  -3.213
REMARK UNBOUND:                -2.767
REMARK SMILES CCCCCCCCCCCCCCCCCCCCCCCC(=O)[O-]
REMARK SMILES IDX 13 1 14 2 15 3 16 4 17 5 18 6 19 7 20 8 21 9 22 10 23 11
REMARK SMILES IDX 24 12 25 13 26 14 12 15 11 16 10 17 9 18 8 19 7 20 6 21 5 22
REMARK SMILES IDX 4 23 3 24 2 25 1 26
REMARK H PARENT
REMARK Flexibility Score: inf
ROOT
ATOM      1  C   UNL     1      46.754  57.554  50.042  1.00  0.00     0.000 C 
ENDROOT
BRANCH   1   2
ATOM      2  C   UNL     1      45.824  58.391  50.937  1.00  0.00     0.000 C 
BRANCH   2   3
ATOM      3  C   UNL     1      44.462  58.724  50.286  1.00  0.00     0.000 C 
BRANCH   3   4
ATOM      4  C   UNL     1      43.376  57.651  50.493  1.00  0.00     0.000 C 
BRANCH   4   5
ATOM      5  C   UNL     1      42.372  57.489  49.333  1.00  0.00     0.000 C 
BRANCH   5   6
ATOM      6  C   UNL     1      41.050  58.264  49.522  1.00  0.00     0.000 C 
BRANCH   6   7
ATOM      7  C   UNL     1      40.773  59.313  48.428  1.00  0.00     0.000 C 
BRANCH   7   8
ATOM      8  C   UNL     1      41.936  60.307  48.246  1.00  0.00     0.000 C 
BRANCH   8   9
ATOM      9  C   UNL     1      41.939  61.401  49.328  1.00  0.00     0.000 C 
BRANCH   9  10
ATOM     10  C   UNL     1      43.363  61.869  49.678  1.00  0.00     0.006 C 
BRANCH  10  11
ATOM     11  C   UNL     1      44.373  61.536  48.571  1.00  0.00     0.053 C 
BRANCH  11  12
ATOM     12  C   UNL     1      45.746  62.043  48.894  1.00  0.00     0.041 C 
ATOM     13  O   UNL     1      46.388  61.563  49.865  1.00  0.00    -0.550 OA
ATOM     14  O   UNL     1      46.320  63.040  48.113  1.00  0.00    -0.550 OA
ENDBRANCH  11  12
ENDBRANCH  10  11
ENDBRANCH   9  10
ENDBRANCH   8   9
ENDBRANCH   7   8
ENDBRANCH   6   7
ENDBRANCH   5   6
ENDBRANCH   4   5
ENDBRANCH   3   4
ENDBRANCH   2   3
ENDBRANCH   1   2
BRANCH   1  15
ATOM     15  C   UNL     1      46.410  57.672  48.549  1.00  0.00     0.000 C 
BRANCH  15  16
ATOM     16  C   UNL     1      45.769  56.394  47.986  1.00  0.00     0.000 C 
BRANCH  16  17
ATOM     17  C   UNL     1      44.495  56.680  47.172  1.00  0.00     0.000 C 
BRANCH  17  18
ATOM     18  C   UNL     1      44.313  58.186  46.889  1.00  0.00    -0.000 C 
BRANCH  18  19
ATOM     19  C   UNL     1      43.916  58.504  45.434  1.00  0.00    -0.000 C 
BRANCH  19  20
ATOM     20  C   UNL     1      43.685  57.274  44.540  1.00  0.00    -0.000 C 
BRANCH  20  21
ATOM     21  C   UNL     1      42.211  57.101  44.131  1.00  0.00    -0.000 C 
BRANCH  21  22
ATOM     22  C   UNL     1      41.273  58.033  44.915  1.00  0.00    -0.000 C 
BRANCH  22  23
ATOM     23  C   UNL     1      40.135  57.275  45.620  1.00  0.00    -0.000 C 
BRANCH  23  24
ATOM     24  C   UNL     1      40.653  56.186  46.572  1.00  0.00    -0.000 C 
BRANCH  24  25
ATOM     25  C   UNL     1      39.523  55.466  47.322  1.00  0.00    -0.003 C 
ATOM     26  C   UNL     1      39.711  53.953  47.275  1.00  0.00     0.004 C 
ENDBRANCH  24  25
ENDBRANCH  23  24
ENDBRANCH  22  23
ENDBRANCH  21  22
ENDBRANCH  20  21
ENDBRANCH  19  20
ENDBRANCH  18  19
ENDBRANCH  17  18
ENDBRANCH  16  17
ENDBRANCH  15  16
ENDBRANCH   1  15
TORSDOF 22
ENDMDL
MODEL 3
REMARK VINA RESULT:    -2.115      2.741      6.368
REMARK INTER + INTRA:          -7.603
REMARK INTER:                  -5.697
REMARK INTRA:                  -1.906
REMARK UNBOUND:                -2.767
REMARK SMILES CCCCCCCCCCCCCCCCCCCCCCCC(=O)[O-]
REMARK SMILES IDX 13 1 14 2 15 3 16 4 17 5 18 6 19 7 20 8 21 9 22 10 23 11
REMARK SMILES IDX 24 12 25 13 26 14 12 15 11 16 10 17 9 18 8 19 7 20 6 21 5 22
REMARK SMILES IDX 4 23 3 24 2 25 1 26
REMARK H PARENT
REMARK Flexibility Score: inf
ROOT
ATOM      1  C   UNL     1      40.611  56.401  46.434  1.00  0.00     0.000 C 
ENDROOT
BRANCH   1   2
ATOM      2  C   UNL     1      40.365  57.640  45.556  1.00  0.00     0.000 C 
BRANCH   2   3
ATOM      3  C   UNL     1      41.378  57.798  44.398  1.00  0.00     0.000 C 
BRANCH   3   4
ATOM      4  C   UNL     1      42.769  57.200  44.682  1.00  0.00     0.000 C 
BRANCH   4   5
ATOM      5  C   UNL     1      43.729  58.101  45.486  1.00  0.00     0.000 C 
BRANCH   5   6
ATOM      6  C   UNL     1      43.195  59.527  45.747  1.00  0.00     0.000 C 
BRANCH   6   7
ATOM      7  C   UNL     1      43.245  59.956  47.225  1.00  0.00     0.000 C 
BRANCH   7   8
ATOM      8  C   UNL     1      41.864  60.360  47.777  1.00  0.00     0.000 C 
BRANCH   8   9
ATOM      9  C   UNL     1      41.976  61.295  48.994  1.00  0.00     0.000 C 
BRANCH   9  10
ATOM     10  C   UNL     1      43.351  61.198  49.678  1.00  0.00     0.006 C 
BRANCH  10  11
ATOM     11  C   UNL     1      44.179  62.480  49.505  1.00  0.00     0.053 C 
BRANCH  11  12
ATOM     12  C   UNL     1      45.573  62.189  49.041  1.00  0.00     0.041 C 
ATOM     13  O   UNL     1      46.139  61.112  49.367  1.00  0.00    -0.550 OA
ATOM     14  O   UNL     1      46.243  63.104  48.236  1.00  0.00    -0.550 OA
ENDBRANCH  11  12
ENDBRANCH  10  11
ENDBRANCH   9  10
ENDBRANCH   8   9
ENDBRANCH   7   8
ENDBRANCH   6   7
ENDBRANCH   5   6
ENDBRANCH   4   5
ENDBRANCH   3   4
ENDBRANCH   2   3
ENDBRANCH   1   2
BRANCH   1  15
ATOM     15  C   UNL     1      39.760  56.399  47.714  1.00  0.00     0.000 C 
BRANCH  15  16
ATOM     16  C   UNL     1      39.598  57.801  48.319  1.00  0.00     0.000 C 
BRANCH  16  17
ATOM     17  C   UNL     1      40.014  57.858  49.800  1.00  0.00     0.000 C 
BRANCH  17  18
ATOM     18  C   UNL     1      41.536  58.051  49.968  1.00  0.00    -0.000 C 
BRANCH  18  19
ATOM     19  C   UNL     1      42.379  56.914  49.358  1.00  0.00    -0.000 C 
BRANCH  19  20
ATOM     20  C   UNL     1      43.607  57.375  48.553  1.00  0.00    -0.000 C 
BRANCH  20  21
ATOM     21  C   UNL     1      44.394  56.203  47.942  1.00  0.00    -0.000 C 
BRANCH  21  22
ATOM     22  C   UNL     1      45.915  56.415  48.019  1.00  0.00    -0.000 C 
BRANCH  22  23
ATOM     23  C   UNL     1      46.296  57.775  48.626  1.00  0.00    -0.000 C 
BRANCH  23  24
ATOM     24  C   UNL     1      46.684  57.671  50.110  1.00  0.00    -0.000 C 
BRANCH  24  25
ATOM     25  C   UNL     1      45.734  58.453  51.029  1.00  0.00    -0.003 C 
ATOM     26  C   UNL     1      45.878  58.001  52.478  1.00  0.00     0.004 C 
ENDBRANCH  24  25
ENDBRANCH  23  24
ENDBRANCH  22  23
ENDBRANCH  21  22
ENDBRANCH  20  21
ENDBRANCH  19  20
ENDBRANCH  18  19
ENDBRANCH  17  18
ENDBRANCH  16  17
ENDBRANCH  15  16
ENDBRANCH   1  15
TORSDOF 22
ENDMDL
MODEL 4
REMARK VINA RESULT:    -2.086      1.331      4.825
REMARK INTER + INTRA:          -7.535
REMARK INTER:                  -5.368
REMARK INTRA:                  -2.167
REMARK UNBOUND:                -2.767
REMARK SMILES CCCCCCCCCCCCCCCCCCCCCCCC(=O)[O-]
REMARK SMILES IDX 13 1 14 2 15 3 16 4 17 5 18 6 19 7 20 8 21 9 22 10 23 11
REMARK SMILES IDX 24 12 25 13 26 14 12 15 11 16 10 17 9 18 8 19 7 20 6 21 5 22
REMARK SMILES IDX 4 23 3 24 2 25 1 26
REMARK H PARENT
REMARK Flexibility Score: inf
ROOT
ATOM      1  C   UNL     1      45.359  60.419  49.043  1.00  0.00     0.000 C 
ENDROOT
BRANCH   1   2
ATOM      2  C   UNL     1      44.611  61.760  49.142  1.00  0.00     0.000 C 
BRANCH   2   3
ATOM      3  C   UNL     1      43.437  61.750  50.148  1.00  0.00     0.000 C 
BRANCH   3   4
ATOM      4  C   UNL     1      42.046  61.591  49.504  1.00  0.00     0.000 C 
BRANCH   4   5
ATOM      5  C   UNL     1      42.035  60.966  48.094  1.00  0.00     0.000 C 
BRANCH   5   6
ATOM      6  C   UNL     1      41.531  59.507  48.047  1.00  0.00     0.000 C 
BRANCH   6   7
ATOM      7  C   UNL     1      41.655  58.756  49.386  1.00  0.00     0.000 C 
BRANCH   7   8
ATOM      8  C   UNL     1      40.366  58.007  49.774  1.00  0.00     0.000 C 
BRANCH   8   9
ATOM      9  C   UNL     1      39.420  57.819  48.574  1.00  0.00     0.000 C 
BRANCH   9  10
ATOM     10  C   UNL     1      40.152  57.265  47.339  1.00  0.00     0.006 C 
BRANCH  10  11
ATOM     11  C   UNL     1      40.632  55.822  47.545  1.00  0.00     0.053 C 
BRANCH  11  12
ATOM     12  C   UNL     1      39.670  54.824  46.977  1.00  0.00     0.041 C 
ATOM     13  O   UNL     1      38.862  55.164  46.073  1.00  0.00    -0.550 OA
ATOM     14  O   UNL     1      39.674  53.513  47.440  1.00  0.00    -0.550 OA
ENDBRANCH  11  12
ENDBRANCH  10  11
ENDBRANCH   9  10
ENDBRANCH   8   9
ENDBRANCH   7   8
ENDBRANCH   6   7
ENDBRANCH   5   6
ENDBRANCH   4   5
ENDBRANCH   3   4
ENDBRANCH   2   3
ENDBRANCH   1   2
BRANCH   1  15
ATOM     15  C   UNL     1      45.252  59.581  50.328  1.00  0.00     0.000 C 
BRANCH  15  16
ATOM     16  C   UNL     1      45.303  58.070  50.055  1.00  0.00     0.000 C 
BRANCH  16  17
ATOM     17  C   UNL     1      46.467  57.675  49.127  1.00  0.00     0.000 C 
BRANCH  17  18
ATOM     18  C   UNL     1      45.996  56.794  47.951  1.00  0.00    -0.000 C 
BRANCH  18  19
ATOM     19  C   UNL     1      44.485  56.490  47.965  1.00  0.00    -0.000 C 
BRANCH  19  20
ATOM     20  C   UNL     1      43.622  57.441  47.118  1.00  0.00    -0.000 C 
BRANCH  20  21
ATOM     21  C   UNL     1      44.429  58.166  46.027  1.00  0.00    -0.000 C 
BRANCH  21  22
ATOM     22  C   UNL     1      43.998  57.756  44.609  1.00  0.00    -0.000 C 
BRANCH  22  23
ATOM     23  C   UNL     1      42.676  56.970  44.594  1.00  0.00    -0.000 C 
BRANCH  23  24
ATOM     24  C   UNL     1      41.709  57.465  43.506  1.00  0.00    -0.000 C 
BRANCH  24  25
ATOM     25  C   UNL     1      40.319  57.809  44.060  1.00  0.00    -0.003 C 
ATOM     26  C   UNL     1      39.826  59.144  43.511  1.00  0.00     0.004 C 
ENDBRANCH  24  25
ENDBRANCH  23  24
ENDBRANCH  22  23
ENDBRANCH  21  22
ENDBRANCH  20  21
ENDBRANCH  19  20
ENDBRANCH  18  19
ENDBRANCH  17  18
ENDBRANCH  16  17
ENDBRANCH  15  16
ENDBRANCH   1  15
TORSDOF 22
ENDMDL
MODEL 5
REMARK VINA RESULT:    -1.992      2.950      5.879
REMARK INTER + INTRA:          -7.320
REMARK INTER:                  -4.556
REMARK INTRA:                  -2.764
REMARK UNBOUND:                -2.767
REMARK SMILES CCCCCCCCCCCCCCCCCCCCCCCC(=O)[O-]
REMARK SMILES IDX 13 1 14 2 15 3 16 4 17 5 18 6 19 7 20 8 21 9 22 10 23 11
REMARK SMILES IDX 24 12 25 13 26 14 12 15 11 16 10 17 9 18 8 19 7 20 6 21 5 22
REMARK SMILES IDX 4 23 3 24 2 25 1 26
REMARK H PARENT
REMARK Flexibility Score: inf
ROOT
ATOM      1  C   UNL     1      42.712  57.610  49.506  1.00  0.00     0.000 C 
ENDROOT
BRANCH   1   2
ATOM      2  C   UNL     1      41.247  58.054  49.654  1.00  0.00     0.000 C 
BRANCH   2   3
ATOM      3  C   UNL     1      40.720  58.884  48.460  1.00  0.00     0.000 C 
BRANCH   3   4
ATOM      4  C   UNL     1      41.669  60.005  47.995  1.00  0.00     0.000 C 
BRANCH   4   5
ATOM      5  C   UNL     1      41.628  61.300  48.832  1.00  0.00     0.000 C 
BRANCH   5   6
ATOM      6  C   UNL     1      42.686  61.366  49.956  1.00  0.00     0.000 C 
BRANCH   6   7
ATOM      7  C   UNL     1      43.548  62.642  49.934  1.00  0.00     0.000 C 
BRANCH   7   8
ATOM      8  C   UNL     1      44.911  62.431  49.249  1.00  0.00     0.000 C 
BRANCH   8   9
ATOM      9  C   UNL     1      45.117  60.974  48.800  1.00  0.00     0.000 C 
BRANCH   9  10
ATOM     10  C   UNL     1      46.055  60.201  49.745  1.00  0.00     0.006 C 
BRANCH  10  11
ATOM     11  C   UNL     1      45.289  59.467  50.854  1.00  0.00     0.053 C 
BRANCH  11  12
ATOM     12  C   UNL     1      46.006  58.233  51.310  1.00  0.00     0.041 C 
ATOM     13  O   UNL     1      45.936  57.866  52.512  1.00  0.00    -0.550 OA
ATOM     14  O   UNL     1      46.743  57.483  50.401  1.00  0.00    -0.550 OA
ENDBRANCH  11  12
ENDBRANCH  10  11
ENDBRANCH   9  10
ENDBRANCH   8   9
ENDBRANCH   7   8
ENDBRANCH   6   7
ENDBRANCH   5   6
ENDBRANCH   4   5
ENDBRANCH   3   4
ENDBRANCH   2   3
ENDBRANCH   1   2
BRANCH   1  15
ATOM     15  C   UNL     1      42.926  56.641  48.332  1.00  0.00     0.000 C 
BRANCH  15  16
ATOM     16  C   UNL     1      44.404  56.505  47.939  1.00  0.00     0.000 C 
BRANCH  16  17
ATOM     17  C   UNL     1      44.986  57.809  47.363  1.00  0.00     0.000 C 
BRANCH  17  18
ATOM     18  C   UNL     1      44.005  58.503  46.395  1.00  0.00    -0.000 C 
BRANCH  18  19
ATOM     19  C   UNL     1      44.125  58.023  44.935  1.00  0.00    -0.000 C 
BRANCH  19  20
ATOM     20  C   UNL     1      43.253  56.807  44.577  1.00  0.00    -0.000 C 
BRANCH  20  21
ATOM     21  C   UNL     1      41.920  57.202  43.916  1.00  0.00    -0.000 C 
BRANCH  21  22
ATOM     22  C   UNL     1      41.054  58.087  44.827  1.00  0.00    -0.000 C 
BRANCH  22  23
ATOM     23  C   UNL     1      39.882  57.320  45.461  1.00  0.00    -0.000 C 
BRANCH  23  24
ATOM     24  C   UNL     1      40.349  56.264  46.476  1.00  0.00    -0.000 C 
BRANCH  24  25
ATOM     25  C   UNL     1      39.368  55.089  46.604  1.00  0.00    -0.003 C 
ATOM     26  C   UNL     1      39.945  53.988  47.488  1.00  0.00     0.004 C 
ENDBRANCH  24  25
ENDBRANCH  23  24
ENDBRANCH  22  23
ENDBRANCH  21  22
ENDBRANCH  20  21
ENDBRANCH  19  20
ENDBRANCH  18  19
ENDBRANCH  17  18
ENDBRANCH  16  17
ENDBRANCH  15  16
ENDBRANCH   1  15
TORSDOF 22
ENDMDL
MODEL 6
REMARK VINA RESULT:    -1.847      3.459      6.129
REMARK INTER + INTRA:          -6.990
REMARK INTER:                  -4.008
REMARK INTRA:                  -2.982
REMARK UNBOUND:                -2.767
REMARK SMILES CCCCCCCCCCCCCCCCCCCCCCCC(=O)[O-]
REMARK SMILES IDX 13 1 14 2 15 3 16 4 17 5 18 6 19 7 20 8 21 9 22 10 23 11
REMARK SMILES IDX 24 12 25 13 26 14 12 15 11 16 10 17 9 18 8 19 7 20 6 21 5 22
REMARK SMILES IDX 4 23 3 24 2 25 1 26
REMARK H PARENT
REMARK Flexibility Score: inf
ROOT
ATOM      1  C   UNL     1      41.389  58.012  45.278  1.00  0.00     0.000 C 
ENDROOT
BRANCH   1   2
ATOM      2  C   UNL     1      42.528  57.170  44.678  1.00  0.00     0.000 C 
BRANCH   2   3
ATOM      3  C   UNL     1      43.941  57.667  45.059  1.00  0.00     0.000 C 
BRANCH   3   4
ATOM      4  C   UNL     1      44.135  57.950  46.561  1.00  0.00     0.000 C 
BRANCH   4   5
ATOM      5  C   UNL     1      44.244  56.703  47.464  1.00  0.00     0.000 C 
BRANCH   5   6
ATOM      6  C   UNL     1      45.665  56.429  48.002  1.00  0.00     0.000 C 
BRANCH   6   7
ATOM      7  C   UNL     1      46.769  56.506  46.930  1.00  0.00     0.000 C 
BRANCH   7   8
ATOM      8  C   UNL     1      47.090  55.135  46.303  1.00  0.00     0.000 C 
BRANCH   8   9
ATOM      9  C   UNL     1      48.091  55.247  45.141  1.00  0.00     0.000 C 
BRANCH   9  10
ATOM     10  C   UNL     1      48.728  53.891  44.788  1.00  0.00     0.006 C 
BRANCH  10  11
ATOM     11  C   UNL     1      49.253  53.851  43.347  1.00  0.00     0.053 C 
BRANCH  11  12
ATOM     12  C   UNL     1      48.249  54.382  42.369  1.00  0.00     0.041 C 
ATOM     13  O   UNL     1      47.164  53.771  42.179  1.00  0.00    -0.550 OA
ATOM     14  O   UNL     1      48.508  55.558  41.676  1.00  0.00    -0.550 OA
ENDBRANCH  11  12
ENDBRANCH  10  11
ENDBRANCH   9  10
ENDBRANCH   8   9
ENDBRANCH   7   8
ENDBRANCH   6   7
ENDBRANCH   5   6
ENDBRANCH   4   5
ENDBRANCH   3   4
ENDBRANCH   2   3
ENDBRANCH   1   2
BRANCH   1  15
ATOM     15  C   UNL     1      40.254  57.153  45.859  1.00  0.00     0.000 C 
BRANCH  15  16
ATOM     16  C   UNL     1      40.484  56.786  47.332  1.00  0.00     0.000 C 
BRANCH  16  17
ATOM     17  C   UNL     1      39.570  57.573  48.288  1.00  0.00     0.000 C 
BRANCH  17  18
ATOM     18  C   UNL     1      40.351  58.167  49.479  1.00  0.00    -0.000 C 
BRANCH  18  19
ATOM     19  C   UNL     1      41.741  58.716  49.101  1.00  0.00    -0.000 C 
BRANCH  19  20
ATOM     20  C   UNL     1      41.725  60.012  48.273  1.00  0.00    -0.000 C 
BRANCH  20  21
ATOM     21  C   UNL     1      41.952  61.270  49.130  1.00  0.00    -0.000 C 
BRANCH  21  22
ATOM     22  C   UNL     1      43.279  61.220  49.905  1.00  0.00    -0.000 C 
BRANCH  22  23
ATOM     23  C   UNL     1      44.507  61.199  48.981  1.00  0.00    -0.000 C 
BRANCH  23  24
ATOM     24  C   UNL     1      45.454  60.027  49.285  1.00  0.00    -0.000 C 
BRANCH  24  25
ATOM     25  C   UNL     1      44.859  59.029  50.289  1.00  0.00    -0.003 C 
ATOM     26  C   UNL     1      45.866  58.684  51.381  1.00  0.00     0.004 C 
ENDBRANCH  24  25
ENDBRANCH  23  24
ENDBRANCH  22  23
ENDBRANCH  21  22
ENDBRANCH  20  21
ENDBRANCH  19  20
ENDBRANCH  18  19
ENDBRANCH  17  18
ENDBRANCH  16  17
ENDBRANCH  15  16
ENDBRANCH   1  15
TORSDOF 22
ENDMDL
MODEL 7
REMARK VINA RESULT:    -1.788      2.686      6.212
REMARK INTER + INTRA:          -6.855
REMARK INTER:                  -3.901
REMARK INTRA:                  -2.954
REMARK UNBOUND:                -2.767
REMARK SMILES CCCCCCCCCCCCCCCCCCCCCCCC(=O)[O-]
REMARK SMILES IDX 13 1 14 2 15 3 16 4 17 5 18 6 19 7 20 8 21 9 22 10 23 11
REMARK SMILES IDX 24 12 25 13 26 14 12 15 11 16 10 17 9 18 8 19 7 20 6 21 5 22
REMARK SMILES IDX 4 23 3 24 2 25 1 26
REMARK H PARENT
REMARK Flexibility Score: inf
ROOT
ATOM      1  C   UNL     1      46.173  57.729  48.817  1.00  0.00     0.000 C 
ENDROOT
BRANCH   1   2
ATOM      2  C   UNL     1      45.257  58.147  49.980  1.00  0.00     0.000 C 
BRANCH   2   3
ATOM      3  C   UNL     1      45.323  59.654  50.319  1.00  0.00     0.000 C 
BRANCH   3   4
ATOM      4  C   UNL     1      45.370  60.583  49.090  1.00  0.00     0.000 C 
BRANCH   4   5
ATOM      5  C   UNL     1      44.388  61.772  49.119  1.00  0.00     0.000 C 
BRANCH   5   6
ATOM      6  C   UNL     1      43.063  61.487  49.859  1.00  0.00     0.000 C 
BRANCH   6   7
ATOM      7  C   UNL     1      41.841  61.354  48.932  1.00  0.00     0.000 C 
BRANCH   7   8
ATOM      8  C   UNL     1      41.696  59.942  48.332  1.00  0.00     0.000 C 
BRANCH   8   9
ATOM      9  C   UNL     1      41.866  58.840  49.393  1.00  0.00     0.000 C 
BRANCH   9  10
ATOM     10  C   UNL     1      41.226  57.510  48.956  1.00  0.00     0.006 C 
BRANCH  10  11
ATOM     11  C   UNL     1      40.012  57.720  48.041  1.00  0.00     0.053 C 
BRANCH  11  12
ATOM     12  C   UNL     1      40.084  56.870  46.810  1.00  0.00     0.041 C 
ATOM     13  O   UNL     1      39.953  55.620  46.893  1.00  0.00    -0.550 OA
ATOM     14  O   UNL     1      40.285  57.460  45.567  1.00  0.00    -0.550 OA
ENDBRANCH  11  12
ENDBRANCH  10  11
ENDBRANCH   9  10
ENDBRANCH   8   9
ENDBRANCH   7   8
ENDBRANCH   6   7
ENDBRANCH   5   6
ENDBRANCH   4   5
ENDBRANCH   3   4
ENDBRANCH   2   3
ENDBRANCH   1   2
BRANCH   1  15
ATOM     15  C   UNL     1      45.625  56.530  48.027  1.00  0.00     0.000 C 
BRANCH  15  16
ATOM     16  C   UNL     1      44.251  56.812  47.401  1.00  0.00     0.000 C 
BRANCH  16  17
ATOM     17  C   UNL     1      44.214  58.144  46.630  1.00  0.00     0.000 C 
BRANCH  17  18
ATOM     18  C   UNL     1      43.472  58.013  45.283  1.00  0.00    -0.000 C 
BRANCH  18  19
ATOM     19  C   UNL     1      44.090  56.971  44.329  1.00  0.00    -0.000 C 
BRANCH  19  20
ATOM     20  C   UNL     1      45.551  57.242  43.930  1.00  0.00    -0.000 C 
BRANCH  20  21
ATOM     21  C   UNL     1      46.365  55.951  43.733  1.00  0.00    -0.000 C 
BRANCH  21  22
ATOM     22  C   UNL     1      47.554  56.148  42.779  1.00  0.00    -0.000 C 
BRANCH  22  23
ATOM     23  C   UNL     1      48.214  54.821  42.369  1.00  0.00    -0.000 C 
BRANCH  23  24
ATOM     24  C   UNL     1      49.646  54.683  42.909  1.00  0.00    -0.000 C 
BRANCH  24  25
ATOM     25  C   UNL     1      49.694  54.557  44.439  1.00  0.00    -0.003 C 
ATOM     26  C   UNL     1      48.858  53.374  44.918  1.00  0.00     0.004 C 
ENDBRANCH  24  25
ENDBRANCH  23  24
ENDBRANCH  22  23
ENDBRANCH  21  22
ENDBRANCH  20  21
ENDBRANCH  19  20
ENDBRANCH  18  19
ENDBRANCH  17  18
ENDBRANCH  16  17
ENDBRANCH  15  16
ENDBRANCH   1  15
TORSDOF 22
ENDMDL
MODEL 8
REMARK VINA RESULT:    -1.739      3.674      7.474
REMARK INTER + INTRA:          -6.743
REMARK INTER:                  -4.629
REMARK INTRA:                  -2.114
REMARK UNBOUND:                -2.767
REMARK SMILES CCCCCCCCCCCCCCCCCCCCCCCC(=O)[O-]
REMARK SMILES IDX 13 1 14 2 15 3 16 4 17 5 18 6 19 7 20 8 21 9 22 10 23 11
REMARK SMILES IDX 24 12 25 13 26 14 12 15 11 16 10 17 9 18 8 19 7 20 6 21 5 22
REMARK SMILES IDX 4 23 3 24 2 25 1 26
REMARK H PARENT
REMARK Flexibility Score: inf
ROOT
ATOM      1  C   UNL     1      43.791  57.609  44.737  1.00  0.00     0.000 C 
ENDROOT
BRANCH   1   2
ATOM      2  C   UNL     1      42.410  56.975  44.498  1.00  0.00     0.000 C 
BRANCH   2   3
ATOM      3  C   UNL     1      41.227  57.863  44.949  1.00  0.00     0.000 C 
BRANCH   3   4
ATOM      4  C   UNL     1      40.162  57.129  45.787  1.00  0.00     0.000 C 
BRANCH   4   5
ATOM      5  C   UNL     1      40.525  56.901  47.269  1.00  0.00     0.000 C 
BRANCH   5   6
ATOM      6  C   UNL     1      39.731  57.779  48.261  1.00  0.00     0.000 C 
BRANCH   6   7
ATOM      7  C   UNL     1      40.500  58.122  49.551  1.00  0.00     0.000 C 
BRANCH   7   8
ATOM      8  C   UNL     1      41.889  58.729  49.275  1.00  0.00     0.000 C 
BRANCH   8   9
ATOM      9  C   UNL     1      41.824  59.906  48.286  1.00  0.00     0.000 C 
BRANCH   9  10
ATOM     10  C   UNL     1      42.147  61.251  48.962  1.00  0.00     0.006 C 
BRANCH  10  11
ATOM     11  C   UNL     1      43.273  61.127  49.996  1.00  0.00     0.053 C 
BRANCH  11  12
ATOM     12  C   UNL     1      44.616  60.981  49.348  1.00  0.00     0.041 C 
ATOM     13  O   UNL     1      45.196  59.863  49.336  1.00  0.00    -0.550 OA
ATOM     14  O   UNL     1      45.222  62.078  48.747  1.00  0.00    -0.550 OA
ENDBRANCH  11  12
ENDBRANCH  10  11
ENDBRANCH   9  10
ENDBRANCH   8   9
ENDBRANCH   7   8
ENDBRANCH   6   7
ENDBRANCH   5   6
ENDBRANCH   4   5
ENDBRANCH   3   4
ENDBRANCH   2   3
ENDBRANCH   1   2
BRANCH   1  15
ATOM     15  C   UNL     1      43.996  58.062  46.192  1.00  0.00     0.000 C 
BRANCH  15  16
ATOM     16  C   UNL     1      43.854  56.908  47.196  1.00  0.00     0.000 C 
BRANCH  16  17
ATOM     17  C   UNL     1      45.063  56.796  48.143  1.00  0.00     0.000 C 
BRANCH  17  18
ATOM     18  C   UNL     1      46.398  56.733  47.373  1.00  0.00    -0.000 C 
BRANCH  18  19
ATOM     19  C   UNL     1      46.665  55.373  46.698  1.00  0.00    -0.000 C 
BRANCH  19  20
ATOM     20  C   UNL     1      47.802  55.373  45.662  1.00  0.00    -0.000 C 
BRANCH  20  21
ATOM     21  C   UNL     1      48.305  53.957  45.327  1.00  0.00    -0.000 C 
BRANCH  21  22
ATOM     22  C   UNL     1      49.641  53.974  44.567  1.00  0.00    -0.000 C 
BRANCH  22  23
ATOM     23  C   UNL     1      49.985  55.362  44.001  1.00  0.00    -0.000 C 
BRANCH  23  24
ATOM     24  C   UNL     1      49.854  55.424  42.471  1.00  0.00    -0.000 C 
BRANCH  24  25
ATOM     25  C   UNL     1      48.410  55.665  42.008  1.00  0.00    -0.003 C 
ATOM     26  C   UNL     1      47.631  54.355  41.939  1.00  0.00     0.004 C 
ENDBRANCH  24  25
ENDBRANCH  23  24
ENDBRANCH  22  23
ENDBRANCH  21  22
ENDBRANCH  20  21
ENDBRANCH  19  20
ENDBRANCH  18  19
ENDBRANCH  17  18
ENDBRANCH  16  17
ENDBRANCH  15  16
ENDBRANCH   1  15
TORSDOF 22
ENDMDL
MODEL 9
REMARK VINA RESULT:    -1.518      4.009      4.970
REMARK INTER + INTRA:          -6.239
REMARK INTER:                  -3.396
REMARK INTRA:                  -2.843
REMARK UNBOUND:                -2.767
REMARK SMILES CCCCCCCCCCCCCCCCCCCCCCCC(=O)[O-]
REMARK SMILES IDX 13 1 14 2 15 3 16 4 17 5 18 6 19 7 20 8 21 9 22 10 23 11
REMARK SMILES IDX 24 12 25 13 26 14 12 15 11 16 10 17 9 18 8 19 7 20 6 21 5 22
REMARK SMILES IDX 4 23 3 24 2 25 1 26
REMARK H PARENT
REMARK Flexibility Score: inf
ROOT
ATOM      1  C   UNL     1      46.121  57.685  48.728  1.00  0.00     0.000 C 
ENDROOT
BRANCH   1   2
ATOM      2  C   UNL     1      45.376  56.575  47.968  1.00  0.00     0.000 C 
BRANCH   2   3
ATOM      3  C   UNL     1      43.947  56.968  47.528  1.00  0.00     0.000 C 
BRANCH   3   4
ATOM      4  C   UNL     1      43.893  58.031  46.413  1.00  0.00     0.000 C 
BRANCH   4   5
ATOM      5  C   UNL     1      43.736  57.482  44.980  1.00  0.00     0.000 C 
BRANCH   5   6
ATOM      6  C   UNL     1      45.024  57.543  44.130  1.00  0.00     0.000 C 
BRANCH   6   7
ATOM      7  C   UNL     1      45.796  56.212  44.063  1.00  0.00     0.000 C 
BRANCH   7   8
ATOM      8  C   UNL     1      47.002  56.268  43.105  1.00  0.00     0.000 C 
BRANCH   8   9
ATOM      9  C   UNL     1      47.404  54.874  42.594  1.00  0.00     0.000 C 
BRANCH   9  10
ATOM     10  C   UNL     1      48.857  54.836  42.089  1.00  0.00     0.006 C 
BRANCH  10  11
ATOM     11  C   UNL     1      49.756  53.954  42.967  1.00  0.00     0.053 C 
BRANCH  11  12
ATOM     12  C   UNL     1      49.626  54.292  44.421  1.00  0.00     0.041 C 
ATOM     13  O   UNL     1      49.075  53.483  45.213  1.00  0.00    -0.550 OA
ATOM     14  O   UNL     1      50.125  55.497  44.902  1.00  0.00    -0.550 OA
ENDBRANCH  11  12
ENDBRANCH  10  11
ENDBRANCH   9  10
ENDBRANCH   8   9
ENDBRANCH   7   8
ENDBRANCH   6   7
ENDBRANCH   5   6
ENDBRANCH   4   5
ENDBRANCH   3   4
ENDBRANCH   2   3
ENDBRANCH   1   2
BRANCH   1  15
ATOM     15  C   UNL     1      45.238  58.391  49.770  1.00  0.00     0.000 C 
BRANCH  15  16
ATOM     16  C   UNL     1      45.450  59.912  49.792  1.00  0.00     0.000 C 
BRANCH  16  17
ATOM     17  C   UNL     1      44.452  60.662  48.891  1.00  0.00     0.000 C 
BRANCH  17  18
ATOM     18  C   UNL     1      43.308  61.304  49.703  1.00  0.00    -0.000 C 
BRANCH  18  19
ATOM     19  C   UNL     1      41.922  61.170  49.042  1.00  0.00    -0.000 C 
BRANCH  19  20
ATOM     20  C   UNL     1      41.659  59.819  48.354  1.00  0.00    -0.000 C 
BRANCH  20  21
ATOM     21  C   UNL     1      41.547  58.653  49.352  1.00  0.00    -0.000 C 
BRANCH  21  22
ATOM     22  C   UNL     1      40.128  58.065  49.410  1.00  0.00    -0.000 C 
BRANCH  22  23
ATOM     23  C   UNL     1      39.610  57.622  48.031  1.00  0.00    -0.000 C 
BRANCH  23  24
ATOM     24  C   UNL     1      40.390  56.423  47.467  1.00  0.00    -0.000 C 
BRANCH  24  25
ATOM     25  C   UNL     1      40.584  56.504  45.946  1.00  0.00    -0.003 C 
ATOM     26  C   UNL     1      40.155  57.867  45.411  1.00  0.00     0.004 C 
ENDBRANCH  24  25
ENDBRANCH  23  24
ENDBRANCH  22  23
ENDBRANCH  21  22
ENDBRANCH  20  21
ENDBRANCH  19  20
ENDBRANCH  18  19
ENDBRANCH  17  18
ENDBRANCH  16  17
ENDBRANCH  15  16
ENDBRANCH   1  15
TORSDOF 22
ENDMDL
