MODEL 1
REMARK VINA RESULT:    -6.467      0.000      0.000
REMARK INTER + INTRA:         -11.044
REMARK INTER:                  -9.491
REMARK INTRA:                  -1.553
REMARK UNBOUND:                -1.553
REMARK SMILES O=c1c(O[C@H]2O[C@H](CO)[C@H](O)[C@H](O)[C@@H]2O)c(-c2ccc(O)c(O)c2)oc2cc(O)cc(O)c12
REMARK SMILES IDX 4 1 3 2 16 3 25 4 2 5 26 6 1 7 33 8 27 9 31 10 28 11 30 12
REMARK SMILES IDX 17 13 18 14 19 15 20 16 24 17 22 18 21 19 23 21 32 23 29 25
REMARK SMILES IDX 5 27 14 28 6 29 12 30 7 31 10 32 15 33 13 35 8 37 9 38 11 40
REMARK H PARENT 21 20 23 22 32 24 29 26 15 34 13 36 9 39 11 41
REMARK Flexibility Score: inf
ROOT
ATOM      1  O   UNL     1      13.448  35.080 123.182  1.00  0.00    -0.454 OA
ENDROOT
BRANCH   1   2
ATOM      2  C   UNL     1      12.826  35.904 124.123  1.00  0.00     0.214 A 
ATOM      3  C   UNL     1      13.423  37.110 124.531  1.00  0.00     0.180 A 
ATOM      4  O   UNL     1      12.754  37.946 125.320  1.00  0.00    -0.452 OA
ATOM      5  C   UNL     1      11.565  35.564 124.625  1.00  0.00     0.239 A 
ATOM      6  C   UNL     1      11.540  37.681 125.795  1.00  0.00     0.146 A 
ATOM      7  O   UNL     1      11.040  34.469 124.280  1.00  0.00    -0.285 OA
ATOM      8  C   UNL     1      10.895  36.458 125.487  1.00  0.00     0.111 A 
ATOM      9  C   UNL     1      10.908  38.625 126.607  1.00  0.00     0.094 A 
ATOM     10  C   UNL     1       9.615  36.198 126.032  1.00  0.00     0.134 A 
ATOM     11  C   UNL     1       9.639  38.371 127.128  1.00  0.00     0.123 A 
ATOM     12  C   UNL     1       9.000  37.159 126.850  1.00  0.00     0.093 A 
BRANCH   3  13
ATOM     13  C   UNL     1      14.790  37.478 124.111  1.00  0.00     0.025 A 
ATOM     14  C   UNL     1      14.999  38.548 123.222  1.00  0.00     0.016 A 
ATOM     15  C   UNL     1      16.286  38.854 122.781  1.00  0.00     0.051 A 
ATOM     16  C   UNL     1      17.384  38.106 123.228  1.00  0.00     0.157 A 
ATOM     17  C   UNL     1      15.887  36.723 124.548  1.00  0.00     0.062 A 
ATOM     18  C   UNL     1      17.182  37.042 124.125  1.00  0.00     0.158 A 
BRANCH  16  19
ATOM     19  O   UNL     1      18.667  38.412 122.782  1.00  0.00    -0.504 OA
ATOM     20  H   UNL     1      19.121  39.277 123.040  1.00  0.00     0.293 HD
ENDBRANCH  16  19
BRANCH  18  21
ATOM     21  O   UNL     1      18.256  36.293 124.605  1.00  0.00    -0.504 OA
ATOM     22  H   UNL     1      18.292  35.287 124.513  1.00  0.00     0.293 HD
ENDBRANCH  18  21
ENDBRANCH   3  13
BRANCH  10  23
ATOM     23  O   UNL     1       8.956  34.997 125.773  1.00  0.00    -0.507 OA
ATOM     24  H   UNL     1       9.147  34.159 126.308  1.00  0.00     0.293 HD
ENDBRANCH  10  23
BRANCH  11  25
ATOM     25  O   UNL     1       9.018  39.333 127.921  1.00  0.00    -0.508 OA
ATOM     26  H   UNL     1       8.918  40.295 127.612  1.00  0.00     0.293 HD
ENDBRANCH  11  25
ENDBRANCH   1   2
BRANCH   1  27
ATOM     27  C   UNL     1      13.174  35.215 121.782  1.00  0.00     0.339 C 
ATOM     28  C   UNL     1      12.810  33.848 121.164  1.00  0.00     0.214 C 
ATOM     29  O   UNL     1      14.262  35.831 121.105  1.00  0.00    -0.332 OA
ATOM     30  C   UNL     1      14.057  32.946 121.095  1.00  0.00     0.180 C 
ATOM     31  C   UNL     1      15.440  35.042 121.173  1.00  0.00     0.179 C 
ATOM     32  C   UNL     1      15.250  33.688 120.453  1.00  0.00     0.177 C 
BRANCH  28  33
ATOM     33  O   UNL     1      12.278  34.043 119.878  1.00  0.00    -0.384 OA
ATOM     34  H   UNL     1      12.091  35.015 119.782  1.00  0.00     0.211 HD
ENDBRANCH  28  33
BRANCH  30  35
ATOM     35  O   UNL     1      13.782  31.725 120.450  1.00  0.00    -0.387 OA
ATOM     36  H   UNL     1      13.786  31.005 121.131  1.00  0.00     0.211 HD
ENDBRANCH  30  35
BRANCH  31  37
ATOM     37  C   UNL     1      16.627  35.835 120.593  1.00  0.00     0.191 C 
BRANCH  37  38
ATOM     38  O   UNL     1      17.849  35.395 121.126  1.00  0.00    -0.394 OA
ATOM     39  H   UNL     1      18.558  35.981 120.749  1.00  0.00     0.210 HD
ENDBRANCH  37  38
ENDBRANCH  31  37
BRANCH  32  40
ATOM     40  O   UNL     1      15.032  33.886 119.077  1.00  0.00    -0.387 OA
ATOM     41  H   UNL     1      14.864  32.993 118.679  1.00  0.00     0.211 HD
ENDBRANCH  32  40
ENDBRANCH   1  27
TORSDOF 12
ENDMDL
MODEL 2
REMARK VINA RESULT:    -6.281      2.437      3.495
REMARK INTER + INTRA:         -10.771
REMARK INTER:                  -9.339
REMARK INTRA:                  -1.432
REMARK UNBOUND:                -1.553
REMARK SMILES O=c1c(O[C@H]2O[C@H](CO)[C@H](O)[C@H](O)[C@@H]2O)c(-c2ccc(O)c(O)c2)oc2cc(O)cc(O)c12
REMARK SMILES IDX 4 1 3 2 16 3 25 4 2 5 26 6 1 7 33 8 27 9 31 10 28 11 30 12
REMARK SMILES IDX 17 13 18 14 19 15 20 16 24 17 22 18 21 19 23 21 32 23 29 25
REMARK SMILES IDX 5 27 14 28 6 29 12 30 7 31 10 32 15 33 13 35 8 37 9 38 11 40
REMARK H PARENT 21 20 23 22 32 24 29 26 15 34 13 36 9 39 11 41
REMARK Flexibility Score: inf
ROOT
ATOM      1  O   UNL     1      14.294  36.622 123.877  1.00  0.00    -0.454 OA
ENDROOT
BRANCH   1   2
ATOM      2  C   UNL     1      14.250  37.910 124.417  1.00  0.00     0.214 A 
ATOM      3  C   UNL     1      14.768  39.007 123.705  1.00  0.00     0.180 A 
ATOM      4  O   UNL     1      14.593  40.240 124.171  1.00  0.00    -0.452 OA
ATOM      5  C   UNL     1      13.631  38.131 125.652  1.00  0.00     0.239 A 
ATOM      6  C   UNL     1      13.982  40.501 125.323  1.00  0.00     0.146 A 
ATOM      7  O   UNL     1      13.190  37.144 126.304  1.00  0.00    -0.285 OA
ATOM      8  C   UNL     1      13.491  39.449 126.135  1.00  0.00     0.111 A 
ATOM      9  C   UNL     1      13.833  41.830 125.727  1.00  0.00     0.094 A 
ATOM     10  C   UNL     1      12.870  39.762 127.367  1.00  0.00     0.134 A 
ATOM     11  C   UNL     1      13.205  42.134 126.935  1.00  0.00     0.123 A 
ATOM     12  C   UNL     1      12.735  41.104 127.756  1.00  0.00     0.093 A 
BRANCH   3  13
ATOM     13  C   UNL     1      15.515  38.828 122.443  1.00  0.00     0.025 A 
ATOM     14  C   UNL     1      14.833  38.752 121.216  1.00  0.00     0.016 A 
ATOM     15  C   UNL     1      15.537  38.524 120.034  1.00  0.00     0.051 A 
ATOM     16  C   UNL     1      16.931  38.379 120.058  1.00  0.00     0.157 A 
ATOM     17  C   UNL     1      16.907  38.672 122.468  1.00  0.00     0.062 A 
ATOM     18  C   UNL     1      17.619  38.466 121.280  1.00  0.00     0.158 A 
BRANCH  16  19
ATOM     19  O   UNL     1      17.630  38.147 118.875  1.00  0.00    -0.504 OA
ATOM     20  H   UNL     1      18.589  38.446 118.764  1.00  0.00     0.293 HD
ENDBRANCH  16  19
BRANCH  18  21
ATOM     21  O   UNL     1      19.007  38.349 121.334  1.00  0.00    -0.504 OA
ATOM     22  H   UNL     1      19.503  38.235 122.208  1.00  0.00     0.293 HD
ENDBRANCH  18  21
ENDBRANCH   3  13
BRANCH  10  23
ATOM     23  O   UNL     1      12.394  38.756 128.207  1.00  0.00    -0.507 OA
ATOM     24  H   UNL     1      11.594  38.188 127.956  1.00  0.00     0.293 HD
ENDBRANCH  10  23
BRANCH  11  25
ATOM     25  O   UNL     1      13.051  43.466 127.311  1.00  0.00    -0.508 OA
ATOM     26  H   UNL     1      12.557  44.131 126.724  1.00  0.00     0.293 HD
ENDBRANCH  11  25
ENDBRANCH   1   2
BRANCH   1  27
ATOM     27  C   UNL     1      13.211  36.111 123.089  1.00  0.00     0.339 C 
ATOM     28  C   UNL     1      12.612  34.848 123.743  1.00  0.00     0.214 C 
ATOM     29  O   UNL     1      13.622  35.873 121.750  1.00  0.00    -0.332 OA
ATOM     30  C   UNL     1      13.595  33.668 123.622  1.00  0.00     0.180 C 
ATOM     31  C   UNL     1      14.630  34.876 121.676  1.00  0.00     0.179 C 
ATOM     32  C   UNL     1      14.104  33.510 122.172  1.00  0.00     0.177 C 
BRANCH  28  33
ATOM     33  O   UNL     1      11.393  34.532 123.118  1.00  0.00    -0.384 OA
ATOM     34  H   UNL     1      11.299  33.543 123.139  1.00  0.00     0.211 HD
ENDBRANCH  28  33
BRANCH  30  35
ATOM     35  O   UNL     1      13.042  32.475 124.123  1.00  0.00    -0.387 OA
ATOM     36  H   UNL     1      13.190  32.449 125.103  1.00  0.00     0.211 HD
ENDBRANCH  30  35
BRANCH  31  37
ATOM     37  C   UNL     1      15.169  34.792 120.236  1.00  0.00     0.191 C 
BRANCH  37  38
ATOM     38  O   UNL     1      15.608  33.494 119.927  1.00  0.00    -0.394 OA
ATOM     39  H   UNL     1      16.521  33.581 119.542  1.00  0.00     0.210 HD
ENDBRANCH  37  38
ENDBRANCH  31  37
BRANCH  32  40
ATOM     40  O   UNL     1      13.077  33.041 121.331  1.00  0.00    -0.387 OA
ATOM     41  H   UNL     1      13.295  32.099 121.106  1.00  0.00     0.211 HD
ENDBRANCH  32  40
ENDBRANCH   1  27
TORSDOF 12
ENDMDL
MODEL 3
REMARK VINA RESULT:    -6.211      2.351      8.083
REMARK INTER + INTRA:         -10.669
REMARK INTER:                  -9.353
REMARK INTRA:                  -1.316
REMARK UNBOUND:                -1.553
REMARK SMILES O=c1c(O[C@H]2O[C@H](CO)[C@H](O)[C@H](O)[C@@H]2O)c(-c2ccc(O)c(O)c2)oc2cc(O)cc(O)c12
REMARK SMILES IDX 4 1 3 2 16 3 25 4 2 5 26 6 1 7 33 8 27 9 31 10 28 11 30 12
REMARK SMILES IDX 17 13 18 14 19 15 20 16 24 17 22 18 21 19 23 21 32 23 29 25
REMARK SMILES IDX 5 27 14 28 6 29 12 30 7 31 10 32 15 33 13 35 8 37 9 38 11 40
REMARK H PARENT 21 20 23 22 32 24 29 26 15 34 13 36 9 39 11 41
REMARK Flexibility Score: inf
ROOT
ATOM      1  O   UNL     1      14.114  38.796 124.054  1.00  0.00    -0.454 OA
ENDROOT
BRANCH   1   2
ATOM      2  C   UNL     1      14.857  37.887 123.296  1.00  0.00     0.214 A 
ATOM      3  C   UNL     1      14.481  36.534 123.221  1.00  0.00     0.180 A 
ATOM      4  O   UNL     1      15.115  35.716 122.386  1.00  0.00    -0.452 OA
ATOM      5  C   UNL     1      15.954  38.331 122.549  1.00  0.00     0.239 A 
ATOM      6  C   UNL     1      16.141  36.100 121.632  1.00  0.00     0.146 A 
ATOM      7  O   UNL     1      16.309  39.539 122.635  1.00  0.00    -0.285 OA
ATOM      8  C   UNL     1      16.627  37.430 121.697  1.00  0.00     0.111 A 
ATOM      9  C   UNL     1      16.739  35.174 120.774  1.00  0.00     0.094 A 
ATOM     10  C   UNL     1      17.738  37.797 120.901  1.00  0.00     0.134 A 
ATOM     11  C   UNL     1      17.823  35.545 119.979  1.00  0.00     0.123 A 
ATOM     12  C   UNL     1      18.326  36.849 120.050  1.00  0.00     0.093 A 
BRANCH   3  13
ATOM     13  C   UNL     1      13.393  35.985 124.056  1.00  0.00     0.025 A 
ATOM     14  C   UNL     1      13.687  35.200 125.184  1.00  0.00     0.016 A 
ATOM     15  C   UNL     1      12.657  34.634 125.934  1.00  0.00     0.051 A 
ATOM     16  C   UNL     1      11.319  34.854 125.577  1.00  0.00     0.157 A 
ATOM     17  C   UNL     1      12.056  36.195 123.693  1.00  0.00     0.062 A 
ATOM     18  C   UNL     1      11.018  35.648 124.457  1.00  0.00     0.158 A 
BRANCH  16  19
ATOM     19  O   UNL     1      10.292  34.284 126.327  1.00  0.00    -0.504 OA
ATOM     20  H   UNL     1      10.316  33.310 126.597  1.00  0.00     0.293 HD
ENDBRANCH  16  19
BRANCH  18  21
ATOM     21  O   UNL     1       9.698  35.903 124.089  1.00  0.00    -0.504 OA
ATOM     22  H   UNL     1       9.464  36.494 123.302  1.00  0.00     0.293 HD
ENDBRANCH  18  21
ENDBRANCH   3  13
BRANCH  10  23
ATOM     23  O   UNL     1      18.262  39.088 120.952  1.00  0.00    -0.507 OA
ATOM     24  H   UNL     1      18.370  39.652 120.119  1.00  0.00     0.293 HD
ENDBRANCH  10  23
BRANCH  11  25
ATOM     25  O   UNL     1      18.393  34.612 119.118  1.00  0.00    -0.508 OA
ATOM     26  H   UNL     1      19.161  34.856 118.500  1.00  0.00     0.293 HD
ENDBRANCH  11  25
ENDBRANCH   1   2
BRANCH   1  27
ATOM     27  C   UNL     1      14.466  39.091 125.411  1.00  0.00     0.339 C 
ATOM     28  C   UNL     1      13.420  38.504 126.383  1.00  0.00     0.214 C 
ATOM     29  O   UNL     1      14.644  40.487 125.601  1.00  0.00    -0.332 OA
ATOM     30  C   UNL     1      12.100  39.292 126.284  1.00  0.00     0.180 C 
ATOM     31  C   UNL     1      13.443  41.209 125.370  1.00  0.00     0.179 C 
ATOM     32  C   UNL     1      12.347  40.813 126.385  1.00  0.00     0.177 C 
BRANCH  28  33
ATOM     33  O   UNL     1      13.921  38.556 127.695  1.00  0.00    -0.384 OA
ATOM     34  H   UNL     1      14.899  38.726 127.630  1.00  0.00     0.211 HD
ENDBRANCH  28  33
BRANCH  30  35
ATOM     35  O   UNL     1      11.154  38.844 127.225  1.00  0.00    -0.387 OA
ATOM     36  H   UNL     1      10.653  39.630 127.563  1.00  0.00     0.211 HD
ENDBRANCH  30  35
BRANCH  31  37
ATOM     37  C   UNL     1      13.734  42.721 125.404  1.00  0.00     0.191 C 
BRANCH  37  38
ATOM     38  O   UNL     1      14.706  43.036 126.366  1.00  0.00    -0.394 OA
ATOM     39  H   UNL     1      14.226  43.187 127.224  1.00  0.00     0.210 HD
ENDBRANCH  37  38
ENDBRANCH  31  37
BRANCH  32  40
ATOM     40  O   UNL     1      12.731  41.171 127.691  1.00  0.00    -0.387 OA
ATOM     41  H   UNL     1      12.264  42.019 127.907  1.00  0.00     0.211 HD
ENDBRANCH  32  40
ENDBRANCH   1  27
TORSDOF 12
ENDMDL
MODEL 4
REMARK VINA RESULT:    -6.202      2.299      5.374
REMARK INTER + INTRA:         -10.656
REMARK INTER:                  -9.339
REMARK INTRA:                  -1.317
REMARK UNBOUND:                -1.553
REMARK SMILES O=c1c(O[C@H]2O[C@H](CO)[C@H](O)[C@H](O)[C@@H]2O)c(-c2ccc(O)c(O)c2)oc2cc(O)cc(O)c12
REMARK SMILES IDX 4 1 3 2 16 3 25 4 2 5 26 6 1 7 33 8 27 9 31 10 28 11 30 12
REMARK SMILES IDX 17 13 18 14 19 15 20 16 24 17 22 18 21 19 23 21 32 23 29 25
REMARK SMILES IDX 5 27 14 28 6 29 12 30 7 31 10 32 15 33 13 35 8 37 9 38 11 40
REMARK H PARENT 21 20 23 22 32 24 29 26 15 34 13 36 9 39 11 41
REMARK Flexibility Score: inf
ROOT
ATOM      1  O   UNL     1      14.364  37.689 123.420  1.00  0.00    -0.454 OA
ENDROOT
BRANCH   1   2
ATOM      2  C   UNL     1      13.685  38.428 124.392  1.00  0.00     0.214 A 
ATOM      3  C   UNL     1      12.738  37.816 125.232  1.00  0.00     0.180 A 
ATOM      4  O   UNL     1      12.207  38.502 126.240  1.00  0.00    -0.452 OA
ATOM      5  C   UNL     1      13.989  39.781 124.580  1.00  0.00     0.239 A 
ATOM      6  C   UNL     1      12.491  39.780 126.479  1.00  0.00     0.146 A 
ATOM      7  O   UNL     1      14.819  40.338 123.809  1.00  0.00    -0.285 OA
ATOM      8  C   UNL     1      13.383  40.490 125.638  1.00  0.00     0.111 A 
ATOM      9  C   UNL     1      11.894  40.417 127.569  1.00  0.00     0.094 A 
ATOM     10  C   UNL     1      13.641  41.856 125.905  1.00  0.00     0.134 A 
ATOM     11  C   UNL     1      12.164  41.758 127.838  1.00  0.00     0.123 A 
ATOM     12  C   UNL     1      13.026  42.477 127.004  1.00  0.00     0.093 A 
BRANCH   3  13
ATOM     13  C   UNL     1      12.306  36.419 125.024  1.00  0.00     0.025 A 
ATOM     14  C   UNL     1      12.976  35.363 125.666  1.00  0.00     0.016 A 
ATOM     15  C   UNL     1      12.603  34.042 125.420  1.00  0.00     0.051 A 
ATOM     16  C   UNL     1      11.550  33.756 124.539  1.00  0.00     0.157 A 
ATOM     17  C   UNL     1      11.262  36.133 124.135  1.00  0.00     0.062 A 
ATOM     18  C   UNL     1      10.870  34.810 123.903  1.00  0.00     0.158 A 
BRANCH  16  19
ATOM     19  O   UNL     1      11.183  32.435 124.293  1.00  0.00    -0.504 OA
ATOM     20  H   UNL     1      11.385  31.990 123.408  1.00  0.00     0.293 HD
ENDBRANCH  16  19
BRANCH  18  21
ATOM     21  O   UNL     1       9.805  34.559 123.039  1.00  0.00    -0.504 OA
ATOM     22  H   UNL     1       9.878  34.704 122.041  1.00  0.00     0.293 HD
ENDBRANCH  18  21
ENDBRANCH   3  13
BRANCH  10  23
ATOM     23  O   UNL     1      14.494  42.598 125.089  1.00  0.00    -0.507 OA
ATOM     24  H   UNL     1      15.459  42.327 124.942  1.00  0.00     0.293 HD
ENDBRANCH  10  23
BRANCH  11  25
ATOM     25  O   UNL     1      11.572  42.369 128.940  1.00  0.00    -0.508 OA
ATOM     26  H   UNL     1      10.710  42.900 128.857  1.00  0.00     0.293 HD
ENDBRANCH  11  25
ENDBRANCH   1   2
BRANCH   1  27
ATOM     27  C   UNL     1      15.491  36.873 123.761  1.00  0.00     0.339 C 
ATOM     28  C   UNL     1      16.810  37.630 123.498  1.00  0.00     0.214 C 
ATOM     29  O   UNL     1      15.447  35.628 123.078  1.00  0.00    -0.332 OA
ATOM     30  C   UNL     1      17.048  37.774 121.983  1.00  0.00     0.180 C 
ATOM     31  C   UNL     1      15.531  35.796 121.670  1.00  0.00     0.179 C 
ATOM     32  C   UNL     1      16.884  36.419 121.260  1.00  0.00     0.177 C 
BRANCH  28  33
ATOM     33  O   UNL     1      17.875  36.934 124.095  1.00  0.00    -0.384 OA
ATOM     34  H   UNL     1      17.814  37.089 125.076  1.00  0.00     0.211 HD
ENDBRANCH  28  33
BRANCH  30  35
ATOM     35  O   UNL     1      18.289  38.377 121.706  1.00  0.00    -0.387 OA
ATOM     36  H   UNL     1      18.576  38.099 120.799  1.00  0.00     0.211 HD
ENDBRANCH  30  35
BRANCH  31  37
ATOM     37  C   UNL     1      15.290  34.444 120.973  1.00  0.00     0.191 C 
BRANCH  37  38
ATOM     38  O   UNL     1      16.208  34.232 119.932  1.00  0.00    -0.394 OA
ATOM     39  H   UNL     1      15.773  34.545 119.094  1.00  0.00     0.210 HD
ENDBRANCH  37  38
ENDBRANCH  31  37
BRANCH  32  40
ATOM     40  O   UNL     1      17.944  35.551 121.578  1.00  0.00    -0.387 OA
ATOM     41  H   UNL     1      17.642  34.994 122.342  1.00  0.00     0.211 HD
ENDBRANCH  32  40
ENDBRANCH   1  27
TORSDOF 12
ENDMDL
MODEL 5
REMARK VINA RESULT:    -6.092      1.809      5.114
REMARK INTER + INTRA:         -10.494
REMARK INTER:                  -9.534
REMARK INTRA:                  -0.960
REMARK UNBOUND:                -1.553
REMARK SMILES O=c1c(O[C@H]2O[C@H](CO)[C@H](O)[C@H](O)[C@@H]2O)c(-c2ccc(O)c(O)c2)oc2cc(O)cc(O)c12
REMARK SMILES IDX 4 1 3 2 16 3 25 4 2 5 26 6 1 7 33 8 27 9 31 10 28 11 30 12
REMARK SMILES IDX 17 13 18 14 19 15 20 16 24 17 22 18 21 19 23 21 32 23 29 25
REMARK SMILES IDX 5 27 14 28 6 29 12 30 7 31 10 32 15 33 13 35 8 37 9 38 11 40
REMARK H PARENT 21 20 23 22 32 24 29 26 15 34 13 36 9 39 11 41
REMARK Flexibility Score: inf
ROOT
ATOM      1  O   UNL     1      15.293  37.852 122.365  1.00  0.00    -0.454 OA
ENDROOT
BRANCH   1   2
ATOM      2  C   UNL     1      14.290  37.927 123.335  1.00  0.00     0.214 A 
ATOM      3  C   UNL     1      13.511  36.801 123.655  1.00  0.00     0.180 A 
ATOM      4  O   UNL     1      12.659  36.853 124.675  1.00  0.00    -0.452 OA
ATOM      5  C   UNL     1      14.091  39.116 124.045  1.00  0.00     0.239 A 
ATOM      6  C   UNL     1      12.461  37.951 125.400  1.00  0.00     0.146 A 
ATOM      7  O   UNL     1      14.771  40.136 123.741  1.00  0.00    -0.285 OA
ATOM      8  C   UNL     1      13.155  39.149 125.100  1.00  0.00     0.111 A 
ATOM      9  C   UNL     1      11.554  37.910 126.461  1.00  0.00     0.094 A 
ATOM     10  C   UNL     1      12.899  40.306 125.875  1.00  0.00     0.134 A 
ATOM     11  C   UNL     1      11.317  39.047 127.232  1.00  0.00     0.123 A 
ATOM     12  C   UNL     1      11.980  40.243 126.934  1.00  0.00     0.093 A 
BRANCH   3  13
ATOM     13  C   UNL     1      13.608  35.547 122.880  1.00  0.00     0.025 A 
ATOM     14  C   UNL     1      13.608  34.303 123.535  1.00  0.00     0.016 A 
ATOM     15  C   UNL     1      13.760  33.124 122.805  1.00  0.00     0.051 A 
ATOM     16  C   UNL     1      13.903  33.169 121.411  1.00  0.00     0.157 A 
ATOM     17  C   UNL     1      13.763  35.592 121.488  1.00  0.00     0.062 A 
ATOM     18  C   UNL     1      13.892  34.410 120.750  1.00  0.00     0.158 A 
BRANCH  16  19
ATOM     19  O   UNL     1      14.059  31.990 120.685  1.00  0.00    -0.504 OA
ATOM     20  H   UNL     1      13.887  31.959 119.690  1.00  0.00     0.293 HD
ENDBRANCH  16  19
BRANCH  18  21
ATOM     21  O   UNL     1      14.010  34.487 119.363  1.00  0.00    -0.504 OA
ATOM     22  H   UNL     1      13.203  34.574 118.759  1.00  0.00     0.293 HD
ENDBRANCH  18  21
ENDBRANCH   3  13
BRANCH  10  23
ATOM     23  O   UNL     1      13.543  41.511 125.599  1.00  0.00    -0.507 OA
ATOM     24  H   UNL     1      13.206  42.143 124.883  1.00  0.00     0.293 HD
ENDBRANCH  10  23
BRANCH  11  25
ATOM     25  O   UNL     1      10.423  38.981 128.297  1.00  0.00    -0.508 OA
ATOM     26  H   UNL     1      10.618  39.432 129.185  1.00  0.00     0.293 HD
ENDBRANCH  11  25
ENDBRANCH   1   2
BRANCH   1  27
ATOM     27  C   UNL     1      16.655  37.592 122.726  1.00  0.00     0.339 C 
ATOM     28  C   UNL     1      17.496  38.884 122.641  1.00  0.00     0.214 C 
ATOM     29  O   UNL     1      17.204  36.548 121.934  1.00  0.00    -0.332 OA
ATOM     30  C   UNL     1      17.694  39.294 121.169  1.00  0.00     0.180 C 
ATOM     31  C   UNL     1      17.250  36.898 120.558  1.00  0.00     0.179 C 
ATOM     32  C   UNL     1      18.187  38.103 120.318  1.00  0.00     0.177 C 
BRANCH  28  33
ATOM     33  O   UNL     1      18.739  38.674 123.260  1.00  0.00    -0.384 OA
ATOM     34  H   UNL     1      19.434  39.067 122.667  1.00  0.00     0.211 HD
ENDBRANCH  28  33
BRANCH  30  35
ATOM     35  O   UNL     1      18.536  40.416 121.050  1.00  0.00    -0.387 OA
ATOM     36  H   UNL     1      17.983  41.195 120.787  1.00  0.00     0.211 HD
ENDBRANCH  30  35
BRANCH  31  37
ATOM     37  C   UNL     1      17.673  35.672 119.727  1.00  0.00     0.191 C 
BRANCH  37  38
ATOM     38  O   UNL     1      18.700  34.952 120.359  1.00  0.00    -0.394 OA
ATOM     39  H   UNL     1      18.396  34.768 121.288  1.00  0.00     0.210 HD
ENDBRANCH  37  38
ENDBRANCH  31  37
BRANCH  32  40
ATOM     40  O   UNL     1      19.514  37.771 120.646  1.00  0.00    -0.387 OA
ATOM     41  H   UNL     1      19.654  38.039 121.591  1.00  0.00     0.211 HD
ENDBRANCH  32  40
ENDBRANCH   1  27
TORSDOF 12
ENDMDL
MODEL 6
REMARK VINA RESULT:    -6.054      2.596      4.541
REMARK INTER + INTRA:         -10.438
REMARK INTER:                  -9.116
REMARK INTRA:                  -1.322
REMARK UNBOUND:                -1.553
REMARK SMILES O=c1c(O[C@H]2O[C@H](CO)[C@H](O)[C@H](O)[C@@H]2O)c(-c2ccc(O)c(O)c2)oc2cc(O)cc(O)c12
REMARK SMILES IDX 4 1 3 2 16 3 25 4 2 5 26 6 1 7 33 8 27 9 31 10 28 11 30 12
REMARK SMILES IDX 17 13 18 14 19 15 20 16 24 17 22 18 21 19 23 21 32 23 29 25
REMARK SMILES IDX 5 27 14 28 6 29 12 30 7 31 10 32 15 33 13 35 8 37 9 38 11 40
REMARK H PARENT 21 20 23 22 32 24 29 26 15 34 13 36 9 39 11 41
REMARK Flexibility Score: inf
ROOT
ATOM      1  O   UNL     1      12.971  37.049 125.283  1.00  0.00    -0.454 OA
ENDROOT
BRANCH   1   2
ATOM      2  C   UNL     1      13.355  38.363 125.564  1.00  0.00     0.214 A 
ATOM      3  C   UNL     1      14.480  38.934 124.942  1.00  0.00     0.180 A 
ATOM      4  O   UNL     1      14.747  40.225 125.114  1.00  0.00    -0.452 OA
ATOM      5  C   UNL     1      12.581  39.148 126.425  1.00  0.00     0.239 A 
ATOM      6  C   UNL     1      14.021  41.019 125.897  1.00  0.00     0.146 A 
ATOM      7  O   UNL     1      11.587  38.630 127.004  1.00  0.00    -0.285 OA
ATOM      8  C   UNL     1      12.911  40.507 126.613  1.00  0.00     0.111 A 
ATOM      9  C   UNL     1      14.369  42.367 126.008  1.00  0.00     0.094 A 
ATOM     10  C   UNL     1      12.178  41.374 127.458  1.00  0.00     0.134 A 
ATOM     11  C   UNL     1      13.633  43.221 126.829  1.00  0.00     0.123 A 
ATOM     12  C   UNL     1      12.548  42.724 127.559  1.00  0.00     0.093 A 
BRANCH   3  13
ATOM     13  C   UNL     1      15.388  38.132 124.097  1.00  0.00     0.025 A 
ATOM     14  C   UNL     1      15.442  38.344 122.708  1.00  0.00     0.016 A 
ATOM     15  C   UNL     1      16.256  37.544 121.907  1.00  0.00     0.051 A 
ATOM     16  C   UNL     1      17.037  36.530 122.481  1.00  0.00     0.157 A 
ATOM     17  C   UNL     1      16.159  37.111 124.668  1.00  0.00     0.062 A 
ATOM     18  C   UNL     1      16.995  36.322 123.870  1.00  0.00     0.158 A 
BRANCH  16  19
ATOM     19  O   UNL     1      17.846  35.730 121.676  1.00  0.00    -0.504 OA
ATOM     20  H   UNL     1      17.563  34.798 121.409  1.00  0.00     0.293 HD
ENDBRANCH  16  19
BRANCH  18  21
ATOM     21  O   UNL     1      17.775  35.336 124.473  1.00  0.00    -0.504 OA
ATOM     22  H   UNL     1      18.054  34.497 123.982  1.00  0.00     0.293 HD
ENDBRANCH  18  21
ENDBRANCH   3  13
BRANCH  10  23
ATOM     23  O   UNL     1      11.093  40.906 128.199  1.00  0.00    -0.507 OA
ATOM     24  H   UNL     1      10.179  40.778 127.782  1.00  0.00     0.293 HD
ENDBRANCH  10  23
BRANCH  11  25
ATOM     25  O   UNL     1      13.986  44.565 126.912  1.00  0.00    -0.508 OA
ATOM     26  H   UNL     1      13.360  45.257 127.314  1.00  0.00     0.293 HD
ENDBRANCH  11  25
ENDBRANCH   1   2
BRANCH   1  27
ATOM     27  C   UNL     1      12.352  36.708 124.036  1.00  0.00     0.339 C 
ATOM     28  C   UNL     1      10.815  36.734 124.168  1.00  0.00     0.214 C 
ATOM     29  O   UNL     1      12.824  35.456 123.557  1.00  0.00    -0.332 OA
ATOM     30  C   UNL     1      10.334  35.548 125.026  1.00  0.00     0.180 C 
ATOM     31  C   UNL     1      12.486  34.393 124.436  1.00  0.00     0.179 C 
ATOM     32  C   UNL     1      10.954  34.219 124.542  1.00  0.00     0.177 C 
BRANCH  28  33
ATOM     33  O   UNL     1      10.235  36.677 122.889  1.00  0.00    -0.384 OA
ATOM     34  H   UNL     1      10.569  35.848 122.452  1.00  0.00     0.211 HD
ENDBRANCH  28  33
BRANCH  30  35
ATOM     35  O   UNL     1       8.929  35.486 125.089  1.00  0.00    -0.387 OA
ATOM     36  H   UNL     1       8.613  36.186 125.716  1.00  0.00     0.211 HD
ENDBRANCH  30  35
BRANCH  31  37
ATOM     37  C   UNL     1      13.178  33.098 123.971  1.00  0.00     0.191 C 
BRANCH  37  38
ATOM     38  O   UNL     1      13.286  33.047 122.572  1.00  0.00    -0.394 OA
ATOM     39  H   UNL     1      13.184  33.979 122.239  1.00  0.00     0.210 HD
ENDBRANCH  37  38
ENDBRANCH  31  37
BRANCH  32  40
ATOM     40  O   UNL     1      10.413  33.839 123.300  1.00  0.00    -0.387 OA
ATOM     41  H   UNL     1      10.683  32.897 123.143  1.00  0.00     0.211 HD
ENDBRANCH  32  40
ENDBRANCH   1  27
TORSDOF 12
ENDMDL
MODEL 7
REMARK VINA RESULT:    -5.900      1.825      2.641
REMARK INTER + INTRA:         -10.212
REMARK INTER:                  -8.750
REMARK INTRA:                  -1.462
REMARK UNBOUND:                -1.553
REMARK SMILES O=c1c(O[C@H]2O[C@H](CO)[C@H](O)[C@H](O)[C@@H]2O)c(-c2ccc(O)c(O)c2)oc2cc(O)cc(O)c12
REMARK SMILES IDX 4 1 3 2 16 3 25 4 2 5 26 6 1 7 33 8 27 9 31 10 28 11 30 12
REMARK SMILES IDX 17 13 18 14 19 15 20 16 24 17 22 18 21 19 23 21 32 23 29 25
REMARK SMILES IDX 5 27 14 28 6 29 12 30 7 31 10 32 15 33 13 35 8 37 9 38 11 40
REMARK H PARENT 21 20 23 22 32 24 29 26 15 34 13 36 9 39 11 41
REMARK Flexibility Score: inf
ROOT
ATOM      1  O   UNL     1      12.660  36.389 123.918  1.00  0.00    -0.454 OA
ENDROOT
BRANCH   1   2
ATOM      2  C   UNL     1      12.724  37.483 124.785  1.00  0.00     0.214 A 
ATOM      3  C   UNL     1      13.801  38.384 124.731  1.00  0.00     0.180 A 
ATOM      4  O   UNL     1      13.775  39.492 125.466  1.00  0.00    -0.452 OA
ATOM      5  C   UNL     1      11.676  37.726 125.681  1.00  0.00     0.239 A 
ATOM      6  C   UNL     1      12.785  39.783 126.306  1.00  0.00     0.146 A 
ATOM      7  O   UNL     1      10.721  36.904 125.749  1.00  0.00    -0.285 OA
ATOM      8  C   UNL     1      11.694  38.895 126.471  1.00  0.00     0.111 A 
ATOM      9  C   UNL     1      12.836  40.978 127.029  1.00  0.00     0.094 A 
ATOM     10  C   UNL     1      10.672  39.223 127.394  1.00  0.00     0.134 A 
ATOM     11  C   UNL     1      11.819  41.304 127.924  1.00  0.00     0.123 A 
ATOM     12  C   UNL     1      10.746  40.426 128.113  1.00  0.00     0.093 A 
BRANCH   3  13
ATOM     13  C   UNL     1      14.979  38.132 123.876  1.00  0.00     0.025 A 
ATOM     14  C   UNL     1      15.240  38.951 122.763  1.00  0.00     0.016 A 
ATOM     15  C   UNL     1      16.319  38.674 121.925  1.00  0.00     0.051 A 
ATOM     16  C   UNL     1      17.159  37.583 122.190  1.00  0.00     0.157 A 
ATOM     17  C   UNL     1      15.812  37.036 124.134  1.00  0.00     0.062 A 
ATOM     18  C   UNL     1      16.909  36.767 123.308  1.00  0.00     0.158 A 
BRANCH  16  19
ATOM     19  O   UNL     1      18.234  37.306 121.347  1.00  0.00    -0.504 OA
ATOM     20  H   UNL     1      18.516  36.356 121.150  1.00  0.00     0.293 HD
ENDBRANCH  16  19
BRANCH  18  21
ATOM     21  O   UNL     1      17.739  35.689 123.610  1.00  0.00    -0.504 OA
ATOM     22  H   UNL     1      18.493  35.763 124.280  1.00  0.00     0.293 HD
ENDBRANCH  18  21
ENDBRANCH   3  13
BRANCH  10  23
ATOM     23  O   UNL     1       9.593  38.366 127.604  1.00  0.00    -0.507 OA
ATOM     24  H   UNL     1       8.824  38.307 126.948  1.00  0.00     0.293 HD
ENDBRANCH  10  23
BRANCH  11  25
ATOM     25  O   UNL     1      11.879  42.508 128.622  1.00  0.00    -0.508 OA
ATOM     26  H   UNL     1      11.103  42.834 129.189  1.00  0.00     0.293 HD
ENDBRANCH  11  25
ENDBRANCH   1   2
BRANCH   1  27
ATOM     27  C   UNL     1      12.321  36.558 122.536  1.00  0.00     0.339 C 
ATOM     28  C   UNL     1      10.983  35.858 122.215  1.00  0.00     0.214 C 
ATOM     29  O   UNL     1      13.373  36.107 121.693  1.00  0.00    -0.332 OA
ATOM     30  C   UNL     1      11.161  34.328 122.251  1.00  0.00     0.180 C 
ATOM     31  C   UNL     1      13.610  34.715 121.844  1.00  0.00     0.179 C 
ATOM     32  C   UNL     1      12.380  33.886 121.411  1.00  0.00     0.177 C 
BRANCH  28  33
ATOM     33  O   UNL     1      10.534  36.267 120.948  1.00  0.00    -0.384 OA
ATOM     34  H   UNL     1      10.040  37.121 121.073  1.00  0.00     0.211 HD
ENDBRANCH  28  33
BRANCH  30  35
ATOM     35  O   UNL     1       9.983  33.657 121.870  1.00  0.00    -0.387 OA
ATOM     36  H   UNL     1       9.961  32.779 122.328  1.00  0.00     0.211 HD
ENDBRANCH  30  35
BRANCH  31  37
ATOM     37  C   UNL     1      14.873  34.318 121.056  1.00  0.00     0.191 C 
BRANCH  37  38
ATOM     38  O   UNL     1      14.771  33.013 120.547  1.00  0.00    -0.394 OA
ATOM     39  H   UNL     1      15.023  32.394 121.284  1.00  0.00     0.210 HD
ENDBRANCH  37  38
ENDBRANCH  31  37
BRANCH  32  40
ATOM     40  O   UNL     1      12.128  34.057 120.037  1.00  0.00    -0.387 OA
ATOM     41  H   UNL     1      11.619  33.260 119.735  1.00  0.00     0.211 HD
ENDBRANCH  32  40
ENDBRANCH   1  27
TORSDOF 12
ENDMDL
MODEL 8
REMARK VINA RESULT:    -5.841      2.557      4.823
REMARK INTER + INTRA:         -10.126
REMARK INTER:                  -8.747
REMARK INTRA:                  -1.379
REMARK UNBOUND:                -1.553
REMARK SMILES O=c1c(O[C@H]2O[C@H](CO)[C@H](O)[C@H](O)[C@@H]2O)c(-c2ccc(O)c(O)c2)oc2cc(O)cc(O)c12
REMARK SMILES IDX 4 1 3 2 16 3 25 4 2 5 26 6 1 7 33 8 27 9 31 10 28 11 30 12
REMARK SMILES IDX 17 13 18 14 19 15 20 16 24 17 22 18 21 19 23 21 32 23 29 25
REMARK SMILES IDX 5 27 14 28 6 29 12 30 7 31 10 32 15 33 13 35 8 37 9 38 11 40
REMARK H PARENT 21 20 23 22 32 24 29 26 15 34 13 36 9 39 11 41
REMARK Flexibility Score: inf
ROOT
ATOM      1  O   UNL     1      12.642  37.346 124.423  1.00  0.00    -0.454 OA
ENDROOT
BRANCH   1   2
ATOM      2  C   UNL     1      13.130  38.555 124.927  1.00  0.00     0.214 A 
ATOM      3  C   UNL     1      14.409  39.019 124.572  1.00  0.00     0.180 A 
ATOM      4  O   UNL     1      14.800  40.233 124.948  1.00  0.00    -0.452 OA
ATOM      5  C   UNL     1      12.320  39.349 125.746  1.00  0.00     0.239 A 
ATOM      6  C   UNL     1      14.052  41.037 125.699  1.00  0.00     0.146 A 
ATOM      7  O   UNL     1      11.182  38.921 126.087  1.00  0.00    -0.285 OA
ATOM      8  C   UNL     1      12.778  40.619 126.156  1.00  0.00     0.111 A 
ATOM      9  C   UNL     1      14.540  42.302 126.036  1.00  0.00     0.094 A 
ATOM     10  C   UNL     1      12.020  41.489 126.976  1.00  0.00     0.134 A 
ATOM     11  C   UNL     1      13.783  43.162 126.830  1.00  0.00     0.123 A 
ATOM     12  C   UNL     1      12.532  42.754 127.306  1.00  0.00     0.093 A 
BRANCH   3  13
ATOM     13  C   UNL     1      15.345  38.187 123.789  1.00  0.00     0.025 A 
ATOM     14  C   UNL     1      15.397  38.298 122.389  1.00  0.00     0.016 A 
ATOM     15  C   UNL     1      16.239  37.469 121.649  1.00  0.00     0.051 A 
ATOM     16  C   UNL     1      17.049  36.525 122.296  1.00  0.00     0.157 A 
ATOM     17  C   UNL     1      16.147  37.236 124.434  1.00  0.00     0.062 A 
ATOM     18  C   UNL     1      17.010  36.417 123.697  1.00  0.00     0.158 A 
BRANCH  16  19
ATOM     19  O   UNL     1      17.886  35.695 121.553  1.00  0.00    -0.504 OA
ATOM     20  H   UNL     1      17.818  34.689 121.615  1.00  0.00     0.293 HD
ENDBRANCH  16  19
BRANCH  18  21
ATOM     21  O   UNL     1      17.819  35.504 124.371  1.00  0.00    -0.504 OA
ATOM     22  H   UNL     1      18.800  35.392 124.152  1.00  0.00     0.293 HD
ENDBRANCH  18  21
ENDBRANCH   3  13
BRANCH  10  23
ATOM     23  O   UNL     1      10.772  41.108 127.466  1.00  0.00    -0.507 OA
ATOM     24  H   UNL     1      10.044  41.786 127.655  1.00  0.00     0.293 HD
ENDBRANCH  10  23
BRANCH  11  25
ATOM     25  O   UNL     1      14.280  44.425 127.139  1.00  0.00    -0.508 OA
ATOM     26  H   UNL     1      14.338  45.161 126.442  1.00  0.00     0.293 HD
ENDBRANCH  11  25
ENDBRANCH   1   2
BRANCH   1  27
ATOM     27  C   UNL     1      12.900  36.105 125.091  1.00  0.00     0.339 C 
ATOM     28  C   UNL     1      13.355  35.029 124.082  1.00  0.00     0.214 C 
ATOM     29  O   UNL     1      11.770  35.685 125.844  1.00  0.00    -0.332 OA
ATOM     30  C   UNL     1      12.172  34.600 123.193  1.00  0.00     0.180 C 
ATOM     31  C   UNL     1      10.649  35.426 125.012  1.00  0.00     0.179 C 
ATOM     32  C   UNL     1      10.929  34.256 124.042  1.00  0.00     0.177 C 
BRANCH  28  33
ATOM     33  O   UNL     1      13.867  33.922 124.780  1.00  0.00    -0.384 OA
ATOM     34  H   UNL     1      14.859  33.970 124.720  1.00  0.00     0.211 HD
ENDBRANCH  28  33
BRANCH  30  35
ATOM     35  O   UNL     1      12.528  33.551 122.324  1.00  0.00    -0.387 OA
ATOM     36  H   UNL     1      11.791  33.418 121.676  1.00  0.00     0.211 HD
ENDBRANCH  30  35
BRANCH  31  37
ATOM     37  C   UNL     1       9.408  35.159 125.885  1.00  0.00     0.191 C 
BRANCH  37  38
ATOM     38  O   UNL     1       9.760  34.576 127.113  1.00  0.00    -0.394 OA
ATOM     39  H   UNL     1      10.618  34.094 126.970  1.00  0.00     0.210 HD
ENDBRANCH  37  38
ENDBRANCH  31  37
BRANCH  32  40
ATOM     40  O   UNL     1      11.127  33.060 124.756  1.00  0.00    -0.387 OA
ATOM     41  H   UNL     1      10.445  33.037 125.477  1.00  0.00     0.211 HD
ENDBRANCH  32  40
ENDBRANCH   1  27
TORSDOF 12
ENDMDL
MODEL 9
REMARK VINA RESULT:    -5.807     12.023     15.348
REMARK INTER + INTRA:         -10.076
REMARK INTER:                  -8.906
REMARK INTRA:                  -1.170
REMARK UNBOUND:                -1.553
REMARK SMILES O=c1c(O[C@H]2O[C@H](CO)[C@H](O)[C@H](O)[C@@H]2O)c(-c2ccc(O)c(O)c2)oc2cc(O)cc(O)c12
REMARK SMILES IDX 4 1 3 2 16 3 25 4 2 5 26 6 1 7 33 8 27 9 31 10 28 11 30 12
REMARK SMILES IDX 17 13 18 14 19 15 20 16 24 17 22 18 21 19 23 21 32 23 29 25
REMARK SMILES IDX 5 27 14 28 6 29 12 30 7 31 10 32 15 33 13 35 8 37 9 38 11 40
REMARK H PARENT 21 20 23 22 32 24 29 26 15 34 13 36 9 39 11 41
REMARK Flexibility Score: inf
ROOT
ATOM      1  O   UNL     1      23.130  43.319 132.697  1.00  0.00    -0.454 OA
ENDROOT
BRANCH   1   2
ATOM      2  C   UNL     1      21.941  43.676 132.055  1.00  0.00     0.214 A 
ATOM      3  C   UNL     1      21.798  43.520 130.665  1.00  0.00     0.180 A 
ATOM      4  O   UNL     1      20.616  43.734 130.094  1.00  0.00    -0.452 OA
ATOM      5  C   UNL     1      20.854  44.138 132.805  1.00  0.00     0.239 A 
ATOM      6  C   UNL     1      19.545  44.141 130.771  1.00  0.00     0.146 A 
ATOM      7  O   UNL     1      20.989  44.303 134.049  1.00  0.00    -0.285 OA
ATOM      8  C   UNL     1      19.622  44.387 132.164  1.00  0.00     0.111 A 
ATOM      9  C   UNL     1      18.340  44.328 130.088  1.00  0.00     0.094 A 
ATOM     10  C   UNL     1      18.470  44.846 132.847  1.00  0.00     0.134 A 
ATOM     11  C   UNL     1      17.204  44.764 130.769  1.00  0.00     0.123 A 
ATOM     12  C   UNL     1      17.271  45.031 132.141  1.00  0.00     0.093 A 
BRANCH   3  13
ATOM     13  C   UNL     1      22.935  43.128 129.808  1.00  0.00     0.025 A 
ATOM     14  C   UNL     1      23.373  41.792 129.773  1.00  0.00     0.016 A 
ATOM     15  C   UNL     1      24.484  41.437 129.009  1.00  0.00     0.051 A 
ATOM     16  C   UNL     1      25.167  42.406 128.261  1.00  0.00     0.157 A 
ATOM     17  C   UNL     1      23.625  44.098 129.070  1.00  0.00     0.062 A 
ATOM     18  C   UNL     1      24.726  43.741 128.284  1.00  0.00     0.158 A 
BRANCH  16  19
ATOM     19  O   UNL     1      26.279  42.048 127.502  1.00  0.00    -0.504 OA
ATOM     20  H   UNL     1      26.295  42.177 126.500  1.00  0.00     0.293 HD
ENDBRANCH  16  19
BRANCH  18  21
ATOM     21  O   UNL     1      25.371  44.724 127.534  1.00  0.00    -0.504 OA
ATOM     22  H   UNL     1      24.894  45.246 126.810  1.00  0.00     0.293 HD
ENDBRANCH  18  21
ENDBRANCH   3  13
BRANCH  10  23
ATOM     23  O   UNL     1      18.509  45.123 134.213  1.00  0.00    -0.507 OA
ATOM     24  H   UNL     1      17.757  45.616 134.678  1.00  0.00     0.293 HD
ENDBRANCH  10  23
BRANCH  11  25
ATOM     25  O   UNL     1      16.009  44.926 130.074  1.00  0.00    -0.508 OA
ATOM     26  H   UNL     1      15.778  44.352 129.269  1.00  0.00     0.293 HD
ENDBRANCH  11  25
ENDBRANCH   1   2
BRANCH   1  27
ATOM     27  C   UNL     1      24.102  44.306 133.061  1.00  0.00     0.339 C 
ATOM     28  C   UNL     1      25.466  43.993 132.410  1.00  0.00     0.214 C 
ATOM     29  O   UNL     1      24.203  44.428 134.473  1.00  0.00    -0.332 OA
ATOM     30  C   UNL     1      26.099  42.753 133.071  1.00  0.00     0.180 C 
ATOM     31  C   UNL     1      24.659  43.226 135.076  1.00  0.00     0.179 C 
ATOM     32  C   UNL     1      26.091  42.875 134.611  1.00  0.00     0.177 C 
BRANCH  28  33
ATOM     33  O   UNL     1      26.315  45.105 132.545  1.00  0.00    -0.384 OA
ATOM     34  H   UNL     1      26.565  45.397 131.628  1.00  0.00     0.211 HD
ENDBRANCH  28  33
BRANCH  30  35
ATOM     35  O   UNL     1      27.388  42.495 132.566  1.00  0.00    -0.387 OA
ATOM     36  H   UNL     1      27.516  43.036 131.746  1.00  0.00     0.211 HD
ENDBRANCH  30  35
BRANCH  31  37
ATOM     37  C   UNL     1      24.570  43.349 136.608  1.00  0.00     0.191 C 
BRANCH  37  38
ATOM     38  O   UNL     1      24.236  42.123 137.204  1.00  0.00    -0.394 OA
ATOM     39  H   UNL     1      23.508  42.307 137.857  1.00  0.00     0.210 HD
ENDBRANCH  37  38
ENDBRANCH  31  37
BRANCH  32  40
ATOM     40  O   UNL     1      27.004  43.857 135.039  1.00  0.00    -0.387 OA
ATOM     41  H   UNL     1      26.563  44.737 134.910  1.00  0.00     0.211 HD
ENDBRANCH  32  40
ENDBRANCH   1  27
TORSDOF 12
ENDMDL
