MODEL 1
REMARK VINA RESULT:    -7.668      0.000      0.000
REMARK INTER + INTRA:         -12.218
REMARK INTER:                 -10.134
REMARK INTRA:                  -2.084
REMARK UNBOUND:                -2.084
REMARK SMILES CC[C@@H](C=C[C@H](C)[C@@H]1CC[C@@H]2C3=CC[C@H]4C[C@H](O)CC[C@@]4(C)[C@@H]3CC[C@@]21C)C(C)C
REMARK SMILES IDX 6 1 7 2 5 3 4 4 3 5 2 6 1 7 28 8 29 9 30 10 8 11 9 12 26 13
REMARK SMILES IDX 10 14 11 15 25 16 27 17 12 18 24 19 23 20 13 21 21 22 14 23
REMARK SMILES IDX 15 24 20 25 22 26 16 27 19 28 17 29 18 30
REMARK H PARENT 18 31
REMARK Flexibility Score: inf
ROOT
ATOM      1  C   UNL     1     114.253 122.714 128.225  1.00  0.00     0.012 C 
ATOM      2  C   UNL     1     113.190 122.629 127.097  1.00  0.00     0.012 C 
ENDROOT
BRANCH   1   3
ATOM      3  C   UNL     1     114.715 124.157 128.405  1.00  0.00    -0.028 C 
ATOM      4  C   UNL     1     116.024 124.522 128.398  1.00  0.00    -0.027 C 
BRANCH   4   5
ATOM      5  C   UNL     1     116.572 125.782 129.063  1.00  0.00     0.014 C 
BRANCH   5   6
ATOM      6  C   UNL     1     117.622 126.541 128.199  1.00  0.00     0.004 C 
ATOM      7  C   UNL     1     118.521 125.602 127.421  1.00  0.00     0.004 C 
ENDBRANCH   5   6
BRANCH   5   8
ATOM      8  C   UNL     1     117.173 125.549 130.513  1.00  0.00    -0.011 C 
ATOM      9  C   UNL     1     117.968 124.255 130.728  1.00  0.00     0.008 C 
ATOM     10  C   UNL     1     116.050 125.713 131.579  1.00  0.00     0.008 C 
ENDBRANCH   5   8
ENDBRANCH   4   5
ENDBRANCH   1   3
BRANCH   1  11
ATOM     11  C   UNL     1     113.754 122.080 129.540  1.00  0.00     0.002 C 
ATOM     12  C   UNL     1     113.533 123.140 130.672  1.00  0.00     0.005 C 
ATOM     13  C   UNL     1     114.687 120.988 130.164  1.00  0.00    -0.023 C 
ATOM     14  C   UNL     1     114.133 122.566 131.957  1.00  0.00     0.009 C 
ATOM     15  C   UNL     1     114.327 121.075 131.665  1.00  0.00     0.021 C 
ATOM     16  C   UNL     1     116.203 121.320 130.006  1.00  0.00     0.008 C 
ATOM     17  C   UNL     1     114.357 119.579 129.641  1.00  0.00     0.012 C 
ATOM     18  C   UNL     1     115.333 120.422 132.605  1.00  0.00    -0.067 C 
ATOM     19  C   UNL     1     117.101 120.320 130.702  1.00  0.00     0.009 C 
ATOM     20  C   UNL     1     116.778 120.100 132.195  1.00  0.00     0.021 C 
ATOM     21  C   UNL     1     115.005 120.225 133.902  1.00  0.00    -0.027 C 
ATOM     22  C   UNL     1     117.762 120.690 133.288  1.00  0.00    -0.023 C 
ATOM     23  C   UNL     1     115.950 119.594 134.879  1.00  0.00     0.031 C 
ATOM     24  C   UNL     1     117.490 119.880 134.631  1.00  0.00     0.002 C 
ATOM     25  C   UNL     1     119.285 120.654 132.953  1.00  0.00     0.010 C 
ATOM     26  C   UNL     1     117.451 122.198 133.579  1.00  0.00     0.012 C 
ATOM     27  C   UNL     1     118.256 118.517 134.705  1.00  0.00     0.036 C 
ATOM     28  C   UNL     1     119.892 119.252 132.958  1.00  0.00     0.032 C 
ATOM     29  C   UNL     1     119.759 118.643 134.356  1.00  0.00     0.114 C 
BRANCH  29  30
ATOM     30  O   UNL     1     120.485 119.428 135.287  1.00  0.00    -0.393 OA
ATOM     31  H   UNL     1     120.099 119.294 136.190  1.00  0.00     0.210 HD
ENDBRANCH  29  30
ENDBRANCH   1  11
TORSDOF 6
ENDMDL
MODEL 2
REMARK VINA RESULT:    -7.270      2.632      6.879
REMARK INTER + INTRA:         -11.692
REMARK INTER:                  -9.808
REMARK INTRA:                  -1.884
REMARK UNBOUND:                -2.084
REMARK SMILES CC[C@@H](C=C[C@H](C)[C@@H]1CC[C@@H]2C3=CC[C@H]4C[C@H](O)CC[C@@]4(C)[C@@H]3CC[C@@]21C)C(C)C
REMARK SMILES IDX 6 1 7 2 5 3 4 4 3 5 2 6 1 7 28 8 29 9 30 10 8 11 9 12 26 13
REMARK SMILES IDX 10 14 11 15 25 16 27 17 12 18 24 19 23 20 13 21 21 22 14 23
REMARK SMILES IDX 15 24 20 25 22 26 16 27 19 28 17 29 18 30
REMARK H PARENT 18 31
REMARK Flexibility Score: inf
ROOT
ATOM      1  C   UNL     1     114.948 121.004 129.568  1.00  0.00     0.012 C 
ATOM      2  C   UNL     1     114.134 120.000 128.707  1.00  0.00     0.012 C 
ENDROOT
BRANCH   1   3
ATOM      3  C   UNL     1     115.606 120.281 130.739  1.00  0.00    -0.028 C 
ATOM      4  C   UNL     1     115.274 120.517 132.036  1.00  0.00    -0.027 C 
BRANCH   4   5
ATOM      5  C   UNL     1     116.194 120.249 133.224  1.00  0.00     0.014 C 
BRANCH   5   6
ATOM      6  C   UNL     1     115.856 121.102 134.483  1.00  0.00     0.004 C 
ATOM      7  C   UNL     1     114.403 120.983 134.893  1.00  0.00     0.004 C 
ENDBRANCH   5   6
BRANCH   5   8
ATOM      8  C   UNL     1     117.740 120.399 132.903  1.00  0.00    -0.011 C 
ATOM      9  C   UNL     1     118.709 119.640 133.818  1.00  0.00     0.008 C 
ATOM     10  C   UNL     1     118.112 121.908 132.807  1.00  0.00     0.008 C 
ENDBRANCH   5   8
ENDBRANCH   4   5
ENDBRANCH   1   3
BRANCH   1  11
ATOM     11  C   UNL     1     115.958 121.807 128.721  1.00  0.00     0.002 C 
ATOM     12  C   UNL     1     117.443 121.411 129.022  1.00  0.00     0.005 C 
ATOM     13  C   UNL     1     115.896 123.363 128.885  1.00  0.00    -0.023 C 
ATOM     14  C   UNL     1     118.245 122.709 129.137  1.00  0.00     0.009 C 
ATOM     15  C   UNL     1     117.340 123.783 128.528  1.00  0.00     0.021 C 
ATOM     16  C   UNL     1     115.608 123.809 130.352  1.00  0.00     0.008 C 
ATOM     17  C   UNL     1     114.915 124.011 127.893  1.00  0.00     0.012 C 
ATOM     18  C   UNL     1     117.727 125.191 128.965  1.00  0.00    -0.067 C 
ATOM     19  C   UNL     1     115.655 125.311 130.531  1.00  0.00     0.009 C 
ATOM     20  C   UNL     1     116.960 125.975 130.042  1.00  0.00     0.021 C 
ATOM     21  C   UNL     1     118.866 125.747 128.497  1.00  0.00    -0.027 C 
ATOM     22  C   UNL     1     117.994 126.515 131.113  1.00  0.00    -0.023 C 
ATOM     23  C   UNL     1     119.306 127.124 128.894  1.00  0.00     0.031 C 
ATOM     24  C   UNL     1     118.915 127.575 130.362  1.00  0.00     0.002 C 
ATOM     25  C   UNL     1     117.397 127.160 132.401  1.00  0.00     0.010 C 
ATOM     26  C   UNL     1     118.928 125.370 131.633  1.00  0.00     0.012 C 
ATOM     27  C   UNL     1     118.282 129.005 130.279  1.00  0.00     0.036 C 
ATOM     28  C   UNL     1     116.716 128.508 132.168  1.00  0.00     0.032 C 
ATOM     29  C   UNL     1     117.742 129.513 131.638  1.00  0.00     0.114 C 
BRANCH  29  30
ATOM     30  O   UNL     1     118.759 129.708 132.606  1.00  0.00    -0.393 OA
ATOM     31  H   UNL     1     119.254 128.857 132.726  1.00  0.00     0.210 HD
ENDBRANCH  29  30
ENDBRANCH   1  11
TORSDOF 6
ENDMDL
MODEL 3
REMARK VINA RESULT:    -6.756      2.439      6.898
REMARK INTER + INTRA:         -11.012
REMARK INTER:                  -9.304
REMARK INTRA:                  -1.709
REMARK UNBOUND:                -2.084
REMARK SMILES CC[C@@H](C=C[C@H](C)[C@@H]1CC[C@@H]2C3=CC[C@H]4C[C@H](O)CC[C@@]4(C)[C@@H]3CC[C@@]21C)C(C)C
REMARK SMILES IDX 6 1 7 2 5 3 4 4 3 5 2 6 1 7 28 8 29 9 30 10 8 11 9 12 26 13
REMARK SMILES IDX 10 14 11 15 25 16 27 17 12 18 24 19 23 20 13 21 21 22 14 23
REMARK SMILES IDX 15 24 20 25 22 26 16 27 19 28 17 29 18 30
REMARK H PARENT 18 31
REMARK Flexibility Score: inf
ROOT
ATOM      1  C   UNL     1     114.634 120.802 132.620  1.00  0.00     0.012 C 
ATOM      2  C   UNL     1     113.313 119.998 132.761  1.00  0.00     0.012 C 
ENDROOT
BRANCH   1   3
ATOM      3  C   UNL     1     115.734 120.158 133.458  1.00  0.00    -0.028 C 
ATOM      4  C   UNL     1     116.539 120.865 134.293  1.00  0.00    -0.027 C 
BRANCH   4   5
ATOM      5  C   UNL     1     117.928 120.416 134.738  1.00  0.00     0.014 C 
BRANCH   5   6
ATOM      6  C   UNL     1     119.044 121.469 134.471  1.00  0.00     0.004 C 
ATOM      7  C   UNL     1     119.768 121.882 135.736  1.00  0.00     0.004 C 
ENDBRANCH   5   6
BRANCH   5   8
ATOM      8  C   UNL     1     118.389 119.020 134.141  1.00  0.00    -0.011 C 
ATOM      9  C   UNL     1     119.007 118.021 135.126  1.00  0.00     0.008 C 
ATOM     10  C   UNL     1     119.315 119.256 132.911  1.00  0.00     0.008 C 
ENDBRANCH   5   8
ENDBRANCH   4   5
ENDBRANCH   1   3
BRANCH   1  11
ATOM     11  C   UNL     1     115.042 120.990 131.144  1.00  0.00     0.002 C 
ATOM     12  C   UNL     1     116.402 120.292 130.804  1.00  0.00     0.005 C 
ATOM     13  C   UNL     1     115.200 122.474 130.667  1.00  0.00    -0.023 C 
ATOM     14  C   UNL     1     117.222 121.277 129.967  1.00  0.00     0.009 C 
ATOM     15  C   UNL     1     116.214 122.334 129.508  1.00  0.00     0.021 C 
ATOM     16  C   UNL     1     115.829 123.399 131.755  1.00  0.00     0.008 C 
ATOM     17  C   UNL     1     113.881 123.050 130.125  1.00  0.00     0.012 C 
ATOM     18  C   UNL     1     116.884 123.634 129.081  1.00  0.00    -0.067 C 
ATOM     19  C   UNL     1     116.080 124.806 131.257  1.00  0.00     0.009 C 
ATOM     20  C   UNL     1     116.923 124.888 129.967  1.00  0.00     0.021 C 
ATOM     21  C   UNL     1     117.595 123.672 127.932  1.00  0.00    -0.027 C 
ATOM     22  C   UNL     1     118.419 125.401 130.060  1.00  0.00    -0.023 C 
ATOM     23  C   UNL     1     118.283 124.917 127.459  1.00  0.00     0.031 C 
ATOM     24  C   UNL     1     118.828 125.878 128.596  1.00  0.00     0.002 C 
ATOM     25  C   UNL     1     118.707 126.543 131.082  1.00  0.00     0.010 C 
ATOM     26  C   UNL     1     119.395 124.245 130.465  1.00  0.00     0.012 C 
ATOM     27  C   UNL     1     118.368 127.336 128.262  1.00  0.00     0.036 C 
ATOM     28  C   UNL     1     118.116 127.897 130.689  1.00  0.00     0.032 C 
ATOM     29  C   UNL     1     118.732 128.359 129.367  1.00  0.00     0.114 C 
BRANCH  29  30
ATOM     30  O   UNL     1     120.130 128.531 129.529  1.00  0.00    -0.393 OA
ATOM     31  H   UNL     1     120.473 129.088 128.784  1.00  0.00     0.210 HD
ENDBRANCH  29  30
ENDBRANCH   1  11
TORSDOF 6
ENDMDL
MODEL 4
REMARK VINA RESULT:    -6.632      2.574      5.503
REMARK INTER + INTRA:         -10.848
REMARK INTER:                  -9.158
REMARK INTRA:                  -1.690
REMARK UNBOUND:                -2.084
REMARK SMILES CC[C@@H](C=C[C@H](C)[C@@H]1CC[C@@H]2C3=CC[C@H]4C[C@H](O)CC[C@@]4(C)[C@@H]3CC[C@@]21C)C(C)C
REMARK SMILES IDX 6 1 7 2 5 3 4 4 3 5 2 6 1 7 28 8 29 9 30 10 8 11 9 12 26 13
REMARK SMILES IDX 10 14 11 15 25 16 27 17 12 18 24 19 23 20 13 21 21 22 14 23
REMARK SMILES IDX 15 24 20 25 22 26 16 27 19 28 17 29 18 30
REMARK H PARENT 18 31
REMARK Flexibility Score: inf
ROOT
ATOM      1  C   UNL     1     118.530 126.141 130.376  1.00  0.00     0.012 C 
ATOM      2  C   UNL     1     118.640 127.684 130.498  1.00  0.00     0.012 C 
ENDROOT
BRANCH   1   3
ATOM      3  C   UNL     1     118.998 125.476 131.667  1.00  0.00    -0.028 C 
ATOM      4  C   UNL     1     119.935 124.492 131.698  1.00  0.00    -0.027 C 
BRANCH   4   5
ATOM      5  C   UNL     1     120.068 123.462 132.815  1.00  0.00     0.014 C 
BRANCH   5   6
ATOM      6  C   UNL     1     121.537 123.028 133.096  1.00  0.00     0.004 C 
ATOM      7  C   UNL     1     122.536 123.766 132.229  1.00  0.00     0.004 C 
ENDBRANCH   5   6
BRANCH   5   8
ATOM      8  C   UNL     1     119.180 122.162 132.618  1.00  0.00    -0.011 C 
ATOM      9  C   UNL     1     118.670 121.477 133.892  1.00  0.00     0.008 C 
ATOM     10  C   UNL     1     119.920 121.157 131.687  1.00  0.00     0.008 C 
ENDBRANCH   5   8
ENDBRANCH   4   5
ENDBRANCH   1   3
BRANCH   1  11
ATOM     11  C   UNL     1     117.115 125.692 129.953  1.00  0.00     0.002 C 
ATOM     12  C   UNL     1     116.205 125.344 131.179  1.00  0.00     0.005 C 
ATOM     13  C   UNL     1     117.052 124.441 129.014  1.00  0.00    -0.023 C 
ATOM     14  C   UNL     1     115.477 124.039 130.849  1.00  0.00     0.009 C 
ATOM     15  C   UNL     1     115.655 123.864 129.339  1.00  0.00     0.021 C 
ATOM     16  C   UNL     1     118.120 123.359 129.368  1.00  0.00     0.008 C 
ATOM     17  C   UNL     1     117.111 124.831 127.527  1.00  0.00     0.012 C 
ATOM     18  C   UNL     1     115.433 122.426 128.887  1.00  0.00    -0.067 C 
ATOM     19  C   UNL     1     117.989 122.106 128.530  1.00  0.00     0.009 C 
ATOM     20  C   UNL     1     116.585 121.465 128.551  1.00  0.00     0.021 C 
ATOM     21  C   UNL     1     114.185 121.906 128.899  1.00  0.00    -0.027 C 
ATOM     22  C   UNL     1     116.371 120.113 129.350  1.00  0.00    -0.023 C 
ATOM     23  C   UNL     1     113.901 120.498 128.473  1.00  0.00     0.031 C 
ATOM     24  C   UNL     1     115.049 119.444 128.767  1.00  0.00     0.002 C 
ATOM     25  C   UNL     1     117.541 119.083 129.312  1.00  0.00     0.010 C 
ATOM     26  C   UNL     1     116.125 120.384 130.874  1.00  0.00     0.012 C 
ATOM     27  C   UNL     1     115.292 118.613 127.463  1.00  0.00     0.036 C 
ATOM     28  C   UNL     1     117.739 118.414 127.952  1.00  0.00     0.032 C 
ATOM     29  C   UNL     1     116.480 117.628 127.581  1.00  0.00     0.114 C 
BRANCH  29  30
ATOM     30  O   UNL     1     116.263 116.602 128.536  1.00  0.00    -0.393 OA
ATOM     31  H   UNL     1     115.346 116.693 128.902  1.00  0.00     0.210 HD
ENDBRANCH  29  30
ENDBRANCH   1  11
TORSDOF 6
ENDMDL
MODEL 5
REMARK VINA RESULT:    -6.561      3.249      6.074
REMARK INTER + INTRA:         -10.755
REMARK INTER:                  -9.177
REMARK INTRA:                  -1.578
REMARK UNBOUND:                -2.084
REMARK SMILES CC[C@@H](C=C[C@H](C)[C@@H]1CC[C@@H]2C3=CC[C@H]4C[C@H](O)CC[C@@]4(C)[C@@H]3CC[C@@]21C)C(C)C
REMARK SMILES IDX 6 1 7 2 5 3 4 4 3 5 2 6 1 7 28 8 29 9 30 10 8 11 9 12 26 13
REMARK SMILES IDX 10 14 11 15 25 16 27 17 12 18 24 19 23 20 13 21 21 22 14 23
REMARK SMILES IDX 15 24 20 25 22 26 16 27 19 28 17 29 18 30
REMARK H PARENT 18 31
REMARK Flexibility Score: inf
ROOT
ATOM      1  C   UNL     1     115.464 120.498 132.827  1.00  0.00     0.012 C 
ATOM      2  C   UNL     1     114.820 120.369 134.233  1.00  0.00     0.012 C 
ENDROOT
BRANCH   1   3
ATOM      3  C   UNL     1     114.382 120.657 131.763  1.00  0.00    -0.028 C 
ATOM      4  C   UNL     1     114.500 120.158 130.505  1.00  0.00    -0.027 C 
BRANCH   4   5
ATOM      5  C   UNL     1     113.750 120.695 129.290  1.00  0.00     0.014 C 
BRANCH   5   6
ATOM      6  C   UNL     1     114.113 119.973 127.959  1.00  0.00     0.004 C 
ATOM      7  C   UNL     1     115.408 119.193 128.056  1.00  0.00     0.004 C 
ENDBRANCH   5   6
BRANCH   5   8
ATOM      8  C   UNL     1     113.884 122.261 129.075  1.00  0.00    -0.011 C 
ATOM      9  C   UNL     1     112.964 123.152 129.920  1.00  0.00     0.008 C 
ATOM     10  C   UNL     1     113.765 122.595 127.559  1.00  0.00     0.008 C 
ENDBRANCH   5   8
ENDBRANCH   4   5
ENDBRANCH   1   3
BRANCH   1  11
ATOM     11  C   UNL     1     116.521 121.622 132.774  1.00  0.00     0.002 C 
ATOM     12  C   UNL     1     115.981 122.921 132.084  1.00  0.00     0.005 C 
ATOM     13  C   UNL     1     117.850 121.270 132.027  1.00  0.00    -0.023 C 
ATOM     14  C   UNL     1     117.070 123.415 131.130  1.00  0.00     0.009 C 
ATOM     15  C   UNL     1     118.334 122.662 131.555  1.00  0.00     0.021 C 
ATOM     16  C   UNL     1     117.623 120.381 130.765  1.00  0.00     0.008 C 
ATOM     17  C   UNL     1     118.900 120.658 132.971  1.00  0.00     0.012 C 
ATOM     18  C   UNL     1     119.395 122.636 130.463  1.00  0.00    -0.067 C 
ATOM     19  C   UNL     1     118.894 120.131 129.983  1.00  0.00     0.009 C 
ATOM     20  C   UNL     1     119.658 121.409 129.577  1.00  0.00     0.021 C 
ATOM     21  C   UNL     1     120.059 123.771 130.150  1.00  0.00    -0.027 C 
ATOM     22  C   UNL     1     119.642 121.862 128.059  1.00  0.00    -0.023 C 
ATOM     23  C   UNL     1     121.110 123.815 129.082  1.00  0.00     0.031 C 
ATOM     24  C   UNL     1     120.890 122.830 127.859  1.00  0.00     0.002 C 
ATOM     25  C   UNL     1     119.681 120.729 126.988  1.00  0.00     0.010 C 
ATOM     26  C   UNL     1     118.352 122.686 127.724  1.00  0.00     0.012 C 
ATOM     27  C   UNL     1     122.234 122.071 127.599  1.00  0.00     0.036 C 
ATOM     28  C   UNL     1     121.019 119.996 126.903  1.00  0.00     0.032 C 
ATOM     29  C   UNL     1     122.118 120.983 126.503  1.00  0.00     0.114 C 
BRANCH  29  30
ATOM     30  O   UNL     1     121.836 121.512 125.219  1.00  0.00    -0.393 OA
ATOM     31  H   UNL     1     122.413 121.058 124.551  1.00  0.00     0.210 HD
ENDBRANCH  29  30
ENDBRANCH   1  11
TORSDOF 6
ENDMDL
MODEL 6
REMARK VINA RESULT:    -6.524      3.303      6.373
REMARK INTER + INTRA:         -10.705
REMARK INTER:                  -8.546
REMARK INTRA:                  -2.159
REMARK UNBOUND:                -2.084
REMARK SMILES CC[C@@H](C=C[C@H](C)[C@@H]1CC[C@@H]2C3=CC[C@H]4C[C@H](O)CC[C@@]4(C)[C@@H]3CC[C@@]21C)C(C)C
REMARK SMILES IDX 6 1 7 2 5 3 4 4 3 5 2 6 1 7 28 8 29 9 30 10 8 11 9 12 26 13
REMARK SMILES IDX 10 14 11 15 25 16 27 17 12 18 24 19 23 20 13 21 21 22 14 23
REMARK SMILES IDX 15 24 20 25 22 26 16 27 19 28 17 29 18 30
REMARK H PARENT 18 31
REMARK Flexibility Score: inf
ROOT
ATOM      1  C   UNL     1     116.390 124.954 131.253  1.00  0.00     0.012 C 
ATOM      2  C   UNL     1     116.068 126.365 131.813  1.00  0.00     0.012 C 
ENDROOT
BRANCH   1   3
ATOM      3  C   UNL     1     115.211 124.013 131.485  1.00  0.00    -0.028 C 
ATOM      4  C   UNL     1     115.335 122.807 132.097  1.00  0.00    -0.027 C 
BRANCH   4   5
ATOM      5  C   UNL     1     114.371 121.639 131.907  1.00  0.00     0.014 C 
BRANCH   5   6
ATOM      6  C   UNL     1     114.121 120.815 133.204  1.00  0.00     0.004 C 
ATOM      7  C   UNL     1     115.166 121.075 134.268  1.00  0.00     0.004 C 
ENDBRANCH   5   6
BRANCH   5   8
ATOM      8  C   UNL     1     114.770 120.644 130.737  1.00  0.00    -0.011 C 
ATOM      9  C   UNL     1     116.269 120.424 130.502  1.00  0.00     0.008 C 
ATOM     10  C   UNL     1     114.042 121.061 129.424  1.00  0.00     0.008 C 
ENDBRANCH   5   8
ENDBRANCH   4   5
ENDBRANCH   1   3
BRANCH   1  11
ATOM     11  C   UNL     1     116.831 125.004 129.775  1.00  0.00     0.002 C 
ATOM     12  C   UNL     1     115.874 124.194 128.836  1.00  0.00     0.005 C 
ATOM     13  C   UNL     1     118.270 124.463 129.477  1.00  0.00    -0.023 C 
ATOM     14  C   UNL     1     116.753 123.381 127.883  1.00  0.00     0.009 C 
ATOM     15  C   UNL     1     118.145 124.008 128.004  1.00  0.00     0.021 C 
ATOM     16  C   UNL     1     118.644 123.219 130.341  1.00  0.00     0.008 C 
ATOM     17  C   UNL     1     119.336 125.568 129.581  1.00  0.00     0.012 C 
ATOM     18  C   UNL     1     119.250 123.076 127.524  1.00  0.00    -0.067 C 
ATOM     19  C   UNL     1     119.991 122.633 129.977  1.00  0.00     0.009 C 
ATOM     20  C   UNL     1     120.155 122.285 128.482  1.00  0.00     0.021 C 
ATOM     21  C   UNL     1     119.376 122.813 126.205  1.00  0.00    -0.027 C 
ATOM     22  C   UNL     1     120.155 120.763 128.044  1.00  0.00    -0.023 C 
ATOM     23  C   UNL     1     120.438 121.900 125.669  1.00  0.00     0.031 C 
ATOM     24  C   UNL     1     120.856 120.700 126.616  1.00  0.00     0.002 C 
ATOM     25  C   UNL     1     120.847 119.754 129.012  1.00  0.00     0.010 C 
ATOM     26  C   UNL     1     118.696 120.218 127.874  1.00  0.00     0.012 C 
ATOM     27  C   UNL     1     122.419 120.659 126.688  1.00  0.00     0.036 C 
ATOM     28  C   UNL     1     122.368 119.886 129.068  1.00  0.00     0.032 C 
ATOM     29  C   UNL     1     122.957 119.603 127.684  1.00  0.00     0.114 C 
BRANCH  29  30
ATOM     30  O   UNL     1     122.655 118.272 127.303  1.00  0.00    -0.393 OA
ATOM     31  H   UNL     1     123.423 117.901 126.797  1.00  0.00     0.210 HD
ENDBRANCH  29  30
ENDBRANCH   1  11
TORSDOF 6
ENDMDL
MODEL 7
REMARK VINA RESULT:    -6.463      3.072      5.068
REMARK INTER + INTRA:         -10.625
REMARK INTER:                  -8.556
REMARK INTRA:                  -2.069
REMARK UNBOUND:                -2.084
REMARK SMILES CC[C@@H](C=C[C@H](C)[C@@H]1CC[C@@H]2C3=CC[C@H]4C[C@H](O)CC[C@@]4(C)[C@@H]3CC[C@@]21C)C(C)C
REMARK SMILES IDX 6 1 7 2 5 3 4 4 3 5 2 6 1 7 28 8 29 9 30 10 8 11 9 12 26 13
REMARK SMILES IDX 10 14 11 15 25 16 27 17 12 18 24 19 23 20 13 21 21 22 14 23
REMARK SMILES IDX 15 24 20 25 22 26 16 27 19 28 17 29 18 30
REMARK H PARENT 18 31
REMARK Flexibility Score: inf
ROOT
ATOM      1  C   UNL     1     120.858 121.790 127.775  1.00  0.00     0.012 C 
ATOM      2  C   UNL     1     121.685 121.519 126.489  1.00  0.00     0.012 C 
ENDROOT
BRANCH   1   3
ATOM      3  C   UNL     1     121.417 123.003 128.513  1.00  0.00    -0.028 C 
ATOM      4  C   UNL     1     121.799 122.965 129.817  1.00  0.00    -0.027 C 
BRANCH   4   5
ATOM      5  C   UNL     1     121.863 124.184 130.733  1.00  0.00     0.014 C 
BRANCH   5   6
ATOM      6  C   UNL     1     123.121 124.212 131.652  1.00  0.00     0.004 C 
ATOM      7  C   UNL     1     124.059 123.052 131.388  1.00  0.00     0.004 C 
ENDBRANCH   5   6
BRANCH   5   8
ATOM      8  C   UNL     1     120.571 124.400 131.628  1.00  0.00    -0.011 C 
ATOM      9  C   UNL     1     120.025 123.166 132.357  1.00  0.00     0.008 C 
ATOM     10  C   UNL     1     119.463 125.102 130.787  1.00  0.00     0.008 C 
ENDBRANCH   5   8
ENDBRANCH   4   5
ENDBRANCH   1   3
BRANCH   1  11
ATOM     11  C   UNL     1     119.349 121.916 127.478  1.00  0.00     0.002 C 
ATOM     12  C   UNL     1     118.849 123.400 127.531  1.00  0.00     0.005 C 
ATOM     13  C   UNL     1     118.400 121.118 128.434  1.00  0.00    -0.023 C 
ATOM     14  C   UNL     1     117.533 123.408 128.312  1.00  0.00     0.009 C 
ATOM     15  C   UNL     1     117.094 121.942 128.354  1.00  0.00     0.021 C 
ATOM     16  C   UNL     1     118.887 121.120 129.916  1.00  0.00     0.008 C 
ATOM     17  C   UNL     1     118.135 119.690 127.925  1.00  0.00     0.012 C 
ATOM     18  C   UNL     1     116.090 121.664 129.465  1.00  0.00    -0.067 C 
ATOM     19  C   UNL     1     117.915 120.441 130.856  1.00  0.00     0.009 C 
ATOM     20  C   UNL     1     116.473 120.987 130.791  1.00  0.00     0.021 C 
ATOM     21  C   UNL     1     114.829 122.140 129.362  1.00  0.00    -0.027 C 
ATOM     22  C   UNL     1     115.932 121.870 131.990  1.00  0.00    -0.023 C 
ATOM     23  C   UNL     1     113.797 121.907 130.423  1.00  0.00     0.031 C 
ATOM     24  C   UNL     1     114.342 121.824 131.909  1.00  0.00     0.002 C 
ATOM     25  C   UNL     1     116.396 121.467 133.423  1.00  0.00     0.010 C 
ATOM     26  C   UNL     1     116.365 123.368 131.835  1.00  0.00     0.012 C 
ATOM     27  C   UNL     1     113.719 120.557 132.586  1.00  0.00     0.036 C 
ATOM     28  C   UNL     1     115.794 120.157 133.929  1.00  0.00     0.032 C 
ATOM     29  C   UNL     1     114.271 120.292 134.008  1.00  0.00     0.114 C 
BRANCH  29  30
ATOM     30  O   UNL     1     113.932 121.307 134.937  1.00  0.00    -0.393 OA
ATOM     31  H   UNL     1     114.244 121.034 135.838  1.00  0.00     0.210 HD
ENDBRANCH  29  30
ENDBRANCH   1  11
TORSDOF 6
ENDMDL
MODEL 8
REMARK VINA RESULT:    -6.448      2.817      6.286
REMARK INTER + INTRA:         -10.605
REMARK INTER:                  -8.796
REMARK INTRA:                  -1.809
REMARK UNBOUND:                -2.084
REMARK SMILES CC[C@@H](C=C[C@H](C)[C@@H]1CC[C@@H]2C3=CC[C@H]4C[C@H](O)CC[C@@]4(C)[C@@H]3CC[C@@]21C)C(C)C
REMARK SMILES IDX 6 1 7 2 5 3 4 4 3 5 2 6 1 7 28 8 29 9 30 10 8 11 9 12 26 13
REMARK SMILES IDX 10 14 11 15 25 16 27 17 12 18 24 19 23 20 13 21 21 22 14 23
REMARK SMILES IDX 15 24 20 25 22 26 16 27 19 28 17 29 18 30
REMARK H PARENT 18 31
REMARK Flexibility Score: inf
ROOT
ATOM      1  C   UNL     1     116.695 119.299 128.207  1.00  0.00     0.012 C 
ATOM      2  C   UNL     1     116.777 117.867 127.615  1.00  0.00     0.012 C 
ENDROOT
BRANCH   1   3
ATOM      3  C   UNL     1     115.588 119.373 129.255  1.00  0.00    -0.028 C 
ATOM      4  C   UNL     1     114.613 120.319 129.237  1.00  0.00    -0.027 C 
BRANCH   4   5
ATOM      5  C   UNL     1     113.825 120.770 130.464  1.00  0.00     0.014 C 
BRANCH   5   6
ATOM      6  C   UNL     1     113.383 122.262 130.411  1.00  0.00     0.004 C 
ATOM      7  C   UNL     1     113.629 122.893 129.056  1.00  0.00     0.004 C 
ENDBRANCH   5   6
BRANCH   5   8
ATOM      8  C   UNL     1     114.555 120.500 131.846  1.00  0.00    -0.011 C 
ATOM      9  C   UNL     1     113.660 120.130 133.036  1.00  0.00     0.008 C 
ATOM     10  C   UNL     1     115.490 121.698 132.188  1.00  0.00     0.008 C 
ENDBRANCH   5   8
ENDBRANCH   4   5
ENDBRANCH   1   3
BRANCH   1  11
ATOM     11  C   UNL     1     118.058 119.783 128.744  1.00  0.00     0.002 C 
ATOM     12  C   UNL     1     118.199 119.582 130.291  1.00  0.00     0.005 C 
ATOM     13  C   UNL     1     118.394 121.290 128.484  1.00  0.00    -0.023 C 
ATOM     14  C   UNL     1     118.806 120.865 130.864  1.00  0.00     0.009 C 
ATOM     15  C   UNL     1     119.362 121.611 129.648  1.00  0.00     0.021 C 
ATOM     16  C   UNL     1     117.150 122.223 128.615  1.00  0.00     0.008 C 
ATOM     17  C   UNL     1     119.121 121.498 127.144  1.00  0.00     0.012 C 
ATOM     18  C   UNL     1     119.571 123.095 129.918  1.00  0.00    -0.067 C 
ATOM     19  C   UNL     1     117.496 123.689 128.470  1.00  0.00     0.009 C 
ATOM     20  C   UNL     1     118.607 124.183 129.420  1.00  0.00     0.021 C 
ATOM     21  C   UNL     1     120.570 123.490 130.739  1.00  0.00    -0.027 C 
ATOM     22  C   UNL     1     118.214 125.114 130.641  1.00  0.00    -0.023 C 
ATOM     23  C   UNL     1     120.825 124.934 131.051  1.00  0.00     0.031 C 
ATOM     24  C   UNL     1     119.544 125.868 131.085  1.00  0.00     0.002 C 
ATOM     25  C   UNL     1     117.080 126.155 130.393  1.00  0.00     0.010 C 
ATOM     26  C   UNL     1     117.723 124.271 131.867  1.00  0.00     0.012 C 
ATOM     27  C   UNL     1     119.852 127.146 130.233  1.00  0.00     0.036 C 
ATOM     28  C   UNL     1     117.475 127.300 129.462  1.00  0.00     0.032 C 
ATOM     29  C   UNL     1     118.632 128.087 130.083  1.00  0.00     0.114 C 
BRANCH  29  30
ATOM     30  O   UNL     1     118.212 128.657 131.311  1.00  0.00    -0.393 OA
ATOM     31  H   UNL     1     117.435 129.250 131.140  1.00  0.00     0.210 HD
ENDBRANCH  29  30
ENDBRANCH   1  11
TORSDOF 6
ENDMDL
MODEL 9
REMARK VINA RESULT:    -6.242      3.351      4.979
REMARK INTER + INTRA:         -10.333
REMARK INTER:                  -8.991
REMARK INTRA:                  -1.342
REMARK UNBOUND:                -2.084
REMARK SMILES CC[C@@H](C=C[C@H](C)[C@@H]1CC[C@@H]2C3=CC[C@H]4C[C@H](O)CC[C@@]4(C)[C@@H]3CC[C@@]21C)C(C)C
REMARK SMILES IDX 6 1 7 2 5 3 4 4 3 5 2 6 1 7 28 8 29 9 30 10 8 11 9 12 26 13
REMARK SMILES IDX 10 14 11 15 25 16 27 17 12 18 24 19 23 20 13 21 21 22 14 23
REMARK SMILES IDX 15 24 20 25 22 26 16 27 19 28 17 29 18 30
REMARK H PARENT 18 31
REMARK Flexibility Score: inf
ROOT
ATOM      1  C   UNL     1     115.189 123.671 130.726  1.00  0.00     0.012 C 
ATOM      2  C   UNL     1     113.910 123.696 131.605  1.00  0.00     0.012 C 
ENDROOT
BRANCH   1   3
ATOM      3  C   UNL     1     115.731 125.086 130.545  1.00  0.00    -0.028 C 
ATOM      4  C   UNL     1     115.918 125.658 129.327  1.00  0.00    -0.027 C 
BRANCH   4   5
ATOM      5  C   UNL     1     116.895 126.796 129.048  1.00  0.00     0.014 C 
BRANCH   5   6
ATOM      6  C   UNL     1     117.858 126.518 127.856  1.00  0.00     0.004 C 
ATOM      7  C   UNL     1     117.802 125.078 127.388  1.00  0.00     0.004 C 
ENDBRANCH   5   6
BRANCH   5   8
ATOM      8  C   UNL     1     117.753 127.246 130.304  1.00  0.00    -0.011 C 
ATOM      9  C   UNL     1     117.085 128.222 131.280  1.00  0.00     0.008 C 
ATOM     10  C   UNL     1     119.140 127.773 129.831  1.00  0.00     0.008 C 
ENDBRANCH   5   8
ENDBRANCH   4   5
ENDBRANCH   1   3
BRANCH   1  11
ATOM     11  C   UNL     1     116.250 122.692 131.273  1.00  0.00     0.002 C 
ATOM     12  C   UNL     1     117.713 123.170 130.984  1.00  0.00     0.005 C 
ATOM     13  C   UNL     1     116.169 121.228 130.725  1.00  0.00    -0.023 C 
ATOM     14  C   UNL     1     118.500 121.953 130.492  1.00  0.00     0.009 C 
ATOM     15  C   UNL     1     117.633 120.749 130.868  1.00  0.00     0.021 C 
ATOM     16  C   UNL     1     115.782 121.164 129.215  1.00  0.00     0.008 C 
ATOM     17  C   UNL     1     115.254 120.338 131.584  1.00  0.00     0.012 C 
ATOM     18  C   UNL     1     117.982 119.503 130.064  1.00  0.00    -0.067 C 
ATOM     19  C   UNL     1     115.810 119.756 128.659  1.00  0.00     0.009 C 
ATOM     20  C   UNL     1     117.141 119.007 128.878  1.00  0.00     0.021 C 
ATOM     21  C   UNL     1     119.148 118.861 130.300  1.00  0.00    -0.027 C 
ATOM     22  C   UNL     1     118.098 118.767 127.638  1.00  0.00    -0.023 C 
ATOM     23  C   UNL     1     119.553 117.634 129.540  1.00  0.00     0.031 C 
ATOM     24  C   UNL     1     119.063 117.564 128.034  1.00  0.00     0.002 C 
ATOM     25  C   UNL     1     117.413 118.462 126.271  1.00  0.00     0.010 C 
ATOM     26  C   UNL     1     119.000 120.019 127.364  1.00  0.00     0.012 C 
ATOM     27  C   UNL     1     118.430 116.152 127.795  1.00  0.00     0.036 C 
ATOM     28  C   UNL     1     116.743 117.091 126.201  1.00  0.00     0.032 C 
ATOM     29  C   UNL     1     117.797 115.997 126.390  1.00  0.00     0.114 C 
BRANCH  29  30
ATOM     30  O   UNL     1     118.746 116.066 125.339  1.00  0.00    -0.393 OA
ATOM     31  H   UNL     1     118.347 116.561 124.578  1.00  0.00     0.210 HD
ENDBRANCH  29  30
ENDBRANCH   1  11
TORSDOF 6
ENDMDL
