MODEL 1
REMARK VINA RESULT:    -1.118      0.000      0.000
REMARK INTER + INTRA:          -7.180
REMARK INTER:                  -2.555
REMARK INTRA:                  -4.625
REMARK UNBOUND:                -4.625
REMARK SMILES CCCCCCCCCCCCCCCCCCCCCCCC(=O)[O-]
REMARK SMILES IDX 13 1 14 2 15 3 16 4 17 5 18 6 19 7 20 8 21 9 22 10 23 11
REMARK SMILES IDX 24 12 25 13 26 14 12 15 11 16 10 17 9 18 8 19 7 20 6 21 5 22
REMARK SMILES IDX 4 23 3 24 2 25 1 26
REMARK H PARENT
REMARK Flexibility Score: inf
ROOT
ATOM      1  C   UNL     1      26.824  -6.952  18.494  1.00  0.00     0.000 C 
ENDROOT
BRANCH   1   2
ATOM      2  C   UNL     1      26.500  -7.521  19.885  1.00  0.00     0.000 C 
BRANCH   2   3
ATOM      3  C   UNL     1      25.927  -8.947  19.817  1.00  0.00     0.000 C 
BRANCH   3   4
ATOM      4  C   UNL     1      26.834  -9.982  20.504  1.00  0.00     0.000 C 
BRANCH   4   5
ATOM      5  C   UNL     1      27.296 -11.091  19.544  1.00  0.00     0.000 C 
BRANCH   5   6
ATOM      6  C   UNL     1      27.118 -10.708  18.062  1.00  0.00     0.000 C 
BRANCH   6   7
ATOM      7  C   UNL     1      28.372 -10.127  17.382  1.00  0.00     0.000 C 
BRANCH   7   8
ATOM      8  C   UNL     1      29.672 -10.923  17.612  1.00  0.00     0.000 C 
BRANCH   8   9
ATOM      9  C   UNL     1      30.846 -10.065  18.129  1.00  0.00     0.000 C 
BRANCH   9  10
ATOM     10  C   UNL     1      30.393  -8.985  19.127  1.00  0.00     0.006 C 
BRANCH  10  11
ATOM     11  C   UNL     1      30.537  -9.446  20.584  1.00  0.00     0.053 C 
BRANCH  11  12
ATOM     12  C   UNL     1      30.332  -8.316  21.547  1.00  0.00     0.041 C 
ATOM     13  O   UNL     1      30.752  -8.409  22.730  1.00  0.00    -0.550 OA
ATOM     14  O   UNL     1      29.709  -7.147  21.127  1.00  0.00    -0.550 OA
ENDBRANCH  11  12
ENDBRANCH  10  11
ENDBRANCH   9  10
ENDBRANCH   8   9
ENDBRANCH   7   8
ENDBRANCH   6   7
ENDBRANCH   5   6
ENDBRANCH   4   5
ENDBRANCH   3   4
ENDBRANCH   2   3
ENDBRANCH   1   2
BRANCH   1  15
ATOM     15  C   UNL     1      27.636  -5.646  18.559  1.00  0.00     0.000 C 
BRANCH  15  16
ATOM     16  C   UNL     1      28.988  -5.748  17.833  1.00  0.00     0.000 C 
BRANCH  16  17
ATOM     17  C   UNL     1      28.987  -6.655  16.589  1.00  0.00     0.000 C 
BRANCH  17  18
ATOM     18  C   UNL     1      30.393  -6.864  16.000  1.00  0.00    -0.000 C 
BRANCH  18  19
ATOM     19  C   UNL     1      30.366  -7.655  14.676  1.00  0.00    -0.000 C 
BRANCH  19  20
ATOM     20  C   UNL     1      31.125  -8.996  14.728  1.00  0.00    -0.000 C 
BRANCH  20  21
ATOM     21  C   UNL     1      30.803  -9.950  13.562  1.00  0.00    -0.000 C 
BRANCH  21  22
ATOM     22  C   UNL     1      29.743 -11.000  13.938  1.00  0.00    -0.000 C 
BRANCH  22  23
ATOM     23  C   UNL     1      28.562 -11.027  12.956  1.00  0.00    -0.000 C 
BRANCH  23  24
ATOM     24  C   UNL     1      27.236 -10.619  13.617  1.00  0.00    -0.000 C 
BRANCH  24  25
ATOM     25  C   UNL     1      26.971  -9.120  13.438  1.00  0.00    -0.003 C 
ATOM     26  C   UNL     1      26.557  -8.472  14.757  1.00  0.00     0.004 C 
ENDBRANCH  24  25
ENDBRANCH  23  24
ENDBRANCH  22  23
ENDBRANCH  21  22
ENDBRANCH  20  21
ENDBRANCH  19  20
ENDBRANCH  18  19
ENDBRANCH  17  18
ENDBRANCH  16  17
ENDBRANCH  15  16
ENDBRANCH   1  15
TORSDOF 22
ENDMDL
MODEL 2
REMARK VINA RESULT:    -1.019      1.542      4.987
REMARK INTER + INTRA:          -6.955
REMARK INTER:                  -2.172
REMARK INTRA:                  -4.783
REMARK UNBOUND:                -4.625
REMARK SMILES CCCCCCCCCCCCCCCCCCCCCCCC(=O)[O-]
REMARK SMILES IDX 13 1 14 2 15 3 16 4 17 5 18 6 19 7 20 8 21 9 22 10 23 11
REMARK SMILES IDX 24 12 25 13 26 14 12 15 11 16 10 17 9 18 8 19 7 20 6 21 5 22
REMARK SMILES IDX 4 23 3 24 2 25 1 26
REMARK H PARENT
REMARK Flexibility Score: inf
ROOT
ATOM      1  C   UNL     1      27.711  -7.679  15.039  1.00  0.00     0.000 C 
ENDROOT
BRANCH   1   2
ATOM      2  C   UNL     1      27.807  -8.776  13.966  1.00  0.00     0.000 C 
BRANCH   2   3
ATOM      3  C   UNL     1      28.902  -8.485  12.925  1.00  0.00     0.000 C 
BRANCH   3   4
ATOM      4  C   UNL     1      30.141  -9.378  13.105  1.00  0.00     0.000 C 
BRANCH   4   5
ATOM      5  C   UNL     1      29.918 -10.493  14.140  1.00  0.00     0.000 C 
BRANCH   5   6
ATOM      6  C   UNL     1      31.061 -10.589  15.169  1.00  0.00     0.000 C 
BRANCH   6   7
ATOM      7  C   UNL     1      30.610 -10.760  16.632  1.00  0.00     0.000 C 
BRANCH   7   8
ATOM      8  C   UNL     1      29.095 -10.609  16.874  1.00  0.00     0.000 C 
BRANCH   8   9
ATOM      9  C   UNL     1      28.743  -9.767  18.118  1.00  0.00     0.000 C 
BRANCH   9  10
ATOM     10  C   UNL     1      29.695 -10.032  19.298  1.00  0.00     0.006 C 
BRANCH  10  11
ATOM     11  C   UNL     1      28.938 -10.259  20.613  1.00  0.00     0.053 C 
BRANCH  11  12
ATOM     12  C   UNL     1      29.806  -9.997  21.807  1.00  0.00     0.041 C 
ATOM     13  O   UNL     1      29.353 -10.172  22.969  1.00  0.00    -0.550 OA
ATOM     14  O   UNL     1      31.124  -9.593  21.634  1.00  0.00    -0.550 OA
ENDBRANCH  11  12
ENDBRANCH  10  11
ENDBRANCH   9  10
ENDBRANCH   8   9
ENDBRANCH   7   8
ENDBRANCH   6   7
ENDBRANCH   5   6
ENDBRANCH   4   5
ENDBRANCH   3   4
ENDBRANCH   2   3
ENDBRANCH   1   2
BRANCH   1  15
ATOM     15  C   UNL     1      28.309  -6.338  14.575  1.00  0.00     0.000 C 
BRANCH  15  16
ATOM     16  C   UNL     1      29.508  -5.892  15.429  1.00  0.00     0.000 C 
BRANCH  16  17
ATOM     17  C   UNL     1      30.297  -7.040  16.085  1.00  0.00     0.000 C 
BRANCH  17  18
ATOM     18  C   UNL     1      30.877  -6.659  17.458  1.00  0.00    -0.000 C 
BRANCH  18  19
ATOM     19  C   UNL     1      29.781  -6.311  18.485  1.00  0.00    -0.000 C 
BRANCH  19  20
ATOM     20  C   UNL     1      30.195  -6.543  19.952  1.00  0.00    -0.000 C 
BRANCH  20  21
ATOM     21  C   UNL     1      29.041  -6.404  20.964  1.00  0.00    -0.000 C 
BRANCH  21  22
ATOM     22  C   UNL     1      27.671  -6.262  20.277  1.00  0.00    -0.000 C 
BRANCH  22  23
ATOM     23  C   UNL     1      26.679  -7.354  20.705  1.00  0.00    -0.000 C 
BRANCH  23  24
ATOM     24  C   UNL     1      25.830  -7.873  19.534  1.00  0.00    -0.000 C 
BRANCH  24  25
ATOM     25  C   UNL     1      26.166  -7.126  18.239  1.00  0.00    -0.003 C 
ATOM     26  C   UNL     1      24.910  -6.547  17.594  1.00  0.00     0.004 C 
ENDBRANCH  24  25
ENDBRANCH  23  24
ENDBRANCH  22  23
ENDBRANCH  21  22
ENDBRANCH  20  21
ENDBRANCH  19  20
ENDBRANCH  18  19
ENDBRANCH  17  18
ENDBRANCH  16  17
ENDBRANCH  15  16
ENDBRANCH   1  15
TORSDOF 22
ENDMDL
MODEL 3
REMARK VINA RESULT:    -0.988      2.838      5.995
REMARK INTER + INTRA:          -6.882
REMARK INTER:                  -1.868
REMARK INTRA:                  -5.015
REMARK UNBOUND:                -4.625
REMARK SMILES CCCCCCCCCCCCCCCCCCCCCCCC(=O)[O-]
REMARK SMILES IDX 13 1 14 2 15 3 16 4 17 5 18 6 19 7 20 8 21 9 22 10 23 11
REMARK SMILES IDX 24 12 25 13 26 14 12 15 11 16 10 17 9 18 8 19 7 20 6 21 5 22
REMARK SMILES IDX 4 23 3 24 2 25 1 26
REMARK H PARENT
REMARK Flexibility Score: inf
ROOT
ATOM      1  C   UNL     1      29.202  -7.211  18.805  1.00  0.00     0.000 C 
ENDROOT
BRANCH   1   2
ATOM      2  C   UNL     1      30.542  -7.482  18.102  1.00  0.00     0.000 C 
BRANCH   2   3
ATOM      3  C   UNL     1      30.473  -8.689  17.151  1.00  0.00     0.000 C 
BRANCH   3   4
ATOM      4  C   UNL     1      30.757 -10.022  17.864  1.00  0.00     0.000 C 
BRANCH   4   5
ATOM      5  C   UNL     1      29.603 -11.027  17.715  1.00  0.00     0.000 C 
BRANCH   5   6
ATOM      6  C   UNL     1      28.652 -11.029  18.928  1.00  0.00     0.000 C 
BRANCH   6   7
ATOM      7  C   UNL     1      27.244 -10.466  18.654  1.00  0.00     0.000 C 
BRANCH   7   8
ATOM      8  C   UNL     1      26.868 -10.334  17.165  1.00  0.00     0.000 C 
BRANCH   8   9
ATOM      9  C   UNL     1      26.733  -8.874  16.684  1.00  0.00     0.000 C 
BRANCH   9  10
ATOM     10  C   UNL     1      27.363  -8.648  15.298  1.00  0.00     0.006 C 
BRANCH  10  11
ATOM     11  C   UNL     1      27.562  -9.963  14.531  1.00  0.00     0.053 C 
BRANCH  11  12
ATOM     12  C   UNL     1      28.960 -10.094  14.007  1.00  0.00     0.041 C 
ATOM     13  O   UNL     1      29.637 -11.124  14.263  1.00  0.00    -0.550 OA
ATOM     14  O   UNL     1      29.500  -9.095  13.207  1.00  0.00    -0.550 OA
ENDBRANCH  11  12
ENDBRANCH  10  11
ENDBRANCH   9  10
ENDBRANCH   8   9
ENDBRANCH   7   8
ENDBRANCH   6   7
ENDBRANCH   5   6
ENDBRANCH   4   5
ENDBRANCH   3   4
ENDBRANCH   2   3
ENDBRANCH   1   2
BRANCH   1  15
ATOM     15  C   UNL     1      29.228  -7.580  20.299  1.00  0.00     0.000 C 
BRANCH  15  16
ATOM     16  C   UNL     1      27.829  -7.572  20.940  1.00  0.00     0.000 C 
BRANCH  16  17
ATOM     17  C   UNL     1      26.696  -7.103  20.010  1.00  0.00     0.000 C 
BRANCH  17  18
ATOM     18  C   UNL     1      25.944  -5.876  20.554  1.00  0.00    -0.000 C 
BRANCH  18  19
ATOM     19  C   UNL     1      26.882  -4.682  20.824  1.00  0.00    -0.000 C 
BRANCH  19  20
ATOM     20  C   UNL     1      27.442  -4.020  19.548  1.00  0.00    -0.000 C 
BRANCH  20  21
ATOM     21  C   UNL     1      26.391  -3.259  18.718  1.00  0.00    -0.000 C 
BRANCH  21  22
ATOM     22  C   UNL     1      26.488  -3.575  17.215  1.00  0.00    -0.000 C 
BRANCH  22  23
ATOM     23  C   UNL     1      26.969  -5.008  16.941  1.00  0.00    -0.000 C 
BRANCH  23  24
ATOM     24  C   UNL     1      28.156  -5.057  15.967  1.00  0.00    -0.000 C 
BRANCH  24  25
ATOM     25  C   UNL     1      29.117  -3.888  16.213  1.00  0.00    -0.003 C 
ATOM     26  C   UNL     1      30.572  -4.346  16.144  1.00  0.00     0.004 C 
ENDBRANCH  24  25
ENDBRANCH  23  24
ENDBRANCH  22  23
ENDBRANCH  21  22
ENDBRANCH  20  21
ENDBRANCH  19  20
ENDBRANCH  18  19
ENDBRANCH  17  18
ENDBRANCH  16  17
ENDBRANCH  15  16
ENDBRANCH   1  15
TORSDOF 22
ENDMDL
MODEL 4
REMARK VINA RESULT:    -0.942      2.908      5.780
REMARK INTER + INTRA:          -6.778
REMARK INTER:                  -1.859
REMARK INTRA:                  -4.919
REMARK UNBOUND:                -4.625
REMARK SMILES CCCCCCCCCCCCCCCCCCCCCCCC(=O)[O-]
REMARK SMILES IDX 13 1 14 2 15 3 16 4 17 5 18 6 19 7 20 8 21 9 22 10 23 11
REMARK SMILES IDX 24 12 25 13 26 14 12 15 11 16 10 17 9 18 8 19 7 20 6 21 5 22
REMARK SMILES IDX 4 23 3 24 2 25 1 26
REMARK H PARENT
REMARK Flexibility Score: inf
ROOT
ATOM      1  C   UNL     1      29.201  -6.697  19.312  1.00  0.00     0.000 C 
ENDROOT
BRANCH   1   2
ATOM      2  C   UNL     1      30.721  -6.842  19.137  1.00  0.00     0.000 C 
BRANCH   2   3
ATOM      3  C   UNL     1      31.125  -8.249  18.659  1.00  0.00     0.000 C 
BRANCH   3   4
ATOM      4  C   UNL     1      29.915  -9.181  18.477  1.00  0.00     0.000 C 
BRANCH   4   5
ATOM      5  C   UNL     1      30.248 -10.419  17.627  1.00  0.00     0.000 C 
BRANCH   5   6
ATOM      6  C   UNL     1      29.543 -10.408  16.257  1.00  0.00     0.000 C 
BRANCH   6   7
ATOM      7  C   UNL     1      30.483 -10.308  15.040  1.00  0.00     0.000 C 
BRANCH   7   8
ATOM      8  C   UNL     1      30.403  -8.983  14.256  1.00  0.00     0.000 C 
BRANCH   8   9
ATOM      9  C   UNL     1      31.041  -7.785  14.990  1.00  0.00     0.000 C 
BRANCH   9  10
ATOM     10  C   UNL     1      30.000  -6.744  15.439  1.00  0.00     0.006 C 
BRANCH  10  11
ATOM     11  C   UNL     1      30.624  -5.361  15.666  1.00  0.00     0.053 C 
BRANCH  11  12
ATOM     12  C   UNL     1      30.145  -4.363  14.655  1.00  0.00     0.041 C 
ATOM     13  O   UNL     1      30.427  -3.143  14.788  1.00  0.00    -0.550 OA
ATOM     14  O   UNL     1      29.418  -4.785  13.550  1.00  0.00    -0.550 OA
ENDBRANCH  11  12
ENDBRANCH  10  11
ENDBRANCH   9  10
ENDBRANCH   8   9
ENDBRANCH   7   8
ENDBRANCH   6   7
ENDBRANCH   5   6
ENDBRANCH   4   5
ENDBRANCH   3   4
ENDBRANCH   2   3
ENDBRANCH   1   2
BRANCH   1  15
ATOM     15  C   UNL     1      28.801  -6.326  20.752  1.00  0.00     0.000 C 
BRANCH  15  16
ATOM     16  C   UNL     1      29.960  -6.483  21.752  1.00  0.00     0.000 C 
BRANCH  16  17
ATOM     17  C   UNL     1      29.812  -7.661  22.732  1.00  0.00     0.000 C 
BRANCH  17  18
ATOM     18  C   UNL     1      30.715  -8.854  22.374  1.00  0.00    -0.000 C 
BRANCH  18  19
ATOM     19  C   UNL     1      29.911 -10.077  21.889  1.00  0.00    -0.000 C 
BRANCH  19  20
ATOM     20  C   UNL     1      28.407 -10.016  22.225  1.00  0.00    -0.000 C 
BRANCH  20  21
ATOM     21  C   UNL     1      27.481 -10.147  21.002  1.00  0.00    -0.000 C 
BRANCH  21  22
ATOM     22  C   UNL     1      26.389  -9.063  20.973  1.00  0.00    -0.000 C 
BRANCH  22  23
ATOM     23  C   UNL     1      25.915  -8.738  19.548  1.00  0.00    -0.000 C 
BRANCH  23  24
ATOM     24  C   UNL     1      26.400  -9.767  18.515  1.00  0.00    -0.000 C 
BRANCH  24  25
ATOM     25  C   UNL     1      26.049  -9.323  17.090  1.00  0.00    -0.003 C 
ATOM     26  C   UNL     1      26.766  -8.026  16.724  1.00  0.00     0.004 C 
ENDBRANCH  24  25
ENDBRANCH  23  24
ENDBRANCH  22  23
ENDBRANCH  21  22
ENDBRANCH  20  21
ENDBRANCH  19  20
ENDBRANCH  18  19
ENDBRANCH  17  18
ENDBRANCH  16  17
ENDBRANCH  15  16
ENDBRANCH   1  15
TORSDOF 22
ENDMDL
MODEL 5
REMARK VINA RESULT:    -0.927      2.659      6.198
REMARK INTER + INTRA:          -6.744
REMARK INTER:                  -2.124
REMARK INTRA:                  -4.619
REMARK UNBOUND:                -4.625
REMARK SMILES CCCCCCCCCCCCCCCCCCCCCCCC(=O)[O-]
REMARK SMILES IDX 13 1 14 2 15 3 16 4 17 5 18 6 19 7 20 8 21 9 22 10 23 11
REMARK SMILES IDX 24 12 25 13 26 14 12 15 11 16 10 17 9 18 8 19 7 20 6 21 5 22
REMARK SMILES IDX 4 23 3 24 2 25 1 26
REMARK H PARENT
REMARK Flexibility Score: inf
ROOT
ATOM      1  C   UNL     1      26.717  -6.146  18.493  1.00  0.00     0.000 C 
ENDROOT
BRANCH   1   2
ATOM      2  C   UNL     1      28.228  -5.923  18.319  1.00  0.00     0.000 C 
BRANCH   2   3
ATOM      3  C   UNL     1      28.634  -5.773  16.842  1.00  0.00     0.000 C 
BRANCH   3   4
ATOM      4  C   UNL     1      27.420  -5.716  15.899  1.00  0.00     0.000 C 
BRANCH   4   5
ATOM      5  C   UNL     1      27.734  -6.274  14.501  1.00  0.00     0.000 C 
BRANCH   5   6
ATOM      6  C   UNL     1      26.863  -7.492  14.135  1.00  0.00     0.000 C 
BRANCH   6   7
ATOM      7  C   UNL     1      26.417  -8.358  15.329  1.00  0.00     0.000 C 
BRANCH   7   8
ATOM      8  C   UNL     1      27.070  -9.752  15.409  1.00  0.00     0.000 C 
BRANCH   8   9
ATOM      9  C   UNL     1      27.845 -10.152  14.137  1.00  0.00     0.000 C 
BRANCH   9  10
ATOM     10  C   UNL     1      29.357 -10.295  14.387  1.00  0.00     0.006 C 
BRANCH  10  11
ATOM     11  C   UNL     1      30.182 -10.026  13.121  1.00  0.00     0.053 C 
BRANCH  11  12
ATOM     12  C   UNL     1      30.339  -8.558  12.861  1.00  0.00     0.041 C 
ATOM     13  O   UNL     1      29.840  -8.041  11.827  1.00  0.00    -0.550 OA
ATOM     14  O   UNL     1      31.005  -7.756  13.779  1.00  0.00    -0.550 OA
ENDBRANCH  11  12
ENDBRANCH  10  11
ENDBRANCH   9  10
ENDBRANCH   8   9
ENDBRANCH   7   8
ENDBRANCH   6   7
ENDBRANCH   5   6
ENDBRANCH   4   5
ENDBRANCH   3   4
ENDBRANCH   2   3
ENDBRANCH   1   2
BRANCH   1  15
ATOM     15  C   UNL     1      26.377  -7.570  18.969  1.00  0.00     0.000 C 
BRANCH  15  16
ATOM     16  C   UNL     1      27.538  -8.558  18.770  1.00  0.00     0.000 C 
BRANCH  16  17
ATOM     17  C   UNL     1      27.275  -9.979  19.302  1.00  0.00     0.000 C 
BRANCH  17  18
ATOM     18  C   UNL     1      28.563 -10.805  19.466  1.00  0.00    -0.000 C 
BRANCH  18  19
ATOM     19  C   UNL     1      29.265 -11.074  18.120  1.00  0.00    -0.000 C 
BRANCH  19  20
ATOM     20  C   UNL     1      30.518 -10.209  17.878  1.00  0.00    -0.000 C 
BRANCH  20  21
ATOM     21  C   UNL     1      31.125  -9.605  19.159  1.00  0.00    -0.000 C 
BRANCH  21  22
ATOM     22  C   UNL     1      31.113  -8.066  19.145  1.00  0.00    -0.000 C 
BRANCH  22  23
ATOM     23  C   UNL     1      30.704  -7.465  20.499  1.00  0.00    -0.000 C 
BRANCH  23  24
ATOM     24  C   UNL     1      30.427  -8.538  21.563  1.00  0.00    -0.000 C 
BRANCH  24  25
ATOM     25  C   UNL     1      29.045  -8.341  22.196  1.00  0.00    -0.003 C 
ATOM     26  C   UNL     1      28.577  -6.895  22.056  1.00  0.00     0.004 C 
ENDBRANCH  24  25
ENDBRANCH  23  24
ENDBRANCH  22  23
ENDBRANCH  21  22
ENDBRANCH  20  21
ENDBRANCH  19  20
ENDBRANCH  18  19
ENDBRANCH  17  18
ENDBRANCH  16  17
ENDBRANCH  15  16
ENDBRANCH   1  15
TORSDOF 22
ENDMDL
MODEL 6
REMARK VINA RESULT:    -0.925      2.864      6.083
REMARK INTER + INTRA:          -6.740
REMARK INTER:                  -2.093
REMARK INTRA:                  -4.647
REMARK UNBOUND:                -4.625
REMARK SMILES CCCCCCCCCCCCCCCCCCCCCCCC(=O)[O-]
REMARK SMILES IDX 13 1 14 2 15 3 16 4 17 5 18 6 19 7 20 8 21 9 22 10 23 11
REMARK SMILES IDX 24 12 25 13 26 14 12 15 11 16 10 17 9 18 8 19 7 20 6 21 5 22
REMARK SMILES IDX 4 23 3 24 2 25 1 26
REMARK H PARENT
REMARK Flexibility Score: inf
ROOT
ATOM      1  C   UNL     1      28.095  -8.063  15.259  1.00  0.00     0.000 C 
ENDROOT
BRANCH   1   2
ATOM      2  C   UNL     1      28.329  -7.450  16.649  1.00  0.00     0.000 C 
BRANCH   2   3
ATOM      3  C   UNL     1      27.466  -8.113  17.736  1.00  0.00     0.000 C 
BRANCH   3   4
ATOM      4  C   UNL     1      26.298  -8.925  17.151  1.00  0.00     0.000 C 
BRANCH   4   5
ATOM      5  C   UNL     1      26.416 -10.428  17.453  1.00  0.00     0.000 C 
BRANCH   5   6
ATOM      6  C   UNL     1      25.362 -10.918  18.464  1.00  0.00     0.000 C 
BRANCH   6   7
ATOM      7  C   UNL     1      24.452  -9.819  19.043  1.00  0.00     0.000 C 
BRANCH   7   8
ATOM      8  C   UNL     1      24.559  -9.613  20.567  1.00  0.00     0.000 C 
BRANCH   8   9
ATOM      9  C   UNL     1      25.371  -8.365  20.972  1.00  0.00     0.000 C 
BRANCH   9  10
ATOM     10  C   UNL     1      24.948  -7.106  20.194  1.00  0.00     0.006 C 
BRANCH  10  11
ATOM     11  C   UNL     1      24.020  -6.202  21.017  1.00  0.00     0.053 C 
BRANCH  11  12
ATOM     12  C   UNL     1      22.640  -6.146  20.434  1.00  0.00     0.041 C 
ATOM     13  O   UNL     1      21.820  -5.277  20.833  1.00  0.00    -0.550 OA
ATOM     14  O   UNL     1      22.272  -7.029  19.427  1.00  0.00    -0.550 OA
ENDBRANCH  11  12
ENDBRANCH  10  11
ENDBRANCH   9  10
ENDBRANCH   8   9
ENDBRANCH   7   8
ENDBRANCH   6   7
ENDBRANCH   5   6
ENDBRANCH   4   5
ENDBRANCH   3   4
ENDBRANCH   2   3
ENDBRANCH   1   2
BRANCH   1  15
ATOM     15  C   UNL     1      29.323  -8.827  14.731  1.00  0.00     0.000 C 
BRANCH  15  16
ATOM     16  C   UNL     1      29.156 -10.354  14.813  1.00  0.00     0.000 C 
BRANCH  16  17
ATOM     17  C   UNL     1      30.250 -11.082  15.614  1.00  0.00     0.000 C 
BRANCH  17  18
ATOM     18  C   UNL     1      30.021 -11.019  17.134  1.00  0.00    -0.000 C 
BRANCH  18  19
ATOM     19  C   UNL     1      30.934  -9.986  17.826  1.00  0.00    -0.000 C 
BRANCH  19  20
ATOM     20  C   UNL     1      30.500  -9.623  19.260  1.00  0.00    -0.000 C 
BRANCH  20  21
ATOM     21  C   UNL     1      29.268 -10.398  19.763  1.00  0.00    -0.000 C 
BRANCH  21  22
ATOM     22  C   UNL     1      28.664  -9.780  21.036  1.00  0.00    -0.000 C 
BRANCH  22  23
ATOM     23  C   UNL     1      29.605  -8.766  21.706  1.00  0.00    -0.000 C 
BRANCH  23  24
ATOM     24  C   UNL     1      28.902  -7.443  22.047  1.00  0.00    -0.000 C 
BRANCH  24  25
ATOM     25  C   UNL     1      28.651  -6.613  20.784  1.00  0.00    -0.003 C 
ATOM     26  C   UNL     1      29.962  -6.104  20.189  1.00  0.00     0.004 C 
ENDBRANCH  24  25
ENDBRANCH  23  24
ENDBRANCH  22  23
ENDBRANCH  21  22
ENDBRANCH  20  21
ENDBRANCH  19  20
ENDBRANCH  18  19
ENDBRANCH  17  18
ENDBRANCH  16  17
ENDBRANCH  15  16
ENDBRANCH   1  15
TORSDOF 22
ENDMDL
MODEL 7
REMARK VINA RESULT:    -0.904      2.698      5.943
REMARK INTER + INTRA:          -6.692
REMARK INTER:                  -1.845
REMARK INTRA:                  -4.847
REMARK UNBOUND:                -4.625
REMARK SMILES CCCCCCCCCCCCCCCCCCCCCCCC(=O)[O-]
REMARK SMILES IDX 13 1 14 2 15 3 16 4 17 5 18 6 19 7 20 8 21 9 22 10 23 11
REMARK SMILES IDX 24 12 25 13 26 14 12 15 11 16 10 17 9 18 8 19 7 20 6 21 5 22
REMARK SMILES IDX 4 23 3 24 2 25 1 26
REMARK H PARENT
REMARK Flexibility Score: inf
ROOT
ATOM      1  C   UNL     1      26.495  -7.960  15.587  1.00  0.00     0.000 C 
ENDROOT
BRANCH   1   2
ATOM      2  C   UNL     1      25.345  -7.837  14.574  1.00  0.00     0.000 C 
BRANCH   2   3
ATOM      3  C   UNL     1      25.654  -8.551  13.246  1.00  0.00     0.000 C 
BRANCH   3   4
ATOM      4  C   UNL     1      25.073  -9.974  13.192  1.00  0.00     0.000 C 
BRANCH   4   5
ATOM      5  C   UNL     1      26.156 -11.058  13.322  1.00  0.00     0.000 C 
BRANCH   5   6
ATOM      6  C   UNL     1      27.538 -10.583  12.832  1.00  0.00     0.000 C 
BRANCH   6   7
ATOM      7  C   UNL     1      28.677 -10.717  13.860  1.00  0.00     0.000 C 
BRANCH   7   8
ATOM      8  C   UNL     1      29.790  -9.657  13.748  1.00  0.00     0.000 C 
BRANCH   8   9
ATOM      9  C   UNL     1      29.336  -8.344  13.077  1.00  0.00     0.000 C 
BRANCH   9  10
ATOM     10  C   UNL     1      30.205  -7.141  13.483  1.00  0.00     0.006 C 
BRANCH  10  11
ATOM     11  C   UNL     1      29.703  -5.829  12.866  1.00  0.00     0.053 C 
BRANCH  11  12
ATOM     12  C   UNL     1      28.380  -5.417  13.436  1.00  0.00     0.041 C 
ATOM     13  O   UNL     1      27.347  -5.438  12.716  1.00  0.00    -0.550 OA
ATOM     14  O   UNL     1      28.282  -5.044  14.771  1.00  0.00    -0.550 OA
ENDBRANCH  11  12
ENDBRANCH  10  11
ENDBRANCH   9  10
ENDBRANCH   8   9
ENDBRANCH   7   8
ENDBRANCH   6   7
ENDBRANCH   5   6
ENDBRANCH   4   5
ENDBRANCH   3   4
ENDBRANCH   2   3
ENDBRANCH   1   2
BRANCH   1  15
ATOM     15  C   UNL     1      26.201  -8.983  16.700  1.00  0.00     0.000 C 
BRANCH  15  16
ATOM     16  C   UNL     1      26.330  -8.382  18.110  1.00  0.00     0.000 C 
BRANCH  16  17
ATOM     17  C   UNL     1      26.656  -9.401  19.218  1.00  0.00     0.000 C 
BRANCH  17  18
ATOM     18  C   UNL     1      27.970  -9.083  19.954  1.00  0.00    -0.000 C 
BRANCH  18  19
ATOM     19  C   UNL     1      28.983 -10.244  19.879  1.00  0.00    -0.000 C 
BRANCH  19  20
ATOM     20  C   UNL     1      28.839 -11.125  18.622  1.00  0.00    -0.000 C 
BRANCH  20  21
ATOM     21  C   UNL     1      29.551 -10.567  17.375  1.00  0.00    -0.000 C 
BRANCH  21  22
ATOM     22  C   UNL     1      30.945 -10.001  17.697  1.00  0.00    -0.000 C 
BRANCH  22  23
ATOM     23  C   UNL     1      31.125  -8.556  17.207  1.00  0.00    -0.000 C 
BRANCH  23  24
ATOM     24  C   UNL     1      29.787  -7.825  17.017  1.00  0.00    -0.000 C 
BRANCH  24  25
ATOM     25  C   UNL     1      29.844  -6.412  17.608  1.00  0.00    -0.003 C 
ATOM     26  C   UNL     1      30.333  -6.438  19.053  1.00  0.00     0.004 C 
ENDBRANCH  24  25
ENDBRANCH  23  24
ENDBRANCH  22  23
ENDBRANCH  21  22
ENDBRANCH  20  21
ENDBRANCH  19  20
ENDBRANCH  18  19
ENDBRANCH  17  18
ENDBRANCH  16  17
ENDBRANCH  15  16
ENDBRANCH   1  15
TORSDOF 22
ENDMDL
MODEL 8
REMARK VINA RESULT:    -0.849      3.425      6.135
REMARK INTER + INTRA:          -6.567
REMARK INTER:                  -1.645
REMARK INTRA:                  -4.922
REMARK UNBOUND:                -4.625
REMARK SMILES CCCCCCCCCCCCCCCCCCCCCCCC(=O)[O-]
REMARK SMILES IDX 13 1 14 2 15 3 16 4 17 5 18 6 19 7 20 8 21 9 22 10 23 11
REMARK SMILES IDX 24 12 25 13 26 14 12 15 11 16 10 17 9 18 8 19 7 20 6 21 5 22
REMARK SMILES IDX 4 23 3 24 2 25 1 26
REMARK H PARENT
REMARK Flexibility Score: inf
ROOT
ATOM      1  C   UNL     1      25.683  -5.482  15.527  1.00  0.00     0.000 C 
ENDROOT
BRANCH   1   2
ATOM      2  C   UNL     1      26.697  -4.472  16.087  1.00  0.00     0.000 C 
BRANCH   2   3
ATOM      3  C   UNL     1      27.450  -5.015  17.315  1.00  0.00     0.000 C 
BRANCH   3   4
ATOM      4  C   UNL     1      28.977  -4.945  17.151  1.00  0.00     0.000 C 
BRANCH   4   5
ATOM      5  C   UNL     1      29.683  -6.214  17.659  1.00  0.00     0.000 C 
BRANCH   5   6
ATOM      6  C   UNL     1      30.664  -6.804  16.627  1.00  0.00     0.000 C 
BRANCH   6   7
ATOM      7  C   UNL     1      30.855  -5.962  15.351  1.00  0.00     0.000 C 
BRANCH   7   8
ATOM      8  C   UNL     1      30.581  -6.704  14.028  1.00  0.00     0.000 C 
BRANCH   8   9
ATOM      9  C   UNL     1      29.762  -5.883  13.011  1.00  0.00     0.000 C 
BRANCH   9  10
ATOM     10  C   UNL     1      29.407  -4.480  13.534  1.00  0.00     0.006 C 
BRANCH  10  11
ATOM     11  C   UNL     1      28.499  -3.712  12.563  1.00  0.00     0.053 C 
BRANCH  11  12
ATOM     12  C   UNL     1      27.943  -2.469  13.188  1.00  0.00     0.041 C 
ATOM     13  O   UNL     1      28.566  -1.897  14.121  1.00  0.00    -0.550 OA
ATOM     14  O   UNL     1      26.755  -1.924  12.716  1.00  0.00    -0.550 OA
ENDBRANCH  11  12
ENDBRANCH  10  11
ENDBRANCH   9  10
ENDBRANCH   8   9
ENDBRANCH   7   8
ENDBRANCH   6   7
ENDBRANCH   5   6
ENDBRANCH   4   5
ENDBRANCH   3   4
ENDBRANCH   2   3
ENDBRANCH   1   2
BRANCH   1  15
ATOM     15  C   UNL     1      26.003  -5.909  14.084  1.00  0.00     0.000 C 
BRANCH  15  16
ATOM     16  C   UNL     1      26.334  -7.407  13.965  1.00  0.00     0.000 C 
BRANCH  16  17
ATOM     17  C   UNL     1      27.376  -7.921  14.975  1.00  0.00     0.000 C 
BRANCH  17  18
ATOM     18  C   UNL     1      26.808  -8.983  15.932  1.00  0.00    -0.000 C 
BRANCH  18  19
ATOM     19  C   UNL     1      27.532  -8.998  17.293  1.00  0.00    -0.000 C 
BRANCH  19  20
ATOM     20  C   UNL     1      27.631 -10.394  17.939  1.00  0.00    -0.000 C 
BRANCH  20  21
ATOM     21  C   UNL     1      28.959 -10.657  18.674  1.00  0.00    -0.000 C 
BRANCH  21  22
ATOM     22  C   UNL     1      30.181 -10.179  17.870  1.00  0.00    -0.000 C 
BRANCH  22  23
ATOM     23  C   UNL     1      30.534 -11.125  16.712  1.00  0.00    -0.000 C 
BRANCH  23  24
ATOM     24  C   UNL     1      30.665 -10.390  15.369  1.00  0.00    -0.000 C 
BRANCH  24  25
ATOM     25  C   UNL     1      29.616 -10.885  14.367  1.00  0.00    -0.003 C 
ATOM     26  C   UNL     1      29.724 -10.137  13.041  1.00  0.00     0.004 C 
ENDBRANCH  24  25
ENDBRANCH  23  24
ENDBRANCH  22  23
ENDBRANCH  21  22
ENDBRANCH  20  21
ENDBRANCH  19  20
ENDBRANCH  18  19
ENDBRANCH  17  18
ENDBRANCH  16  17
ENDBRANCH  15  16
ENDBRANCH   1  15
TORSDOF 22
ENDMDL
MODEL 9
REMARK VINA RESULT:    -0.844      2.884      5.478
REMARK INTER + INTRA:          -6.554
REMARK INTER:                  -2.219
REMARK INTRA:                  -4.336
REMARK UNBOUND:                -4.625
REMARK SMILES CCCCCCCCCCCCCCCCCCCCCCCC(=O)[O-]
REMARK SMILES IDX 13 1 14 2 15 3 16 4 17 5 18 6 19 7 20 8 21 9 22 10 23 11
REMARK SMILES IDX 24 12 25 13 26 14 12 15 11 16 10 17 9 18 8 19 7 20 6 21 5 22
REMARK SMILES IDX 4 23 3 24 2 25 1 26
REMARK H PARENT
REMARK Flexibility Score: inf
ROOT
ATOM      1  C   UNL     1      29.520 -10.735  13.587  1.00  0.00     0.000 C 
ENDROOT
BRANCH   1   2
ATOM      2  C   UNL     1      29.153 -10.363  15.033  1.00  0.00     0.000 C 
BRANCH   2   3
ATOM      3  C   UNL     1      30.366  -9.856  15.834  1.00  0.00     0.000 C 
BRANCH   3   4
ATOM      4  C   UNL     1      30.087  -8.523  16.548  1.00  0.00     0.000 C 
BRANCH   4   5
ATOM      5  C   UNL     1      31.125  -8.211  17.639  1.00  0.00     0.000 C 
BRANCH   5   6
ATOM      6  C   UNL     1      30.522  -8.225  19.057  1.00  0.00     0.000 C 
BRANCH   6   7
ATOM      7  C   UNL     1      29.940  -9.579  19.506  1.00  0.00     0.000 C 
BRANCH   7   8
ATOM      8  C   UNL     1      28.463  -9.545  19.947  1.00  0.00     0.000 C 
BRANCH   8   9
ATOM      9  C   UNL     1      27.482  -9.174  18.815  1.00  0.00     0.000 C 
BRANCH   9  10
ATOM     10  C   UNL     1      27.073 -10.391  17.967  1.00  0.00     0.006 C 
BRANCH  10  11
ATOM     11  C   UNL     1      25.760 -11.019  18.453  1.00  0.00     0.053 C 
BRANCH  11  12
ATOM     12  C   UNL     1      24.719 -11.035  17.374  1.00  0.00     0.041 C 
ATOM     13  O   UNL     1      25.062 -10.998  16.163  1.00  0.00    -0.550 OA
ATOM     14  O   UNL     1      23.373 -11.124  17.706  1.00  0.00    -0.550 OA
ENDBRANCH  11  12
ENDBRANCH  10  11
ENDBRANCH   9  10
ENDBRANCH   8   9
ENDBRANCH   7   8
ENDBRANCH   6   7
ENDBRANCH   5   6
ENDBRANCH   4   5
ENDBRANCH   3   4
ENDBRANCH   2   3
ENDBRANCH   1   2
BRANCH   1  15
ATOM     15  C   UNL     1      30.975 -10.380  13.232  1.00  0.00     0.000 C 
BRANCH  15  16
ATOM     16  C   UNL     1      31.122  -9.822  11.806  1.00  0.00     0.000 C 
BRANCH  16  17
ATOM     17  C   UNL     1      30.854  -8.312  11.672  1.00  0.00     0.000 C 
BRANCH  17  18
ATOM     18  C   UNL     1      31.060  -7.549  12.993  1.00  0.00    -0.000 C 
BRANCH  18  19
ATOM     19  C   UNL     1      29.811  -6.749  13.413  1.00  0.00    -0.000 C 
BRANCH  19  20
ATOM     20  C   UNL     1      28.623  -6.878  12.439  1.00  0.00    -0.000 C 
BRANCH  20  21
ATOM     21  C   UNL     1      27.505  -7.820  12.927  1.00  0.00    -0.000 C 
BRANCH  21  22
ATOM     22  C   UNL     1      26.523  -7.121  13.882  1.00  0.00    -0.000 C 
BRANCH  22  23
ATOM     23  C   UNL     1      26.658  -7.610  15.332  1.00  0.00    -0.000 C 
BRANCH  23  24
ATOM     24  C   UNL     1      27.043  -6.482  16.303  1.00  0.00    -0.000 C 
BRANCH  24  25
ATOM     25  C   UNL     1      27.006  -5.119  15.603  1.00  0.00    -0.003 C 
ATOM     26  C   UNL     1      28.320  -4.365  15.795  1.00  0.00     0.004 C 
ENDBRANCH  24  25
ENDBRANCH  23  24
ENDBRANCH  22  23
ENDBRANCH  21  22
ENDBRANCH  20  21
ENDBRANCH  19  20
ENDBRANCH  18  19
ENDBRANCH  17  18
ENDBRANCH  16  17
ENDBRANCH  15  16
ENDBRANCH   1  15
TORSDOF 22
ENDMDL
