MODEL 1
REMARK VINA RESULT:    -6.861      0.000      0.000
REMARK INTER + INTRA:          -8.515
REMARK INTER:                  -8.264
REMARK INTRA:                  -0.251
REMARK UNBOUND:                -0.251
REMARK SMILES O=c1c(O)c(-c2ccc(O)c(O)c2)oc2cc(O)cc(O)c12
REMARK SMILES IDX 5 1 3 2 2 3 1 4 22 5 20 6 19 7 17 8 16 9 15 10 14 11 6 12
REMARK SMILES IDX 7 13 8 14 9 15 13 16 11 17 10 18 12 20 4 22 21 24 18 26
REMARK H PARENT 10 19 12 21 4 23 21 25 18 27
REMARK Flexibility Score: inf
ROOT
ATOM      1  C   UNL     1      12.210   1.907   9.441  1.00  0.00     0.180 A 
ATOM      2  C   UNL     1      12.608   0.661   8.920  1.00  0.00     0.208 A 
ATOM      3  C   UNL     1      13.657  -0.031   9.546  1.00  0.00     0.238 A 
ATOM      4  O   UNL     1      14.015  -1.154   9.096  1.00  0.00    -0.285 OA
ATOM      5  C   UNL     1      14.301   0.540  10.663  1.00  0.00     0.111 A 
ATOM      6  C   UNL     1      15.368  -0.091  11.348  1.00  0.00     0.134 A 
ATOM      7  C   UNL     1      15.963   0.549  12.446  1.00  0.00     0.093 A 
ATOM      8  C   UNL     1      15.515   1.801  12.871  1.00  0.00     0.123 A 
ATOM      9  C   UNL     1      14.460   2.427  12.200  1.00  0.00     0.094 A 
ATOM     10  C   UNL     1      13.853   1.807  11.104  1.00  0.00     0.146 A 
ATOM     11  O   UNL     1      12.850   2.422  10.486  1.00  0.00    -0.452 OA
ENDROOT
BRANCH   1  12
ATOM     12  C   UNL     1      11.100   2.689   8.848  1.00  0.00     0.025 A 
ATOM     13  C   UNL     1      11.249   3.355   7.618  1.00  0.00     0.016 A 
ATOM     14  C   UNL     1      10.181   4.067   7.067  1.00  0.00     0.051 A 
ATOM     15  C   UNL     1       8.946   4.111   7.727  1.00  0.00     0.157 A 
ATOM     16  C   UNL     1       9.853   2.719   9.495  1.00  0.00     0.062 A 
ATOM     17  C   UNL     1       8.782   3.433   8.941  1.00  0.00     0.158 A 
BRANCH  15  18
ATOM     18  O   UNL     1       7.878   4.820   7.181  1.00  0.00    -0.504 OA
ATOM     19  H   UNL     1       6.963   4.398   7.069  1.00  0.00     0.293 HD
ENDBRANCH  15  18
BRANCH  17  20
ATOM     20  O   UNL     1       7.550   3.474   9.592  1.00  0.00    -0.504 OA
ATOM     21  H   UNL     1       7.051   2.625   9.836  1.00  0.00     0.293 HD
ENDBRANCH  17  20
ENDBRANCH   1  12
BRANCH   2  22
ATOM     22  O   UNL     1      11.987   0.139   7.783  1.00  0.00    -0.502 OA
ATOM     23  H   UNL     1      10.980   0.127   7.672  1.00  0.00     0.293 HD
ENDBRANCH   2  22
BRANCH   6  24
ATOM     24  O   UNL     1      15.841  -1.340  10.946  1.00  0.00    -0.507 OA
ATOM     25  H   UNL     1      15.241  -2.012  10.482  1.00  0.00     0.293 HD
ENDBRANCH   6  24
BRANCH   8  26
ATOM     26  O   UNL     1      16.123   2.413  13.964  1.00  0.00    -0.508 OA
ATOM     27  H   UNL     1      15.625   2.557  14.836  1.00  0.00     0.293 HD
ENDBRANCH   8  26
TORSDOF 6
ENDMDL
MODEL 2
REMARK VINA RESULT:    -6.019      1.595      3.019
REMARK INTER + INTRA:          -7.501
REMARK INTER:                  -7.316
REMARK INTRA:                  -0.185
REMARK UNBOUND:                -0.251
REMARK SMILES O=c1c(O)c(-c2ccc(O)c(O)c2)oc2cc(O)cc(O)c12
REMARK SMILES IDX 5 1 3 2 2 3 1 4 22 5 20 6 19 7 17 8 16 9 15 10 14 11 6 12
REMARK SMILES IDX 7 13 8 14 9 15 13 16 11 17 10 18 12 20 4 22 21 24 18 26
REMARK H PARENT 10 19 12 21 4 23 21 25 18 27
REMARK Flexibility Score: inf
ROOT
ATOM      1  C   UNL     1      11.676   2.251   9.115  1.00  0.00     0.180 A 
ATOM      2  C   UNL     1      12.051   2.395  10.464  1.00  0.00     0.208 A 
ATOM      3  C   UNL     1      13.224   1.768  10.913  1.00  0.00     0.238 A 
ATOM      4  O   UNL     1      13.577   1.899  12.117  1.00  0.00    -0.285 OA
ATOM      5  C   UNL     1      13.989   0.996  10.013  1.00  0.00     0.111 A 
ATOM      6  C   UNL     1      15.181   0.329  10.387  1.00  0.00     0.134 A 
ATOM      7  C   UNL     1      15.880  -0.430   9.435  1.00  0.00     0.093 A 
ATOM      8  C   UNL     1      15.412  -0.535   8.124  1.00  0.00     0.123 A 
ATOM      9  C   UNL     1      14.236   0.123   7.750  1.00  0.00     0.094 A 
ATOM     10  C   UNL     1      13.525   0.884   8.682  1.00  0.00     0.146 A 
ATOM     11  O   UNL     1      12.413   1.502   8.300  1.00  0.00    -0.452 OA
ENDROOT
BRANCH   1  12
ATOM     12  C   UNL     1      10.462   2.896   8.562  1.00  0.00     0.025 A 
ATOM     13  C   UNL     1      10.549   3.904   7.585  1.00  0.00     0.016 A 
ATOM     14  C   UNL     1       9.390   4.482   7.061  1.00  0.00     0.051 A 
ATOM     15  C   UNL     1       8.129   4.051   7.494  1.00  0.00     0.157 A 
ATOM     16  C   UNL     1       9.195   2.454   8.977  1.00  0.00     0.062 A 
ATOM     17  C   UNL     1       8.032   3.033   8.451  1.00  0.00     0.158 A 
BRANCH  15  18
ATOM     18  O   UNL     1       6.970   4.624   6.974  1.00  0.00    -0.504 OA
ATOM     19  H   UNL     1       6.050   4.331   7.281  1.00  0.00     0.293 HD
ENDBRANCH  15  18
BRANCH  17  20
ATOM     20  O   UNL     1       6.775   2.603   8.875  1.00  0.00    -0.504 OA
ATOM     21  H   UNL     1       6.445   2.779   9.817  1.00  0.00     0.293 HD
ENDBRANCH  17  20
ENDBRANCH   1  12
BRANCH   2  22
ATOM     22  O   UNL     1      11.250   3.125  11.346  1.00  0.00    -0.502 OA
ATOM     23  H   UNL     1      10.239   3.124  11.287  1.00  0.00     0.293 HD
ENDBRANCH   2  22
BRANCH   6  24
ATOM     24  O   UNL     1      15.674   0.413  11.689  1.00  0.00    -0.507 OA
ATOM     25  H   UNL     1      15.235   1.000  12.388  1.00  0.00     0.293 HD
ENDBRANCH   6  24
BRANCH   8  26
ATOM     26  O   UNL     1      16.125  -1.293   7.199  1.00  0.00    -0.508 OA
ATOM     27  H   UNL     1      16.307  -2.279   7.350  1.00  0.00     0.293 HD
ENDBRANCH   8  26
TORSDOF 6
ENDMDL
MODEL 3
REMARK VINA RESULT:    -5.919      1.297      2.946
REMARK INTER + INTRA:          -7.380
REMARK INTER:                  -7.353
REMARK INTRA:                  -0.027
REMARK UNBOUND:                -0.251
REMARK SMILES O=c1c(O)c(-c2ccc(O)c(O)c2)oc2cc(O)cc(O)c12
REMARK SMILES IDX 5 1 3 2 2 3 1 4 22 5 20 6 19 7 17 8 16 9 15 10 14 11 6 12
REMARK SMILES IDX 7 13 8 14 9 15 13 16 11 17 10 18 12 20 4 22 21 24 18 26
REMARK H PARENT 10 19 12 21 4 23 21 25 18 27
REMARK Flexibility Score: inf
ROOT
ATOM      1  C   UNL     1      12.403   1.891   9.575  1.00  0.00     0.180 A 
ATOM      2  C   UNL     1      12.838   2.112  10.896  1.00  0.00     0.208 A 
ATOM      3  C   UNL     1      13.900   1.343  11.397  1.00  0.00     0.238 A 
ATOM      4  O   UNL     1      14.306   1.540  12.575  1.00  0.00    -0.285 OA
ATOM      5  C   UNL     1      14.495   0.359  10.580  1.00  0.00     0.111 A 
ATOM      6  C   UNL     1      15.568  -0.459  11.011  1.00  0.00     0.134 A 
ATOM      7  C   UNL     1      16.098  -1.424  10.141  1.00  0.00     0.093 A 
ATOM      8  C   UNL     1      15.579  -1.586   8.854  1.00  0.00     0.123 A 
ATOM      9  C   UNL     1      14.521  -0.779   8.424  1.00  0.00     0.094 A 
ATOM     10  C   UNL     1      13.979   0.188   9.274  1.00  0.00     0.146 A 
ATOM     11  O   UNL     1      12.977   0.944   8.839  1.00  0.00    -0.452 OA
ENDROOT
BRANCH   1  12
ATOM     12  C   UNL     1      11.301   2.673   8.968  1.00  0.00     0.025 A 
ATOM     13  C   UNL     1      11.462   3.333   7.737  1.00  0.00     0.016 A 
ATOM     14  C   UNL     1      10.401   4.046   7.173  1.00  0.00     0.051 A 
ATOM     15  C   UNL     1       9.160   4.096   7.822  1.00  0.00     0.157 A 
ATOM     16  C   UNL     1      10.048   2.710   9.604  1.00  0.00     0.062 A 
ATOM     17  C   UNL     1       8.983   3.424   9.038  1.00  0.00     0.158 A 
BRANCH  15  18
ATOM     18  O   UNL     1       8.099   4.805   7.263  1.00  0.00    -0.504 OA
ATOM     19  H   UNL     1       7.586   4.449   6.464  1.00  0.00     0.293 HD
ENDBRANCH  15  18
BRANCH  17  20
ATOM     20  O   UNL     1       7.746   3.471   9.678  1.00  0.00    -0.504 OA
ATOM     21  H   UNL     1       7.097   4.234   9.521  1.00  0.00     0.293 HD
ENDBRANCH  17  20
ENDBRANCH   1  12
BRANCH   2  22
ATOM     22  O   UNL     1      12.200   3.059  11.700  1.00  0.00    -0.502 OA
ATOM     23  H   UNL     1      11.705   2.806  12.547  1.00  0.00     0.293 HD
ENDBRANCH   2  22
BRANCH   6  24
ATOM     24  O   UNL     1      16.106  -0.323  12.290  1.00  0.00    -0.507 OA
ATOM     25  H   UNL     1      15.554  -0.494  13.122  1.00  0.00     0.293 HD
ENDBRANCH   6  24
BRANCH   8  26
ATOM     26  O   UNL     1      16.124  -2.551   8.011  1.00  0.00    -0.508 OA
ATOM     27  H   UNL     1      15.538  -3.207   7.507  1.00  0.00     0.293 HD
ENDBRANCH   8  26
TORSDOF 6
ENDMDL
MODEL 4
REMARK VINA RESULT:    -5.854      1.295      1.396
REMARK INTER + INTRA:          -7.302
REMARK INTER:                  -6.995
REMARK INTRA:                  -0.307
REMARK UNBOUND:                -0.251
REMARK SMILES O=c1c(O)c(-c2ccc(O)c(O)c2)oc2cc(O)cc(O)c12
REMARK SMILES IDX 5 1 3 2 2 3 1 4 22 5 20 6 19 7 17 8 16 9 15 10 14 11 6 12
REMARK SMILES IDX 7 13 8 14 9 15 13 16 11 17 10 18 12 20 4 22 21 24 18 26
REMARK H PARENT 10 19 12 21 4 23 21 25 18 27
REMARK Flexibility Score: inf
ROOT
ATOM      1  C   UNL     1      12.416   1.089   9.673  1.00  0.00     0.180 A 
ATOM      2  C   UNL     1      12.389  -0.241   9.213  1.00  0.00     0.208 A 
ATOM      3  C   UNL     1      13.123  -1.215   9.908  1.00  0.00     0.238 A 
ATOM      4  O   UNL     1      13.097  -2.412   9.512  1.00  0.00    -0.285 OA
ATOM      5  C   UNL     1      13.883  -0.841  11.036  1.00  0.00     0.111 A 
ATOM      6  C   UNL     1      14.653  -1.761  11.790  1.00  0.00     0.134 A 
ATOM      7  C   UNL     1      15.392  -1.307  12.893  1.00  0.00     0.093 A 
ATOM      8  C   UNL     1      15.377   0.041  13.256  1.00  0.00     0.123 A 
ATOM      9  C   UNL     1      14.617   0.952  12.516  1.00  0.00     0.094 A 
ATOM     10  C   UNL     1      13.873   0.522  11.414  1.00  0.00     0.146 A 
ATOM     11  O   UNL     1      13.157   1.408  10.731  1.00  0.00    -0.452 OA
ENDROOT
BRANCH   1  12
ATOM     12  C   UNL     1      11.654   2.169   9.004  1.00  0.00     0.025 A 
ATOM     13  C   UNL     1      12.155   2.818   7.862  1.00  0.00     0.016 A 
ATOM     14  C   UNL     1      11.408   3.818   7.233  1.00  0.00     0.051 A 
ATOM     15  C   UNL     1      10.146   4.172   7.728  1.00  0.00     0.157 A 
ATOM     16  C   UNL     1      10.379   2.514   9.483  1.00  0.00     0.062 A 
ATOM     17  C   UNL     1       9.630   3.517   8.852  1.00  0.00     0.158 A 
BRANCH  15  18
ATOM     18  O   UNL     1       9.398   5.169   7.105  1.00  0.00    -0.504 OA
ATOM     19  H   UNL     1       9.842   5.928   6.601  1.00  0.00     0.293 HD
ENDBRANCH  15  18
BRANCH  17  20
ATOM     20  O   UNL     1       8.371   3.867   9.338  1.00  0.00    -0.504 OA
ATOM     21  H   UNL     1       7.925   4.739   9.074  1.00  0.00     0.293 HD
ENDBRANCH  17  20
ENDBRANCH   1  12
BRANCH   2  22
ATOM     22  O   UNL     1      11.667  -0.577   8.065  1.00  0.00    -0.502 OA
ATOM     23  H   UNL     1      10.680  -0.804   8.092  1.00  0.00     0.293 HD
ENDBRANCH   2  22
BRANCH   6  24
ATOM     24  O   UNL     1      14.691  -3.114  11.451  1.00  0.00    -0.507 OA
ATOM     25  H   UNL     1      13.865  -3.605  11.129  1.00  0.00     0.293 HD
ENDBRANCH   6  24
BRANCH   8  26
ATOM     26  O   UNL     1      16.119   0.464  14.356  1.00  0.00    -0.508 OA
ATOM     27  H   UNL     1      15.690   0.972  15.121  1.00  0.00     0.293 HD
ENDBRANCH   8  26
TORSDOF 6
ENDMDL
MODEL 5
REMARK VINA RESULT:    -5.687      1.906      3.630
REMARK INTER + INTRA:          -7.101
REMARK INTER:                  -6.779
REMARK INTRA:                  -0.322
REMARK UNBOUND:                -0.251
REMARK SMILES O=c1c(O)c(-c2ccc(O)c(O)c2)oc2cc(O)cc(O)c12
REMARK SMILES IDX 5 1 3 2 2 3 1 4 22 5 20 6 19 7 17 8 16 9 15 10 14 11 6 12
REMARK SMILES IDX 7 13 8 14 9 15 13 16 11 17 10 18 12 20 4 22 21 24 18 26
REMARK H PARENT 10 19 12 21 4 23 21 25 18 27
REMARK Flexibility Score: inf
ROOT
ATOM      1  C   UNL     1      12.423   1.384   9.758  1.00  0.00     0.180 A 
ATOM      2  C   UNL     1      13.339   1.767  10.756  1.00  0.00     0.208 A 
ATOM      3  C   UNL     1      14.114   0.778  11.381  1.00  0.00     0.238 A 
ATOM      4  O   UNL     1      14.947   1.110  12.269  1.00  0.00    -0.285 OA
ATOM      5  C   UNL     1      13.946  -0.574  11.014  1.00  0.00     0.111 A 
ATOM      6  C   UNL     1      14.684  -1.632  11.599  1.00  0.00     0.134 A 
ATOM      7  C   UNL     1      14.451  -2.953  11.187  1.00  0.00     0.093 A 
ATOM      8  C   UNL     1      13.498  -3.236  10.206  1.00  0.00     0.123 A 
ATOM      9  C   UNL     1      12.768  -2.194   9.625  1.00  0.00     0.094 A 
ATOM     10  C   UNL     1      12.985  -0.871  10.020  1.00  0.00     0.146 A 
ATOM     11  O   UNL     1      12.280   0.099   9.449  1.00  0.00    -0.452 OA
ENDROOT
BRANCH   1  12
ATOM     12  C   UNL     1      11.584   2.371   9.040  1.00  0.00     0.025 A 
ATOM     13  C   UNL     1      10.345   2.792   9.556  1.00  0.00     0.016 A 
ATOM     14  C   UNL     1       9.581   3.743   8.873  1.00  0.00     0.051 A 
ATOM     15  C   UNL     1      10.050   4.296   7.673  1.00  0.00     0.157 A 
ATOM     16  C   UNL     1      12.058   2.945   7.848  1.00  0.00     0.062 A 
ATOM     17  C   UNL     1      11.292   3.898   7.163  1.00  0.00     0.158 A 
BRANCH  15  18
ATOM     18  O   UNL     1       9.292   5.243   6.989  1.00  0.00    -0.504 OA
ATOM     19  H   UNL     1       8.321   5.072   6.750  1.00  0.00     0.293 HD
ENDBRANCH  15  18
BRANCH  17  20
ATOM     20  O   UNL     1      11.758   4.455   5.973  1.00  0.00    -0.504 OA
ATOM     21  H   UNL     1      11.129   4.902   5.315  1.00  0.00     0.293 HD
ENDBRANCH  17  20
ENDBRANCH   1  12
BRANCH   2  22
ATOM     22  O   UNL     1      13.451   3.107  11.135  1.00  0.00    -0.502 OA
ATOM     23  H   UNL     1      12.708   3.778  10.982  1.00  0.00     0.293 HD
ENDBRANCH   2  22
BRANCH   6  24
ATOM     24  O   UNL     1      15.642  -1.382  12.583  1.00  0.00    -0.507 OA
ATOM     25  H   UNL     1      16.084  -2.134  13.099  1.00  0.00     0.293 HD
ENDBRANCH   6  24
BRANCH   8  26
ATOM     26  O   UNL     1      13.287  -4.555   9.815  1.00  0.00    -0.508 OA
ATOM     27  H   UNL     1      13.365  -5.322  10.473  1.00  0.00     0.293 HD
ENDBRANCH   8  26
TORSDOF 6
ENDMDL
MODEL 6
REMARK VINA RESULT:    -5.285      1.707      7.041
REMARK INTER + INTRA:          -6.617
REMARK INTER:                  -6.313
REMARK INTRA:                  -0.304
REMARK UNBOUND:                -0.251
REMARK SMILES O=c1c(O)c(-c2ccc(O)c(O)c2)oc2cc(O)cc(O)c12
REMARK SMILES IDX 5 1 3 2 2 3 1 4 22 5 20 6 19 7 17 8 16 9 15 10 14 11 6 12
REMARK SMILES IDX 7 13 8 14 9 15 13 16 11 17 10 18 12 20 4 22 21 24 18 26
REMARK H PARENT 10 19 12 21 4 23 21 25 18 27
REMARK Flexibility Score: inf
ROOT
ATOM      1  C   UNL     1      11.700   1.739   9.212  1.00  0.00     0.180 A 
ATOM      2  C   UNL     1      12.230   2.433   8.107  1.00  0.00     0.208 A 
ATOM      3  C   UNL     1      11.380   3.257   7.353  1.00  0.00     0.238 A 
ATOM      4  O   UNL     1      11.846   3.893   6.368  1.00  0.00    -0.285 OA
ATOM      5  C   UNL     1      10.017   3.358   7.702  1.00  0.00     0.111 A 
ATOM      6  C   UNL     1       9.094   4.164   6.991  1.00  0.00     0.134 A 
ATOM      7  C   UNL     1       7.751   4.203   7.396  1.00  0.00     0.093 A 
ATOM      8  C   UNL     1       7.314   3.456   8.492  1.00  0.00     0.123 A 
ATOM      9  C   UNL     1       8.222   2.660   9.197  1.00  0.00     0.094 A 
ATOM     10  C   UNL     1       9.565   2.607   8.812  1.00  0.00     0.146 A 
ATOM     11  O   UNL     1      10.406   1.846   9.502  1.00  0.00    -0.452 OA
ENDROOT
BRANCH   1  12
ATOM     12  C   UNL     1      12.536   0.865  10.067  1.00  0.00     0.025 A 
ATOM     13  C   UNL     1      12.591  -0.525   9.860  1.00  0.00     0.016 A 
ATOM     14  C   UNL     1      13.405  -1.328  10.664  1.00  0.00     0.051 A 
ATOM     15  C   UNL     1      14.187  -0.751  11.674  1.00  0.00     0.157 A 
ATOM     16  C   UNL     1      13.338   1.439  11.067  1.00  0.00     0.062 A 
ATOM     17  C   UNL     1      14.155   0.634  11.874  1.00  0.00     0.158 A 
BRANCH  15  18
ATOM     18  O   UNL     1      15.000  -1.548  12.478  1.00  0.00    -0.504 OA
ATOM     19  H   UNL     1      16.002  -1.595  12.335  1.00  0.00     0.293 HD
ENDBRANCH  15  18
BRANCH  17  20
ATOM     20  O   UNL     1      14.939   1.205  12.876  1.00  0.00    -0.504 OA
ATOM     21  H   UNL     1      14.751   2.136  13.229  1.00  0.00     0.293 HD
ENDBRANCH  17  20
ENDBRANCH   1  12
BRANCH   2  22
ATOM     22  O   UNL     1      13.572   2.277   7.753  1.00  0.00    -0.502 OA
ATOM     23  H   UNL     1      14.189   3.066   7.605  1.00  0.00     0.293 HD
ENDBRANCH   2  22
BRANCH   6  24
ATOM     24  O   UNL     1       9.499   4.921   5.892  1.00  0.00    -0.507 OA
ATOM     25  H   UNL     1      10.454   4.901   5.554  1.00  0.00     0.293 HD
ENDBRANCH   6  24
BRANCH   8  26
ATOM     26  O   UNL     1       5.976   3.513   8.872  1.00  0.00    -0.508 OA
ATOM     27  H   UNL     1       5.252   3.050   8.334  1.00  0.00     0.293 HD
ENDBRANCH   8  26
TORSDOF 6
ENDMDL
MODEL 7
REMARK VINA RESULT:    -4.985      2.072      3.871
REMARK INTER + INTRA:          -6.256
REMARK INTER:                  -5.924
REMARK INTRA:                  -0.332
REMARK UNBOUND:                -0.251
REMARK SMILES O=c1c(O)c(-c2ccc(O)c(O)c2)oc2cc(O)cc(O)c12
REMARK SMILES IDX 5 1 3 2 2 3 1 4 22 5 20 6 19 7 17 8 16 9 15 10 14 11 6 12
REMARK SMILES IDX 7 13 8 14 9 15 13 16 11 17 10 18 12 20 4 22 21 24 18 26
REMARK H PARENT 10 19 12 21 4 23 21 25 18 27
REMARK Flexibility Score: inf
ROOT
ATOM      1  C   UNL     1      11.996   0.782   9.085  1.00  0.00     0.180 A 
ATOM      2  C   UNL     1      12.961   0.870  10.107  1.00  0.00     0.208 A 
ATOM      3  C   UNL     1      13.636  -0.295  10.504  1.00  0.00     0.238 A 
ATOM      4  O   UNL     1      14.510  -0.227  11.411  1.00  0.00    -0.285 OA
ATOM      5  C   UNL     1      13.323  -1.526   9.891  1.00  0.00     0.111 A 
ATOM      6  C   UNL     1      13.954  -2.745  10.237  1.00  0.00     0.134 A 
ATOM      7  C   UNL     1      13.579  -3.931   9.586  1.00  0.00     0.093 A 
ATOM      8  C   UNL     1      12.588  -3.921   8.601  1.00  0.00     0.123 A 
ATOM      9  C   UNL     1      11.963  -2.719   8.256  1.00  0.00     0.094 A 
ATOM     10  C   UNL     1      12.323  -1.527   8.890  1.00  0.00     0.146 A 
ATOM     11  O   UNL     1      11.716  -0.398   8.540  1.00  0.00    -0.452 OA
ENDROOT
BRANCH   1  12
ATOM     12  C   UNL     1      11.255   1.968   8.598  1.00  0.00     0.025 A 
ATOM     13  C   UNL     1      11.734   2.741   7.525  1.00  0.00     0.016 A 
ATOM     14  C   UNL     1      11.006   3.842   7.067  1.00  0.00     0.051 A 
ATOM     15  C   UNL     1       9.784   4.178   7.664  1.00  0.00     0.157 A 
ATOM     16  C   UNL     1      10.019   2.297   9.178  1.00  0.00     0.062 A 
ATOM     17  C   UNL     1       9.288   3.402   8.718  1.00  0.00     0.158 A 
BRANCH  15  18
ATOM     18  O   UNL     1       9.055   5.276   7.210  1.00  0.00    -0.504 OA
ATOM     19  H   UNL     1       8.219   5.161   6.648  1.00  0.00     0.293 HD
ENDBRANCH  15  18
BRANCH  17  20
ATOM     20  O   UNL     1       8.068   3.735   9.305  1.00  0.00    -0.504 OA
ATOM     21  H   UNL     1       7.186   3.505   8.861  1.00  0.00     0.293 HD
ENDBRANCH  17  20
ENDBRANCH   1  12
BRANCH   2  22
ATOM     22  O   UNL     1      13.217   2.093  10.732  1.00  0.00    -0.502 OA
ATOM     23  H   UNL     1      12.777   2.955  10.437  1.00  0.00     0.293 HD
ENDBRANCH   2  22
BRANCH   6  24
ATOM     24  O   UNL     1      14.945  -2.789  11.217  1.00  0.00    -0.507 OA
ATOM     25  H   UNL     1      15.927  -2.863  10.979  1.00  0.00     0.293 HD
ENDBRANCH   6  24
BRANCH   8  26
ATOM     26  O   UNL     1      12.235  -5.111   7.971  1.00  0.00    -0.508 OA
ATOM     27  H   UNL     1      12.668  -5.400   7.102  1.00  0.00     0.293 HD
ENDBRANCH   8  26
TORSDOF 6
ENDMDL
MODEL 8
REMARK VINA RESULT:    -4.778      2.702      4.368
REMARK INTER + INTRA:          -6.006
REMARK INTER:                  -5.674
REMARK INTRA:                  -0.332
REMARK UNBOUND:                -0.251
REMARK SMILES O=c1c(O)c(-c2ccc(O)c(O)c2)oc2cc(O)cc(O)c12
REMARK SMILES IDX 5 1 3 2 2 3 1 4 22 5 20 6 19 7 17 8 16 9 15 10 14 11 6 12
REMARK SMILES IDX 7 13 8 14 9 15 13 16 11 17 10 18 12 20 4 22 21 24 18 26
REMARK H PARENT 10 19 12 21 4 23 21 25 18 27
REMARK Flexibility Score: inf
ROOT
ATOM      1  C   UNL     1      12.433  -0.363   9.435  1.00  0.00     0.180 A 
ATOM      2  C   UNL     1      12.400   1.044   9.381  1.00  0.00     0.208 A 
ATOM      3  C   UNL     1      13.164   1.776  10.303  1.00  0.00     0.238 A 
ATOM      4  O   UNL     1      13.153   3.037  10.256  1.00  0.00    -0.285 OA
ATOM      5  C   UNL     1      13.929   1.094  11.272  1.00  0.00     0.111 A 
ATOM      6  C   UNL     1      14.722   1.758  12.240  1.00  0.00     0.134 A 
ATOM      7  C   UNL     1      15.446   1.007  13.178  1.00  0.00     0.093 A 
ATOM      8  C   UNL     1      15.392  -0.389  13.169  1.00  0.00     0.123 A 
ATOM      9  C   UNL     1      14.611  -1.049  12.215  1.00  0.00     0.094 A 
ATOM     10  C   UNL     1      13.883  -0.320  11.271  1.00  0.00     0.146 A 
ATOM     11  O   UNL     1      13.152  -0.972  10.373  1.00  0.00    -0.452 OA
ENDROOT
BRANCH   1  12
ATOM     12  C   UNL     1      11.669  -1.205   8.486  1.00  0.00     0.025 A 
ATOM     13  C   UNL     1      12.229  -1.624   7.266  1.00  0.00     0.016 A 
ATOM     14  C   UNL     1      11.498  -2.439   6.396  1.00  0.00     0.051 A 
ATOM     15  C   UNL     1      10.205  -2.856   6.740  1.00  0.00     0.157 A 
ATOM     16  C   UNL     1      10.381  -1.645   8.834  1.00  0.00     0.062 A 
ATOM     17  C   UNL     1       9.648  -2.461   7.962  1.00  0.00     0.158 A 
BRANCH  15  18
ATOM     18  O   UNL     1       9.473  -3.668   5.875  1.00  0.00    -0.504 OA
ATOM     19  H   UNL     1       9.016  -4.512   6.201  1.00  0.00     0.293 HD
ENDBRANCH  15  18
BRANCH  17  20
ATOM     20  O   UNL     1       8.364  -2.884   8.303  1.00  0.00    -0.504 OA
ATOM     21  H   UNL     1       8.212  -3.625   8.978  1.00  0.00     0.293 HD
ENDBRANCH  17  20
ENDBRANCH   1  12
BRANCH   2  22
ATOM     22  O   UNL     1      11.597   1.696   8.442  1.00  0.00    -0.502 OA
ATOM     23  H   UNL     1      11.757   2.657   8.166  1.00  0.00     0.293 HD
ENDBRANCH   2  22
BRANCH   6  24
ATOM     24  O   UNL     1      14.795   3.151  12.276  1.00  0.00    -0.507 OA
ATOM     25  H   UNL     1      13.996   3.719  12.529  1.00  0.00     0.293 HD
ENDBRANCH   6  24
BRANCH   8  26
ATOM     26  O   UNL     1      16.121  -1.110  14.112  1.00  0.00    -0.508 OA
ATOM     27  H   UNL     1      15.820  -1.176  15.077  1.00  0.00     0.293 HD
ENDBRANCH   8  26
TORSDOF 6
ENDMDL
