MODEL 1
REMARK VINA RESULT:    -6.114      0.000      0.000
REMARK INTER + INTRA:         -12.324
REMARK INTER:                 -11.475
REMARK INTRA:                  -0.849
REMARK UNBOUND:                -0.849
REMARK SMILES CCCCCCCCC=CCCCCCCCC(=O)[O-]
REMARK SMILES IDX 10 1 9 2 11 3 12 4 13 5 14 6 15 7 16 8 17 9 18 10 19 11
REMARK SMILES IDX 20 12 8 13 7 14 6 15 5 16 4 17 3 18 2 19 1 20
REMARK H PARENT
REMARK Flexibility Score: inf
ROOT
ATOM      1  C   UNL     1      24.036   0.046 -15.909  1.00  0.00    -0.031 C 
ATOM      2  C   UNL     1      23.387   0.446 -17.012  1.00  0.00    -0.031 C 
ENDROOT
BRANCH   1   3
ATOM      3  C   UNL     1      25.017  -1.096 -15.933  1.00  0.00     0.027 C 
BRANCH   3   4
ATOM      4  C   UNL     1      25.642  -1.283 -17.327  1.00  0.00     0.004 C 
BRANCH   4   5
ATOM      5  C   UNL     1      26.980  -2.048 -17.315  1.00  0.00     0.000 C 
BRANCH   5   6
ATOM      6  C   UNL     1      28.225  -1.201 -16.989  1.00  0.00     0.000 C 
BRANCH   6   7
ATOM      7  C   UNL     1      28.515  -1.009 -15.489  1.00  0.00     0.000 C 
BRANCH   7   8
ATOM      8  C   UNL     1      29.565   0.084 -15.219  1.00  0.00     0.006 C 
BRANCH   8   9
ATOM      9  C   UNL     1      30.987  -0.486 -15.151  1.00  0.00     0.053 C 
BRANCH   9  10
ATOM     10  C   UNL     1      31.829  -0.017 -16.298  1.00  0.00     0.041 C 
ATOM     11  O   UNL     1      33.085  -0.082 -16.233  1.00  0.00    -0.550 OA
ATOM     12  O   UNL     1      31.224   0.468 -17.451  1.00  0.00    -0.550 OA
ENDBRANCH   9  10
ENDBRANCH   8   9
ENDBRANCH   7   8
ENDBRANCH   6   7
ENDBRANCH   5   6
ENDBRANCH   4   5
ENDBRANCH   3   4
ENDBRANCH   1   3
BRANCH   2  13
ATOM     13  C   UNL     1      22.390   1.572 -16.970  1.00  0.00     0.027 C 
BRANCH  13  14
ATOM     14  C   UNL     1      21.306   1.395 -18.039  1.00  0.00     0.004 C 
BRANCH  14  15
ATOM     15  C   UNL     1      19.907   1.569 -17.437  1.00  0.00     0.000 C 
BRANCH  15  16
ATOM     16  C   UNL     1      19.939   1.398 -15.910  1.00  0.00     0.000 C 
BRANCH  16  17
ATOM     17  C   UNL     1      18.687   0.692 -15.359  1.00  0.00    -0.000 C 
BRANCH  17  18
ATOM     18  C   UNL     1      17.391   0.953 -16.149  1.00  0.00    -0.000 C 
BRANCH  18  19
ATOM     19  C   UNL     1      16.154   0.320 -15.496  1.00  0.00    -0.003 C 
ATOM     20  C   UNL     1      14.868   0.888 -16.090  1.00  0.00     0.004 C 
ENDBRANCH  18  19
ENDBRANCH  17  18
ENDBRANCH  16  17
ENDBRANCH  15  16
ENDBRANCH  14  15
ENDBRANCH  13  14
ENDBRANCH   2  13
TORSDOF 15
ENDMDL
MODEL 2
REMARK VINA RESULT:    -6.082      2.180      4.132
REMARK INTER + INTRA:         -12.264
REMARK INTER:                 -10.841
REMARK INTRA:                  -1.424
REMARK UNBOUND:                -0.849
REMARK SMILES CCCCCCCCC=CCCCCCCCC(=O)[O-]
REMARK SMILES IDX 10 1 9 2 11 3 12 4 13 5 14 6 15 7 16 8 17 9 18 10 19 11
REMARK SMILES IDX 20 12 8 13 7 14 6 15 5 16 4 17 3 18 2 19 1 20
REMARK H PARENT
REMARK Flexibility Score: inf
ROOT
ATOM      1  C   UNL     1      27.663  -0.777 -15.885  1.00  0.00    -0.031 C 
ATOM      2  C   UNL     1      26.775  -1.708 -16.265  1.00  0.00    -0.031 C 
ENDROOT
BRANCH   1   3
ATOM      3  C   UNL     1      28.934  -1.138 -15.163  1.00  0.00     0.027 C 
BRANCH   3   4
ATOM      4  C   UNL     1      29.943   0.024 -15.168  1.00  0.00     0.004 C 
BRANCH   4   5
ATOM      5  C   UNL     1      31.325  -0.350 -15.738  1.00  0.00     0.000 C 
BRANCH   5   6
ATOM      6  C   UNL     1      31.441  -0.319 -17.274  1.00  0.00     0.000 C 
BRANCH   6   7
ATOM      7  C   UNL     1      30.697   0.838 -17.966  1.00  0.00     0.000 C 
BRANCH   7   8
ATOM      8  C   UNL     1      29.536   0.355 -18.852  1.00  0.00     0.006 C 
BRANCH   8   9
ATOM      9  C   UNL     1      29.600  -1.154 -19.118  1.00  0.00     0.053 C 
BRANCH   9  10
ATOM     10  C   UNL     1      28.432  -1.627 -19.928  1.00  0.00     0.041 C 
ATOM     11  O   UNL     1      27.753  -2.616 -19.546  1.00  0.00    -0.550 OA
ATOM     12  O   UNL     1      28.077  -0.956 -21.092  1.00  0.00    -0.550 OA
ENDBRANCH   9  10
ENDBRANCH   8   9
ENDBRANCH   7   8
ENDBRANCH   6   7
ENDBRANCH   5   6
ENDBRANCH   4   5
ENDBRANCH   3   4
ENDBRANCH   1   3
BRANCH   2  13
ATOM     13  C   UNL     1      25.497  -1.333 -16.963  1.00  0.00     0.027 C 
BRANCH  13  14
ATOM     14  C   UNL     1      24.620  -0.441 -16.078  1.00  0.00     0.004 C 
BRANCH  14  15
ATOM     15  C   UNL     1      23.579   0.311 -16.916  1.00  0.00     0.000 C 
BRANCH  15  16
ATOM     16  C   UNL     1      22.629   1.119 -16.019  1.00  0.00     0.000 C 
BRANCH  16  17
ATOM     17  C   UNL     1      21.232   1.305 -16.638  1.00  0.00    -0.000 C 
BRANCH  17  18
ATOM     18  C   UNL     1      20.058   1.142 -15.655  1.00  0.00    -0.000 C 
BRANCH  18  19
ATOM     19  C   UNL     1      18.717   0.893 -16.359  1.00  0.00    -0.003 C 
ATOM     20  C   UNL     1      17.616   0.577 -15.350  1.00  0.00     0.004 C 
ENDBRANCH  18  19
ENDBRANCH  17  18
ENDBRANCH  16  17
ENDBRANCH  15  16
ENDBRANCH  14  15
ENDBRANCH  13  14
ENDBRANCH   2  13
TORSDOF 15
ENDMDL
MODEL 3
REMARK VINA RESULT:    -5.973      1.474      1.863
REMARK INTER + INTRA:         -12.059
REMARK INTER:                 -11.228
REMARK INTRA:                  -0.831
REMARK UNBOUND:                -0.849
REMARK SMILES CCCCCCCCC=CCCCCCCCC(=O)[O-]
REMARK SMILES IDX 10 1 9 2 11 3 12 4 13 5 14 6 15 7 16 8 17 9 18 10 19 11
REMARK SMILES IDX 20 12 8 13 7 14 6 15 5 16 4 17 3 18 2 19 1 20
REMARK H PARENT
REMARK Flexibility Score: inf
ROOT
ATOM      1  C   UNL     1      24.742  -0.604 -16.760  1.00  0.00    -0.031 C 
ATOM      2  C   UNL     1      23.830   0.193 -16.186  1.00  0.00    -0.031 C 
ENDROOT
BRANCH   1   3
ATOM      3  C   UNL     1      25.915  -1.154 -15.992  1.00  0.00     0.027 C 
BRANCH   3   4
ATOM      4  C   UNL     1      27.022  -1.667 -16.929  1.00  0.00     0.004 C 
BRANCH   4   5
ATOM      5  C   UNL     1      28.387  -1.858 -16.240  1.00  0.00     0.000 C 
BRANCH   5   6
ATOM      6  C   UNL     1      28.762  -0.784 -15.201  1.00  0.00     0.000 C 
BRANCH   6   7
ATOM      7  C   UNL     1      30.272  -0.543 -15.019  1.00  0.00     0.000 C 
BRANCH   7   8
ATOM      8  C   UNL     1      30.808   0.587 -15.914  1.00  0.00     0.006 C 
BRANCH   8   9
ATOM      9  C   UNL     1      31.598   0.050 -17.113  1.00  0.00     0.053 C 
BRANCH   9  10
ATOM     10  C   UNL     1      30.750  -0.035 -18.346  1.00  0.00     0.041 C 
ATOM     11  O   UNL     1      30.573  -1.140 -18.921  1.00  0.00    -0.550 OA
ATOM     12  O   UNL     1      30.133   1.106 -18.843  1.00  0.00    -0.550 OA
ENDBRANCH   9  10
ENDBRANCH   8   9
ENDBRANCH   7   8
ENDBRANCH   6   7
ENDBRANCH   5   6
ENDBRANCH   4   5
ENDBRANCH   3   4
ENDBRANCH   1   3
BRANCH   2  13
ATOM     13  C   UNL     1      22.677   0.756 -16.970  1.00  0.00     0.027 C 
BRANCH  13  14
ATOM     14  C   UNL     1      21.709   1.524 -16.063  1.00  0.00     0.004 C 
BRANCH  14  15
ATOM     15  C   UNL     1      20.252   1.249 -16.454  1.00  0.00     0.000 C 
BRANCH  15  16
ATOM     16  C   UNL     1      19.423   0.830 -15.231  1.00  0.00     0.000 C 
BRANCH  16  17
ATOM     17  C   UNL     1      17.906   0.967 -15.459  1.00  0.00    -0.000 C 
BRANCH  17  18
ATOM     18  C   UNL     1      17.501   1.453 -16.863  1.00  0.00    -0.000 C 
BRANCH  18  19
ATOM     19  C   UNL     1      17.144   0.303 -17.816  1.00  0.00    -0.003 C 
ATOM     20  C   UNL     1      16.833  -0.975 -17.043  1.00  0.00     0.004 C 
ENDBRANCH  18  19
ENDBRANCH  17  18
ENDBRANCH  16  17
ENDBRANCH  15  16
ENDBRANCH  14  15
ENDBRANCH  13  14
ENDBRANCH   2  13
TORSDOF 15
ENDMDL
MODEL 4
REMARK VINA RESULT:    -5.934      5.436     11.097
REMARK INTER + INTRA:         -11.987
REMARK INTER:                 -10.977
REMARK INTRA:                  -1.010
REMARK UNBOUND:                -0.849
REMARK SMILES CCCCCCCCC=CCCCCCCCC(=O)[O-]
REMARK SMILES IDX 10 1 9 2 11 3 12 4 13 5 14 6 15 7 16 8 17 9 18 10 19 11
REMARK SMILES IDX 20 12 8 13 7 14 6 15 5 16 4 17 3 18 2 19 1 20
REMARK H PARENT
REMARK Flexibility Score: inf
ROOT
ATOM      1  C   UNL     1      23.841   0.006 -17.794  1.00  0.00    -0.031 C 
ATOM      2  C   UNL     1      24.064  -0.118 -16.478  1.00  0.00    -0.031 C 
ENDROOT
BRANCH   1   3
ATOM      3  C   UNL     1      22.621   0.705 -18.333  1.00  0.00     0.027 C 
BRANCH   3   4
ATOM      4  C   UNL     1      22.302   1.987 -17.545  1.00  0.00     0.004 C 
BRANCH   4   5
ATOM      5  C   UNL     1      20.886   2.011 -16.936  1.00  0.00     0.000 C 
BRANCH   5   6
ATOM      6  C   UNL     1      20.515   0.793 -16.068  1.00  0.00     0.000 C 
BRANCH   6   7
ATOM      7  C   UNL     1      19.185   0.913 -15.302  1.00  0.00     0.000 C 
BRANCH   7   8
ATOM      8  C   UNL     1      18.047   1.483 -16.166  1.00  0.00     0.006 C 
BRANCH   8   9
ATOM      9  C   UNL     1      17.164   0.379 -16.760  1.00  0.00     0.053 C 
BRANCH   9  10
ATOM     10  C   UNL     1      15.712   0.611 -16.470  1.00  0.00     0.041 C 
ATOM     11  O   UNL     1      14.859   0.531 -17.392  1.00  0.00    -0.550 OA
ATOM     12  O   UNL     1      15.299   0.890 -15.173  1.00  0.00    -0.550 OA
ENDBRANCH   9  10
ENDBRANCH   8   9
ENDBRANCH   7   8
ENDBRANCH   6   7
ENDBRANCH   5   6
ENDBRANCH   4   5
ENDBRANCH   3   4
ENDBRANCH   1   3
BRANCH   2  13
ATOM     13  C   UNL     1      25.274  -0.839 -15.951  1.00  0.00     0.027 C 
BRANCH  13  14
ATOM     14  C   UNL     1      25.986  -1.617 -17.064  1.00  0.00     0.004 C 
BRANCH  14  15
ATOM     15  C   UNL     1      27.508  -1.502 -16.928  1.00  0.00     0.000 C 
BRANCH  15  16
ATOM     16  C   UNL     1      27.894  -0.823 -15.605  1.00  0.00     0.000 C 
BRANCH  16  17
ATOM     17  C   UNL     1      29.291  -0.177 -15.646  1.00  0.00    -0.000 C 
BRANCH  17  18
ATOM     18  C   UNL     1      30.449  -1.151 -15.930  1.00  0.00    -0.000 C 
BRANCH  18  19
ATOM     19  C   UNL     1      31.414  -0.636 -17.008  1.00  0.00    -0.003 C 
ATOM     20  C   UNL     1      32.790  -0.338 -16.419  1.00  0.00     0.004 C 
ENDBRANCH  18  19
ENDBRANCH  17  18
ENDBRANCH  16  17
ENDBRANCH  15  16
ENDBRANCH  14  15
ENDBRANCH  13  14
ENDBRANCH   2  13
TORSDOF 15
ENDMDL
MODEL 5
REMARK VINA RESULT:    -5.910      4.016      9.685
REMARK INTER + INTRA:         -11.943
REMARK INTER:                 -10.686
REMARK INTRA:                  -1.257
REMARK UNBOUND:                -0.849
REMARK SMILES CCCCCCCCC=CCCCCCCCC(=O)[O-]
REMARK SMILES IDX 10 1 9 2 11 3 12 4 13 5 14 6 15 7 16 8 17 9 18 10 19 11
REMARK SMILES IDX 20 12 8 13 7 14 6 15 5 16 4 17 3 18 2 19 1 20
REMARK H PARENT
REMARK Flexibility Score: inf
ROOT
ATOM      1  C   UNL     1      19.663   1.162 -15.550  1.00  0.00    -0.031 C 
ATOM      2  C   UNL     1      20.795   0.773 -16.154  1.00  0.00    -0.031 C 
ENDROOT
BRANCH   1   3
ATOM      3  C   UNL     1      18.509   0.219 -15.340  1.00  0.00     0.027 C 
BRANCH   3   4
ATOM      4  C   UNL     1      17.165   0.868 -15.714  1.00  0.00     0.004 C 
BRANCH   4   5
ATOM      5  C   UNL     1      16.523   0.287 -16.989  1.00  0.00     0.000 C 
BRANCH   5   6
ATOM      6  C   UNL     1      17.471   0.117 -18.192  1.00  0.00     0.000 C 
BRANCH   6   7
ATOM      7  C   UNL     1      17.938   1.429 -18.851  1.00  0.00     0.000 C 
BRANCH   7   8
ATOM      8  C   UNL     1      19.331   1.312 -19.493  1.00  0.00     0.006 C 
BRANCH   8   9
ATOM      9  C   UNL     1      19.399   2.010 -20.857  1.00  0.00     0.053 C 
BRANCH   9  10
ATOM     10  C   UNL     1      20.187   3.282 -20.792  1.00  0.00     0.041 C 
ATOM     11  O   UNL     1      19.861   4.268 -21.504  1.00  0.00    -0.550 OA
ATOM     12  O   UNL     1      21.267   3.387 -19.924  1.00  0.00    -0.550 OA
ENDBRANCH   9  10
ENDBRANCH   8   9
ENDBRANCH   7   8
ENDBRANCH   6   7
ENDBRANCH   5   6
ENDBRANCH   4   5
ENDBRANCH   3   4
ENDBRANCH   1   3
BRANCH   2  13
ATOM     13  C   UNL     1      21.932   1.731 -16.382  1.00  0.00     0.027 C 
BRANCH  13  14
ATOM     14  C   UNL     1      23.254   1.160 -15.857  1.00  0.00     0.004 C 
BRANCH  14  15
ATOM     15  C   UNL     1      23.719  -0.025 -16.711  1.00  0.00     0.000 C 
BRANCH  15  16
ATOM     16  C   UNL     1      24.910  -0.742 -16.059  1.00  0.00     0.000 C 
BRANCH  16  17
ATOM     17  C   UNL     1      25.781  -1.505 -17.073  1.00  0.00    -0.000 C 
BRANCH  17  18
ATOM     18  C   UNL     1      27.199  -1.850 -16.584  1.00  0.00    -0.000 C 
BRANCH  18  19
ATOM     19  C   UNL     1      27.747  -0.834 -15.571  1.00  0.00    -0.003 C 
ATOM     20  C   UNL     1      29.212  -0.510 -15.854  1.00  0.00     0.004 C 
ENDBRANCH  18  19
ENDBRANCH  17  18
ENDBRANCH  16  17
ENDBRANCH  15  16
ENDBRANCH  14  15
ENDBRANCH  13  14
ENDBRANCH   2  13
TORSDOF 15
ENDMDL
MODEL 6
REMARK VINA RESULT:    -5.843      6.366      9.750
REMARK INTER + INTRA:         -11.817
REMARK INTER:                  -9.947
REMARK INTRA:                  -1.870
REMARK UNBOUND:                -0.849
REMARK SMILES CCCCCCCCC=CCCCCCCCC(=O)[O-]
REMARK SMILES IDX 10 1 9 2 11 3 12 4 13 5 14 6 15 7 16 8 17 9 18 10 19 11
REMARK SMILES IDX 20 12 8 13 7 14 6 15 5 16 4 17 3 18 2 19 1 20
REMARK H PARENT
REMARK Flexibility Score: inf
ROOT
ATOM      1  C   UNL     1      26.737  -1.129 -15.997  1.00  0.00    -0.031 C 
ATOM      2  C   UNL     1      28.075  -1.129 -16.081  1.00  0.00    -0.031 C 
ENDROOT
BRANCH   1   3
ATOM      3  C   UNL     1      25.863  -1.324 -17.207  1.00  0.00     0.027 C 
BRANCH   3   4
ATOM      4  C   UNL     1      26.359  -2.483 -18.089  1.00  0.00     0.004 C 
BRANCH   4   5
ATOM      5  C   UNL     1      25.485  -2.741 -19.332  1.00  0.00     0.000 C 
BRANCH   5   6
ATOM      6  C   UNL     1      26.186  -2.542 -20.690  1.00  0.00     0.000 C 
BRANCH   6   7
ATOM      7  C   UNL     1      26.865  -3.796 -21.270  1.00  0.00     0.000 C 
BRANCH   7   8
ATOM      8  C   UNL     1      25.856  -4.869 -21.716  1.00  0.00     0.006 C 
BRANCH   8   9
ATOM      9  C   UNL     1      25.234  -4.545 -23.081  1.00  0.00     0.053 C 
BRANCH   9  10
ATOM     10  C   UNL     1      23.753  -4.767 -23.083  1.00  0.00     0.041 C 
ATOM     11  O   UNL     1      23.227  -5.563 -22.262  1.00  0.00    -0.550 OA
ATOM     12  O   UNL     1      22.948  -4.072 -23.978  1.00  0.00    -0.550 OA
ENDBRANCH   9  10
ENDBRANCH   8   9
ENDBRANCH   7   8
ENDBRANCH   6   7
ENDBRANCH   5   6
ENDBRANCH   4   5
ENDBRANCH   3   4
ENDBRANCH   1   3
BRANCH   2  13
ATOM     13  C   UNL     1      28.937  -0.908 -14.869  1.00  0.00     0.027 C 
BRANCH  13  14
ATOM     14  C   UNL     1      29.966   0.202 -15.114  1.00  0.00     0.004 C 
BRANCH  14  15
ATOM     15  C   UNL     1      31.307  -0.383 -15.572  1.00  0.00     0.000 C 
BRANCH  15  16
ATOM     16  C   UNL     1      31.878   0.408 -16.758  1.00  0.00     0.000 C 
BRANCH  16  17
ATOM     17  C   UNL     1      31.307  -0.047 -18.113  1.00  0.00    -0.000 C 
BRANCH  17  18
ATOM     18  C   UNL     1      30.100   0.765 -18.618  1.00  0.00    -0.000 C 
BRANCH  18  19
ATOM     19  C   UNL     1      29.056  -0.098 -19.339  1.00  0.00    -0.003 C 
ATOM     20  C   UNL     1      29.564  -1.523 -19.540  1.00  0.00     0.004 C 
ENDBRANCH  18  19
ENDBRANCH  17  18
ENDBRANCH  16  17
ENDBRANCH  15  16
ENDBRANCH  14  15
ENDBRANCH  13  14
ENDBRANCH   2  13
TORSDOF 15
ENDMDL
MODEL 7
REMARK VINA RESULT:    -5.671      4.454      9.615
REMARK INTER + INTRA:         -11.493
REMARK INTER:                  -9.734
REMARK INTRA:                  -1.759
REMARK UNBOUND:                -0.849
REMARK SMILES CCCCCCCCC=CCCCCCCCC(=O)[O-]
REMARK SMILES IDX 10 1 9 2 11 3 12 4 13 5 14 6 15 7 16 8 17 9 18 10 19 11
REMARK SMILES IDX 20 12 8 13 7 14 6 15 5 16 4 17 3 18 2 19 1 20
REMARK H PARENT
REMARK Flexibility Score: inf
ROOT
ATOM      1  C   UNL     1      27.407  -0.876 -15.993  1.00  0.00    -0.031 C 
ATOM      2  C   UNL     1      28.641  -1.218 -15.596  1.00  0.00    -0.031 C 
ENDROOT
BRANCH   1   3
ATOM      3  C   UNL     1      26.532  -1.818 -16.776  1.00  0.00     0.027 C 
BRANCH   3   4
ATOM      4  C   UNL     1      25.183  -1.174 -17.142  1.00  0.00     0.004 C 
BRANCH   4   5
ATOM      5  C   UNL     1      24.538  -0.377 -15.992  1.00  0.00     0.000 C 
BRANCH   5   6
ATOM      6  C   UNL     1      23.245   0.380 -16.353  1.00  0.00     0.000 C 
BRANCH   6   7
ATOM      7  C   UNL     1      23.251   1.073 -17.728  1.00  0.00     0.000 C 
BRANCH   7   8
ATOM      8  C   UNL     1      21.853   1.145 -18.366  1.00  0.00     0.006 C 
BRANCH   8   9
ATOM      9  C   UNL     1      21.403   2.591 -18.611  1.00  0.00     0.053 C 
BRANCH   9  10
ATOM     10  C   UNL     1      21.383   2.927 -20.071  1.00  0.00     0.041 C 
ATOM     11  O   UNL     1      22.453   2.949 -20.733  1.00  0.00    -0.550 OA
ATOM     12  O   UNL     1      20.176   3.192 -20.706  1.00  0.00    -0.550 OA
ENDBRANCH   9  10
ENDBRANCH   8   9
ENDBRANCH   7   8
ENDBRANCH   6   7
ENDBRANCH   5   6
ENDBRANCH   4   5
ENDBRANCH   3   4
ENDBRANCH   1   3
BRANCH   2  13
ATOM     13  C   UNL     1      29.515  -0.259 -14.836  1.00  0.00     0.027 C 
BRANCH  13  14
ATOM     14  C   UNL     1      30.583   0.360 -15.745  1.00  0.00     0.004 C 
BRANCH  14  15
ATOM     15  C   UNL     1      31.341  -0.723 -16.520  1.00  0.00     0.000 C 
BRANCH  15  16
ATOM     16  C   UNL     1      31.340  -0.426 -18.027  1.00  0.00     0.000 C 
BRANCH  16  17
ATOM     17  C   UNL     1      30.254   0.585 -18.439  1.00  0.00    -0.000 C 
BRANCH  17  18
ATOM     18  C   UNL     1      29.045  -0.021 -19.174  1.00  0.00    -0.000 C 
BRANCH  18  19
ATOM     19  C   UNL     1      29.158  -1.541 -19.360  1.00  0.00    -0.003 C 
ATOM     20  C   UNL     1      28.813  -1.947 -20.790  1.00  0.00     0.004 C 
ENDBRANCH  18  19
ENDBRANCH  17  18
ENDBRANCH  16  17
ENDBRANCH  15  16
ENDBRANCH  14  15
ENDBRANCH  13  14
ENDBRANCH   2  13
TORSDOF 15
ENDMDL
MODEL 8
REMARK VINA RESULT:    -5.637      1.518      2.006
REMARK INTER + INTRA:         -11.428
REMARK INTER:                 -10.309
REMARK INTRA:                  -1.120
REMARK UNBOUND:                -0.849
REMARK SMILES CCCCCCCCC=CCCCCCCCC(=O)[O-]
REMARK SMILES IDX 10 1 9 2 11 3 12 4 13 5 14 6 15 7 16 8 17 9 18 10 19 11
REMARK SMILES IDX 20 12 8 13 7 14 6 15 5 16 4 17 3 18 2 19 1 20
REMARK H PARENT
REMARK Flexibility Score: inf
ROOT
ATOM      1  C   UNL     1      24.827  -0.522 -15.959  1.00  0.00    -0.031 C 
ATOM      2  C   UNL     1      23.860   0.065 -16.679  1.00  0.00    -0.031 C 
ENDROOT
BRANCH   1   3
ATOM      3  C   UNL     1      25.853  -1.425 -16.591  1.00  0.00     0.027 C 
BRANCH   3   4
ATOM      4  C   UNL     1      25.356  -2.009 -17.925  1.00  0.00     0.004 C 
BRANCH   4   5
ATOM      5  C   UNL     1      26.485  -2.359 -18.913  1.00  0.00     0.000 C 
BRANCH   5   6
ATOM      6  C   UNL     1      27.512  -1.240 -19.173  1.00  0.00     0.000 C 
BRANCH   6   7
ATOM      7  C   UNL     1      28.932  -1.719 -19.527  1.00  0.00     0.000 C 
BRANCH   7   8
ATOM      8  C   UNL     1      30.000  -1.196 -18.550  1.00  0.00     0.006 C 
BRANCH   8   9
ATOM      9  C   UNL     1      29.556  -1.322 -17.088  1.00  0.00     0.053 C 
BRANCH   9  10
ATOM     10  C   UNL     1      30.655  -0.951 -16.139  1.00  0.00     0.041 C 
ATOM     11  O   UNL     1      31.853  -0.947 -16.525  1.00  0.00    -0.550 OA
ATOM     12  O   UNL     1      30.352  -0.584 -14.834  1.00  0.00    -0.550 OA
ENDBRANCH   9  10
ENDBRANCH   8   9
ENDBRANCH   7   8
ENDBRANCH   6   7
ENDBRANCH   5   6
ENDBRANCH   4   5
ENDBRANCH   3   4
ENDBRANCH   1   3
BRANCH   2  13
ATOM     13  C   UNL     1      22.826   0.945 -16.032  1.00  0.00     0.027 C 
BRANCH  13  14
ATOM     14  C   UNL     1      22.172   1.879 -17.056  1.00  0.00     0.004 C 
BRANCH  14  15
ATOM     15  C   UNL     1      20.644   1.833 -16.946  1.00  0.00     0.000 C 
BRANCH  15  16
ATOM     16  C   UNL     1      20.194   0.733 -15.972  1.00  0.00     0.000 C 
BRANCH  16  17
ATOM     17  C   UNL     1      18.896   1.087 -15.225  1.00  0.00    -0.000 C 
BRANCH  17  18
ATOM     18  C   UNL     1      17.668   0.247 -15.621  1.00  0.00    -0.000 C 
BRANCH  18  19
ATOM     19  C   UNL     1      16.916   0.819 -16.831  1.00  0.00    -0.003 C 
ATOM     20  C   UNL     1      17.252   0.047 -18.104  1.00  0.00     0.004 C 
ENDBRANCH  18  19
ENDBRANCH  17  18
ENDBRANCH  16  17
ENDBRANCH  15  16
ENDBRANCH  14  15
ENDBRANCH  13  14
ENDBRANCH   2  13
TORSDOF 15
ENDMDL
MODEL 9
REMARK VINA RESULT:    -5.626      4.800     10.500
REMARK INTER + INTRA:         -11.408
REMARK INTER:                 -10.518
REMARK INTRA:                  -0.890
REMARK UNBOUND:                -0.849
REMARK SMILES CCCCCCCCC=CCCCCCCCC(=O)[O-]
REMARK SMILES IDX 10 1 9 2 11 3 12 4 13 5 14 6 15 7 16 8 17 9 18 10 19 11
REMARK SMILES IDX 20 12 8 13 7 14 6 15 5 16 4 17 3 18 2 19 1 20
REMARK H PARENT
REMARK Flexibility Score: inf
ROOT
ATOM      1  C   UNL     1      24.847  -1.297 -19.259  1.00  0.00    -0.031 C 
ATOM      2  C   UNL     1      25.431  -2.314 -18.608  1.00  0.00    -0.031 C 
ENDROOT
BRANCH   1   3
ATOM      3  C   UNL     1      23.380  -1.306 -19.598  1.00  0.00     0.027 C 
BRANCH   3   4
ATOM      4  C   UNL     1      22.691   0.008 -19.189  1.00  0.00     0.004 C 
BRANCH   4   5
ATOM      5  C   UNL     1      23.418   0.772 -18.065  1.00  0.00     0.000 C 
BRANCH   5   6
ATOM      6  C   UNL     1      22.831   0.592 -16.652  1.00  0.00     0.000 C 
BRANCH   6   7
ATOM      7  C   UNL     1      21.726   1.592 -16.267  1.00  0.00     0.000 C 
BRANCH   7   8
ATOM      8  C   UNL     1      20.330   1.151 -16.741  1.00  0.00     0.006 C 
BRANCH   8   9
ATOM      9  C   UNL     1      19.385   0.867 -15.567  1.00  0.00     0.053 C 
BRANCH   9  10
ATOM     10  C   UNL     1      17.972   1.252 -15.884  1.00  0.00     0.041 C 
ATOM     11  O   UNL     1      17.733   2.146 -16.737  1.00  0.00    -0.550 OA
ATOM     12  O   UNL     1      16.917   0.602 -15.255  1.00  0.00    -0.550 OA
ENDBRANCH   9  10
ENDBRANCH   8   9
ENDBRANCH   7   8
ENDBRANCH   6   7
ENDBRANCH   5   6
ENDBRANCH   4   5
ENDBRANCH   3   4
ENDBRANCH   1   3
BRANCH   2  13
ATOM     13  C   UNL     1      26.902  -2.304 -18.298  1.00  0.00     0.027 C 
BRANCH  13  14
ATOM     14  C   UNL     1      27.171  -1.756 -16.892  1.00  0.00     0.004 C 
BRANCH  14  15
ATOM     15  C   UNL     1      28.674  -1.562 -16.656  1.00  0.00     0.000 C 
BRANCH  15  16
ATOM     16  C   UNL     1      28.935  -0.857 -15.317  1.00  0.00     0.000 C 
BRANCH  16  17
ATOM     17  C   UNL     1      30.386  -0.364 -15.171  1.00  0.00    -0.000 C 
BRANCH  17  18
ATOM     18  C   UNL     1      30.894   0.514 -16.329  1.00  0.00    -0.000 C 
BRANCH  18  19
ATOM     19  C   UNL     1      32.246   0.047 -16.886  1.00  0.00    -0.003 C 
ATOM     20  C   UNL     1      33.025  -0.750 -15.843  1.00  0.00     0.004 C 
ENDBRANCH  18  19
ENDBRANCH  17  18
ENDBRANCH  16  17
ENDBRANCH  15  16
ENDBRANCH  14  15
ENDBRANCH  13  14
ENDBRANCH   2  13
TORSDOF 15
ENDMDL
