MODEL 1
REMARK VINA RESULT:    -4.242      0.000      0.000
REMARK INTER + INTRA:         -12.881
REMARK INTER:                  -9.697
REMARK INTRA:                  -3.184
REMARK UNBOUND:                -3.184
REMARK SMILES CCCCCCCCCCCCCCCCCCCCCCCC(=O)[O-]
REMARK SMILES IDX 13 1 14 2 15 3 16 4 17 5 18 6 19 7 20 8 21 9 22 10 23 11
REMARK SMILES IDX 24 12 25 13 26 14 12 15 11 16 10 17 9 18 8 19 7 20 6 21 5 22
REMARK SMILES IDX 4 23 3 24 2 25 1 26
REMARK H PARENT
REMARK Flexibility Score: inf
ROOT
ATOM      1  C   UNL     1      13.195  22.284 -23.136  1.00  0.00     0.000 C 
ENDROOT
BRANCH   1   2
ATOM      2  C   UNL     1      11.976  22.011 -22.241  1.00  0.00     0.000 C 
BRANCH   2   3
ATOM      3  C   UNL     1      12.121  22.602 -20.826  1.00  0.00     0.000 C 
BRANCH   3   4
ATOM      4  C   UNL     1      11.993  21.587 -19.674  1.00  0.00     0.000 C 
BRANCH   4   5
ATOM      5  C   UNL     1      13.163  21.660 -18.678  1.00  0.00     0.000 C 
BRANCH   5   6
ATOM      6  C   UNL     1      14.520  21.853 -19.375  1.00  0.00     0.000 C 
BRANCH   6   7
ATOM      7  C   UNL     1      15.712  21.499 -18.467  1.00  0.00     0.000 C 
BRANCH   7   8
ATOM      8  C   UNL     1      15.628  20.066 -17.918  1.00  0.00     0.000 C 
BRANCH   8   9
ATOM      9  C   UNL     1      16.990  19.351 -17.922  1.00  0.00     0.000 C 
BRANCH   9  10
ATOM     10  C   UNL     1      17.614  19.254 -16.518  1.00  0.00     0.006 C 
BRANCH  10  11
ATOM     11  C   UNL     1      19.119  18.943 -16.511  1.00  0.00     0.053 C 
BRANCH  11  12
ATOM     12  C   UNL     1      19.393  17.487 -16.729  1.00  0.00     0.041 C 
ATOM     13  O   UNL     1      20.222  17.122 -17.603  1.00  0.00    -0.550 OA
ATOM     14  O   UNL     1      18.749  16.533 -15.951  1.00  0.00    -0.550 OA
ENDBRANCH  11  12
ENDBRANCH  10  11
ENDBRANCH   9  10
ENDBRANCH   8   9
ENDBRANCH   7   8
ENDBRANCH   6   7
ENDBRANCH   5   6
ENDBRANCH   4   5
ENDBRANCH   3   4
ENDBRANCH   2   3
ENDBRANCH   1   2
BRANCH   1  15
ATOM     15  C   UNL     1      12.774  22.956 -24.452  1.00  0.00     0.000 C 
BRANCH  15  16
ATOM     16  C   UNL     1      13.737  22.654 -25.612  1.00  0.00     0.000 C 
BRANCH  16  17
ATOM     17  C   UNL     1      13.015  22.114 -26.858  1.00  0.00     0.000 C 
BRANCH  17  18
ATOM     18  C   UNL     1      12.041  20.971 -26.526  1.00  0.00    -0.000 C 
BRANCH  18  19
ATOM     19  C   UNL     1      12.456  19.635 -27.166  1.00  0.00    -0.000 C 
BRANCH  19  20
ATOM     20  C   UNL     1      12.798  18.562 -26.110  1.00  0.00    -0.000 C 
BRANCH  20  21
ATOM     21  C   UNL     1      12.645  19.054 -24.657  1.00  0.00    -0.000 C 
BRANCH  21  22
ATOM     22  C   UNL     1      12.953  17.996 -23.585  1.00  0.00    -0.000 C 
BRANCH  22  23
ATOM     23  C   UNL     1      12.284  18.307 -22.234  1.00  0.00    -0.000 C 
BRANCH  23  24
ATOM     24  C   UNL     1      13.301  18.332 -21.073  1.00  0.00    -0.000 C 
BRANCH  24  25
ATOM     25  C   UNL     1      14.681  18.874 -21.475  1.00  0.00    -0.003 C 
ATOM     26  C   UNL     1      15.822  17.913 -21.147  1.00  0.00     0.004 C 
ENDBRANCH  24  25
ENDBRANCH  23  24
ENDBRANCH  22  23
ENDBRANCH  21  22
ENDBRANCH  20  21
ENDBRANCH  19  20
ENDBRANCH  18  19
ENDBRANCH  17  18
ENDBRANCH  16  17
ENDBRANCH  15  16
ENDBRANCH   1  15
TORSDOF 22
ENDMDL
MODEL 2
REMARK VINA RESULT:    -4.086      1.385      1.699
REMARK INTER + INTRA:         -12.526
REMARK INTER:                  -9.988
REMARK INTRA:                  -2.538
REMARK UNBOUND:                -3.184
REMARK SMILES CCCCCCCCCCCCCCCCCCCCCCCC(=O)[O-]
REMARK SMILES IDX 13 1 14 2 15 3 16 4 17 5 18 6 19 7 20 8 21 9 22 10 23 11
REMARK SMILES IDX 24 12 25 13 26 14 12 15 11 16 10 17 9 18 8 19 7 20 6 21 5 22
REMARK SMILES IDX 4 23 3 24 2 25 1 26
REMARK H PARENT
REMARK Flexibility Score: inf
ROOT
ATOM      1  C   UNL     1      12.626  23.331 -23.464  1.00  0.00     0.000 C 
ENDROOT
BRANCH   1   2
ATOM      2  C   UNL     1      13.300  22.021 -23.028  1.00  0.00     0.000 C 
BRANCH   2   3
ATOM      3  C   UNL     1      12.600  21.351 -21.831  1.00  0.00     0.000 C 
BRANCH   3   4
ATOM      4  C   UNL     1      11.878  22.314 -20.871  1.00  0.00     0.000 C 
BRANCH   4   5
ATOM      5  C   UNL     1      12.664  22.568 -19.572  1.00  0.00     0.000 C 
BRANCH   5   6
ATOM      6  C   UNL     1      14.045  21.892 -19.577  1.00  0.00     0.000 C 
BRANCH   6   7
ATOM      7  C   UNL     1      14.340  21.127 -18.274  1.00  0.00     0.000 C 
BRANCH   7   8
ATOM      8  C   UNL     1      15.847  20.972 -18.012  1.00  0.00     0.000 C 
BRANCH   8   9
ATOM      9  C   UNL     1      16.400  19.630 -18.521  1.00  0.00     0.000 C 
BRANCH   9  10
ATOM     10  C   UNL     1      16.743  18.658 -17.377  1.00  0.00     0.006 C 
BRANCH  10  11
ATOM     11  C   UNL     1      17.438  19.313 -16.172  1.00  0.00     0.053 C 
BRANCH  11  12
ATOM     12  C   UNL     1      17.512  18.391 -14.996  1.00  0.00     0.041 C 
ATOM     13  O   UNL     1      16.757  17.386 -14.930  1.00  0.00    -0.550 OA
ATOM     14  O   UNL     1      18.432  18.628 -13.982  1.00  0.00    -0.550 OA
ENDBRANCH  11  12
ENDBRANCH  10  11
ENDBRANCH   9  10
ENDBRANCH   8   9
ENDBRANCH   7   8
ENDBRANCH   6   7
ENDBRANCH   5   6
ENDBRANCH   4   5
ENDBRANCH   3   4
ENDBRANCH   2   3
ENDBRANCH   1   2
BRANCH   1  15
ATOM     15  C   UNL     1      12.639  23.478 -24.993  1.00  0.00     0.000 C 
BRANCH  15  16
ATOM     16  C   UNL     1      13.404  22.343 -25.696  1.00  0.00     0.000 C 
BRANCH  16  17
ATOM     17  C   UNL     1      13.276  22.399 -27.227  1.00  0.00     0.000 C 
BRANCH  17  18
ATOM     18  C   UNL     1      12.618  21.138 -27.810  1.00  0.00    -0.000 C 
BRANCH  18  19
ATOM     19  C   UNL     1      12.134  20.164 -26.720  1.00  0.00    -0.000 C 
BRANCH  19  20
ATOM     20  C   UNL     1      12.626  18.722 -26.965  1.00  0.00    -0.000 C 
BRANCH  20  21
ATOM     21  C   UNL     1      12.556  17.824 -25.715  1.00  0.00    -0.000 C 
BRANCH  21  22
ATOM     22  C   UNL     1      12.873  18.540 -24.392  1.00  0.00    -0.000 C 
BRANCH  22  23
ATOM     23  C   UNL     1      12.828  17.593 -23.179  1.00  0.00    -0.000 C 
BRANCH  23  24
ATOM     24  C   UNL     1      14.237  17.127 -22.752  1.00  0.00    -0.000 C 
BRANCH  24  25
ATOM     25  C   UNL     1      14.807  17.906 -21.556  1.00  0.00    -0.003 C 
ATOM     26  C   UNL     1      13.754  18.238 -20.500  1.00  0.00     0.004 C 
ENDBRANCH  24  25
ENDBRANCH  23  24
ENDBRANCH  22  23
ENDBRANCH  21  22
ENDBRANCH  20  21
ENDBRANCH  19  20
ENDBRANCH  18  19
ENDBRANCH  17  18
ENDBRANCH  16  17
ENDBRANCH  15  16
ENDBRANCH   1  15
TORSDOF 22
ENDMDL
MODEL 3
REMARK VINA RESULT:    -4.011      2.313      7.344
REMARK INTER + INTRA:         -12.353
REMARK INTER:                  -9.074
REMARK INTRA:                  -3.279
REMARK UNBOUND:                -3.184
REMARK SMILES CCCCCCCCCCCCCCCCCCCCCCCC(=O)[O-]
REMARK SMILES IDX 13 1 14 2 15 3 16 4 17 5 18 6 19 7 20 8 21 9 22 10 23 11
REMARK SMILES IDX 24 12 25 13 26 14 12 15 11 16 10 17 9 18 8 19 7 20 6 21 5 22
REMARK SMILES IDX 4 23 3 24 2 25 1 26
REMARK H PARENT
REMARK Flexibility Score: inf
ROOT
ATOM      1  C   UNL     1      12.895  21.595 -18.764  1.00  0.00     0.000 C 
ENDROOT
BRANCH   1   2
ATOM      2  C   UNL     1      12.232  22.614 -19.705  1.00  0.00     0.000 C 
BRANCH   2   3
ATOM      3  C   UNL     1      13.177  23.117 -20.812  1.00  0.00     0.000 C 
BRANCH   3   4
ATOM      4  C   UNL     1      12.628  22.999 -22.246  1.00  0.00     0.000 C 
BRANCH   4   5
ATOM      5  C   UNL     1      12.301  21.549 -22.646  1.00  0.00     0.000 C 
BRANCH   5   6
ATOM      6  C   UNL     1      13.521  20.803 -23.209  1.00  0.00     0.000 C 
BRANCH   6   7
ATOM      7  C   UNL     1      13.501  19.297 -22.887  1.00  0.00     0.000 C 
BRANCH   7   8
ATOM      8  C   UNL     1      12.943  19.004 -21.485  1.00  0.00     0.000 C 
BRANCH   8   9
ATOM      9  C   UNL     1      13.805  17.996 -20.706  1.00  0.00     0.000 C 
BRANCH   9  10
ATOM     10  C   UNL     1      15.305  18.342 -20.744  1.00  0.00     0.006 C 
BRANCH  10  11
ATOM     11  C   UNL     1      16.178  17.307 -21.471  1.00  0.00     0.053 C 
BRANCH  11  12
ATOM     12  C   UNL     1      16.005  15.931 -20.909  1.00  0.00     0.041 C 
ATOM     13  O   UNL     1      15.576  14.998 -21.638  1.00  0.00    -0.550 OA
ATOM     14  O   UNL     1      16.337  15.672 -19.585  1.00  0.00    -0.550 OA
ENDBRANCH  11  12
ENDBRANCH  10  11
ENDBRANCH   9  10
ENDBRANCH   8   9
ENDBRANCH   7   8
ENDBRANCH   6   7
ENDBRANCH   5   6
ENDBRANCH   4   5
ENDBRANCH   3   4
ENDBRANCH   2   3
ENDBRANCH   1   2
BRANCH   1  15
ATOM     15  C   UNL     1      14.393  21.451 -19.072  1.00  0.00     0.000 C 
BRANCH  15  16
ATOM     16  C   UNL     1      15.182  20.812 -17.918  1.00  0.00     0.000 C 
BRANCH  16  17
ATOM     17  C   UNL     1      16.670  21.199 -17.929  1.00  0.00     0.000 C 
BRANCH  17  18
ATOM     18  C   UNL     1      17.565  20.120 -17.296  1.00  0.00    -0.000 C 
BRANCH  18  19
ATOM     19  C   UNL     1      17.100  18.692 -17.634  1.00  0.00    -0.000 C 
BRANCH  19  20
ATOM     20  C   UNL     1      16.965  17.809 -16.376  1.00  0.00    -0.000 C 
BRANCH  20  21
ATOM     21  C   UNL     1      17.293  18.547 -15.063  1.00  0.00    -0.000 C 
BRANCH  21  22
ATOM     22  C   UNL     1      17.884  17.658 -13.956  1.00  0.00    -0.000 C 
BRANCH  22  23
ATOM     23  C   UNL     1      19.396  17.872 -13.766  1.00  0.00    -0.000 C 
BRANCH  23  24
ATOM     24  C   UNL     1      19.939  19.011 -14.655  1.00  0.00    -0.000 C 
BRANCH  24  25
ATOM     25  C   UNL     1      20.802  18.519 -15.828  1.00  0.00    -0.003 C 
ATOM     26  C   UNL     1      21.551  17.224 -15.519  1.00  0.00     0.004 C 
ENDBRANCH  24  25
ENDBRANCH  23  24
ENDBRANCH  22  23
ENDBRANCH  21  22
ENDBRANCH  20  21
ENDBRANCH  19  20
ENDBRANCH  18  19
ENDBRANCH  17  18
ENDBRANCH  16  17
ENDBRANCH  15  16
ENDBRANCH   1  15
TORSDOF 22
ENDMDL
MODEL 4
REMARK VINA RESULT:    -3.988      1.625      3.078
REMARK INTER + INTRA:         -12.300
REMARK INTER:                  -9.905
REMARK INTRA:                  -2.395
REMARK UNBOUND:                -3.184
REMARK SMILES CCCCCCCCCCCCCCCCCCCCCCCC(=O)[O-]
REMARK SMILES IDX 13 1 14 2 15 3 16 4 17 5 18 6 19 7 20 8 21 9 22 10 23 11
REMARK SMILES IDX 24 12 25 13 26 14 12 15 11 16 10 17 9 18 8 19 7 20 6 21 5 22
REMARK SMILES IDX 4 23 3 24 2 25 1 26
REMARK H PARENT
REMARK Flexibility Score: inf
ROOT
ATOM      1  C   UNL     1      12.152  22.788 -19.769  1.00  0.00     0.000 C 
ENDROOT
BRANCH   1   2
ATOM      2  C   UNL     1      12.882  21.872 -18.775  1.00  0.00     0.000 C 
BRANCH   2   3
ATOM      3  C   UNL     1      14.317  21.526 -19.215  1.00  0.00     0.000 C 
BRANCH   3   4
ATOM      4  C   UNL     1      14.906  20.250 -18.585  1.00  0.00     0.000 C 
BRANCH   4   5
ATOM      5  C   UNL     1      16.435  20.158 -18.733  1.00  0.00     0.000 C 
BRANCH   5   6
ATOM      6  C   UNL     1      17.174  21.193 -17.869  1.00  0.00     0.000 C 
BRANCH   6   7
ATOM      7  C   UNL     1      18.316  20.574 -17.042  1.00  0.00     0.000 C 
BRANCH   7   8
ATOM      8  C   UNL     1      18.133  19.062 -16.828  1.00  0.00     0.000 C 
BRANCH   8   9
ATOM      9  C   UNL     1      17.277  18.739 -15.592  1.00  0.00     0.000 C 
BRANCH   9  10
ATOM     10  C   UNL     1      18.088  18.071 -14.466  1.00  0.00     0.006 C 
BRANCH  10  11
ATOM     11  C   UNL     1      19.516  17.667 -14.866  1.00  0.00     0.053 C 
BRANCH  11  12
ATOM     12  C   UNL     1      20.551  18.487 -14.159  1.00  0.00     0.041 C 
ATOM     13  O   UNL     1      21.606  17.947 -13.735  1.00  0.00    -0.550 OA
ATOM     14  O   UNL     1      20.359  19.853 -13.988  1.00  0.00    -0.550 OA
ENDBRANCH  11  12
ENDBRANCH  10  11
ENDBRANCH   9  10
ENDBRANCH   8   9
ENDBRANCH   7   8
ENDBRANCH   6   7
ENDBRANCH   5   6
ENDBRANCH   4   5
ENDBRANCH   3   4
ENDBRANCH   2   3
ENDBRANCH   1   2
BRANCH   1  15
ATOM     15  C   UNL     1      12.990  23.007 -21.038  1.00  0.00     0.000 C 
BRANCH  15  16
ATOM     16  C   UNL     1      12.266  22.559 -22.318  1.00  0.00     0.000 C 
BRANCH  16  17
ATOM     17  C   UNL     1      12.632  23.418 -23.539  1.00  0.00     0.000 C 
BRANCH  17  18
ATOM     18  C   UNL     1      12.090  22.833 -24.855  1.00  0.00    -0.000 C 
BRANCH  18  19
ATOM     19  C   UNL     1      13.195  22.607 -25.902  1.00  0.00    -0.000 C 
BRANCH  19  20
ATOM     20  C   UNL     1      12.850  21.460 -26.876  1.00  0.00    -0.000 C 
BRANCH  20  21
ATOM     21  C   UNL     1      11.988  20.350 -26.245  1.00  0.00    -0.000 C 
BRANCH  21  22
ATOM     22  C   UNL     1      12.721  19.017 -26.020  1.00  0.00    -0.000 C 
BRANCH  22  23
ATOM     23  C   UNL     1      12.759  18.603 -24.538  1.00  0.00    -0.000 C 
BRANCH  23  24
ATOM     24  C   UNL     1      13.408  19.685 -23.649  1.00  0.00    -0.000 C 
BRANCH  24  25
ATOM     25  C   UNL     1      14.011  19.132 -22.347  1.00  0.00    -0.003 C 
ATOM     26  C   UNL     1      12.955  18.737 -21.317  1.00  0.00     0.004 C 
ENDBRANCH  24  25
ENDBRANCH  23  24
ENDBRANCH  22  23
ENDBRANCH  21  22
ENDBRANCH  20  21
ENDBRANCH  19  20
ENDBRANCH  18  19
ENDBRANCH  17  18
ENDBRANCH  16  17
ENDBRANCH  15  16
ENDBRANCH   1  15
TORSDOF 22
ENDMDL
MODEL 5
REMARK VINA RESULT:    -3.968      2.344      4.791
REMARK INTER + INTRA:         -12.255
REMARK INTER:                  -8.765
REMARK INTRA:                  -3.491
REMARK UNBOUND:                -3.184
REMARK SMILES CCCCCCCCCCCCCCCCCCCCCCCC(=O)[O-]
REMARK SMILES IDX 13 1 14 2 15 3 16 4 17 5 18 6 19 7 20 8 21 9 22 10 23 11
REMARK SMILES IDX 24 12 25 13 26 14 12 15 11 16 10 17 9 18 8 19 7 20 6 21 5 22
REMARK SMILES IDX 4 23 3 24 2 25 1 26
REMARK H PARENT
REMARK Flexibility Score: inf
ROOT
ATOM      1  C   UNL     1      14.374  21.291 -18.919  1.00  0.00     0.000 C 
ENDROOT
BRANCH   1   2
ATOM      2  C   UNL     1      15.457  21.050 -17.856  1.00  0.00     0.000 C 
BRANCH   2   3
ATOM      3  C   UNL     1      16.887  21.237 -18.397  1.00  0.00     0.000 C 
BRANCH   3   4
ATOM      4  C   UNL     1      18.010  21.053 -17.359  1.00  0.00     0.000 C 
BRANCH   4   5
ATOM      5  C   UNL     1      18.046  19.636 -16.760  1.00  0.00     0.000 C 
BRANCH   5   6
ATOM      6  C   UNL     1      19.357  19.346 -16.009  1.00  0.00     0.000 C 
BRANCH   6   7
ATOM      7  C   UNL     1      19.739  17.855 -16.030  1.00  0.00     0.000 C 
BRANCH   7   8
ATOM      8  C   UNL     1      19.576  17.226 -17.423  1.00  0.00     0.000 C 
BRANCH   8   9
ATOM      9  C   UNL     1      18.448  16.182 -17.472  1.00  0.00     0.000 C 
BRANCH   9  10
ATOM     10  C   UNL     1      17.985  15.742 -16.070  1.00  0.00     0.006 C 
BRANCH  10  11
ATOM     11  C   UNL     1      16.520  16.081 -15.750  1.00  0.00     0.053 C 
BRANCH  11  12
ATOM     12  C   UNL     1      16.358  16.617 -14.362  1.00  0.00     0.041 C 
ATOM     13  O   UNL     1      16.866  17.725 -14.048  1.00  0.00    -0.550 OA
ATOM     14  O   UNL     1      15.626  15.904 -13.421  1.00  0.00    -0.550 OA
ENDBRANCH  11  12
ENDBRANCH  10  11
ENDBRANCH   9  10
ENDBRANCH   8   9
ENDBRANCH   7   8
ENDBRANCH   6   7
ENDBRANCH   5   6
ENDBRANCH   4   5
ENDBRANCH   3   4
ENDBRANCH   2   3
ENDBRANCH   1   2
BRANCH   1  15
ATOM     15  C   UNL     1      13.007  21.548 -18.267  1.00  0.00     0.000 C 
BRANCH  15  16
ATOM     16  C   UNL     1      12.140  22.535 -19.065  1.00  0.00     0.000 C 
BRANCH  16  17
ATOM     17  C   UNL     1      12.832  23.036 -20.343  1.00  0.00     0.000 C 
BRANCH  17  18
ATOM     18  C   UNL     1      12.274  22.375 -21.614  1.00  0.00    -0.000 C 
BRANCH  18  19
ATOM     19  C   UNL     1      13.375  22.013 -22.626  1.00  0.00    -0.000 C 
BRANCH  19  20
ATOM     20  C   UNL     1      13.543  20.487 -22.785  1.00  0.00    -0.000 C 
BRANCH  20  21
ATOM     21  C   UNL     1      12.699  19.665 -21.793  1.00  0.00    -0.000 C 
BRANCH  21  22
ATOM     22  C   UNL     1      13.449  18.504 -21.119  1.00  0.00    -0.000 C 
BRANCH  22  23
ATOM     23  C   UNL     1      14.930  18.434 -21.533  1.00  0.00    -0.000 C 
BRANCH  23  24
ATOM     24  C   UNL     1      15.858  18.167 -20.329  1.00  0.00    -0.000 C 
BRANCH  24  25
ATOM     25  C   UNL     1      15.134  17.567 -19.113  1.00  0.00    -0.003 C 
ATOM     26  C   UNL     1      15.129  16.039 -19.112  1.00  0.00     0.004 C 
ENDBRANCH  24  25
ENDBRANCH  23  24
ENDBRANCH  22  23
ENDBRANCH  21  22
ENDBRANCH  20  21
ENDBRANCH  19  20
ENDBRANCH  18  19
ENDBRANCH  17  18
ENDBRANCH  16  17
ENDBRANCH  15  16
ENDBRANCH   1  15
TORSDOF 22
ENDMDL
MODEL 6
REMARK VINA RESULT:    -3.927      2.745      5.467
REMARK INTER + INTRA:         -12.163
REMARK INTER:                  -9.121
REMARK INTRA:                  -3.042
REMARK UNBOUND:                -3.184
REMARK SMILES CCCCCCCCCCCCCCCCCCCCCCCC(=O)[O-]
REMARK SMILES IDX 13 1 14 2 15 3 16 4 17 5 18 6 19 7 20 8 21 9 22 10 23 11
REMARK SMILES IDX 24 12 25 13 26 14 12 15 11 16 10 17 9 18 8 19 7 20 6 21 5 22
REMARK SMILES IDX 4 23 3 24 2 25 1 26
REMARK H PARENT
REMARK Flexibility Score: inf
ROOT
ATOM      1  C   UNL     1      15.771  21.527 -17.865  1.00  0.00     0.000 C 
ENDROOT
BRANCH   1   2
ATOM      2  C   UNL     1      17.145  20.948 -18.241  1.00  0.00     0.000 C 
BRANCH   2   3
ATOM      3  C   UNL     1      17.754  20.071 -17.131  1.00  0.00     0.000 C 
BRANCH   3   4
ATOM      4  C   UNL     1      16.881  18.886 -16.677  1.00  0.00     0.000 C 
BRANCH   4   5
ATOM      5  C   UNL     1      17.361  18.258 -15.356  1.00  0.00     0.000 C 
BRANCH   5   6
ATOM      6  C   UNL     1      17.974  16.863 -15.555  1.00  0.00     0.000 C 
BRANCH   6   7
ATOM      7  C   UNL     1      19.216  16.881 -16.465  1.00  0.00     0.000 C 
BRANCH   7   8
ATOM      8  C   UNL     1      20.514  17.139 -15.682  1.00  0.00     0.000 C 
BRANCH   8   9
ATOM      9  C   UNL     1      20.905  18.627 -15.663  1.00  0.00     0.000 C 
BRANCH   9  10
ATOM     10  C   UNL     1      20.785  19.254 -14.261  1.00  0.00     0.006 C 
BRANCH  10  11
ATOM     11  C   UNL     1      20.065  20.611 -14.232  1.00  0.00     0.053 C 
BRANCH  11  12
ATOM     12  C   UNL     1      20.791  21.615 -13.392  1.00  0.00     0.041 C 
ATOM     13  O   UNL     1      21.823  22.183 -13.835  1.00  0.00    -0.550 OA
ATOM     14  O   UNL     1      20.315  21.940 -12.128  1.00  0.00    -0.550 OA
ENDBRANCH  11  12
ENDBRANCH  10  11
ENDBRANCH   9  10
ENDBRANCH   8   9
ENDBRANCH   7   8
ENDBRANCH   6   7
ENDBRANCH   5   6
ENDBRANCH   4   5
ENDBRANCH   3   4
ENDBRANCH   2   3
ENDBRANCH   1   2
BRANCH   1  15
ATOM     15  C   UNL     1      14.752  21.308 -18.993  1.00  0.00     0.000 C 
BRANCH  15  16
ATOM     16  C   UNL     1      13.296  21.359 -18.502  1.00  0.00     0.000 C 
BRANCH  16  17
ATOM     17  C   UNL     1      12.374  22.136 -19.456  1.00  0.00     0.000 C 
BRANCH  17  18
ATOM     18  C   UNL     1      13.155  23.033 -20.431  1.00  0.00    -0.000 C 
BRANCH  18  19
ATOM     19  C   UNL     1      12.713  22.844 -21.893  1.00  0.00    -0.000 C 
BRANCH  19  20
ATOM     20  C   UNL     1      11.879  21.560 -22.090  1.00  0.00    -0.000 C 
BRANCH  20  21
ATOM     21  C   UNL     1      12.479  20.585 -23.121  1.00  0.00    -0.000 C 
BRANCH  21  22
ATOM     22  C   UNL     1      13.838  19.985 -22.723  1.00  0.00    -0.000 C 
BRANCH  22  23
ATOM     23  C   UNL     1      13.774  19.191 -21.406  1.00  0.00    -0.000 C 
BRANCH  23  24
ATOM     24  C   UNL     1      14.961  18.215 -21.257  1.00  0.00    -0.000 C 
BRANCH  24  25
ATOM     25  C   UNL     1      15.141  17.678 -19.829  1.00  0.00    -0.003 C 
ATOM     26  C   UNL     1      16.415  16.851 -19.655  1.00  0.00     0.004 C 
ENDBRANCH  24  25
ENDBRANCH  23  24
ENDBRANCH  22  23
ENDBRANCH  21  22
ENDBRANCH  20  21
ENDBRANCH  19  20
ENDBRANCH  18  19
ENDBRANCH  17  18
ENDBRANCH  16  17
ENDBRANCH  15  16
ENDBRANCH   1  15
TORSDOF 22
ENDMDL
MODEL 7
REMARK VINA RESULT:    -3.896      2.129      4.308
REMARK INTER + INTRA:         -12.091
REMARK INTER:                  -8.897
REMARK INTRA:                  -3.194
REMARK UNBOUND:                -3.184
REMARK SMILES CCCCCCCCCCCCCCCCCCCCCCCC(=O)[O-]
REMARK SMILES IDX 13 1 14 2 15 3 16 4 17 5 18 6 19 7 20 8 21 9 22 10 23 11
REMARK SMILES IDX 24 12 25 13 26 14 12 15 11 16 10 17 9 18 8 19 7 20 6 21 5 22
REMARK SMILES IDX 4 23 3 24 2 25 1 26
REMARK H PARENT
REMARK Flexibility Score: inf
ROOT
ATOM      1  C   UNL     1      14.184  21.896 -19.309  1.00  0.00     0.000 C 
ENDROOT
BRANCH   1   2
ATOM      2  C   UNL     1      14.854  20.991 -18.263  1.00  0.00     0.000 C 
BRANCH   2   3
ATOM      3  C   UNL     1      16.385  21.153 -18.216  1.00  0.00     0.000 C 
BRANCH   3   4
ATOM      4  C   UNL     1      17.128  20.111 -17.359  1.00  0.00     0.000 C 
BRANCH   4   5
ATOM      5  C   UNL     1      16.575  18.686 -17.533  1.00  0.00     0.000 C 
BRANCH   5   6
ATOM      6  C   UNL     1      17.371  17.642 -16.733  1.00  0.00     0.000 C 
BRANCH   6   7
ATOM      7  C   UNL     1      16.992  17.618 -15.241  1.00  0.00     0.000 C 
BRANCH   7   8
ATOM      8  C   UNL     1      18.146  17.131 -14.349  1.00  0.00     0.000 C 
BRANCH   8   9
ATOM      9  C   UNL     1      19.485  17.061 -15.102  1.00  0.00     0.000 C 
BRANCH   9  10
ATOM     10  C   UNL     1      20.478  18.148 -14.650  1.00  0.00     0.006 C 
BRANCH  10  11
ATOM     11  C   UNL     1      20.057  19.582 -15.006  1.00  0.00     0.053 C 
BRANCH  11  12
ATOM     12  C   UNL     1      19.940  20.452 -13.793  1.00  0.00     0.041 C 
ATOM     13  O   UNL     1      19.330  20.038 -12.773  1.00  0.00    -0.550 OA
ATOM     14  O   UNL     1      20.525  21.712 -13.780  1.00  0.00    -0.550 OA
ENDBRANCH  11  12
ENDBRANCH  10  11
ENDBRANCH   9  10
ENDBRANCH   8   9
ENDBRANCH   7   8
ENDBRANCH   6   7
ENDBRANCH   5   6
ENDBRANCH   4   5
ENDBRANCH   3   4
ENDBRANCH   2   3
ENDBRANCH   1   2
BRANCH   1  15
ATOM     15  C   UNL     1      12.657  21.899 -19.141  1.00  0.00     0.000 C 
BRANCH  15  16
ATOM     16  C   UNL     1      11.910  22.095 -20.470  1.00  0.00     0.000 C 
BRANCH  16  17
ATOM     17  C   UNL     1      12.696  22.954 -21.474  1.00  0.00     0.000 C 
BRANCH  17  18
ATOM     18  C   UNL     1      12.393  22.581 -22.934  1.00  0.00    -0.000 C 
BRANCH  18  19
ATOM     19  C   UNL     1      13.503  21.724 -23.569  1.00  0.00    -0.000 C 
BRANCH  19  20
ATOM     20  C   UNL     1      12.970  20.377 -24.101  1.00  0.00    -0.000 C 
BRANCH  20  21
ATOM     21  C   UNL     1      13.450  19.158 -23.291  1.00  0.00    -0.000 C 
BRANCH  21  22
ATOM     22  C   UNL     1      12.650  18.885 -22.006  1.00  0.00    -0.000 C 
BRANCH  22  23
ATOM     23  C   UNL     1      13.546  18.474 -20.824  1.00  0.00    -0.000 C 
BRANCH  23  24
ATOM     24  C   UNL     1      15.042  18.718 -21.116  1.00  0.00    -0.000 C 
BRANCH  24  25
ATOM     25  C   UNL     1      15.915  17.464 -20.953  1.00  0.00    -0.003 C 
ATOM     26  C   UNL     1      15.529  16.336 -21.909  1.00  0.00     0.004 C 
ENDBRANCH  24  25
ENDBRANCH  23  24
ENDBRANCH  22  23
ENDBRANCH  21  22
ENDBRANCH  20  21
ENDBRANCH  19  20
ENDBRANCH  18  19
ENDBRANCH  17  18
ENDBRANCH  16  17
ENDBRANCH  15  16
ENDBRANCH   1  15
TORSDOF 22
ENDMDL
MODEL 8
REMARK VINA RESULT:    -3.835      2.462      7.551
REMARK INTER + INTRA:         -11.951
REMARK INTER:                  -9.888
REMARK INTRA:                  -2.063
REMARK UNBOUND:                -3.184
REMARK SMILES CCCCCCCCCCCCCCCCCCCCCCCC(=O)[O-]
REMARK SMILES IDX 13 1 14 2 15 3 16 4 17 5 18 6 19 7 20 8 21 9 22 10 23 11
REMARK SMILES IDX 24 12 25 13 26 14 12 15 11 16 10 17 9 18 8 19 7 20 6 21 5 22
REMARK SMILES IDX 4 23 3 24 2 25 1 26
REMARK H PARENT
REMARK Flexibility Score: inf
ROOT
ATOM      1  C   UNL     1      13.364  21.996 -22.713  1.00  0.00     0.000 C 
ENDROOT
BRANCH   1   2
ATOM      2  C   UNL     1      12.628  23.280 -23.128  1.00  0.00     0.000 C 
BRANCH   2   3
ATOM      3  C   UNL     1      12.703  23.557 -24.641  1.00  0.00     0.000 C 
BRANCH   3   4
ATOM      4  C   UNL     1      13.739  22.716 -25.411  1.00  0.00     0.000 C 
BRANCH   4   5
ATOM      5  C   UNL     1      13.369  22.516 -26.891  1.00  0.00     0.000 C 
BRANCH   5   6
ATOM      6  C   UNL     1      12.098  21.669 -27.072  1.00  0.00     0.000 C 
BRANCH   6   7
ATOM      7  C   UNL     1      12.309  20.472 -28.017  1.00  0.00     0.000 C 
BRANCH   7   8
ATOM      8  C   UNL     1      12.195  19.122 -27.290  1.00  0.00     0.000 C 
BRANCH   8   9
ATOM      9  C   UNL     1      12.300  19.264 -25.762  1.00  0.00     0.000 C 
BRANCH   9  10
ATOM     10  C   UNL     1      12.945  18.035 -25.094  1.00  0.00     0.006 C 
BRANCH  10  11
ATOM     11  C   UNL     1      13.277  18.222 -23.605  1.00  0.00     0.053 C 
BRANCH  11  12
ATOM     12  C   UNL     1      13.791  16.962 -22.982  1.00  0.00     0.041 C 
ATOM     13  O   UNL     1      14.343  16.082 -23.693  1.00  0.00    -0.550 OA
ATOM     14  O   UNL     1      13.680  16.768 -21.610  1.00  0.00    -0.550 OA
ENDBRANCH  11  12
ENDBRANCH  10  11
ENDBRANCH   9  10
ENDBRANCH   8   9
ENDBRANCH   7   8
ENDBRANCH   6   7
ENDBRANCH   5   6
ENDBRANCH   4   5
ENDBRANCH   3   4
ENDBRANCH   2   3
ENDBRANCH   1   2
BRANCH   1  15
ATOM     15  C   UNL     1      12.608  21.263 -21.595  1.00  0.00     0.000 C 
BRANCH  15  16
ATOM     16  C   UNL     1      12.094  22.212 -20.499  1.00  0.00     0.000 C 
BRANCH  16  17
ATOM     17  C   UNL     1      12.602  21.832 -19.098  1.00  0.00     0.000 C 
BRANCH  17  18
ATOM     18  C   UNL     1      13.812  20.884 -19.147  1.00  0.00    -0.000 C 
BRANCH  18  19
ATOM     19  C   UNL     1      15.064  21.487 -18.484  1.00  0.00    -0.000 C 
BRANCH  19  20
ATOM     20  C   UNL     1      16.292  20.559 -18.604  1.00  0.00    -0.000 C 
BRANCH  20  21
ATOM     21  C   UNL     1      16.424  19.555 -17.442  1.00  0.00    -0.000 C 
BRANCH  21  22
ATOM     22  C   UNL     1      16.341  18.077 -17.858  1.00  0.00    -0.000 C 
BRANCH  22  23
ATOM     23  C   UNL     1      17.576  17.267 -17.424  1.00  0.00    -0.000 C 
BRANCH  23  24
ATOM     24  C   UNL     1      17.778  17.292 -15.894  1.00  0.00    -0.000 C 
BRANCH  24  25
ATOM     25  C   UNL     1      19.125  17.893 -15.460  1.00  0.00    -0.003 C 
ATOM     26  C   UNL     1      19.968  18.385 -16.635  1.00  0.00     0.004 C 
ENDBRANCH  24  25
ENDBRANCH  23  24
ENDBRANCH  22  23
ENDBRANCH  21  22
ENDBRANCH  20  21
ENDBRANCH  19  20
ENDBRANCH  18  19
ENDBRANCH  17  18
ENDBRANCH  16  17
ENDBRANCH  15  16
ENDBRANCH   1  15
TORSDOF 22
ENDMDL
MODEL 9
REMARK VINA RESULT:    -3.811      2.164      4.008
REMARK INTER + INTRA:         -11.898
REMARK INTER:                  -8.184
REMARK INTRA:                  -3.714
REMARK UNBOUND:                -3.184
REMARK SMILES CCCCCCCCCCCCCCCCCCCCCCCC(=O)[O-]
REMARK SMILES IDX 13 1 14 2 15 3 16 4 17 5 18 6 19 7 20 8 21 9 22 10 23 11
REMARK SMILES IDX 24 12 25 13 26 14 12 15 11 16 10 17 9 18 8 19 7 20 6 21 5 22
REMARK SMILES IDX 4 23 3 24 2 25 1 26
REMARK H PARENT
REMARK Flexibility Score: inf
ROOT
ATOM      1  C   UNL     1      12.065  21.548 -22.104  1.00  0.00     0.000 C 
ENDROOT
BRANCH   1   2
ATOM      2  C   UNL     1      12.633  22.937 -21.771  1.00  0.00     0.000 C 
BRANCH   2   3
ATOM      3  C   UNL     1      12.661  23.231 -20.259  1.00  0.00     0.000 C 
BRANCH   3   4
ATOM      4  C   UNL     1      12.265  22.049 -19.354  1.00  0.00     0.000 C 
BRANCH   4   5
ATOM      5  C   UNL     1      13.442  21.511 -18.522  1.00  0.00     0.000 C 
BRANCH   5   6
ATOM      6  C   UNL     1      14.792  21.668 -19.240  1.00  0.00     0.000 C 
BRANCH   6   7
ATOM      7  C   UNL     1      15.994  21.533 -18.287  1.00  0.00     0.000 C 
BRANCH   7   8
ATOM      8  C   UNL     1      15.986  20.203 -17.515  1.00  0.00     0.000 C 
BRANCH   8   9
ATOM      9  C   UNL     1      17.403  19.699 -17.191  1.00  0.00     0.000 C 
BRANCH   9  10
ATOM     10  C   UNL     1      17.414  18.246 -16.682  1.00  0.00     0.006 C 
BRANCH  10  11
ATOM     11  C   UNL     1      18.660  17.868 -15.866  1.00  0.00     0.053 C 
BRANCH  11  12
ATOM     12  C   UNL     1      18.955  18.870 -14.793  1.00  0.00     0.041 C 
ATOM     13  O   UNL     1      18.226  18.934 -13.769  1.00  0.00    -0.550 OA
ATOM     14  O   UNL     1      20.048  19.719 -14.914  1.00  0.00    -0.550 OA
ENDBRANCH  11  12
ENDBRANCH  10  11
ENDBRANCH   9  10
ENDBRANCH   8   9
ENDBRANCH   7   8
ENDBRANCH   6   7
ENDBRANCH   5   6
ENDBRANCH   4   5
ENDBRANCH   3   4
ENDBRANCH   2   3
ENDBRANCH   1   2
BRANCH   1  15
ATOM     15  C   UNL     1      12.950  20.820 -23.126  1.00  0.00     0.000 C 
BRANCH  15  16
ATOM     16  C   UNL     1      13.755  19.665 -22.506  1.00  0.00     0.000 C 
BRANCH  16  17
ATOM     17  C   UNL     1      13.067  19.057 -21.273  1.00  0.00     0.000 C 
BRANCH  17  18
ATOM     18  C   UNL     1      13.997  18.124 -20.480  1.00  0.00    -0.000 C 
BRANCH  18  19
ATOM     19  C   UNL     1      15.486  18.422 -20.726  1.00  0.00    -0.000 C 
BRANCH  19  20
ATOM     20  C   UNL     1      16.406  17.333 -20.133  1.00  0.00    -0.000 C 
BRANCH  20  21
ATOM     21  C   UNL     1      15.641  16.154 -19.502  1.00  0.00    -0.000 C 
BRANCH  21  22
ATOM     22  C   UNL     1      15.884  14.795 -20.178  1.00  0.00    -0.000 C 
BRANCH  22  23
ATOM     23  C   UNL     1      15.519  14.802 -21.673  1.00  0.00    -0.000 C 
BRANCH  23  24
ATOM     24  C   UNL     1      13.995  14.709 -21.901  1.00  0.00    -0.000 C 
BRANCH  24  25
ATOM     25  C   UNL     1      13.579  14.891 -23.369  1.00  0.00    -0.003 C 
ATOM     26  C   UNL     1      12.835  16.201 -23.624  1.00  0.00     0.004 C 
ENDBRANCH  24  25
ENDBRANCH  23  24
ENDBRANCH  22  23
ENDBRANCH  21  22
ENDBRANCH  20  21
ENDBRANCH  19  20
ENDBRANCH  18  19
ENDBRANCH  17  18
ENDBRANCH  16  17
ENDBRANCH  15  16
ENDBRANCH   1  15
TORSDOF 22
ENDMDL
