MODEL 1
REMARK VINA RESULT:    -4.795      0.000      0.000
REMARK INTER + INTRA:         -15.640
REMARK INTER:                 -12.082
REMARK INTRA:                  -3.558
REMARK UNBOUND:                -3.558
REMARK SMILES CCCCCCCCCCCCCCCCCCCCCCCCCCCC(=O)[O-]
REMARK SMILES IDX 15 1 16 2 17 3 18 4 19 5 20 6 21 7 22 8 23 9 24 10 25 11
REMARK SMILES IDX 26 12 27 13 28 14 29 15 30 16 14 17 13 18 12 19 11 20 10 21
REMARK SMILES IDX 9 22 8 23 7 24 6 25 5 26 4 27 3 28 2 29 1 30
REMARK H PARENT
REMARK Flexibility Score: inf
ROOT
ATOM      1  C   UNL     1       1.712   9.983 -15.550  1.00  0.00     0.000 C 
ENDROOT
BRANCH   1   2
ATOM      2  C   UNL     1       1.878  10.994 -14.403  1.00  0.00     0.000 C 
BRANCH   2   3
ATOM      3  C   UNL     1       3.222  11.744 -14.394  1.00  0.00     0.000 C 
BRANCH   3   4
ATOM      4  C   UNL     1       4.416  10.875 -13.940  1.00  0.00     0.000 C 
BRANCH   4   5
ATOM      5  C   UNL     1       5.342  10.498 -15.111  1.00  0.00     0.000 C 
BRANCH   5   6
ATOM      6  C   UNL     1       5.318  11.548 -16.241  1.00  0.00     0.000 C 
BRANCH   6   7
ATOM      7  C   UNL     1       6.500  12.532 -16.191  1.00  0.00     0.000 C 
BRANCH   7   8
ATOM      8  C   UNL     1       6.140  13.863 -15.517  1.00  0.00     0.000 C 
BRANCH   8   9
ATOM      9  C   UNL     1       7.104  14.183 -14.368  1.00  0.00     0.000 C 
BRANCH   9  10
ATOM     10  C   UNL     1       6.897  13.211 -13.197  1.00  0.00     0.000 C 
BRANCH  10  11
ATOM     11  C   UNL     1       7.922  13.410 -12.069  1.00  0.00     0.000 C 
BRANCH  11  12
ATOM     12  C   UNL     1       7.816  12.338 -10.973  1.00  0.00     0.006 C 
BRANCH  12  13
ATOM     13  C   UNL     1       8.993  11.360 -11.047  1.00  0.00     0.053 C 
BRANCH  13  14
ATOM     14  C   UNL     1       8.524   9.946 -10.903  1.00  0.00     0.041 C 
ATOM     15  O   UNL     1       7.654   9.483 -11.689  1.00  0.00    -0.550 OA
ATOM     16  O   UNL     1       9.036   9.140  -9.893  1.00  0.00    -0.550 OA
ENDBRANCH  13  14
ENDBRANCH  12  13
ENDBRANCH  11  12
ENDBRANCH  10  11
ENDBRANCH   9  10
ENDBRANCH   8   9
ENDBRANCH   7   8
ENDBRANCH   6   7
ENDBRANCH   5   6
ENDBRANCH   4   5
ENDBRANCH   3   4
ENDBRANCH   2   3
ENDBRANCH   1   2
BRANCH   1  17
ATOM     17  C   UNL     1       1.789  10.638 -16.941  1.00  0.00     0.000 C 
BRANCH  17  18
ATOM     18  C   UNL     1       1.021  11.973 -17.026  1.00  0.00     0.000 C 
BRANCH  18  19
ATOM     19  C   UNL     1       1.528  12.935 -18.119  1.00  0.00     0.000 C 
BRANCH  19  20
ATOM     20  C   UNL     1       2.821  13.707 -17.788  1.00  0.00     0.000 C 
BRANCH  20  21
ATOM     21  C   UNL     1       2.684  14.792 -16.705  1.00  0.00     0.000 C 
BRANCH  21  22
ATOM     22  C   UNL     1       3.641  15.977 -16.919  1.00  0.00    -0.000 C 
BRANCH  22  23
ATOM     23  C   UNL     1       2.896  17.326 -17.001  1.00  0.00    -0.000 C 
BRANCH  23  24
ATOM     24  C   UNL     1       1.621  17.279 -17.863  1.00  0.00    -0.000 C 
BRANCH  24  25
ATOM     25  C   UNL     1       0.371  17.755 -17.105  1.00  0.00    -0.000 C 
BRANCH  25  26
ATOM     26  C   UNL     1      -0.624  16.615 -16.835  1.00  0.00    -0.000 C 
BRANCH  26  27
ATOM     27  C   UNL     1      -0.785  16.315 -15.334  1.00  0.00    -0.000 C 
BRANCH  27  28
ATOM     28  C   UNL     1      -1.056  17.591 -14.511  1.00  0.00    -0.000 C 
BRANCH  28  29
ATOM     29  C   UNL     1      -2.465  17.637 -13.893  1.00  0.00    -0.003 C 
ATOM     30  C   UNL     1      -3.576  17.671 -14.939  1.00  0.00     0.004 C 
ENDBRANCH  28  29
ENDBRANCH  27  28
ENDBRANCH  26  27
ENDBRANCH  25  26
ENDBRANCH  24  25
ENDBRANCH  23  24
ENDBRANCH  22  23
ENDBRANCH  21  22
ENDBRANCH  20  21
ENDBRANCH  19  20
ENDBRANCH  18  19
ENDBRANCH  17  18
ENDBRANCH   1  17
TORSDOF 26
ENDMDL
MODEL 2
REMARK VINA RESULT:    -4.297     14.007     17.112
REMARK INTER + INTRA:         -14.386
REMARK INTER:                 -11.357
REMARK INTRA:                  -3.028
REMARK UNBOUND:                -3.558
REMARK SMILES CCCCCCCCCCCCCCCCCCCCCCCCCCCC(=O)[O-]
REMARK SMILES IDX 15 1 16 2 17 3 18 4 19 5 20 6 21 7 22 8 23 9 24 10 25 11
REMARK SMILES IDX 26 12 27 13 28 14 29 15 30 16 14 17 13 18 12 19 11 20 10 21
REMARK SMILES IDX 9 22 8 23 7 24 6 25 5 26 4 27 3 28 2 29 1 30
REMARK H PARENT
REMARK Flexibility Score: inf
ROOT
ATOM      1  C   UNL     1      -9.371   3.796  -9.460  1.00  0.00     0.000 C 
ENDROOT
BRANCH   1   2
ATOM      2  C   UNL     1      -9.283   5.310  -9.203  1.00  0.00     0.000 C 
BRANCH   2   3
ATOM      3  C   UNL     1      -7.852   5.874  -9.159  1.00  0.00     0.000 C 
BRANCH   3   4
ATOM      4  C   UNL     1      -7.768   7.382  -9.485  1.00  0.00     0.000 C 
BRANCH   4   5
ATOM      5  C   UNL     1      -6.698   7.691 -10.547  1.00  0.00     0.000 C 
BRANCH   5   6
ATOM      6  C   UNL     1      -6.873   9.094 -11.166  1.00  0.00     0.000 C 
BRANCH   6   7
ATOM      7  C   UNL     1      -8.128   9.833 -10.669  1.00  0.00     0.000 C 
BRANCH   7   8
ATOM      8  C   UNL     1      -7.798  11.007  -9.737  1.00  0.00     0.000 C 
BRANCH   8   9
ATOM      9  C   UNL     1      -6.287  11.262  -9.676  1.00  0.00     0.000 C 
BRANCH   9  10
ATOM     10  C   UNL     1      -5.671  10.587  -8.442  1.00  0.00     0.000 C 
BRANCH  10  11
ATOM     11  C   UNL     1      -4.311   9.934  -8.736  1.00  0.00     0.000 C 
BRANCH  11  12
ATOM     12  C   UNL     1      -3.839   9.005  -7.606  1.00  0.00     0.006 C 
BRANCH  12  13
ATOM     13  C   UNL     1      -4.653   7.707  -7.588  1.00  0.00     0.053 C 
BRANCH  13  14
ATOM     14  C   UNL     1      -3.956   6.651  -6.789  1.00  0.00     0.041 C 
ATOM     15  O   UNL     1      -2.806   6.865  -6.321  1.00  0.00    -0.550 OA
ATOM     16  O   UNL     1      -4.570   5.424  -6.567  1.00  0.00    -0.550 OA
ENDBRANCH  13  14
ENDBRANCH  12  13
ENDBRANCH  11  12
ENDBRANCH  10  11
ENDBRANCH   9  10
ENDBRANCH   8   9
ENDBRANCH   7   8
ENDBRANCH   6   7
ENDBRANCH   5   6
ENDBRANCH   4   5
ENDBRANCH   3   4
ENDBRANCH   2   3
ENDBRANCH   1   2
BRANCH   1  17
ATOM     17  C   UNL     1     -10.776   3.344  -9.901  1.00  0.00     0.000 C 
BRANCH  17  18
ATOM     18  C   UNL     1     -10.970   1.815  -9.832  1.00  0.00     0.000 C 
BRANCH  18  19
ATOM     19  C   UNL     1      -9.663   1.009  -9.701  1.00  0.00     0.000 C 
BRANCH  19  20
ATOM     20  C   UNL     1      -9.826  -0.508  -9.488  1.00  0.00     0.000 C 
BRANCH  20  21
ATOM     21  C   UNL     1     -11.121  -0.939  -8.775  1.00  0.00     0.000 C 
BRANCH  21  22
ATOM     22  C   UNL     1     -10.983  -0.962  -7.243  1.00  0.00    -0.000 C 
BRANCH  22  23
ATOM     23  C   UNL     1      -9.655  -0.340  -6.763  1.00  0.00    -0.000 C 
BRANCH  23  24
ATOM     24  C   UNL     1      -9.653   0.046  -5.273  1.00  0.00    -0.000 C 
BRANCH  24  25
ATOM     25  C   UNL     1     -10.086   1.502  -5.033  1.00  0.00    -0.000 C 
BRANCH  25  26
ATOM     26  C   UNL     1     -10.467   2.225  -6.335  1.00  0.00    -0.000 C 
BRANCH  26  27
ATOM     27  C   UNL     1     -11.069   3.618  -6.081  1.00  0.00    -0.000 C 
BRANCH  27  28
ATOM     28  C   UNL     1     -10.200   4.464  -5.126  1.00  0.00    -0.000 C 
BRANCH  28  29
ATOM     29  C   UNL     1     -10.038   5.926  -5.577  1.00  0.00    -0.003 C 
ATOM     30  C   UNL     1      -8.630   6.471  -5.345  1.00  0.00     0.004 C 
ENDBRANCH  28  29
ENDBRANCH  27  28
ENDBRANCH  26  27
ENDBRANCH  25  26
ENDBRANCH  24  25
ENDBRANCH  23  24
ENDBRANCH  22  23
ENDBRANCH  21  22
ENDBRANCH  20  21
ENDBRANCH  19  20
ENDBRANCH  18  19
ENDBRANCH  17  18
ENDBRANCH   1  17
TORSDOF 26
ENDMDL
MODEL 3
REMARK VINA RESULT:    -4.206     13.465     16.573
REMARK INTER + INTRA:         -14.157
REMARK INTER:                 -10.979
REMARK INTRA:                  -3.178
REMARK UNBOUND:                -3.558
REMARK SMILES CCCCCCCCCCCCCCCCCCCCCCCCCCCC(=O)[O-]
REMARK SMILES IDX 15 1 16 2 17 3 18 4 19 5 20 6 21 7 22 8 23 9 24 10 25 11
REMARK SMILES IDX 26 12 27 13 28 14 29 15 30 16 14 17 13 18 12 19 11 20 10 21
REMARK SMILES IDX 9 22 8 23 7 24 6 25 5 26 4 27 3 28 2 29 1 30
REMARK H PARENT
REMARK Flexibility Score: inf
ROOT
ATOM      1  C   UNL     1      -8.640   6.822  -6.730  1.00  0.00     0.000 C 
ENDROOT
BRANCH   1   2
ATOM      2  C   UNL     1      -7.491   6.912  -7.747  1.00  0.00     0.000 C 
BRANCH   2   3
ATOM      3  C   UNL     1      -7.697   7.954  -8.861  1.00  0.00     0.000 C 
BRANCH   3   4
ATOM      4  C   UNL     1      -6.973   7.604 -10.181  1.00  0.00     0.000 C 
BRANCH   4   5
ATOM      5  C   UNL     1      -7.228   8.650 -11.281  1.00  0.00     0.000 C 
BRANCH   5   6
ATOM      6  C   UNL     1      -5.919   9.190 -11.893  1.00  0.00     0.000 C 
BRANCH   6   7
ATOM      7  C   UNL     1      -5.141  10.126 -10.952  1.00  0.00     0.000 C 
BRANCH   7   8
ATOM      8  C   UNL     1      -6.051  11.107 -10.201  1.00  0.00     0.000 C 
BRANCH   8   9
ATOM      9  C   UNL     1      -5.311  11.772  -9.035  1.00  0.00     0.000 C 
BRANCH   9  10
ATOM     10  C   UNL     1      -5.910  11.336  -7.690  1.00  0.00     0.000 C 
BRANCH  10  11
ATOM     11  C   UNL     1      -5.545   9.891  -7.315  1.00  0.00     0.000 C 
BRANCH  11  12
ATOM     12  C   UNL     1      -4.029   9.643  -7.308  1.00  0.00     0.006 C 
BRANCH  12  13
ATOM     13  C   UNL     1      -3.694   8.274  -7.909  1.00  0.00     0.053 C 
BRANCH  13  14
ATOM     14  C   UNL     1      -3.330   7.294  -6.838  1.00  0.00     0.041 C 
ATOM     15  O   UNL     1      -4.111   6.347  -6.553  1.00  0.00    -0.550 OA
ATOM     16  O   UNL     1      -2.134   7.430  -6.144  1.00  0.00    -0.550 OA
ENDBRANCH  13  14
ENDBRANCH  12  13
ENDBRANCH  11  12
ENDBRANCH  10  11
ENDBRANCH   9  10
ENDBRANCH   8   9
ENDBRANCH   7   8
ENDBRANCH   6   7
ENDBRANCH   5   6
ENDBRANCH   4   5
ENDBRANCH   3   4
ENDBRANCH   2   3
ENDBRANCH   1   2
BRANCH   1  17
ATOM     17  C   UNL     1      -9.597   5.648  -7.011  1.00  0.00     0.000 C 
BRANCH  17  18
ATOM     18  C   UNL     1     -10.751   6.022  -7.964  1.00  0.00     0.000 C 
BRANCH  18  19
ATOM     19  C   UNL     1     -10.449   5.784  -9.457  1.00  0.00     0.000 C 
BRANCH  19  20
ATOM     20  C   UNL     1      -9.963   4.369  -9.828  1.00  0.00     0.000 C 
BRANCH  20  21
ATOM     21  C   UNL     1     -11.066   3.379 -10.243  1.00  0.00     0.000 C 
BRANCH  21  22
ATOM     22  C   UNL     1     -11.125   2.133  -9.342  1.00  0.00    -0.000 C 
BRANCH  22  23
ATOM     23  C   UNL     1     -10.948   0.823 -10.138  1.00  0.00    -0.000 C 
BRANCH  23  24
ATOM     24  C   UNL     1     -10.037  -0.206  -9.444  1.00  0.00    -0.000 C 
BRANCH  24  25
ATOM     25  C   UNL     1      -9.290   0.378  -8.234  1.00  0.00    -0.000 C 
BRANCH  25  26
ATOM     26  C   UNL     1      -9.572  -0.397  -6.937  1.00  0.00    -0.000 C 
BRANCH  26  27
ATOM     27  C   UNL     1      -9.945   0.528  -5.765  1.00  0.00    -0.000 C 
BRANCH  27  28
ATOM     28  C   UNL     1     -10.663   1.809  -6.240  1.00  0.00    -0.000 C 
BRANCH  28  29
ATOM     29  C   UNL     1     -10.682   2.929  -5.185  1.00  0.00    -0.003 C 
ATOM     30  C   UNL     1      -9.990   2.536  -3.882  1.00  0.00     0.004 C 
ENDBRANCH  28  29
ENDBRANCH  27  28
ENDBRANCH  26  27
ENDBRANCH  25  26
ENDBRANCH  24  25
ENDBRANCH  23  24
ENDBRANCH  22  23
ENDBRANCH  21  22
ENDBRANCH  20  21
ENDBRANCH  19  20
ENDBRANCH  18  19
ENDBRANCH  17  18
ENDBRANCH   1  17
TORSDOF 26
ENDMDL
MODEL 4
REMARK VINA RESULT:    -3.998     13.520     16.353
REMARK INTER + INTRA:         -13.632
REMARK INTER:                  -9.823
REMARK INTRA:                  -3.809
REMARK UNBOUND:                -3.558
REMARK SMILES CCCCCCCCCCCCCCCCCCCCCCCCCCCC(=O)[O-]
REMARK SMILES IDX 15 1 16 2 17 3 18 4 19 5 20 6 21 7 22 8 23 9 24 10 25 11
REMARK SMILES IDX 26 12 27 13 28 14 29 15 30 16 14 17 13 18 12 19 11 20 10 21
REMARK SMILES IDX 9 22 8 23 7 24 6 25 5 26 4 27 3 28 2 29 1 30
REMARK H PARENT
REMARK Flexibility Score: inf
ROOT
ATOM      1  C   UNL     1      -9.822  -0.090  -8.209  1.00  0.00     0.000 C 
ENDROOT
BRANCH   1   2
ATOM      2  C   UNL     1     -10.949   0.837  -8.695  1.00  0.00     0.000 C 
BRANCH   2   3
ATOM      3  C   UNL     1     -10.483   2.010  -9.576  1.00  0.00     0.000 C 
BRANCH   3   4
ATOM      4  C   UNL     1      -9.569   3.015  -8.841  1.00  0.00     0.000 C 
BRANCH   4   5
ATOM      5  C   UNL     1      -8.100   2.904  -9.287  1.00  0.00     0.000 C 
BRANCH   5   6
ATOM      6  C   UNL     1      -7.342   4.241  -9.153  1.00  0.00     0.000 C 
BRANCH   6   7
ATOM      7  C   UNL     1      -5.867   4.073  -8.746  1.00  0.00     0.000 C 
BRANCH   7   8
ATOM      8  C   UNL     1      -5.100   5.401  -8.724  1.00  0.00     0.000 C 
BRANCH   8   9
ATOM      9  C   UNL     1      -5.312   6.145  -7.400  1.00  0.00     0.000 C 
BRANCH   9  10
ATOM     10  C   UNL     1      -4.119   7.063  -7.094  1.00  0.00     0.000 C 
BRANCH  10  11
ATOM     11  C   UNL     1      -3.833   8.066  -8.222  1.00  0.00     0.000 C 
BRANCH  11  12
ATOM     12  C   UNL     1      -4.310   9.488  -7.888  1.00  0.00     0.006 C 
BRANCH  12  13
ATOM     13  C   UNL     1      -4.495  10.318  -9.163  1.00  0.00     0.053 C 
BRANCH  13  14
ATOM     14  C   UNL     1      -5.460  11.440  -8.936  1.00  0.00     0.041 C 
ATOM     15  O   UNL     1      -5.305  12.540  -9.530  1.00  0.00    -0.550 OA
ATOM     16  O   UNL     1      -6.526  11.278  -8.058  1.00  0.00    -0.550 OA
ENDBRANCH  13  14
ENDBRANCH  12  13
ENDBRANCH  11  12
ENDBRANCH  10  11
ENDBRANCH   9  10
ENDBRANCH   8   9
ENDBRANCH   7   8
ENDBRANCH   6   7
ENDBRANCH   5   6
ENDBRANCH   4   5
ENDBRANCH   3   4
ENDBRANCH   2   3
ENDBRANCH   1   2
BRANCH   1  17
ATOM     17  C   UNL     1      -9.532   0.058  -6.704  1.00  0.00     0.000 C 
BRANCH  17  18
ATOM     18  C   UNL     1     -10.604   0.879  -5.958  1.00  0.00     0.000 C 
BRANCH  18  19
ATOM     19  C   UNL     1     -10.048   2.046  -5.119  1.00  0.00     0.000 C 
BRANCH  19  20
ATOM     20  C   UNL     1     -11.016   3.220  -4.873  1.00  0.00     0.000 C 
BRANCH  20  21
ATOM     21  C   UNL     1     -10.349   4.579  -4.597  1.00  0.00     0.000 C 
BRANCH  21  22
ATOM     22  C   UNL     1     -10.090   5.392  -5.877  1.00  0.00    -0.000 C 
BRANCH  22  23
ATOM     23  C   UNL     1      -8.852   6.305  -5.754  1.00  0.00    -0.000 C 
BRANCH  23  24
ATOM     24  C   UNL     1      -8.556   7.124  -7.023  1.00  0.00    -0.000 C 
BRANCH  24  25
ATOM     25  C   UNL     1      -9.432   6.712  -8.217  1.00  0.00    -0.000 C 
BRANCH  25  26
ATOM     26  C   UNL     1      -8.775   7.034  -9.569  1.00  0.00    -0.000 C 
BRANCH  26  27
ATOM     27  C   UNL     1      -7.577   7.989  -9.430  1.00  0.00    -0.000 C 
BRANCH  27  28
ATOM     28  C   UNL     1      -6.611   7.891 -10.630  1.00  0.00    -0.000 C 
BRANCH  28  29
ATOM     29  C   UNL     1      -6.788   9.025 -11.655  1.00  0.00    -0.003 C 
ATOM     30  C   UNL     1      -7.802  10.078 -11.215  1.00  0.00     0.004 C 
ENDBRANCH  28  29
ENDBRANCH  27  28
ENDBRANCH  26  27
ENDBRANCH  25  26
ENDBRANCH  24  25
ENDBRANCH  23  24
ENDBRANCH  22  23
ENDBRANCH  21  22
ENDBRANCH  20  21
ENDBRANCH  19  20
ENDBRANCH  18  19
ENDBRANCH  17  18
ENDBRANCH   1  17
TORSDOF 26
ENDMDL
MODEL 5
REMARK VINA RESULT:    -3.800      4.726      9.685
REMARK INTER + INTRA:         -13.133
REMARK INTER:                 -10.058
REMARK INTRA:                  -3.075
REMARK UNBOUND:                -3.558
REMARK SMILES CCCCCCCCCCCCCCCCCCCCCCCCCCCC(=O)[O-]
REMARK SMILES IDX 15 1 16 2 17 3 18 4 19 5 20 6 21 7 22 8 23 9 24 10 25 11
REMARK SMILES IDX 26 12 27 13 28 14 29 15 30 16 14 17 13 18 12 19 11 20 10 21
REMARK SMILES IDX 9 22 8 23 7 24 6 25 5 26 4 27 3 28 2 29 1 30
REMARK H PARENT
REMARK Flexibility Score: inf
ROOT
ATOM      1  C   UNL     1       2.514  12.089 -17.092  1.00  0.00     0.000 C 
ENDROOT
BRANCH   1   2
ATOM      2  C   UNL     1       1.726  10.844 -16.653  1.00  0.00     0.000 C 
BRANCH   2   3
ATOM      3  C   UNL     1       1.510  10.720 -15.134  1.00  0.00     0.000 C 
BRANCH   3   4
ATOM      4  C   UNL     1       1.532  12.074 -14.391  1.00  0.00     0.000 C 
BRANCH   4   5
ATOM      5  C   UNL     1       0.122  12.546 -13.995  1.00  0.00     0.000 C 
BRANCH   5   6
ATOM      6  C   UNL     1       0.017  14.083 -13.913  1.00  0.00     0.000 C 
BRANCH   6   7
ATOM      7  C   UNL     1      -0.606  14.724 -15.165  1.00  0.00     0.000 C 
BRANCH   7   8
ATOM      8  C   UNL     1      -1.002  16.190 -14.950  1.00  0.00     0.000 C 
BRANCH   8   9
ATOM      9  C   UNL     1      -0.232  17.120 -15.895  1.00  0.00     0.000 C 
BRANCH   9  10
ATOM     10  C   UNL     1      -1.171  17.723 -16.950  1.00  0.00     0.000 C 
BRANCH  10  11
ATOM     11  C   UNL     1      -1.833  16.658 -17.837  1.00  0.00     0.000 C 
BRANCH  11  12
ATOM     12  C   UNL     1      -3.313  16.959 -18.125  1.00  0.00     0.006 C 
BRANCH  12  13
ATOM     13  C   UNL     1      -4.225  16.206 -17.151  1.00  0.00     0.053 C 
BRANCH  13  14
ATOM     14  C   UNL     1      -5.530  16.919 -16.981  1.00  0.00     0.041 C 
ATOM     15  O   UNL     1      -5.550  18.134 -16.647  1.00  0.00    -0.550 OA
ATOM     16  O   UNL     1      -6.727  16.241 -17.179  1.00  0.00    -0.550 OA
ENDBRANCH  13  14
ENDBRANCH  12  13
ENDBRANCH  11  12
ENDBRANCH  10  11
ENDBRANCH   9  10
ENDBRANCH   8   9
ENDBRANCH   7   8
ENDBRANCH   6   7
ENDBRANCH   5   6
ENDBRANCH   4   5
ENDBRANCH   3   4
ENDBRANCH   2   3
ENDBRANCH   1   2
BRANCH   1  17
ATOM     17  C   UNL     1       1.666  13.073 -17.919  1.00  0.00     0.000 C 
BRANCH  17  18
ATOM     18  C   UNL     1       1.725  14.520 -17.386  1.00  0.00     0.000 C 
BRANCH  18  19
ATOM     19  C   UNL     1       2.983  15.306 -17.808  1.00  0.00     0.000 C 
BRANCH  19  20
ATOM     20  C   UNL     1       4.140  15.319 -16.791  1.00  0.00     0.000 C 
BRANCH  20  21
ATOM     21  C   UNL     1       5.247  14.277 -17.034  1.00  0.00     0.000 C 
BRANCH  21  22
ATOM     22  C   UNL     1       5.557  13.429 -15.789  1.00  0.00    -0.000 C 
BRANCH  22  23
ATOM     23  C   UNL     1       6.354  12.153 -16.131  1.00  0.00    -0.000 C 
BRANCH  23  24
ATOM     24  C   UNL     1       5.662  10.851 -15.687  1.00  0.00    -0.000 C 
BRANCH  24  25
ATOM     25  C   UNL     1       5.286  10.853 -14.196  1.00  0.00    -0.000 C 
BRANCH  25  26
ATOM     26  C   UNL     1       6.484  10.534 -13.287  1.00  0.00    -0.000 C 
BRANCH  26  27
ATOM     27  C   UNL     1       6.901  11.733 -12.418  1.00  0.00    -0.000 C 
BRANCH  27  28
ATOM     28  C   UNL     1       8.056  11.383 -11.456  1.00  0.00    -0.000 C 
BRANCH  28  29
ATOM     29  C   UNL     1       8.085   9.900 -11.046  1.00  0.00    -0.003 C 
ATOM     30  C   UNL     1       8.180   9.699  -9.535  1.00  0.00     0.004 C 
ENDBRANCH  28  29
ENDBRANCH  27  28
ENDBRANCH  26  27
ENDBRANCH  25  26
ENDBRANCH  24  25
ENDBRANCH  23  24
ENDBRANCH  22  23
ENDBRANCH  21  22
ENDBRANCH  20  21
ENDBRANCH  19  20
ENDBRANCH  18  19
ENDBRANCH  17  18
ENDBRANCH   1  17
TORSDOF 26
ENDMDL
MODEL 6
REMARK VINA RESULT:    -3.714     13.191     16.336
REMARK INTER + INTRA:         -12.918
REMARK INTER:                  -9.742
REMARK INTRA:                  -3.176
REMARK UNBOUND:                -3.558
REMARK SMILES CCCCCCCCCCCCCCCCCCCCCCCCCCCC(=O)[O-]
REMARK SMILES IDX 15 1 16 2 17 3 18 4 19 5 20 6 21 7 22 8 23 9 24 10 25 11
REMARK SMILES IDX 26 12 27 13 28 14 29 15 30 16 14 17 13 18 12 19 11 20 10 21
REMARK SMILES IDX 9 22 8 23 7 24 6 25 5 26 4 27 3 28 2 29 1 30
REMARK H PARENT
REMARK Flexibility Score: inf
ROOT
ATOM      1  C   UNL     1      -9.086   6.660  -6.244  1.00  0.00     0.000 C 
ENDROOT
BRANCH   1   2
ATOM      2  C   UNL     1     -10.465   6.302  -6.824  1.00  0.00     0.000 C 
BRANCH   2   3
ATOM      3  C   UNL     1     -11.075   4.998  -6.280  1.00  0.00     0.000 C 
BRANCH   3   4
ATOM      4  C   UNL     1     -10.387   4.477  -4.999  1.00  0.00     0.000 C 
BRANCH   4   5
ATOM      5  C   UNL     1     -10.820   3.043  -4.646  1.00  0.00     0.000 C 
BRANCH   5   6
ATOM      6  C   UNL     1     -10.079   1.982  -5.486  1.00  0.00     0.000 C 
BRANCH   6   7
ATOM      7  C   UNL     1     -10.932   1.393  -6.624  1.00  0.00     0.000 C 
BRANCH   7   8
ATOM      8  C   UNL     1     -10.087   0.759  -7.736  1.00  0.00     0.000 C 
BRANCH   8   9
ATOM      9  C   UNL     1     -10.437   1.350  -9.107  1.00  0.00     0.000 C 
BRANCH   9  10
ATOM     10  C   UNL     1     -10.680   2.863  -9.002  1.00  0.00     0.000 C 
BRANCH  10  11
ATOM     11  C   UNL     1      -9.555   3.693  -9.639  1.00  0.00     0.000 C 
BRANCH  11  12
ATOM     12  C   UNL     1      -8.347   3.873  -8.707  1.00  0.00     0.006 C 
BRANCH  12  13
ATOM     13  C   UNL     1      -7.037   3.567  -9.442  1.00  0.00     0.053 C 
BRANCH  13  14
ATOM     14  C   UNL     1      -5.916   4.400  -8.905  1.00  0.00     0.041 C 
ATOM     15  O   UNL     1      -5.238   3.994  -7.923  1.00  0.00    -0.550 OA
ATOM     16  O   UNL     1      -5.624   5.631  -9.480  1.00  0.00    -0.550 OA
ENDBRANCH  13  14
ENDBRANCH  12  13
ENDBRANCH  11  12
ENDBRANCH  10  11
ENDBRANCH   9  10
ENDBRANCH   8   9
ENDBRANCH   7   8
ENDBRANCH   6   7
ENDBRANCH   5   6
ENDBRANCH   4   5
ENDBRANCH   3   4
ENDBRANCH   2   3
ENDBRANCH   1   2
BRANCH   1  17
ATOM     17  C   UNL     1      -8.095   7.148  -7.316  1.00  0.00     0.000 C 
BRANCH  17  18
ATOM     18  C   UNL     1      -8.687   7.135  -8.741  1.00  0.00     0.000 C 
BRANCH  18  19
ATOM     19  C   UNL     1      -7.762   7.726  -9.823  1.00  0.00     0.000 C 
BRANCH  19  20
ATOM     20  C   UNL     1      -8.103   9.154 -10.293  1.00  0.00     0.000 C 
BRANCH  20  21
ATOM     21  C   UNL     1      -7.251   9.687 -11.459  1.00  0.00     0.000 C 
BRANCH  21  22
ATOM     22  C   UNL     1      -5.751   9.391 -11.289  1.00  0.00    -0.000 C 
BRANCH  22  23
ATOM     23  C   UNL     1      -5.045  10.430 -10.392  1.00  0.00    -0.000 C 
BRANCH  23  24
ATOM     24  C   UNL     1      -5.998  11.182  -9.446  1.00  0.00    -0.000 C 
BRANCH  24  25
ATOM     25  C   UNL     1      -5.956  10.646  -8.005  1.00  0.00    -0.000 C 
BRANCH  25  26
ATOM     26  C   UNL     1      -4.628   9.946  -7.676  1.00  0.00    -0.000 C 
BRANCH  26  27
ATOM     27  C   UNL     1      -4.794   8.430  -7.473  1.00  0.00    -0.000 C 
BRANCH  27  28
ATOM     28  C   UNL     1      -3.447   7.725  -7.212  1.00  0.00    -0.000 C 
BRANCH  28  29
ATOM     29  C   UNL     1      -2.407   8.624  -6.520  1.00  0.00    -0.003 C 
ATOM     30  C   UNL     1      -1.376   7.837  -5.715  1.00  0.00     0.004 C 
ENDBRANCH  28  29
ENDBRANCH  27  28
ENDBRANCH  26  27
ENDBRANCH  25  26
ENDBRANCH  24  25
ENDBRANCH  23  24
ENDBRANCH  22  23
ENDBRANCH  21  22
ENDBRANCH  20  21
ENDBRANCH  19  20
ENDBRANCH  18  19
ENDBRANCH  17  18
ENDBRANCH   1  17
TORSDOF 26
ENDMDL
MODEL 7
REMARK VINA RESULT:    -3.678      2.724      5.468
REMARK INTER + INTRA:         -12.826
REMARK INTER:                  -9.089
REMARK INTRA:                  -3.737
REMARK UNBOUND:                -3.558
REMARK SMILES CCCCCCCCCCCCCCCCCCCCCCCCCCCC(=O)[O-]
REMARK SMILES IDX 15 1 16 2 17 3 18 4 19 5 20 6 21 7 22 8 23 9 24 10 25 11
REMARK SMILES IDX 26 12 27 13 28 14 29 15 30 16 14 17 13 18 12 19 11 20 10 21
REMARK SMILES IDX 9 22 8 23 7 24 6 25 5 26 4 27 3 28 2 29 1 30
REMARK H PARENT
REMARK Flexibility Score: inf
ROOT
ATOM      1  C   UNL     1       6.883  13.411 -15.419  1.00  0.00     0.000 C 
ENDROOT
BRANCH   1   2
ATOM      2  C   UNL     1       6.385  11.968 -15.606  1.00  0.00     0.000 C 
BRANCH   2   3
ATOM      3  C   UNL     1       5.464  11.454 -14.485  1.00  0.00     0.000 C 
BRANCH   3   4
ATOM      4  C   UNL     1       5.420  12.374 -13.244  1.00  0.00     0.000 C 
BRANCH   4   5
ATOM      5  C   UNL     1       3.991  12.841 -12.913  1.00  0.00     0.000 C 
BRANCH   5   6
ATOM      6  C   UNL     1       3.055  12.780 -14.138  1.00  0.00     0.000 C 
BRANCH   6   7
ATOM      7  C   UNL     1       1.743  12.021 -13.872  1.00  0.00     0.000 C 
BRANCH   7   8
ATOM      8  C   UNL     1       0.507  12.928 -13.928  1.00  0.00     0.000 C 
BRANCH   8   9
ATOM      9  C   UNL     1       0.535  13.832 -15.166  1.00  0.00     0.000 C 
BRANCH   9  10
ATOM     10  C   UNL     1      -0.020  13.093 -16.393  1.00  0.00     0.000 C 
BRANCH  10  11
ATOM     11  C   UNL     1       0.921  13.161 -17.606  1.00  0.00     0.000 C 
BRANCH  11  12
ATOM     12  C   UNL     1       1.953  12.022 -17.624  1.00  0.00     0.006 C 
BRANCH  12  13
ATOM     13  C   UNL     1       1.261  10.656 -17.671  1.00  0.00     0.053 C 
BRANCH  13  14
ATOM     14  C   UNL     1       1.785   9.754 -16.598  1.00  0.00     0.041 C 
ATOM     15  O   UNL     1       1.056   8.841 -16.125  1.00  0.00    -0.550 OA
ATOM     16  O   UNL     1       3.074   9.926 -16.108  1.00  0.00    -0.550 OA
ENDBRANCH  13  14
ENDBRANCH  12  13
ENDBRANCH  11  12
ENDBRANCH  10  11
ENDBRANCH   9  10
ENDBRANCH   8   9
ENDBRANCH   7   8
ENDBRANCH   6   7
ENDBRANCH   5   6
ENDBRANCH   4   5
ENDBRANCH   3   4
ENDBRANCH   2   3
ENDBRANCH   1   2
BRANCH   1  17
ATOM     17  C   UNL     1       6.446  14.348 -16.560  1.00  0.00     0.000 C 
BRANCH  17  18
ATOM     18  C   UNL     1       5.697  13.616 -17.692  1.00  0.00     0.000 C 
BRANCH  18  19
ATOM     19  C   UNL     1       4.378  14.286 -18.125  1.00  0.00     0.000 C 
BRANCH  19  20
ATOM     20  C   UNL     1       3.724  15.216 -17.085  1.00  0.00     0.000 C 
BRANCH  20  21
ATOM     21  C   UNL     1       3.021  16.459 -17.660  1.00  0.00     0.000 C 
BRANCH  21  22
ATOM     22  C   UNL     1       2.026  17.096 -16.675  1.00  0.00    -0.000 C 
BRANCH  22  23
ATOM     23  C   UNL     1       1.256  18.279 -17.299  1.00  0.00    -0.000 C 
BRANCH  23  24
ATOM     24  C   UNL     1      -0.062  18.612 -16.575  1.00  0.00    -0.000 C 
BRANCH  24  25
ATOM     25  C   UNL     1      -1.282  17.931 -17.215  1.00  0.00    -0.000 C 
BRANCH  25  26
ATOM     26  C   UNL     1      -1.793  16.740 -16.389  1.00  0.00    -0.000 C 
BRANCH  26  27
ATOM     27  C   UNL     1      -2.285  15.578 -17.270  1.00  0.00    -0.000 C 
BRANCH  27  28
ATOM     28  C   UNL     1      -3.515  15.967 -18.116  1.00  0.00    -0.000 C 
BRANCH  28  29
ATOM     29  C   UNL     1      -4.718  16.427 -17.275  1.00  0.00    -0.003 C 
ATOM     30  C   UNL     1      -6.016  15.714 -17.646  1.00  0.00     0.004 C 
ENDBRANCH  28  29
ENDBRANCH  27  28
ENDBRANCH  26  27
ENDBRANCH  25  26
ENDBRANCH  24  25
ENDBRANCH  23  24
ENDBRANCH  22  23
ENDBRANCH  21  22
ENDBRANCH  20  21
ENDBRANCH  19  20
ENDBRANCH  18  19
ENDBRANCH  17  18
ENDBRANCH   1  17
TORSDOF 26
ENDMDL
MODEL 8
REMARK VINA RESULT:    -3.599      1.970      6.232
REMARK INTER + INTRA:         -12.628
REMARK INTER:                  -8.714
REMARK INTRA:                  -3.914
REMARK UNBOUND:                -3.558
REMARK SMILES CCCCCCCCCCCCCCCCCCCCCCCCCCCC(=O)[O-]
REMARK SMILES IDX 15 1 16 2 17 3 18 4 19 5 20 6 21 7 22 8 23 9 24 10 25 11
REMARK SMILES IDX 26 12 27 13 28 14 29 15 30 16 14 17 13 18 12 19 11 20 10 21
REMARK SMILES IDX 9 22 8 23 7 24 6 25 5 26 4 27 3 28 2 29 1 30
REMARK H PARENT
REMARK Flexibility Score: inf
ROOT
ATOM      1  C   UNL     1      -1.716  17.691 -14.616  1.00  0.00     0.000 C 
ENDROOT
BRANCH   1   2
ATOM      2  C   UNL     1      -0.635  16.616 -14.416  1.00  0.00     0.000 C 
BRANCH   2   3
ATOM      3  C   UNL     1      -1.006  15.505 -13.417  1.00  0.00     0.000 C 
BRANCH   3   4
ATOM      4  C   UNL     1      -0.060  14.285 -13.463  1.00  0.00     0.000 C 
BRANCH   4   5
ATOM      5  C   UNL     1      -0.343  13.372 -14.669  1.00  0.00     0.000 C 
BRANCH   5   6
ATOM      6  C   UNL     1       0.897  12.560 -15.096  1.00  0.00     0.000 C 
BRANCH   6   7
ATOM      7  C   UNL     1       0.947  11.148 -14.485  1.00  0.00     0.000 C 
BRANCH   7   8
ATOM      8  C   UNL     1       1.689  10.140 -15.373  1.00  0.00     0.000 C 
BRANCH   8   9
ATOM      9  C   UNL     1       2.937  10.767 -16.006  1.00  0.00     0.000 C 
BRANCH   9  10
ATOM     10  C   UNL     1       4.085  10.840 -14.988  1.00  0.00     0.000 C 
BRANCH  10  11
ATOM     11  C   UNL     1       5.469  10.887 -15.653  1.00  0.00     0.000 C 
BRANCH  11  12
ATOM     12  C   UNL     1       6.190  12.226 -15.433  1.00  0.00     0.006 C 
BRANCH  12  13
ATOM     13  C   UNL     1       5.674  12.926 -14.171  1.00  0.00     0.053 C 
BRANCH  13  14
ATOM     14  C   UNL     1       6.771  13.095 -13.167  1.00  0.00     0.041 C 
ATOM     15  O   UNL     1       7.009  12.185 -12.328  1.00  0.00    -0.550 OA
ATOM     16  O   UNL     1       7.526  14.262 -13.146  1.00  0.00    -0.550 OA
ENDBRANCH  13  14
ENDBRANCH  12  13
ENDBRANCH  11  12
ENDBRANCH  10  11
ENDBRANCH   9  10
ENDBRANCH   8   9
ENDBRANCH   7   8
ENDBRANCH   6   7
ENDBRANCH   5   6
ENDBRANCH   4   5
ENDBRANCH   3   4
ENDBRANCH   2   3
ENDBRANCH   1   2
BRANCH   1  17
ATOM     17  C   UNL     1      -2.935  17.493 -13.695  1.00  0.00     0.000 C 
BRANCH  17  18
ATOM     18  C   UNL     1      -4.226  18.125 -14.254  1.00  0.00     0.000 C 
BRANCH  18  19
ATOM     19  C   UNL     1      -4.054  18.840 -15.609  1.00  0.00     0.000 C 
BRANCH  19  20
ATOM     20  C   UNL     1      -5.144  18.557 -16.661  1.00  0.00     0.000 C 
BRANCH  20  21
ATOM     21  C   UNL     1      -4.718  17.646 -17.826  1.00  0.00     0.000 C 
BRANCH  21  22
ATOM     22  C   UNL     1      -4.013  16.362 -17.356  1.00  0.00    -0.000 C 
BRANCH  22  23
ATOM     23  C   UNL     1      -2.568  16.257 -17.887  1.00  0.00    -0.000 C 
BRANCH  23  24
ATOM     24  C   UNL     1      -1.857  14.947 -17.497  1.00  0.00    -0.000 C 
BRANCH  24  25
ATOM     25  C   UNL     1      -0.421  14.863 -18.040  1.00  0.00    -0.000 C 
BRANCH  25  26
ATOM     26  C   UNL     1       0.389  16.140 -17.763  1.00  0.00    -0.000 C 
BRANCH  26  27
ATOM     27  C   UNL     1       1.890  15.961 -18.051  1.00  0.00    -0.000 C 
BRANCH  27  28
ATOM     28  C   UNL     1       2.319  14.479 -18.008  1.00  0.00    -0.000 C 
BRANCH  28  29
ATOM     29  C   UNL     1       3.426  14.190 -16.979  1.00  0.00    -0.003 C 
ATOM     30  C   UNL     1       4.353  15.381 -16.746  1.00  0.00     0.004 C 
ENDBRANCH  28  29
ENDBRANCH  27  28
ENDBRANCH  26  27
ENDBRANCH  25  26
ENDBRANCH  24  25
ENDBRANCH  23  24
ENDBRANCH  22  23
ENDBRANCH  21  22
ENDBRANCH  20  21
ENDBRANCH  19  20
ENDBRANCH  18  19
ENDBRANCH  17  18
ENDBRANCH   1  17
TORSDOF 26
ENDMDL
MODEL 9
REMARK VINA RESULT:    -3.495      2.917      5.777
REMARK INTER + INTRA:         -12.365
REMARK INTER:                  -8.978
REMARK INTRA:                  -3.386
REMARK UNBOUND:                -3.558
REMARK SMILES CCCCCCCCCCCCCCCCCCCCCCCCCCCC(=O)[O-]
REMARK SMILES IDX 15 1 16 2 17 3 18 4 19 5 20 6 21 7 22 8 23 9 24 10 25 11
REMARK SMILES IDX 26 12 27 13 28 14 29 15 30 16 14 17 13 18 12 19 11 20 10 21
REMARK SMILES IDX 9 22 8 23 7 24 6 25 5 26 4 27 3 28 2 29 1 30
REMARK H PARENT
REMARK Flexibility Score: inf
ROOT
ATOM      1  C   UNL     1       6.098  13.166 -13.154  1.00  0.00     0.000 C 
ENDROOT
BRANCH   1   2
ATOM      2  C   UNL     1       6.274  11.638 -13.140  1.00  0.00     0.000 C 
BRANCH   2   3
ATOM      3  C   UNL     1       5.101  10.849 -13.750  1.00  0.00     0.000 C 
BRANCH   3   4
ATOM      4  C   UNL     1       3.766  11.626 -13.756  1.00  0.00     0.000 C 
BRANCH   4   5
ATOM      5  C   UNL     1       2.632  10.831 -14.428  1.00  0.00     0.000 C 
BRANCH   5   6
ATOM      6  C   UNL     1       3.082  10.162 -15.744  1.00  0.00     0.000 C 
BRANCH   6   7
ATOM      7  C   UNL     1       1.912   9.740 -16.650  1.00  0.00     0.000 C 
BRANCH   7   8
ATOM      8  C   UNL     1       1.575  10.789 -17.718  1.00  0.00     0.000 C 
BRANCH   8   9
ATOM      9  C   UNL     1       0.972  12.050 -17.089  1.00  0.00     0.000 C 
BRANCH   9  10
ATOM     10  C   UNL     1       1.162  13.263 -18.012  1.00  0.00     0.000 C 
BRANCH  10  11
ATOM     11  C   UNL     1       0.309  14.470 -17.594  1.00  0.00     0.000 C 
BRANCH  11  12
ATOM     12  C   UNL     1      -0.682  14.137 -16.467  1.00  0.00     0.006 C 
BRANCH  12  13
ATOM     13  C   UNL     1      -0.399  14.984 -15.221  1.00  0.00     0.053 C 
BRANCH  13  14
ATOM     14  C   UNL     1      -0.196  14.115 -14.020  1.00  0.00     0.041 C 
ATOM     15  O   UNL     1       0.043  12.885 -14.159  1.00  0.00    -0.550 OA
ATOM     16  O   UNL     1      -0.280  14.658 -12.743  1.00  0.00    -0.550 OA
ENDBRANCH  13  14
ENDBRANCH  12  13
ENDBRANCH  11  12
ENDBRANCH  10  11
ENDBRANCH   9  10
ENDBRANCH   8   9
ENDBRANCH   7   8
ENDBRANCH   6   7
ENDBRANCH   5   6
ENDBRANCH   4   5
ENDBRANCH   3   4
ENDBRANCH   2   3
ENDBRANCH   1   2
BRANCH   1  17
ATOM     17  C   UNL     1       6.856  13.845 -14.310  1.00  0.00     0.000 C 
BRANCH  17  18
ATOM     18  C   UNL     1       6.474  13.285 -15.696  1.00  0.00     0.000 C 
BRANCH  18  19
ATOM     19  C   UNL     1       5.878  14.326 -16.664  1.00  0.00     0.000 C 
BRANCH  19  20
ATOM     20  C   UNL     1       4.356  14.548 -16.559  1.00  0.00     0.000 C 
BRANCH  20  21
ATOM     21  C   UNL     1       3.760  15.533 -17.581  1.00  0.00     0.000 C 
BRANCH  21  22
ATOM     22  C   UNL     1       2.969  16.676 -16.921  1.00  0.00    -0.000 C 
BRANCH  22  23
ATOM     23  C   UNL     1       2.358  17.642 -17.958  1.00  0.00    -0.000 C 
BRANCH  23  24
ATOM     24  C   UNL     1       1.661  18.864 -17.332  1.00  0.00    -0.000 C 
BRANCH  24  25
ATOM     25  C   UNL     1       0.537  18.476 -16.357  1.00  0.00    -0.000 C 
BRANCH  25  26
ATOM     26  C   UNL     1      -0.853  18.887 -16.866  1.00  0.00    -0.000 C 
BRANCH  26  27
ATOM     27  C   UNL     1      -1.713  17.679 -17.277  1.00  0.00    -0.000 C 
BRANCH  27  28
ATOM     28  C   UNL     1      -3.036  17.609 -16.485  1.00  0.00    -0.000 C 
BRANCH  28  29
ATOM     29  C   UNL     1      -2.999  18.385 -15.157  1.00  0.00    -0.003 C 
ATOM     30  C   UNL     1      -2.682  17.500 -13.955  1.00  0.00     0.004 C 
ENDBRANCH  28  29
ENDBRANCH  27  28
ENDBRANCH  26  27
ENDBRANCH  25  26
ENDBRANCH  24  25
ENDBRANCH  23  24
ENDBRANCH  22  23
ENDBRANCH  21  22
ENDBRANCH  20  21
ENDBRANCH  19  20
ENDBRANCH  18  19
ENDBRANCH  17  18
ENDBRANCH   1  17
TORSDOF 26
ENDMDL
