MODEL 1
REMARK VINA RESULT:    -4.984      0.000      0.000
REMARK INTER + INTRA:         -19.244
REMARK INTER:                 -13.142
REMARK INTRA:                  -6.102
REMARK UNBOUND:                -6.102
REMARK SMILES CCCCCCCCCCCCCCCCCCCCCCCCCCCCCC(=O)[O-]
REMARK SMILES IDX 16 1 17 2 18 3 19 4 20 5 21 6 22 7 23 8 24 9 25 10 26 11
REMARK SMILES IDX 27 12 28 13 29 14 30 15 31 16 32 17 15 18 14 19 13 20 12 21
REMARK SMILES IDX 11 22 10 23 9 24 8 25 7 26 6 27 5 28 4 29 3 30 2 31 1 32
REMARK H PARENT
REMARK Flexibility Score: inf
ROOT
ATOM      1  C   UNL     1      57.181  10.474  89.651  1.00  0.00     0.000 C 
ENDROOT
BRANCH   1   2
ATOM      2  C   UNL     1      58.469  10.340  90.488  1.00  0.00     0.000 C 
BRANCH   2   3
ATOM      3  C   UNL     1      59.329  11.617  90.454  1.00  0.00     0.000 C 
BRANCH   3   4
ATOM      4  C   UNL     1      59.477  12.272  91.835  1.00  0.00     0.000 C 
BRANCH   4   5
ATOM      5  C   UNL     1      58.131  12.408  92.570  1.00  0.00     0.000 C 
BRANCH   5   6
ATOM      6  C   UNL     1      58.146  13.541  93.609  1.00  0.00     0.000 C 
BRANCH   6   7
ATOM      7  C   UNL     1      57.625  13.082  94.980  1.00  0.00     0.000 C 
BRANCH   7   8
ATOM      8  C   UNL     1      56.360  13.851  95.375  1.00  0.00     0.000 C 
BRANCH   8   9
ATOM      9  C   UNL     1      56.005  14.903  94.313  1.00  0.00     0.000 C 
BRANCH   9  10
ATOM     10  C   UNL     1      54.661  14.619  93.626  1.00  0.00     0.000 C 
BRANCH  10  11
ATOM     11  C   UNL     1      54.241  13.142  93.731  1.00  0.00     0.000 C 
BRANCH  11  12
ATOM     12  C   UNL     1      54.325  12.417  92.371  1.00  0.00     0.000 C 
BRANCH  12  13
ATOM     13  C   UNL     1      54.881  10.986  92.469  1.00  0.00     0.006 C 
BRANCH  13  14
ATOM     14  C   UNL     1      55.143  10.542  93.913  1.00  0.00     0.053 C 
BRANCH  14  15
ATOM     15  C   UNL     1      54.446   9.250  94.199  1.00  0.00     0.041 C 
ATOM     16  O   UNL     1      54.098   8.493  93.253  1.00  0.00    -0.550 OA
ATOM     17  O   UNL     1      54.135   8.902  95.508  1.00  0.00    -0.550 OA
ENDBRANCH  14  15
ENDBRANCH  13  14
ENDBRANCH  12  13
ENDBRANCH  11  12
ENDBRANCH  10  11
ENDBRANCH   9  10
ENDBRANCH   8   9
ENDBRANCH   7   8
ENDBRANCH   6   7
ENDBRANCH   5   6
ENDBRANCH   4   5
ENDBRANCH   3   4
ENDBRANCH   2   3
ENDBRANCH   1   2
BRANCH   1  18
ATOM     18  C   UNL     1      57.125  11.746  88.785  1.00  0.00     0.000 C 
BRANCH  18  19
ATOM     19  C   UNL     1      55.936  12.656  89.147  1.00  0.00     0.000 C 
BRANCH  19  20
ATOM     20  C   UNL     1      56.381  13.988  89.791  1.00  0.00     0.000 C 
BRANCH  20  21
ATOM     21  C   UNL     1      57.569  14.669  89.085  1.00  0.00     0.000 C 
BRANCH  21  22
ATOM     22  C   UNL     1      58.488  15.497  89.998  1.00  0.00     0.000 C 
BRANCH  22  23
ATOM     23  C   UNL     1      57.744  16.137  91.180  1.00  0.00     0.000 C 
BRANCH  23  24
ATOM     24  C   UNL     1      58.715  16.912  92.084  1.00  0.00    -0.000 C 
BRANCH  24  25
ATOM     25  C   UNL     1      60.145  16.351  92.038  1.00  0.00    -0.000 C 
BRANCH  25  26
ATOM     26  C   UNL     1      61.163  17.260  92.743  1.00  0.00    -0.000 C 
BRANCH  26  27
ATOM     27  C   UNL     1      61.900  16.499  93.851  1.00  0.00    -0.000 C 
BRANCH  27  28
ATOM     28  C   UNL     1      61.424  15.043  93.934  1.00  0.00    -0.000 C 
BRANCH  28  29
ATOM     29  C   UNL     1      61.365  14.515  95.377  1.00  0.00    -0.000 C 
BRANCH  29  30
ATOM     30  C   UNL     1      61.705  15.581  96.441  1.00  0.00    -0.000 C 
BRANCH  30  31
ATOM     31  C   UNL     1      60.459  16.338  96.924  1.00  0.00    -0.003 C 
ATOM     32  C   UNL     1      59.335  15.371  97.289  1.00  0.00     0.004 C 
ENDBRANCH  30  31
ENDBRANCH  29  30
ENDBRANCH  28  29
ENDBRANCH  27  28
ENDBRANCH  26  27
ENDBRANCH  25  26
ENDBRANCH  24  25
ENDBRANCH  23  24
ENDBRANCH  22  23
ENDBRANCH  21  22
ENDBRANCH  20  21
ENDBRANCH  19  20
ENDBRANCH  18  19
ENDBRANCH   1  18
TORSDOF 28
ENDMDL
MODEL 2
REMARK VINA RESULT:    -4.759      3.027      7.103
REMARK INTER + INTRA:         -18.651
REMARK INTER:                 -13.799
REMARK INTRA:                  -4.852
REMARK UNBOUND:                -6.102
REMARK SMILES CCCCCCCCCCCCCCCCCCCCCCCCCCCCCC(=O)[O-]
REMARK SMILES IDX 16 1 17 2 18 3 19 4 20 5 21 6 22 7 23 8 24 9 25 10 26 11
REMARK SMILES IDX 27 12 28 13 29 14 30 15 31 16 32 17 15 18 14 19 13 20 12 21
REMARK SMILES IDX 11 22 10 23 9 24 8 25 7 26 6 27 5 28 4 29 3 30 2 31 1 32
REMARK H PARENT
REMARK Flexibility Score: inf
ROOT
ATOM      1  C   UNL     1      54.873   8.920  96.640  1.00  0.00     0.000 C 
ENDROOT
BRANCH   1   2
ATOM      2  C   UNL     1      54.737  10.328  96.029  1.00  0.00     0.000 C 
BRANCH   2   3
ATOM      3  C   UNL     1      56.089  10.902  95.564  1.00  0.00     0.000 C 
BRANCH   3   4
ATOM      4  C   UNL     1      56.841  11.635  96.684  1.00  0.00     0.000 C 
BRANCH   4   5
ATOM      5  C   UNL     1      57.004  13.140  96.399  1.00  0.00     0.000 C 
BRANCH   5   6
ATOM      6  C   UNL     1      56.163  13.600  95.196  1.00  0.00     0.000 C 
BRANCH   6   7
ATOM      7  C   UNL     1      56.488  15.042  94.776  1.00  0.00     0.000 C 
BRANCH   7   8
ATOM      8  C   UNL     1      57.171  15.075  93.404  1.00  0.00     0.000 C 
BRANCH   8   9
ATOM      9  C   UNL     1      57.991  13.796  93.170  1.00  0.00     0.000 C 
BRANCH   9  10
ATOM     10  C   UNL     1      59.298  14.065  92.409  1.00  0.00     0.000 C 
BRANCH  10  11
ATOM     11  C   UNL     1      60.545  13.902  93.297  1.00  0.00     0.000 C 
BRANCH  11  12
ATOM     12  C   UNL     1      61.064  15.257  93.820  1.00  0.00     0.000 C 
BRANCH  12  13
ATOM     13  C   UNL     1      60.292  15.782  95.044  1.00  0.00     0.006 C 
BRANCH  13  14
ATOM     14  C   UNL     1      60.620  15.018  96.332  1.00  0.00     0.053 C 
BRANCH  14  15
ATOM     15  C   UNL     1      62.100  14.868  96.491  1.00  0.00     0.041 C 
ATOM     16  O   UNL     1      62.617  13.720  96.561  1.00  0.00    -0.550 OA
ATOM     17  O   UNL     1      62.905  15.994  96.612  1.00  0.00    -0.550 OA
ENDBRANCH  14  15
ENDBRANCH  13  14
ENDBRANCH  12  13
ENDBRANCH  11  12
ENDBRANCH  10  11
ENDBRANCH   9  10
ENDBRANCH   8   9
ENDBRANCH   7   8
ENDBRANCH   6   7
ENDBRANCH   5   6
ENDBRANCH   4   5
ENDBRANCH   3   4
ENDBRANCH   2   3
ENDBRANCH   1   2
BRANCH   1  18
ATOM     18  C   UNL     1      54.818   7.778  95.607  1.00  0.00     0.000 C 
BRANCH  18  19
ATOM     19  C   UNL     1      53.548   7.829  94.737  1.00  0.00     0.000 C 
BRANCH  19  20
ATOM     20  C   UNL     1      53.863   7.891  93.227  1.00  0.00     0.000 C 
BRANCH  20  21
ATOM     21  C   UNL     1      54.144   9.309  92.694  1.00  0.00     0.000 C 
BRANCH  21  22
ATOM     22  C   UNL     1      55.492   9.485  91.976  1.00  0.00     0.000 C 
BRANCH  22  23
ATOM     23  C   UNL     1      56.030  10.922  92.049  1.00  0.00     0.000 C 
BRANCH  23  24
ATOM     24  C   UNL     1      54.879  11.933  92.160  1.00  0.00    -0.000 C 
BRANCH  24  25
ATOM     25  C   UNL     1      54.866  12.948  91.006  1.00  0.00    -0.000 C 
BRANCH  25  26
ATOM     26  C   UNL     1      56.231  13.078  90.314  1.00  0.00    -0.000 C 
BRANCH  26  27
ATOM     27  C   UNL     1      56.186  12.482  88.902  1.00  0.00    -0.000 C 
BRANCH  27  28
ATOM     28  C   UNL     1      57.385  11.558  88.653  1.00  0.00    -0.000 C 
BRANCH  28  29
ATOM     29  C   UNL     1      58.652  12.008  89.399  1.00  0.00    -0.000 C 
BRANCH  29  30
ATOM     30  C   UNL     1      59.805  10.983  89.335  1.00  0.00    -0.000 C 
BRANCH  30  31
ATOM     31  C   UNL     1      59.908  10.144  90.618  1.00  0.00    -0.003 C 
ATOM     32  C   UNL     1      61.042  10.641  91.511  1.00  0.00     0.004 C 
ENDBRANCH  30  31
ENDBRANCH  29  30
ENDBRANCH  28  29
ENDBRANCH  27  28
ENDBRANCH  26  27
ENDBRANCH  25  26
ENDBRANCH  24  25
ENDBRANCH  23  24
ENDBRANCH  22  23
ENDBRANCH  21  22
ENDBRANCH  20  21
ENDBRANCH  19  20
ENDBRANCH  18  19
ENDBRANCH   1  18
TORSDOF 28
ENDMDL
MODEL 3
REMARK VINA RESULT:    -4.755      2.882      6.563
REMARK INTER + INTRA:         -18.641
REMARK INTER:                 -13.644
REMARK INTRA:                  -4.997
REMARK UNBOUND:                -6.102
REMARK SMILES CCCCCCCCCCCCCCCCCCCCCCCCCCCCCC(=O)[O-]
REMARK SMILES IDX 16 1 17 2 18 3 19 4 20 5 21 6 22 7 23 8 24 9 25 10 26 11
REMARK SMILES IDX 27 12 28 13 29 14 30 15 31 16 32 17 15 18 14 19 13 20 12 21
REMARK SMILES IDX 11 22 10 23 9 24 8 25 7 26 6 27 5 28 4 29 3 30 2 31 1 32
REMARK H PARENT
REMARK Flexibility Score: inf
ROOT
ATOM      1  C   UNL     1      56.791  10.467  91.594  1.00  0.00     0.000 C 
ENDROOT
BRANCH   1   2
ATOM      2  C   UNL     1      57.457   9.754  90.400  1.00  0.00     0.000 C 
BRANCH   2   3
ATOM      3  C   UNL     1      58.675  10.525  89.858  1.00  0.00     0.000 C 
BRANCH   3   4
ATOM      4  C   UNL     1      58.285  11.637  88.873  1.00  0.00     0.000 C 
BRANCH   4   5
ATOM      5  C   UNL     1      56.888  11.419  88.261  1.00  0.00     0.000 C 
BRANCH   5   6
ATOM      6  C   UNL     1      55.930  12.581  88.565  1.00  0.00     0.000 C 
BRANCH   6   7
ATOM      7  C   UNL     1      56.671  13.914  88.755  1.00  0.00     0.000 C 
BRANCH   7   8
ATOM      8  C   UNL     1      56.415  14.492  90.151  1.00  0.00     0.000 C 
BRANCH   8   9
ATOM      9  C   UNL     1      57.542  15.454  90.560  1.00  0.00     0.000 C 
BRANCH   9  10
ATOM     10  C   UNL     1      58.561  14.802  91.507  1.00  0.00     0.000 C 
BRANCH  10  11
ATOM     11  C   UNL     1      59.310  15.831  92.371  1.00  0.00     0.000 C 
BRANCH  11  12
ATOM     12  C   UNL     1      60.107  15.161  93.510  1.00  0.00     0.000 C 
BRANCH  12  13
ATOM     13  C   UNL     1      60.106  15.967  94.821  1.00  0.00     0.006 C 
BRANCH  13  14
ATOM     14  C   UNL     1      60.327  15.094  96.061  1.00  0.00     0.053 C 
BRANCH  14  15
ATOM     15  C   UNL     1      60.541  15.947  97.272  1.00  0.00     0.041 C 
ATOM     16  O   UNL     1      61.269  16.973  97.204  1.00  0.00    -0.550 OA
ATOM     17  O   UNL     1      59.979  15.582  98.489  1.00  0.00    -0.550 OA
ENDBRANCH  14  15
ENDBRANCH  13  14
ENDBRANCH  12  13
ENDBRANCH  11  12
ENDBRANCH  10  11
ENDBRANCH   9  10
ENDBRANCH   8   9
ENDBRANCH   7   8
ENDBRANCH   6   7
ENDBRANCH   5   6
ENDBRANCH   4   5
ENDBRANCH   3   4
ENDBRANCH   2   3
ENDBRANCH   1   2
BRANCH   1  18
ATOM     18  C   UNL     1      55.523   9.766  92.116  1.00  0.00     0.000 C 
BRANCH  18  19
ATOM     19  C   UNL     1      54.330  10.729  92.258  1.00  0.00     0.000 C 
BRANCH  19  20
ATOM     20  C   UNL     1      54.733  12.208  92.064  1.00  0.00     0.000 C 
BRANCH  20  21
ATOM     21  C   UNL     1      53.724  13.221  92.636  1.00  0.00     0.000 C 
BRANCH  21  22
ATOM     22  C   UNL     1      54.203  13.997  93.874  1.00  0.00     0.000 C 
BRANCH  22  23
ATOM     23  C   UNL     1      55.314  15.009  93.556  1.00  0.00     0.000 C 
BRANCH  23  24
ATOM     24  C   UNL     1      56.445  14.925  94.592  1.00  0.00    -0.000 C 
BRANCH  24  25
ATOM     25  C   UNL     1      56.957  13.490  94.797  1.00  0.00    -0.000 C 
BRANCH  25  26
ATOM     26  C   UNL     1      57.207  13.153  96.274  1.00  0.00    -0.000 C 
BRANCH  26  27
ATOM     27  C   UNL     1      57.008  11.656  96.536  1.00  0.00    -0.000 C 
BRANCH  27  28
ATOM     28  C   UNL     1      55.933  11.071  95.610  1.00  0.00    -0.000 C 
BRANCH  28  29
ATOM     29  C   UNL     1      55.513   9.646  96.007  1.00  0.00    -0.000 C 
BRANCH  29  30
ATOM     30  C   UNL     1      54.095   9.262  95.529  1.00  0.00    -0.000 C 
BRANCH  30  31
ATOM     31  C   UNL     1      53.532   8.055  96.294  1.00  0.00    -0.003 C 
ATOM     32  C   UNL     1      53.287   6.875  95.356  1.00  0.00     0.004 C 
ENDBRANCH  30  31
ENDBRANCH  29  30
ENDBRANCH  28  29
ENDBRANCH  27  28
ENDBRANCH  26  27
ENDBRANCH  25  26
ENDBRANCH  24  25
ENDBRANCH  23  24
ENDBRANCH  22  23
ENDBRANCH  21  22
ENDBRANCH  20  21
ENDBRANCH  19  20
ENDBRANCH  18  19
ENDBRANCH   1  18
TORSDOF 28
ENDMDL
MODEL 4
REMARK VINA RESULT:    -4.747      1.233      5.808
REMARK INTER + INTRA:         -18.620
REMARK INTER:                 -14.354
REMARK INTRA:                  -4.266
REMARK UNBOUND:                -6.102
REMARK SMILES CCCCCCCCCCCCCCCCCCCCCCCCCCCCCC(=O)[O-]
REMARK SMILES IDX 16 1 17 2 18 3 19 4 20 5 21 6 22 7 23 8 24 9 25 10 26 11
REMARK SMILES IDX 27 12 28 13 29 14 30 15 31 16 32 17 15 18 14 19 13 20 12 21
REMARK SMILES IDX 11 22 10 23 9 24 8 25 7 26 6 27 5 28 4 29 3 30 2 31 1 32
REMARK H PARENT
REMARK Flexibility Score: inf
ROOT
ATOM      1  C   UNL     1      60.415  15.764  97.177  1.00  0.00     0.000 C 
ENDROOT
BRANCH   1   2
ATOM      2  C   UNL     1      59.115  15.005  96.846  1.00  0.00     0.000 C 
BRANCH   2   3
ATOM      3  C   UNL     1      59.341  13.860  95.841  1.00  0.00     0.000 C 
BRANCH   3   4
ATOM      4  C   UNL     1      58.479  13.997  94.578  1.00  0.00     0.000 C 
BRANCH   4   5
ATOM      5  C   UNL     1      57.405  15.093  94.714  1.00  0.00     0.000 C 
BRANCH   5   6
ATOM      6  C   UNL     1      55.980  14.516  94.728  1.00  0.00     0.000 C 
BRANCH   6   7
ATOM      7  C   UNL     1      55.581  13.916  93.372  1.00  0.00     0.000 C 
BRANCH   7   8
ATOM      8  C   UNL     1      54.479  12.863  93.538  1.00  0.00     0.000 C 
BRANCH   8   9
ATOM      9  C   UNL     1      54.461  11.896  92.344  1.00  0.00     0.000 C 
BRANCH   9  10
ATOM     10  C   UNL     1      55.057  10.522  92.688  1.00  0.00     0.000 C 
BRANCH  10  11
ATOM     11  C   UNL     1      54.026   9.384  92.574  1.00  0.00     0.000 C 
BRANCH  11  12
ATOM     12  C   UNL     1      54.490   8.108  93.308  1.00  0.00     0.000 C 
BRANCH  12  13
ATOM     13  C   UNL     1      53.653   7.776  94.556  1.00  0.00     0.006 C 
BRANCH  13  14
ATOM     14  C   UNL     1      54.509   7.529  95.803  1.00  0.00     0.053 C 
BRANCH  14  15
ATOM     15  C   UNL     1      54.862   8.825  96.462  1.00  0.00     0.041 C 
ATOM     16  O   UNL     1      54.100   9.322  97.334  1.00  0.00    -0.550 OA
ATOM     17  O   UNL     1      56.009   9.510  96.079  1.00  0.00    -0.550 OA
ENDBRANCH  14  15
ENDBRANCH  13  14
ENDBRANCH  12  13
ENDBRANCH  11  12
ENDBRANCH  10  11
ENDBRANCH   9  10
ENDBRANCH   8   9
ENDBRANCH   7   8
ENDBRANCH   6   7
ENDBRANCH   5   6
ENDBRANCH   4   5
ENDBRANCH   3   4
ENDBRANCH   2   3
ENDBRANCH   1   2
BRANCH   1  18
ATOM     18  C   UNL     1      60.874  16.736  96.073  1.00  0.00     0.000 C 
BRANCH  18  19
ATOM     19  C   UNL     1      61.972  16.135  95.176  1.00  0.00     0.000 C 
BRANCH  19  20
ATOM     20  C   UNL     1      61.587  16.137  93.681  1.00  0.00     0.000 C 
BRANCH  20  21
ATOM     21  C   UNL     1      60.370  17.019  93.340  1.00  0.00     0.000 C 
BRANCH  21  22
ATOM     22  C   UNL     1      59.885  16.934  91.884  1.00  0.00     0.000 C 
BRANCH  22  23
ATOM     23  C   UNL     1      59.438  15.521  91.480  1.00  0.00     0.000 C 
BRANCH  23  24
ATOM     24  C   UNL     1      58.102  15.563  90.723  1.00  0.00    -0.000 C 
BRANCH  24  25
ATOM     25  C   UNL     1      57.977  14.443  89.677  1.00  0.00    -0.000 C 
BRANCH  25  26
ATOM     26  C   UNL     1      56.868  13.436  90.015  1.00  0.00    -0.000 C 
BRANCH  26  27
ATOM     27  C   UNL     1      56.458  12.637  88.773  1.00  0.00    -0.000 C 
BRANCH  27  28
ATOM     28  C   UNL     1      57.249  11.327  88.671  1.00  0.00    -0.000 C 
BRANCH  28  29
ATOM     29  C   UNL     1      57.380  10.600  90.020  1.00  0.00    -0.000 C 
BRANCH  29  30
ATOM     30  C   UNL     1      58.708   9.829  90.181  1.00  0.00    -0.000 C 
BRANCH  30  31
ATOM     31  C   UNL     1      59.915  10.771  90.310  1.00  0.00    -0.003 C 
ATOM     32  C   UNL     1      59.901  11.503  91.649  1.00  0.00     0.004 C 
ENDBRANCH  30  31
ENDBRANCH  29  30
ENDBRANCH  28  29
ENDBRANCH  27  28
ENDBRANCH  26  27
ENDBRANCH  25  26
ENDBRANCH  24  25
ENDBRANCH  23  24
ENDBRANCH  22  23
ENDBRANCH  21  22
ENDBRANCH  20  21
ENDBRANCH  19  20
ENDBRANCH  18  19
ENDBRANCH   1  18
TORSDOF 28
ENDMDL
MODEL 5
REMARK VINA RESULT:    -4.700      1.268      2.932
REMARK INTER + INTRA:         -18.497
REMARK INTER:                 -13.568
REMARK INTRA:                  -4.929
REMARK UNBOUND:                -6.102
REMARK SMILES CCCCCCCCCCCCCCCCCCCCCCCCCCCCCC(=O)[O-]
REMARK SMILES IDX 16 1 17 2 18 3 19 4 20 5 21 6 22 7 23 8 24 9 25 10 26 11
REMARK SMILES IDX 27 12 28 13 29 14 30 15 31 16 32 17 15 18 14 19 13 20 12 21
REMARK SMILES IDX 11 22 10 23 9 24 8 25 7 26 6 27 5 28 4 29 3 30 2 31 1 32
REMARK H PARENT
REMARK Flexibility Score: inf
ROOT
ATOM      1  C   UNL     1      56.378  10.984  92.140  1.00  0.00     0.000 C 
ENDROOT
BRANCH   1   2
ATOM      2  C   UNL     1      54.850  11.183  92.158  1.00  0.00     0.000 C 
BRANCH   2   3
ATOM      3  C   UNL     1      54.441  12.635  91.849  1.00  0.00     0.000 C 
BRANCH   3   4
ATOM      4  C   UNL     1      53.769  13.331  93.042  1.00  0.00     0.000 C 
BRANCH   4   5
ATOM      5  C   UNL     1      54.342  14.735  93.305  1.00  0.00     0.000 C 
BRANCH   5   6
ATOM      6  C   UNL     1      55.657  14.981  92.546  1.00  0.00     0.000 C 
BRANCH   6   7
ATOM      7  C   UNL     1      56.886  14.879  93.463  1.00  0.00     0.000 C 
BRANCH   7   8
ATOM      8  C   UNL     1      56.482  14.971  94.938  1.00  0.00     0.000 C 
BRANCH   8   9
ATOM      9  C   UNL     1      57.415  14.120  95.814  1.00  0.00     0.000 C 
BRANCH   9  10
ATOM     10  C   UNL     1      57.444  12.645  95.389  1.00  0.00     0.000 C 
BRANCH  10  11
ATOM     11  C   UNL     1      56.134  11.907  95.721  1.00  0.00     0.000 C 
BRANCH  11  12
ATOM     12  C   UNL     1      56.394  10.528  96.364  1.00  0.00     0.000 C 
BRANCH  12  13
ATOM     13  C   UNL     1      55.115   9.702  96.587  1.00  0.00     0.006 C 
BRANCH  13  14
ATOM     14  C   UNL     1      54.251   9.582  95.327  1.00  0.00     0.053 C 
BRANCH  14  15
ATOM     15  C   UNL     1      54.229   8.168  94.838  1.00  0.00     0.041 C 
ATOM     16  O   UNL     1      54.116   7.216  95.655  1.00  0.00    -0.550 OA
ATOM     17  O   UNL     1      54.384   7.898  93.484  1.00  0.00    -0.550 OA
ENDBRANCH  14  15
ENDBRANCH  13  14
ENDBRANCH  12  13
ENDBRANCH  11  12
ENDBRANCH  10  11
ENDBRANCH   9  10
ENDBRANCH   8   9
ENDBRANCH   7   8
ENDBRANCH   6   7
ENDBRANCH   5   6
ENDBRANCH   4   5
ENDBRANCH   3   4
ENDBRANCH   2   3
ENDBRANCH   1   2
BRANCH   1  18
ATOM     18  C   UNL     1      56.887  10.131  90.963  1.00  0.00     0.000 C 
BRANCH  18  19
ATOM     19  C   UNL     1      57.678  10.957  89.932  1.00  0.00     0.000 C 
BRANCH  19  20
ATOM     20  C   UNL     1      56.766  11.641  88.891  1.00  0.00     0.000 C 
BRANCH  20  21
ATOM     21  C   UNL     1      56.659  13.171  89.047  1.00  0.00     0.000 C 
BRANCH  21  22
ATOM     22  C   UNL     1      57.806  13.833  89.828  1.00  0.00     0.000 C 
BRANCH  22  23
ATOM     23  C   UNL     1      57.946  15.334  89.532  1.00  0.00     0.000 C 
BRANCH  23  24
ATOM     24  C   UNL     1      59.423  15.752  89.505  1.00  0.00    -0.000 C 
BRANCH  24  25
ATOM     25  C   UNL     1      59.678  17.082  90.234  1.00  0.00    -0.000 C 
BRANCH  25  26
ATOM     26  C   UNL     1      58.978  17.155  91.599  1.00  0.00    -0.000 C 
BRANCH  26  27
ATOM     27  C   UNL     1      59.993  17.405  92.720  1.00  0.00    -0.000 C 
BRANCH  27  28
ATOM     28  C   UNL     1      60.622  16.090  93.200  1.00  0.00    -0.000 C 
BRANCH  28  29
ATOM     29  C   UNL     1      61.391  16.243  94.524  1.00  0.00    -0.000 C 
BRANCH  29  30
ATOM     30  C   UNL     1      60.679  15.595  95.731  1.00  0.00    -0.000 C 
BRANCH  30  31
ATOM     31  C   UNL     1      60.636  16.530  96.949  1.00  0.00    -0.003 C 
ATOM     32  C   UNL     1      59.634  16.034  97.989  1.00  0.00     0.004 C 
ENDBRANCH  30  31
ENDBRANCH  29  30
ENDBRANCH  28  29
ENDBRANCH  27  28
ENDBRANCH  26  27
ENDBRANCH  25  26
ENDBRANCH  24  25
ENDBRANCH  23  24
ENDBRANCH  22  23
ENDBRANCH  21  22
ENDBRANCH  20  21
ENDBRANCH  19  20
ENDBRANCH  18  19
ENDBRANCH   1  18
TORSDOF 28
ENDMDL
MODEL 6
REMARK VINA RESULT:    -4.681      1.300      5.735
REMARK INTER + INTRA:         -18.444
REMARK INTER:                 -13.987
REMARK INTRA:                  -4.457
REMARK UNBOUND:                -6.102
REMARK SMILES CCCCCCCCCCCCCCCCCCCCCCCCCCCCCC(=O)[O-]
REMARK SMILES IDX 16 1 17 2 18 3 19 4 20 5 21 6 22 7 23 8 24 9 25 10 26 11
REMARK SMILES IDX 27 12 28 13 29 14 30 15 31 16 32 17 15 18 14 19 13 20 12 21
REMARK SMILES IDX 11 22 10 23 9 24 8 25 7 26 6 27 5 28 4 29 3 30 2 31 1 32
REMARK H PARENT
REMARK Flexibility Score: inf
ROOT
ATOM      1  C   UNL     1      62.242  14.464  95.726  1.00  0.00     0.000 C 
ENDROOT
BRANCH   1   2
ATOM      2  C   UNL     1      61.124  13.930  96.643  1.00  0.00     0.000 C 
BRANCH   2   3
ATOM      3  C   UNL     1      60.457  15.045  97.470  1.00  0.00     0.000 C 
BRANCH   3   4
ATOM      4  C   UNL     1      59.137  15.533  96.856  1.00  0.00     0.000 C 
BRANCH   4   5
ATOM      5  C   UNL     1      58.236  14.372  96.395  1.00  0.00     0.000 C 
BRANCH   5   6
ATOM      6  C   UNL     1      57.183  14.822  95.369  1.00  0.00     0.000 C 
BRANCH   6   7
ATOM      7  C   UNL     1      57.742  14.858  93.938  1.00  0.00     0.000 C 
BRANCH   7   8
ATOM      8  C   UNL     1      58.295  13.488  93.528  1.00  0.00     0.000 C 
BRANCH   8   9
ATOM      9  C   UNL     1      57.219  12.656  92.813  1.00  0.00     0.000 C 
BRANCH   9  10
ATOM     10  C   UNL     1      56.552  11.629  93.741  1.00  0.00     0.000 C 
BRANCH  10  11
ATOM     11  C   UNL     1      55.053  11.906  93.951  1.00  0.00     0.000 C 
BRANCH  11  12
ATOM     12  C   UNL     1      54.477  11.106  95.138  1.00  0.00     0.000 C 
BRANCH  12  13
ATOM     13  C   UNL     1      55.255   9.815  95.447  1.00  0.00     0.006 C 
BRANCH  13  14
ATOM     14  C   UNL     1      54.368   8.702  96.017  1.00  0.00     0.053 C 
BRANCH  14  15
ATOM     15  C   UNL     1      53.793   7.872  94.913  1.00  0.00     0.041 C 
ATOM     16  O   UNL     1      52.870   7.049  95.154  1.00  0.00    -0.550 OA
ATOM     17  O   UNL     1      54.309   7.970  93.627  1.00  0.00    -0.550 OA
ENDBRANCH  14  15
ENDBRANCH  13  14
ENDBRANCH  12  13
ENDBRANCH  11  12
ENDBRANCH  10  11
ENDBRANCH   9  10
ENDBRANCH   8   9
ENDBRANCH   7   8
ENDBRANCH   6   7
ENDBRANCH   5   6
ENDBRANCH   4   5
ENDBRANCH   3   4
ENDBRANCH   2   3
ENDBRANCH   1   2
BRANCH   1  18
ATOM     18  C   UNL     1      61.832  14.597  94.247  1.00  0.00     0.000 C 
BRANCH  18  19
ATOM     19  C   UNL     1      61.974  16.038  93.722  1.00  0.00     0.000 C 
BRANCH  19  20
ATOM     20  C   UNL     1      60.610  16.729  93.506  1.00  0.00     0.000 C 
BRANCH  20  21
ATOM     21  C   UNL     1      60.450  17.402  92.129  1.00  0.00     0.000 C 
BRANCH  21  22
ATOM     22  C   UNL     1      59.113  17.135  91.419  1.00  0.00     0.000 C 
BRANCH  22  23
ATOM     23  C   UNL     1      59.287  16.506  90.027  1.00  0.00     0.000 C 
BRANCH  23  24
ATOM     24  C   UNL     1      58.680  15.096  89.984  1.00  0.00    -0.000 C 
BRANCH  24  25
ATOM     25  C   UNL     1      57.160  15.096  90.214  1.00  0.00    -0.000 C 
BRANCH  25  26
ATOM     26  C   UNL     1      56.384  14.448  89.058  1.00  0.00    -0.000 C 
BRANCH  26  27
ATOM     27  C   UNL     1      55.955  13.022  89.420  1.00  0.00    -0.000 C 
BRANCH  27  28
ATOM     28  C   UNL     1      56.365  12.026  88.327  1.00  0.00    -0.000 C 
BRANCH  28  29
ATOM     29  C   UNL     1      57.637  11.238  88.682  1.00  0.00    -0.000 C 
BRANCH  29  30
ATOM     30  C   UNL     1      57.499  10.385  89.963  1.00  0.00    -0.000 C 
BRANCH  30  31
ATOM     31  C   UNL     1      58.836   9.765  90.393  1.00  0.00    -0.003 C 
ATOM     32  C   UNL     1      59.971  10.782  90.299  1.00  0.00     0.004 C 
ENDBRANCH  30  31
ENDBRANCH  29  30
ENDBRANCH  28  29
ENDBRANCH  27  28
ENDBRANCH  26  27
ENDBRANCH  25  26
ENDBRANCH  24  25
ENDBRANCH  23  24
ENDBRANCH  22  23
ENDBRANCH  21  22
ENDBRANCH  20  21
ENDBRANCH  19  20
ENDBRANCH  18  19
ENDBRANCH   1  18
TORSDOF 28
ENDMDL
MODEL 7
REMARK VINA RESULT:    -4.645      2.059      4.612
REMARK INTER + INTRA:         -18.352
REMARK INTER:                 -12.867
REMARK INTRA:                  -5.485
REMARK UNBOUND:                -6.102
REMARK SMILES CCCCCCCCCCCCCCCCCCCCCCCCCCCCCC(=O)[O-]
REMARK SMILES IDX 16 1 17 2 18 3 19 4 20 5 21 6 22 7 23 8 24 9 25 10 26 11
REMARK SMILES IDX 27 12 28 13 29 14 30 15 31 16 32 17 15 18 14 19 13 20 12 21
REMARK SMILES IDX 11 22 10 23 9 24 8 25 7 26 6 27 5 28 4 29 3 30 2 31 1 32
REMARK H PARENT
REMARK Flexibility Score: inf
ROOT
ATOM      1  C   UNL     1      60.557  10.547  91.732  1.00  0.00     0.000 C 
ENDROOT
BRANCH   1   2
ATOM      2  C   UNL     1      62.098  10.515  91.713  1.00  0.00     0.000 C 
BRANCH   2   3
ATOM      3  C   UNL     1      62.685   9.699  92.879  1.00  0.00     0.000 C 
BRANCH   3   4
ATOM      4  C   UNL     1      63.349  10.579  93.948  1.00  0.00     0.000 C 
BRANCH   4   5
ATOM      5  C   UNL     1      63.499  12.043  93.495  1.00  0.00     0.000 C 
BRANCH   5   6
ATOM      6  C   UNL     1      62.604  12.998  94.303  1.00  0.00     0.000 C 
BRANCH   6   7
ATOM      7  C   UNL     1      63.021  13.078  95.780  1.00  0.00     0.000 C 
BRANCH   7   8
ATOM      8  C   UNL     1      61.803  13.297  96.685  1.00  0.00     0.000 C 
BRANCH   8   9
ATOM      9  C   UNL     1      61.555  14.796  96.914  1.00  0.00     0.000 C 
BRANCH   9  10
ATOM     10  C   UNL     1      60.083  15.188  96.717  1.00  0.00     0.000 C 
BRANCH  10  11
ATOM     11  C   UNL     1      59.343  14.246  95.750  1.00  0.00     0.000 C 
BRANCH  11  12
ATOM     12  C   UNL     1      57.891  14.702  95.495  1.00  0.00     0.000 C 
BRANCH  12  13
ATOM     13  C   UNL     1      56.838  13.828  96.198  1.00  0.00     0.006 C 
BRANCH  13  14
ATOM     14  C   UNL     1      57.172  12.332  96.152  1.00  0.00     0.053 C 
BRANCH  14  15
ATOM     15  C   UNL     1      56.034  11.558  95.567  1.00  0.00     0.041 C 
ATOM     16  O   UNL     1      56.082  10.299  95.518  1.00  0.00    -0.550 OA
ATOM     17  O   UNL     1      54.941  12.226  95.029  1.00  0.00    -0.550 OA
ENDBRANCH  14  15
ENDBRANCH  13  14
ENDBRANCH  12  13
ENDBRANCH  11  12
ENDBRANCH  10  11
ENDBRANCH   9  10
ENDBRANCH   8   9
ENDBRANCH   7   8
ENDBRANCH   6   7
ENDBRANCH   5   6
ENDBRANCH   4   5
ENDBRANCH   3   4
ENDBRANCH   2   3
ENDBRANCH   1   2
BRANCH   1  18
ATOM     18  C   UNL     1      59.903  10.082  90.417  1.00  0.00     0.000 C 
BRANCH  18  19
ATOM     19  C   UNL     1      59.701  11.237  89.417  1.00  0.00     0.000 C 
BRANCH  19  20
ATOM     20  C   UNL     1      58.252  11.321  88.891  1.00  0.00     0.000 C 
BRANCH  20  21
ATOM     21  C   UNL     1      57.213  10.603  89.773  1.00  0.00     0.000 C 
BRANCH  21  22
ATOM     22  C   UNL     1      56.381  11.518  90.687  1.00  0.00     0.000 C 
BRANCH  22  23
ATOM     23  C   UNL     1      57.030  11.746  92.061  1.00  0.00     0.000 C 
BRANCH  23  24
ATOM     24  C   UNL     1      57.257  13.242  92.319  1.00  0.00    -0.000 C 
BRANCH  24  25
ATOM     25  C   UNL     1      58.675  13.702  91.942  1.00  0.00    -0.000 C 
BRANCH  25  26
ATOM     26  C   UNL     1      58.693  14.626  90.716  1.00  0.00    -0.000 C 
BRANCH  26  27
ATOM     27  C   UNL     1      57.495  15.582  90.733  1.00  0.00    -0.000 C 
BRANCH  27  28
ATOM     28  C   UNL     1      57.830  16.876  91.486  1.00  0.00    -0.000 C 
BRANCH  28  29
ATOM     29  C   UNL     1      59.154  17.510  91.027  1.00  0.00    -0.000 C 
BRANCH  29  30
ATOM     30  C   UNL     1      60.056  17.973  92.192  1.00  0.00    -0.000 C 
BRANCH  30  31
ATOM     31  C   UNL     1      60.151  16.920  93.306  1.00  0.00    -0.003 C 
ATOM     32  C   UNL     1      61.560  16.338  93.394  1.00  0.00     0.004 C 
ENDBRANCH  30  31
ENDBRANCH  29  30
ENDBRANCH  28  29
ENDBRANCH  27  28
ENDBRANCH  26  27
ENDBRANCH  25  26
ENDBRANCH  24  25
ENDBRANCH  23  24
ENDBRANCH  22  23
ENDBRANCH  21  22
ENDBRANCH  20  21
ENDBRANCH  19  20
ENDBRANCH  18  19
ENDBRANCH   1  18
TORSDOF 28
ENDMDL
MODEL 8
REMARK VINA RESULT:    -4.634      2.813      6.550
REMARK INTER + INTRA:         -18.321
REMARK INTER:                 -13.575
REMARK INTRA:                  -4.746
REMARK UNBOUND:                -6.102
REMARK SMILES CCCCCCCCCCCCCCCCCCCCCCCCCCCCCC(=O)[O-]
REMARK SMILES IDX 16 1 17 2 18 3 19 4 20 5 21 6 22 7 23 8 24 9 25 10 26 11
REMARK SMILES IDX 27 12 28 13 29 14 30 15 31 16 32 17 15 18 14 19 13 20 12 21
REMARK SMILES IDX 11 22 10 23 9 24 8 25 7 26 6 27 5 28 4 29 3 30 2 31 1 32
REMARK H PARENT
REMARK Flexibility Score: inf
ROOT
ATOM      1  C   UNL     1      56.826  11.025  91.535  1.00  0.00     0.000 C 
ENDROOT
BRANCH   1   2
ATOM      2  C   UNL     1      57.408  10.456  90.226  1.00  0.00     0.000 C 
BRANCH   2   3
ATOM      3  C   UNL     1      57.630  11.544  89.158  1.00  0.00     0.000 C 
BRANCH   3   4
ATOM      4  C   UNL     1      56.387  12.416  88.930  1.00  0.00     0.000 C 
BRANCH   4   5
ATOM      5  C   UNL     1      56.670  13.914  89.151  1.00  0.00     0.000 C 
BRANCH   5   6
ATOM      6  C   UNL     1      57.859  14.151  90.095  1.00  0.00     0.000 C 
BRANCH   6   7
ATOM      7  C   UNL     1      58.855  15.176  89.532  1.00  0.00     0.000 C 
BRANCH   7   8
ATOM      8  C   UNL     1      58.754  16.511  90.279  1.00  0.00     0.000 C 
BRANCH   8   9
ATOM      9  C   UNL     1      59.149  16.343  91.755  1.00  0.00     0.000 C 
BRANCH   9  10
ATOM     10  C   UNL     1      60.349  17.217  92.148  1.00  0.00     0.000 C 
BRANCH  10  11
ATOM     11  C   UNL     1      60.949  16.824  93.510  1.00  0.00     0.000 C 
BRANCH  11  12
ATOM     12  C   UNL     1      59.943  16.042  94.382  1.00  0.00     0.000 C 
BRANCH  12  13
ATOM     13  C   UNL     1      60.499  14.713  94.922  1.00  0.00     0.006 C 
BRANCH  13  14
ATOM     14  C   UNL     1      61.125  13.838  93.830  1.00  0.00     0.053 C 
BRANCH  14  15
ATOM     15  C   UNL     1      62.412  13.244  94.308  1.00  0.00     0.041 C 
ATOM     16  O   UNL     1      63.254  12.802  93.480  1.00  0.00    -0.550 OA
ATOM     17  O   UNL     1      62.664  13.131  95.670  1.00  0.00    -0.550 OA
ENDBRANCH  14  15
ENDBRANCH  13  14
ENDBRANCH  12  13
ENDBRANCH  11  12
ENDBRANCH  10  11
ENDBRANCH   9  10
ENDBRANCH   8   9
ENDBRANCH   7   8
ENDBRANCH   6   7
ENDBRANCH   5   6
ENDBRANCH   4   5
ENDBRANCH   3   4
ENDBRANCH   2   3
ENDBRANCH   1   2
BRANCH   1  18
ATOM     18  C   UNL     1      55.645  10.213  92.102  1.00  0.00     0.000 C 
BRANCH  18  19
ATOM     19  C   UNL     1      54.421  11.093  92.418  1.00  0.00     0.000 C 
BRANCH  19  20
ATOM     20  C   UNL     1      54.640  12.575  92.044  1.00  0.00     0.000 C 
BRANCH  20  21
ATOM     21  C   UNL     1      53.948  13.577  92.987  1.00  0.00     0.000 C 
BRANCH  21  22
ATOM     22  C   UNL     1      54.578  14.979  93.033  1.00  0.00     0.000 C 
BRANCH  22  23
ATOM     23  C   UNL     1      56.101  14.947  93.238  1.00  0.00     0.000 C 
BRANCH  23  24
ATOM     24  C   UNL     1      56.450  14.690  94.711  1.00  0.00    -0.000 C 
BRANCH  24  25
ATOM     25  C   UNL     1      57.122  13.326  94.932  1.00  0.00    -0.000 C 
BRANCH  25  26
ATOM     26  C   UNL     1      57.030  12.846  96.388  1.00  0.00    -0.000 C 
BRANCH  26  27
ATOM     27  C   UNL     1      56.832  11.328  96.453  1.00  0.00    -0.000 C 
BRANCH  27  28
ATOM     28  C   UNL     1      55.496  10.916  95.821  1.00  0.00    -0.000 C 
BRANCH  28  29
ATOM     29  C   UNL     1      55.286   9.392  95.805  1.00  0.00    -0.000 C 
BRANCH  29  30
ATOM     30  C   UNL     1      54.143   8.915  96.728  1.00  0.00    -0.000 C 
BRANCH  30  31
ATOM     31  C   UNL     1      53.484   7.626  96.216  1.00  0.00    -0.003 C 
ATOM     32  C   UNL     1      53.495   7.570  94.691  1.00  0.00     0.004 C 
ENDBRANCH  30  31
ENDBRANCH  29  30
ENDBRANCH  28  29
ENDBRANCH  27  28
ENDBRANCH  26  27
ENDBRANCH  25  26
ENDBRANCH  24  25
ENDBRANCH  23  24
ENDBRANCH  22  23
ENDBRANCH  21  22
ENDBRANCH  20  21
ENDBRANCH  19  20
ENDBRANCH  18  19
ENDBRANCH   1  18
TORSDOF 28
ENDMDL
MODEL 9
REMARK VINA RESULT:    -4.599      2.807      6.685
REMARK INTER + INTRA:         -18.229
REMARK INTER:                 -13.003
REMARK INTRA:                  -5.226
REMARK UNBOUND:                -6.102
REMARK SMILES CCCCCCCCCCCCCCCCCCCCCCCCCCCCCC(=O)[O-]
REMARK SMILES IDX 16 1 17 2 18 3 19 4 20 5 21 6 22 7 23 8 24 9 25 10 26 11
REMARK SMILES IDX 27 12 28 13 29 14 30 15 31 16 32 17 15 18 14 19 13 20 12 21
REMARK SMILES IDX 11 22 10 23 9 24 8 25 7 26 6 27 5 28 4 29 3 30 2 31 1 32
REMARK H PARENT
REMARK Flexibility Score: inf
ROOT
ATOM      1  C   UNL     1      58.542  10.331  90.083  1.00  0.00     0.000 C 
ENDROOT
BRANCH   1   2
ATOM      2  C   UNL     1      58.435  10.944  88.673  1.00  0.00     0.000 C 
BRANCH   2   3
ATOM      3  C   UNL     1      57.047  11.550  88.397  1.00  0.00     0.000 C 
BRANCH   3   4
ATOM      4  C   UNL     1      56.604  12.543  89.481  1.00  0.00     0.000 C 
BRANCH   4   5
ATOM      5  C   UNL     1      55.969  13.816  88.891  1.00  0.00     0.000 C 
BRANCH   5   6
ATOM      6  C   UNL     1      56.968  14.982  88.808  1.00  0.00     0.000 C 
BRANCH   6   7
ATOM      7  C   UNL     1      58.255  14.705  89.600  1.00  0.00     0.000 C 
BRANCH   7   8
ATOM      8  C   UNL     1      59.236  15.877  89.486  1.00  0.00     0.000 C 
BRANCH   8   9
ATOM      9  C   UNL     1      59.022  16.883  90.627  1.00  0.00     0.000 C 
BRANCH   9  10
ATOM     10  C   UNL     1      60.034  18.038  90.595  1.00  0.00     0.000 C 
BRANCH  10  11
ATOM     11  C   UNL     1      60.969  18.041  91.818  1.00  0.00     0.000 C 
BRANCH  11  12
ATOM     12  C   UNL     1      60.740  16.814  92.725  1.00  0.00     0.000 C 
BRANCH  12  13
ATOM     13  C   UNL     1      61.672  16.771  93.949  1.00  0.00     0.006 C 
BRANCH  13  14
ATOM     14  C   UNL     1      61.945  15.346  94.444  1.00  0.00     0.053 C 
BRANCH  14  15
ATOM     15  C   UNL     1      61.982  15.308  95.939  1.00  0.00     0.041 C 
ATOM     16  O   UNL     1      60.999  14.860  96.587  1.00  0.00    -0.550 OA
ATOM     17  O   UNL     1      63.083  15.813  96.621  1.00  0.00    -0.550 OA
ENDBRANCH  14  15
ENDBRANCH  13  14
ENDBRANCH  12  13
ENDBRANCH  11  12
ENDBRANCH  10  11
ENDBRANCH   9  10
ENDBRANCH   8   9
ENDBRANCH   7   8
ENDBRANCH   6   7
ENDBRANCH   5   6
ENDBRANCH   4   5
ENDBRANCH   3   4
ENDBRANCH   2   3
ENDBRANCH   1   2
BRANCH   1  18
ATOM     18  C   UNL     1      59.984  10.227  90.615  1.00  0.00     0.000 C 
BRANCH  18  19
ATOM     19  C   UNL     1      60.313  11.320  91.648  1.00  0.00     0.000 C 
BRANCH  19  20
ATOM     20  C   UNL     1      59.069  12.130  92.076  1.00  0.00     0.000 C 
BRANCH  20  21
ATOM     21  C   UNL     1      59.389  13.479  92.748  1.00  0.00     0.000 C 
BRANCH  21  22
ATOM     22  C   UNL     1      58.169  14.352  93.081  1.00  0.00     0.000 C 
BRANCH  22  23
ATOM     23  C   UNL     1      58.163  14.848  94.535  1.00  0.00     0.000 C 
BRANCH  23  24
ATOM     24  C   UNL     1      56.840  14.492  95.230  1.00  0.00    -0.000 C 
BRANCH  24  25
ATOM     25  C   UNL     1      56.924  13.182  96.031  1.00  0.00    -0.000 C 
BRANCH  25  26
ATOM     26  C   UNL     1      55.679  12.300  95.858  1.00  0.00    -0.000 C 
BRANCH  26  27
ATOM     27  C   UNL     1      56.066  10.894  95.384  1.00  0.00    -0.000 C 
BRANCH  27  28
ATOM     28  C   UNL     1      55.301  10.509  94.111  1.00  0.00    -0.000 C 
BRANCH  28  29
ATOM     29  C   UNL     1      55.639  11.412  92.913  1.00  0.00    -0.000 C 
BRANCH  29  30
ATOM     30  C   UNL     1      54.414  12.148  92.327  1.00  0.00    -0.000 C 
BRANCH  30  31
ATOM     31  C   UNL     1      54.536  13.673  92.459  1.00  0.00    -0.003 C 
ATOM     32  C   UNL     1      53.433  14.239  93.349  1.00  0.00     0.004 C 
ENDBRANCH  30  31
ENDBRANCH  29  30
ENDBRANCH  28  29
ENDBRANCH  27  28
ENDBRANCH  26  27
ENDBRANCH  25  26
ENDBRANCH  24  25
ENDBRANCH  23  24
ENDBRANCH  22  23
ENDBRANCH  21  22
ENDBRANCH  20  21
ENDBRANCH  19  20
ENDBRANCH  18  19
ENDBRANCH   1  18
TORSDOF 28
ENDMDL
