MODEL 1
REMARK VINA RESULT:    -3.621      0.000      0.000
REMARK INTER + INTRA:         -14.351
REMARK INTER:                  -9.124
REMARK INTRA:                  -5.227
REMARK UNBOUND:                -5.227
REMARK SMILES CCCCCCCCCCCCCCCCCCCCCCCCCCCC(=O)[O-]
REMARK SMILES IDX 15 1 16 2 17 3 18 4 19 5 20 6 21 7 22 8 23 9 24 10 25 11
REMARK SMILES IDX 26 12 27 13 28 14 29 15 30 16 14 17 13 18 12 19 11 20 10 21
REMARK SMILES IDX 9 22 8 23 7 24 6 25 5 26 4 27 3 28 2 29 1 30
REMARK H PARENT
REMARK Flexibility Score: inf
ROOT
ATOM      1  C   UNL     1       6.526   2.185  47.682  1.00  0.00     0.000 C 
ENDROOT
BRANCH   1   2
ATOM      2  C   UNL     1       6.797   1.217  48.849  1.00  0.00     0.000 C 
BRANCH   2   3
ATOM      3  C   UNL     1       5.807   0.041  48.952  1.00  0.00     0.000 C 
BRANCH   3   4
ATOM      4  C   UNL     1       5.488  -0.377  50.406  1.00  0.00     0.000 C 
BRANCH   4   5
ATOM      5  C   UNL     1       6.403   0.267  51.467  1.00  0.00     0.000 C 
BRANCH   5   6
ATOM      6  C   UNL     1       5.690   1.204  52.465  1.00  0.00     0.000 C 
BRANCH   6   7
ATOM      7  C   UNL     1       6.491   2.451  52.892  1.00  0.00     0.000 C 
BRANCH   7   8
ATOM      8  C   UNL     1       7.588   2.887  51.904  1.00  0.00     0.000 C 
BRANCH   8   9
ATOM      9  C   UNL     1       7.775   4.413  51.864  1.00  0.00     0.000 C 
BRANCH   9  10
ATOM     10  C   UNL     1       6.579   5.175  52.456  1.00  0.00     0.000 C 
BRANCH  10  11
ATOM     11  C   UNL     1       6.388   6.561  51.814  1.00  0.00     0.000 C 
BRANCH  11  12
ATOM     12  C   UNL     1       6.615   6.537  50.294  1.00  0.00     0.006 C 
BRANCH  12  13
ATOM     13  C   UNL     1       7.764   7.458  49.862  1.00  0.00     0.053 C 
BRANCH  13  14
ATOM     14  C   UNL     1       8.174   7.170  48.453  1.00  0.00     0.041 C 
ATOM     15  O   UNL     1       7.770   6.125  47.878  1.00  0.00    -0.550 OA
ATOM     16  O   UNL     1       8.996   8.057  47.769  1.00  0.00    -0.550 OA
ENDBRANCH  13  14
ENDBRANCH  12  13
ENDBRANCH  11  12
ENDBRANCH  10  11
ENDBRANCH   9  10
ENDBRANCH   8   9
ENDBRANCH   7   8
ENDBRANCH   6   7
ENDBRANCH   5   6
ENDBRANCH   4   5
ENDBRANCH   3   4
ENDBRANCH   2   3
ENDBRANCH   1   2
BRANCH   1  17
ATOM     17  C   UNL     1       5.297   3.102  47.861  1.00  0.00     0.000 C 
BRANCH  17  18
ATOM     18  C   UNL     1       5.093   3.648  49.285  1.00  0.00     0.000 C 
BRANCH  18  19
ATOM     19  C   UNL     1       3.833   3.085  49.967  1.00  0.00     0.000 C 
BRANCH  19  20
ATOM     20  C   UNL     1       3.349   3.957  51.138  1.00  0.00     0.000 C 
BRANCH  20  21
ATOM     21  C   UNL     1       2.902   5.382  50.748  1.00  0.00     0.000 C 
BRANCH  21  22
ATOM     22  C   UNL     1       1.434   5.719  51.071  1.00  0.00    -0.000 C 
BRANCH  22  23
ATOM     23  C   UNL     1       0.949   5.076  52.382  1.00  0.00    -0.000 C 
BRANCH  23  24
ATOM     24  C   UNL     1      -0.462   4.470  52.250  1.00  0.00    -0.000 C 
BRANCH  24  25
ATOM     25  C   UNL     1      -0.556   3.003  52.706  1.00  0.00    -0.000 C 
BRANCH  25  26
ATOM     26  C   UNL     1       0.294   2.060  51.834  1.00  0.00    -0.000 C 
BRANCH  26  27
ATOM     27  C   UNL     1       1.189   1.132  52.675  1.00  0.00    -0.000 C 
BRANCH  27  28
ATOM     28  C   UNL     1       2.199   0.312  51.849  1.00  0.00    -0.000 C 
BRANCH  28  29
ATOM     29  C   UNL     1       1.806   0.205  50.368  1.00  0.00    -0.003 C 
ATOM     30  C   UNL     1       1.802  -1.249  49.906  1.00  0.00     0.004 C 
ENDBRANCH  28  29
ENDBRANCH  27  28
ENDBRANCH  26  27
ENDBRANCH  25  26
ENDBRANCH  24  25
ENDBRANCH  23  24
ENDBRANCH  22  23
ENDBRANCH  21  22
ENDBRANCH  20  21
ENDBRANCH  19  20
ENDBRANCH  18  19
ENDBRANCH  17  18
ENDBRANCH   1  17
TORSDOF 26
ENDMDL
MODEL 2
REMARK VINA RESULT:    -3.559      1.857      4.323
REMARK INTER + INTRA:         -14.195
REMARK INTER:                  -9.310
REMARK INTRA:                  -4.885
REMARK UNBOUND:                -5.227
REMARK SMILES CCCCCCCCCCCCCCCCCCCCCCCCCCCC(=O)[O-]
REMARK SMILES IDX 15 1 16 2 17 3 18 4 19 5 20 6 21 7 22 8 23 9 24 10 25 11
REMARK SMILES IDX 26 12 27 13 28 14 29 15 30 16 14 17 13 18 12 19 11 20 10 21
REMARK SMILES IDX 9 22 8 23 7 24 6 25 5 26 4 27 3 28 2 29 1 30
REMARK H PARENT
REMARK Flexibility Score: inf
ROOT
ATOM      1  C   UNL     1       5.866   3.286  47.872  1.00  0.00     0.000 C 
ENDROOT
BRANCH   1   2
ATOM      2  C   UNL     1       6.713   4.409  48.501  1.00  0.00     0.000 C 
BRANCH   2   3
ATOM      3  C   UNL     1       6.118   5.022  49.783  1.00  0.00     0.000 C 
BRANCH   3   4
ATOM      4  C   UNL     1       7.157   5.245  50.905  1.00  0.00     0.000 C 
BRANCH   4   5
ATOM      5  C   UNL     1       6.727   6.268  51.975  1.00  0.00     0.000 C 
BRANCH   5   6
ATOM      6  C   UNL     1       5.204   6.476  52.107  1.00  0.00     0.000 C 
BRANCH   6   7
ATOM      7  C   UNL     1       4.671   7.824  51.579  1.00  0.00     0.000 C 
BRANCH   7   8
ATOM      8  C   UNL     1       3.584   7.712  50.495  1.00  0.00     0.000 C 
BRANCH   8   9
ATOM      9  C   UNL     1       3.628   8.876  49.490  1.00  0.00     0.000 C 
BRANCH   9  10
ATOM     10  C   UNL     1       4.959   9.643  49.527  1.00  0.00     0.000 C 
BRANCH  10  11
ATOM     11  C   UNL     1       5.727   9.552  48.196  1.00  0.00     0.000 C 
BRANCH  11  12
ATOM     12  C   UNL     1       6.761   8.414  48.195  1.00  0.00     0.006 C 
BRANCH  12  13
ATOM     13  C   UNL     1       7.726   8.504  49.386  1.00  0.00     0.053 C 
BRANCH  13  14
ATOM     14  C   UNL     1       8.798   9.514  49.124  1.00  0.00     0.041 C 
ATOM     15  O   UNL     1       9.006  10.443  49.948  1.00  0.00    -0.550 OA
ATOM     16  O   UNL     1       9.576   9.426  47.976  1.00  0.00    -0.550 OA
ENDBRANCH  13  14
ENDBRANCH  12  13
ENDBRANCH  11  12
ENDBRANCH  10  11
ENDBRANCH   9  10
ENDBRANCH   8   9
ENDBRANCH   7   8
ENDBRANCH   6   7
ENDBRANCH   5   6
ENDBRANCH   4   5
ENDBRANCH   3   4
ENDBRANCH   2   3
ENDBRANCH   1   2
BRANCH   1  17
ATOM     17  C   UNL     1       6.654   2.027  47.448  1.00  0.00     0.000 C 
BRANCH  17  18
ATOM     18  C   UNL     1       7.127   1.134  48.608  1.00  0.00     0.000 C 
BRANCH  18  19
ATOM     19  C   UNL     1       5.977   0.351  49.267  1.00  0.00     0.000 C 
BRANCH  19  20
ATOM     20  C   UNL     1       6.056   0.355  50.803  1.00  0.00     0.000 C 
BRANCH  20  21
ATOM     21  C   UNL     1       6.770   1.578  51.415  1.00  0.00     0.000 C 
BRANCH  21  22
ATOM     22  C   UNL     1       6.421   1.872  52.886  1.00  0.00    -0.000 C 
BRANCH  22  23
ATOM     23  C   UNL     1       5.309   2.925  53.036  1.00  0.00    -0.000 C 
BRANCH  23  24
ATOM     24  C   UNL     1       3.908   2.290  53.125  1.00  0.00    -0.000 C 
BRANCH  24  25
ATOM     25  C   UNL     1       2.893   2.875  52.126  1.00  0.00    -0.000 C 
BRANCH  25  26
ATOM     26  C   UNL     1       3.416   2.861  50.678  1.00  0.00    -0.000 C 
BRANCH  26  27
ATOM     27  C   UNL     1       2.725   1.790  49.815  1.00  0.00    -0.000 C 
BRANCH  27  28
ATOM     28  C   UNL     1       1.978   0.713  50.626  1.00  0.00    -0.000 C 
BRANCH  28  29
ATOM     29  C   UNL     1       1.683  -0.551  49.803  1.00  0.00    -0.003 C 
ATOM     30  C   UNL     1       0.719  -0.248  48.660  1.00  0.00     0.004 C 
ENDBRANCH  28  29
ENDBRANCH  27  28
ENDBRANCH  26  27
ENDBRANCH  25  26
ENDBRANCH  24  25
ENDBRANCH  23  24
ENDBRANCH  22  23
ENDBRANCH  21  22
ENDBRANCH  20  21
ENDBRANCH  19  20
ENDBRANCH  18  19
ENDBRANCH  17  18
ENDBRANCH   1  17
TORSDOF 26
ENDMDL
MODEL 3
REMARK VINA RESULT:    -3.524      1.741      3.694
REMARK INTER + INTRA:         -14.106
REMARK INTER:                  -8.602
REMARK INTRA:                  -5.505
REMARK UNBOUND:                -5.227
REMARK SMILES CCCCCCCCCCCCCCCCCCCCCCCCCCCC(=O)[O-]
REMARK SMILES IDX 15 1 16 2 17 3 18 4 19 5 20 6 21 7 22 8 23 9 24 10 25 11
REMARK SMILES IDX 26 12 27 13 28 14 29 15 30 16 14 17 13 18 12 19 11 20 10 21
REMARK SMILES IDX 9 22 8 23 7 24 6 25 5 26 4 27 3 28 2 29 1 30
REMARK H PARENT
REMARK Flexibility Score: inf
ROOT
ATOM      1  C   UNL     1       6.758   1.874  48.229  1.00  0.00     0.000 C 
ENDROOT
BRANCH   1   2
ATOM      2  C   UNL     1       5.909   3.134  47.979  1.00  0.00     0.000 C 
BRANCH   2   3
ATOM      3  C   UNL     1       6.639   4.465  48.243  1.00  0.00     0.000 C 
BRANCH   3   4
ATOM      4  C   UNL     1       6.337   5.074  49.632  1.00  0.00     0.000 C 
BRANCH   4   5
ATOM      5  C   UNL     1       7.580   5.595  50.381  1.00  0.00     0.000 C 
BRANCH   5   6
ATOM      6  C   UNL     1       7.291   6.276  51.736  1.00  0.00     0.000 C 
BRANCH   6   7
ATOM      7  C   UNL     1       5.878   6.038  52.308  1.00  0.00     0.000 C 
BRANCH   7   8
ATOM      8  C   UNL     1       4.980   7.287  52.358  1.00  0.00     0.000 C 
BRANCH   8   9
ATOM      9  C   UNL     1       3.727   7.151  51.476  1.00  0.00     0.000 C 
BRANCH   9  10
ATOM     10  C   UNL     1       3.801   8.005  50.201  1.00  0.00     0.000 C 
BRANCH  10  11
ATOM     11  C   UNL     1       5.007   8.963  50.204  1.00  0.00     0.000 C 
BRANCH  11  12
ATOM     12  C   UNL     1       5.919   8.756  48.984  1.00  0.00     0.006 C 
BRANCH  12  13
ATOM     13  C   UNL     1       7.373   9.155  49.271  1.00  0.00     0.053 C 
BRANCH  13  14
ATOM     14  C   UNL     1       8.290   8.609  48.223  1.00  0.00     0.041 C 
ATOM     15  O   UNL     1       7.889   7.710  47.438  1.00  0.00    -0.550 OA
ATOM     16  O   UNL     1       9.586   9.097  48.105  1.00  0.00    -0.550 OA
ENDBRANCH  13  14
ENDBRANCH  12  13
ENDBRANCH  11  12
ENDBRANCH  10  11
ENDBRANCH   9  10
ENDBRANCH   8   9
ENDBRANCH   7   8
ENDBRANCH   6   7
ENDBRANCH   5   6
ENDBRANCH   4   5
ENDBRANCH   3   4
ENDBRANCH   2   3
ENDBRANCH   1   2
BRANCH   1  17
ATOM     17  C   UNL     1       6.034   0.731  48.973  1.00  0.00     0.000 C 
BRANCH  17  18
ATOM     18  C   UNL     1       6.344   0.633  50.477  1.00  0.00     0.000 C 
BRANCH  18  19
ATOM     19  C   UNL     1       7.177   1.819  50.995  1.00  0.00     0.000 C 
BRANCH  19  20
ATOM     20  C   UNL     1       6.694   2.337  52.360  1.00  0.00     0.000 C 
BRANCH  20  21
ATOM     21  C   UNL     1       5.262   1.913  52.748  1.00  0.00     0.000 C 
BRANCH  21  22
ATOM     22  C   UNL     1       4.310   3.070  53.105  1.00  0.00    -0.000 C 
BRANCH  22  23
ATOM     23  C   UNL     1       3.052   3.101  52.220  1.00  0.00    -0.000 C 
BRANCH  23  24
ATOM     24  C   UNL     1       3.388   3.276  50.727  1.00  0.00    -0.000 C 
BRANCH  24  25
ATOM     25  C   UNL     1       2.921   2.108  49.840  1.00  0.00    -0.000 C 
BRANCH  25  26
ATOM     26  C   UNL     1       2.222   0.999  50.648  1.00  0.00    -0.000 C 
BRANCH  26  27
ATOM     27  C   UNL     1       1.843  -0.211  49.776  1.00  0.00    -0.000 C 
BRANCH  27  28
ATOM     28  C   UNL     1       2.466  -1.542  50.239  1.00  0.00    -0.000 C 
BRANCH  28  29
ATOM     29  C   UNL     1       3.046  -2.362  49.077  1.00  0.00    -0.003 C 
ATOM     30  C   UNL     1       4.546  -2.577  49.251  1.00  0.00     0.004 C 
ENDBRANCH  28  29
ENDBRANCH  27  28
ENDBRANCH  26  27
ENDBRANCH  25  26
ENDBRANCH  24  25
ENDBRANCH  23  24
ENDBRANCH  22  23
ENDBRANCH  21  22
ENDBRANCH  20  21
ENDBRANCH  19  20
ENDBRANCH  18  19
ENDBRANCH  17  18
ENDBRANCH   1  17
TORSDOF 26
ENDMDL
MODEL 4
REMARK VINA RESULT:    -3.522      3.438      7.452
REMARK INTER + INTRA:         -14.101
REMARK INTER:                  -8.798
REMARK INTRA:                  -5.303
REMARK UNBOUND:                -5.227
REMARK SMILES CCCCCCCCCCCCCCCCCCCCCCCCCCCC(=O)[O-]
REMARK SMILES IDX 15 1 16 2 17 3 18 4 19 5 20 6 21 7 22 8 23 9 24 10 25 11
REMARK SMILES IDX 26 12 27 13 28 14 29 15 30 16 14 17 13 18 12 19 11 20 10 21
REMARK SMILES IDX 9 22 8 23 7 24 6 25 5 26 4 27 3 28 2 29 1 30
REMARK H PARENT
REMARK Flexibility Score: inf
ROOT
ATOM      1  C   UNL     1       5.746   3.404  48.216  1.00  0.00     0.000 C 
ENDROOT
BRANCH   1   2
ATOM      2  C   UNL     1       6.358   2.055  47.793  1.00  0.00     0.000 C 
BRANCH   2   3
ATOM      3  C   UNL     1       6.927   1.215  48.952  1.00  0.00     0.000 C 
BRANCH   3   4
ATOM      4  C   UNL     1       6.232   1.477  50.308  1.00  0.00     0.000 C 
BRANCH   4   5
ATOM      5  C   UNL     1       7.194   1.854  51.453  1.00  0.00     0.000 C 
BRANCH   5   6
ATOM      6  C   UNL     1       6.528   2.529  52.671  1.00  0.00     0.000 C 
BRANCH   6   7
ATOM      7  C   UNL     1       4.987   2.582  52.639  1.00  0.00     0.000 C 
BRANCH   7   8
ATOM      8  C   UNL     1       4.391   3.976  52.376  1.00  0.00     0.000 C 
BRANCH   8   9
ATOM      9  C   UNL     1       3.548   4.026  51.090  1.00  0.00     0.000 C 
BRANCH   9  10
ATOM     10  C   UNL     1       2.485   2.918  51.032  1.00  0.00     0.000 C 
BRANCH  10  11
ATOM     11  C   UNL     1       2.703   1.955  49.850  1.00  0.00     0.000 C 
BRANCH  11  12
ATOM     12  C   UNL     1       2.620   0.480  50.276  1.00  0.00     0.006 C 
BRANCH  12  13
ATOM     13  C   UNL     1       1.373  -0.219  49.718  1.00  0.00     0.053 C 
BRANCH  13  14
ATOM     14  C   UNL     1       0.393  -0.508  50.810  1.00  0.00     0.041 C 
ATOM     15  O   UNL     1      -0.366  -1.509  50.730  1.00  0.00    -0.550 OA
ATOM     16  O   UNL     1       0.322   0.322  51.923  1.00  0.00    -0.550 OA
ENDBRANCH  13  14
ENDBRANCH  12  13
ENDBRANCH  11  12
ENDBRANCH  10  11
ENDBRANCH   9  10
ENDBRANCH   8   9
ENDBRANCH   7   8
ENDBRANCH   6   7
ENDBRANCH   5   6
ENDBRANCH   4   5
ENDBRANCH   3   4
ENDBRANCH   2   3
ENDBRANCH   1   2
BRANCH   1  17
ATOM     17  C   UNL     1       6.756   4.558  48.390  1.00  0.00     0.000 C 
BRANCH  17  18
ATOM     18  C   UNL     1       6.479   5.492  49.580  1.00  0.00     0.000 C 
BRANCH  18  19
ATOM     19  C   UNL     1       7.548   5.390  50.683  1.00  0.00     0.000 C 
BRANCH  19  20
ATOM     20  C   UNL     1       7.252   6.300  51.887  1.00  0.00     0.000 C 
BRANCH  20  21
ATOM     21  C   UNL     1       6.120   7.324  51.667  1.00  0.00     0.000 C 
BRANCH  21  22
ATOM     22  C   UNL     1       6.520   8.797  51.872  1.00  0.00    -0.000 C 
BRANCH  22  23
ATOM     23  C   UNL     1       7.991   9.071  51.510  1.00  0.00    -0.000 C 
BRANCH  23  24
ATOM     24  C   UNL     1       8.148   9.643  50.088  1.00  0.00    -0.000 C 
BRANCH  24  25
ATOM     25  C   UNL     1       8.427   8.577  49.013  1.00  0.00    -0.000 C 
BRANCH  25  26
ATOM     26  C   UNL     1       7.474   8.691  47.809  1.00  0.00    -0.000 C 
BRANCH  26  27
ATOM     27  C   UNL     1       6.004   8.845  48.238  1.00  0.00    -0.000 C 
BRANCH  27  28
ATOM     28  C   UNL     1       5.387  10.215  47.896  1.00  0.00    -0.000 C 
BRANCH  28  29
ATOM     29  C   UNL     1       4.741  10.896  49.112  1.00  0.00    -0.003 C 
ATOM     30  C   UNL     1       3.648  10.018  49.715  1.00  0.00     0.004 C 
ENDBRANCH  28  29
ENDBRANCH  27  28
ENDBRANCH  26  27
ENDBRANCH  25  26
ENDBRANCH  24  25
ENDBRANCH  23  24
ENDBRANCH  22  23
ENDBRANCH  21  22
ENDBRANCH  20  21
ENDBRANCH  19  20
ENDBRANCH  18  19
ENDBRANCH  17  18
ENDBRANCH   1  17
TORSDOF 26
ENDMDL
MODEL 5
REMARK VINA RESULT:    -3.519      3.416      7.866
REMARK INTER + INTRA:         -14.095
REMARK INTER:                  -9.118
REMARK INTRA:                  -4.977
REMARK UNBOUND:                -5.227
REMARK SMILES CCCCCCCCCCCCCCCCCCCCCCCCCCCC(=O)[O-]
REMARK SMILES IDX 15 1 16 2 17 3 18 4 19 5 20 6 21 7 22 8 23 9 24 10 25 11
REMARK SMILES IDX 26 12 27 13 28 14 29 15 30 16 14 17 13 18 12 19 11 20 10 21
REMARK SMILES IDX 9 22 8 23 7 24 6 25 5 26 4 27 3 28 2 29 1 30
REMARK H PARENT
REMARK Flexibility Score: inf
ROOT
ATOM      1  C   UNL     1       6.750   1.821  47.872  1.00  0.00     0.000 C 
ENDROOT
BRANCH   1   2
ATOM      2  C   UNL     1       6.182   3.202  48.252  1.00  0.00     0.000 C 
BRANCH   2   3
ATOM      3  C   UNL     1       4.674   3.211  48.568  1.00  0.00     0.000 C 
BRANCH   3   4
ATOM      4  C   UNL     1       4.351   3.548  50.042  1.00  0.00     0.000 C 
BRANCH   4   5
ATOM      5  C   UNL     1       3.126   2.803  50.610  1.00  0.00     0.000 C 
BRANCH   5   6
ATOM      6  C   UNL     1       2.620   1.625  49.751  1.00  0.00     0.000 C 
BRANCH   6   7
ATOM      7  C   UNL     1       1.787   0.567  50.502  1.00  0.00     0.000 C 
BRANCH   7   8
ATOM      8  C   UNL     1       2.132   0.409  51.994  1.00  0.00     0.000 C 
BRANCH   8   9
ATOM      9  C   UNL     1       1.807  -0.995  52.531  1.00  0.00     0.000 C 
BRANCH   9  10
ATOM     10  C   UNL     1       0.925  -1.809  51.573  1.00  0.00     0.000 C 
BRANCH  10  11
ATOM     11  C   UNL     1       1.442  -3.246  51.374  1.00  0.00     0.000 C 
BRANCH  11  12
ATOM     12  C   UNL     1       2.872  -3.279  50.810  1.00  0.00     0.006 C 
BRANCH  12  13
ATOM     13  C   UNL     1       2.911  -2.991  49.304  1.00  0.00     0.053 C 
BRANCH  13  14
ATOM     14  C   UNL     1       3.918  -3.863  48.623  1.00  0.00     0.041 C 
ATOM     15  O   UNL     1       3.566  -4.619  47.680  1.00  0.00    -0.550 OA
ATOM     16  O   UNL     1       5.249  -3.835  49.021  1.00  0.00    -0.550 OA
ENDBRANCH  13  14
ENDBRANCH  12  13
ENDBRANCH  11  12
ENDBRANCH  10  11
ENDBRANCH   9  10
ENDBRANCH   8   9
ENDBRANCH   7   8
ENDBRANCH   6   7
ENDBRANCH   5   6
ENDBRANCH   4   5
ENDBRANCH   3   4
ENDBRANCH   2   3
ENDBRANCH   1   2
BRANCH   1  17
ATOM     17  C   UNL     1       6.851   0.810  49.034  1.00  0.00     0.000 C 
BRANCH  17  18
ATOM     18  C   UNL     1       5.670  -0.170  49.149  1.00  0.00     0.000 C 
BRANCH  18  19
ATOM     19  C   UNL     1       5.412  -0.629  50.595  1.00  0.00     0.000 C 
BRANCH  19  20
ATOM     20  C   UNL     1       6.374   0.017  51.607  1.00  0.00     0.000 C 
BRANCH  20  21
ATOM     21  C   UNL     1       5.711   0.981  52.612  1.00  0.00     0.000 C 
BRANCH  21  22
ATOM     22  C   UNL     1       6.591   2.160  53.067  1.00  0.00    -0.000 C 
BRANCH  22  23
ATOM     23  C   UNL     1       7.434   2.751  51.923  1.00  0.00    -0.000 C 
BRANCH  23  24
ATOM     24  C   UNL     1       7.876   4.199  52.208  1.00  0.00    -0.000 C 
BRANCH  24  25
ATOM     25  C   UNL     1       6.865   5.263  51.742  1.00  0.00    -0.000 C 
BRANCH  25  26
ATOM     26  C   UNL     1       7.501   6.310  50.809  1.00  0.00    -0.000 C 
BRANCH  26  27
ATOM     27  C   UNL     1       6.665   6.548  49.539  1.00  0.00    -0.000 C 
BRANCH  27  28
ATOM     28  C   UNL     1       7.499   6.669  48.249  1.00  0.00    -0.000 C 
BRANCH  28  29
ATOM     29  C   UNL     1       7.908   8.118  47.940  1.00  0.00    -0.003 C 
ATOM     30  C   UNL     1       6.746   9.078  48.178  1.00  0.00     0.004 C 
ENDBRANCH  28  29
ENDBRANCH  27  28
ENDBRANCH  26  27
ENDBRANCH  25  26
ENDBRANCH  24  25
ENDBRANCH  23  24
ENDBRANCH  22  23
ENDBRANCH  21  22
ENDBRANCH  20  21
ENDBRANCH  19  20
ENDBRANCH  18  19
ENDBRANCH  17  18
ENDBRANCH   1  17
TORSDOF 26
ENDMDL
MODEL 6
REMARK VINA RESULT:    -3.515      3.535      7.370
REMARK INTER + INTRA:         -14.086
REMARK INTER:                  -8.833
REMARK INTRA:                  -5.253
REMARK UNBOUND:                -5.227
REMARK SMILES CCCCCCCCCCCCCCCCCCCCCCCCCCCC(=O)[O-]
REMARK SMILES IDX 15 1 16 2 17 3 18 4 19 5 20 6 21 7 22 8 23 9 24 10 25 11
REMARK SMILES IDX 26 12 27 13 28 14 29 15 30 16 14 17 13 18 12 19 11 20 10 21
REMARK SMILES IDX 9 22 8 23 7 24 6 25 5 26 4 27 3 28 2 29 1 30
REMARK H PARENT
REMARK Flexibility Score: inf
ROOT
ATOM      1  C   UNL     1       6.738   0.945  48.841  1.00  0.00     0.000 C 
ENDROOT
BRANCH   1   2
ATOM      2  C   UNL     1       6.151   1.413  50.186  1.00  0.00     0.000 C 
BRANCH   2   3
ATOM      3  C   UNL     1       7.185   1.983  51.176  1.00  0.00     0.000 C 
BRANCH   3   4
ATOM      4  C   UNL     1       6.557   2.810  52.321  1.00  0.00     0.000 C 
BRANCH   4   5
ATOM      5  C   UNL     1       5.053   2.552  52.542  1.00  0.00     0.000 C 
BRANCH   5   6
ATOM      6  C   UNL     1       4.121   3.708  52.120  1.00  0.00     0.000 C 
BRANCH   6   7
ATOM      7  C   UNL     1       3.163   3.394  50.952  1.00  0.00     0.000 C 
BRANCH   7   8
ATOM      8  C   UNL     1       2.335   2.108  51.121  1.00  0.00     0.000 C 
BRANCH   8   9
ATOM      9  C   UNL     1       2.391   1.200  49.880  1.00  0.00     0.000 C 
BRANCH   9  10
ATOM     10  C   UNL     1       2.914  -0.209  50.198  1.00  0.00     0.000 C 
BRANCH  10  11
ATOM     11  C   UNL     1       3.137  -0.429  51.705  1.00  0.00     0.000 C 
BRANCH  11  12
ATOM     12  C   UNL     1       4.360  -1.316  51.992  1.00  0.00     0.006 C 
BRANCH  12  13
ATOM     13  C   UNL     1       4.930  -1.950  50.716  1.00  0.00     0.053 C 
BRANCH  13  14
ATOM     14  C   UNL     1       4.891  -3.444  50.804  1.00  0.00     0.041 C 
ATOM     15  O   UNL     1       5.476  -4.143  49.936  1.00  0.00    -0.550 OA
ATOM     16  O   UNL     1       4.218  -4.065  51.848  1.00  0.00    -0.550 OA
ENDBRANCH  13  14
ENDBRANCH  12  13
ENDBRANCH  11  12
ENDBRANCH  10  11
ENDBRANCH   9  10
ENDBRANCH   8   9
ENDBRANCH   7   8
ENDBRANCH   6   7
ENDBRANCH   5   6
ENDBRANCH   4   5
ENDBRANCH   3   4
ENDBRANCH   2   3
ENDBRANCH   1   2
BRANCH   1  17
ATOM     17  C   UNL     1       6.668   1.980  47.697  1.00  0.00     0.000 C 
BRANCH  17  18
ATOM     18  C   UNL     1       5.840   3.238  48.008  1.00  0.00     0.000 C 
BRANCH  18  19
ATOM     19  C   UNL     1       6.712   4.466  48.323  1.00  0.00     0.000 C 
BRANCH  19  20
ATOM     20  C   UNL     1       6.227   5.242  49.559  1.00  0.00     0.000 C 
BRANCH  20  21
ATOM     21  C   UNL     1       7.346   5.873  50.414  1.00  0.00     0.000 C 
BRANCH  21  22
ATOM     22  C   UNL     1       6.873   6.908  51.451  1.00  0.00    -0.000 C 
BRANCH  22  23
ATOM     23  C   UNL     1       5.341   6.981  51.566  1.00  0.00    -0.000 C 
BRANCH  23  24
ATOM     24  C   UNL     1       4.818   8.429  51.530  1.00  0.00    -0.000 C 
BRANCH  24  25
ATOM     25  C   UNL     1       5.582   9.345  50.555  1.00  0.00    -0.000 C 
BRANCH  25  26
ATOM     26  C   UNL     1       4.863   9.492  49.201  1.00  0.00    -0.000 C 
BRANCH  26  27
ATOM     27  C   UNL     1       5.849   9.613  48.025  1.00  0.00    -0.000 C 
BRANCH  27  28
ATOM     28  C   UNL     1       6.782   8.398  47.857  1.00  0.00    -0.000 C 
BRANCH  28  29
ATOM     29  C   UNL     1       8.262   8.753  48.067  1.00  0.00    -0.003 C 
ATOM     30  C   UNL     1       9.164   7.579  47.704  1.00  0.00     0.004 C 
ENDBRANCH  28  29
ENDBRANCH  27  28
ENDBRANCH  26  27
ENDBRANCH  25  26
ENDBRANCH  24  25
ENDBRANCH  23  24
ENDBRANCH  22  23
ENDBRANCH  21  22
ENDBRANCH  20  21
ENDBRANCH  19  20
ENDBRANCH  18  19
ENDBRANCH  17  18
ENDBRANCH   1  17
TORSDOF 26
ENDMDL
MODEL 7
REMARK VINA RESULT:    -3.488      2.982      6.743
REMARK INTER + INTRA:         -14.016
REMARK INTER:                  -8.560
REMARK INTRA:                  -5.456
REMARK UNBOUND:                -5.227
REMARK SMILES CCCCCCCCCCCCCCCCCCCCCCCCCCCC(=O)[O-]
REMARK SMILES IDX 15 1 16 2 17 3 18 4 19 5 20 6 21 7 22 8 23 9 24 10 25 11
REMARK SMILES IDX 26 12 27 13 28 14 29 15 30 16 14 17 13 18 12 19 11 20 10 21
REMARK SMILES IDX 9 22 8 23 7 24 6 25 5 26 4 27 3 28 2 29 1 30
REMARK H PARENT
REMARK Flexibility Score: inf
ROOT
ATOM      1  C   UNL     1       6.483   2.163  47.578  1.00  0.00     0.000 C 
ENDROOT
BRANCH   1   2
ATOM      2  C   UNL     1       6.772   1.171  48.722  1.00  0.00     0.000 C 
BRANCH   2   3
ATOM      3  C   UNL     1       5.952   1.412  50.004  1.00  0.00     0.000 C 
BRANCH   3   4
ATOM      4  C   UNL     1       6.476   0.630  51.231  1.00  0.00     0.000 C 
BRANCH   4   5
ATOM      5  C   UNL     1       5.708   0.912  52.538  1.00  0.00     0.000 C 
BRANCH   5   6
ATOM      6  C   UNL     1       5.666   2.395  52.965  1.00  0.00     0.000 C 
BRANCH   6   7
ATOM      7  C   UNL     1       4.268   3.047  52.955  1.00  0.00     0.000 C 
BRANCH   7   8
ATOM      8  C   UNL     1       4.065   4.132  51.882  1.00  0.00     0.000 C 
BRANCH   8   9
ATOM      9  C   UNL     1       2.957   3.772  50.878  1.00  0.00     0.000 C 
BRANCH   9  10
ATOM     10  C   UNL     1       2.251   2.451  51.220  1.00  0.00     0.000 C 
BRANCH  10  11
ATOM     11  C   UNL     1       2.516   1.354  50.173  1.00  0.00     0.000 C 
BRANCH  11  12
ATOM     12  C   UNL     1       2.675  -0.036  50.810  1.00  0.00     0.006 C 
BRANCH  12  13
ATOM     13  C   UNL     1       2.746  -1.153  49.761  1.00  0.00     0.053 C 
BRANCH  13  14
ATOM     14  C   UNL     1       3.977  -1.982  49.951  1.00  0.00     0.041 C 
ATOM     15  O   UNL     1       4.055  -2.786  50.916  1.00  0.00    -0.550 OA
ATOM     16  O   UNL     1       5.036  -1.876  49.057  1.00  0.00    -0.550 OA
ENDBRANCH  13  14
ENDBRANCH  12  13
ENDBRANCH  11  12
ENDBRANCH  10  11
ENDBRANCH   9  10
ENDBRANCH   8   9
ENDBRANCH   7   8
ENDBRANCH   6   7
ENDBRANCH   5   6
ENDBRANCH   4   5
ENDBRANCH   3   4
ENDBRANCH   2   3
ENDBRANCH   1   2
BRANCH   1  17
ATOM     17  C   UNL     1       5.801   3.480  48.008  1.00  0.00     0.000 C 
BRANCH  17  18
ATOM     18  C   UNL     1       6.758   4.654  48.272  1.00  0.00     0.000 C 
BRANCH  18  19
ATOM     19  C   UNL     1       6.549   5.299  49.653  1.00  0.00     0.000 C 
BRANCH  19  20
ATOM     20  C   UNL     1       7.484   4.721  50.730  1.00  0.00     0.000 C 
BRANCH  20  21
ATOM     21  C   UNL     1       7.495   5.493  52.066  1.00  0.00     0.000 C 
BRANCH  21  22
ATOM     22  C   UNL     1       7.523   7.027  51.936  1.00  0.00    -0.000 C 
BRANCH  22  23
ATOM     23  C   UNL     1       6.419   7.716  52.757  1.00  0.00    -0.000 C 
BRANCH  23  24
ATOM     24  C   UNL     1       5.666   8.787  51.945  1.00  0.00    -0.000 C 
BRANCH  24  25
ATOM     25  C   UNL     1       4.420   8.255  51.214  1.00  0.00    -0.000 C 
BRANCH  25  26
ATOM     26  C   UNL     1       4.516   8.428  49.687  1.00  0.00    -0.000 C 
BRANCH  26  27
ATOM     27  C   UNL     1       5.689   9.334  49.272  1.00  0.00    -0.000 C 
BRANCH  27  28
ATOM     28  C   UNL     1       6.615   8.719  48.206  1.00  0.00    -0.000 C 
BRANCH  28  29
ATOM     29  C   UNL     1       8.076   8.624  48.672  1.00  0.00    -0.003 C 
ATOM     30  C   UNL     1       8.869   7.659  47.797  1.00  0.00     0.004 C 
ENDBRANCH  28  29
ENDBRANCH  27  28
ENDBRANCH  26  27
ENDBRANCH  25  26
ENDBRANCH  24  25
ENDBRANCH  23  24
ENDBRANCH  22  23
ENDBRANCH  21  22
ENDBRANCH  20  21
ENDBRANCH  19  20
ENDBRANCH  18  19
ENDBRANCH  17  18
ENDBRANCH   1  17
TORSDOF 26
ENDMDL
MODEL 8
REMARK VINA RESULT:    -3.452      3.296      7.545
REMARK INTER + INTRA:         -13.927
REMARK INTER:                  -8.662
REMARK INTRA:                  -5.265
REMARK UNBOUND:                -5.227
REMARK SMILES CCCCCCCCCCCCCCCCCCCCCCCCCCCC(=O)[O-]
REMARK SMILES IDX 15 1 16 2 17 3 18 4 19 5 20 6 21 7 22 8 23 9 24 10 25 11
REMARK SMILES IDX 26 12 27 13 28 14 29 15 30 16 14 17 13 18 12 19 11 20 10 21
REMARK SMILES IDX 9 22 8 23 7 24 6 25 5 26 4 27 3 28 2 29 1 30
REMARK H PARENT
REMARK Flexibility Score: inf
ROOT
ATOM      1  C   UNL     1       3.779   2.113  49.383  1.00  0.00     0.000 C 
ENDROOT
BRANCH   1   2
ATOM      2  C   UNL     1       4.695   3.127  48.672  1.00  0.00     0.000 C 
BRANCH   2   3
ATOM      3  C   UNL     1       6.095   2.591  48.319  1.00  0.00     0.000 C 
BRANCH   3   4
ATOM      4  C   UNL     1       6.783   1.837  49.480  1.00  0.00     0.000 C 
BRANCH   4   5
ATOM      5  C   UNL     1       7.138   2.724  50.691  1.00  0.00     0.000 C 
BRANCH   5   6
ATOM      6  C   UNL     1       6.809   2.112  52.069  1.00  0.00     0.000 C 
BRANCH   6   7
ATOM      7  C   UNL     1       6.403   0.624  52.054  1.00  0.00     0.000 C 
BRANCH   7   8
ATOM      8  C   UNL     1       5.051   0.314  52.720  1.00  0.00     0.000 C 
BRANCH   8   9
ATOM      9  C   UNL     1       4.181  -0.636  51.879  1.00  0.00     0.000 C 
BRANCH   9  10
ATOM     10  C   UNL     1       4.915  -1.176  50.642  1.00  0.00     0.000 C 
BRANCH  10  11
ATOM     11  C   UNL     1       3.947  -1.658  49.546  1.00  0.00     0.000 C 
BRANCH  11  12
ATOM     12  C   UNL     1       2.526  -1.893  50.085  1.00  0.00     0.006 C 
BRANCH  12  13
ATOM     13  C   UNL     1       1.516  -0.883  49.524  1.00  0.00     0.053 C 
BRANCH  13  14
ATOM     14  C   UNL     1       0.439  -0.599  50.522  1.00  0.00     0.041 C 
ATOM     15  O   UNL     1       0.587   0.322  51.367  1.00  0.00    -0.550 OA
ATOM     16  O   UNL     1      -0.734  -1.344  50.516  1.00  0.00    -0.550 OA
ENDBRANCH  13  14
ENDBRANCH  12  13
ENDBRANCH  11  12
ENDBRANCH  10  11
ENDBRANCH   9  10
ENDBRANCH   8   9
ENDBRANCH   7   8
ENDBRANCH   6   7
ENDBRANCH   5   6
ENDBRANCH   4   5
ENDBRANCH   3   4
ENDBRANCH   2   3
ENDBRANCH   1   2
BRANCH   1  17
ATOM     17  C   UNL     1       2.939   2.688  50.544  1.00  0.00     0.000 C 
BRANCH  17  18
ATOM     18  C   UNL     1       3.602   3.839  51.320  1.00  0.00     0.000 C 
BRANCH  18  19
ATOM     19  C   UNL     1       2.800   5.150  51.246  1.00  0.00     0.000 C 
BRANCH  19  20
ATOM     20  C   UNL     1       3.698   6.399  51.223  1.00  0.00     0.000 C 
BRANCH  20  21
ATOM     21  C   UNL     1       5.022   6.235  50.448  1.00  0.00     0.000 C 
BRANCH  21  22
ATOM     22  C   UNL     1       6.299   6.353  51.300  1.00  0.00    -0.000 C 
BRANCH  22  23
ATOM     23  C   UNL     1       7.580   6.419  50.450  1.00  0.00    -0.000 C 
BRANCH  23  24
ATOM     24  C   UNL     1       7.327   6.041  48.979  1.00  0.00    -0.000 C 
BRANCH  24  25
ATOM     25  C   UNL     1       7.711   7.145  47.976  1.00  0.00    -0.000 C 
BRANCH  25  26
ATOM     26  C   UNL     1       7.372   8.555  48.494  1.00  0.00    -0.000 C 
BRANCH  26  27
ATOM     27  C   UNL     1       6.031   9.074  47.946  1.00  0.00    -0.000 C 
BRANCH  27  28
ATOM     28  C   UNL     1       5.580  10.417  48.553  1.00  0.00    -0.000 C 
BRANCH  28  29
ATOM     29  C   UNL     1       4.445  10.255  49.576  1.00  0.00    -0.003 C 
ATOM     30  C   UNL     1       4.998   9.944  50.963  1.00  0.00     0.004 C 
ENDBRANCH  28  29
ENDBRANCH  27  28
ENDBRANCH  26  27
ENDBRANCH  25  26
ENDBRANCH  24  25
ENDBRANCH  23  24
ENDBRANCH  22  23
ENDBRANCH  21  22
ENDBRANCH  20  21
ENDBRANCH  19  20
ENDBRANCH  18  19
ENDBRANCH  17  18
ENDBRANCH   1  17
TORSDOF 26
ENDMDL
MODEL 9
REMARK VINA RESULT:    -3.427      3.293      6.780
REMARK INTER + INTRA:         -13.863
REMARK INTER:                  -8.849
REMARK INTRA:                  -5.015
REMARK UNBOUND:                -5.227
REMARK SMILES CCCCCCCCCCCCCCCCCCCCCCCCCCCC(=O)[O-]
REMARK SMILES IDX 15 1 16 2 17 3 18 4 19 5 20 6 21 7 22 8 23 9 24 10 25 11
REMARK SMILES IDX 26 12 27 13 28 14 29 15 30 16 14 17 13 18 12 19 11 20 10 21
REMARK SMILES IDX 9 22 8 23 7 24 6 25 5 26 4 27 3 28 2 29 1 30
REMARK H PARENT
REMARK Flexibility Score: inf
ROOT
ATOM      1  C   UNL     1       6.723   4.524  48.253  1.00  0.00     0.000 C 
ENDROOT
BRANCH   1   2
ATOM      2  C   UNL     1       5.726   3.367  48.053  1.00  0.00     0.000 C 
BRANCH   2   3
ATOM      3  C   UNL     1       6.374   2.011  47.714  1.00  0.00     0.000 C 
BRANCH   3   4
ATOM      4  C   UNL     1       6.917   1.256  48.949  1.00  0.00     0.000 C 
BRANCH   4   5
ATOM      5  C   UNL     1       5.878   0.359  49.651  1.00  0.00     0.000 C 
BRANCH   5   6
ATOM      6  C   UNL     1       5.837   0.486  51.189  1.00  0.00     0.000 C 
BRANCH   6   7
ATOM      7  C   UNL     1       6.237   1.866  51.750  1.00  0.00     0.000 C 
BRANCH   7   8
ATOM      8  C   UNL     1       5.078   2.686  52.344  1.00  0.00     0.000 C 
BRANCH   8   9
ATOM      9  C   UNL     1       4.298   3.468  51.274  1.00  0.00     0.000 C 
BRANCH   9  10
ATOM     10  C   UNL     1       2.823   3.046  51.186  1.00  0.00     0.000 C 
BRANCH  10  11
ATOM     11  C   UNL     1       2.586   1.949  50.132  1.00  0.00     0.000 C 
BRANCH  11  12
ATOM     12  C   UNL     1       1.722   0.797  50.672  1.00  0.00     0.006 C 
BRANCH  12  13
ATOM     13  C   UNL     1       2.349  -0.577  50.400  1.00  0.00     0.053 C 
BRANCH  13  14
ATOM     14  C   UNL     1       1.778  -1.183  49.157  1.00  0.00     0.041 C 
ATOM     15  O   UNL     1       0.749  -0.688  48.627  1.00  0.00    -0.550 OA
ATOM     16  O   UNL     1       2.385  -2.290  48.576  1.00  0.00    -0.550 OA
ENDBRANCH  13  14
ENDBRANCH  12  13
ENDBRANCH  11  12
ENDBRANCH  10  11
ENDBRANCH   9  10
ENDBRANCH   8   9
ENDBRANCH   7   8
ENDBRANCH   6   7
ENDBRANCH   5   6
ENDBRANCH   4   5
ENDBRANCH   3   4
ENDBRANCH   2   3
ENDBRANCH   1   2
BRANCH   1  17
ATOM     17  C   UNL     1       7.128   4.796  49.718  1.00  0.00     0.000 C 
BRANCH  17  18
ATOM     18  C   UNL     1       6.629   6.132  50.295  1.00  0.00     0.000 C 
BRANCH  18  19
ATOM     19  C   UNL     1       7.319   6.509  51.618  1.00  0.00     0.000 C 
BRANCH  19  20
ATOM     20  C   UNL     1       6.444   7.400  52.515  1.00  0.00     0.000 C 
BRANCH  20  21
ATOM     21  C   UNL     1       5.114   6.764  52.967  1.00  0.00     0.000 C 
BRANCH  21  22
ATOM     22  C   UNL     1       3.850   7.576  52.626  1.00  0.00    -0.000 C 
BRANCH  22  23
ATOM     23  C   UNL     1       3.078   7.002  51.426  1.00  0.00    -0.000 C 
BRANCH  23  24
ATOM     24  C   UNL     1       3.336   7.793  50.130  1.00  0.00    -0.000 C 
BRANCH  24  25
ATOM     25  C   UNL     1       4.074   9.127  50.349  1.00  0.00    -0.000 C 
BRANCH  25  26
ATOM     26  C   UNL     1       4.517   9.778  49.025  1.00  0.00    -0.000 C 
BRANCH  26  27
ATOM     27  C   UNL     1       5.796   9.138  48.456  1.00  0.00    -0.000 C 
BRANCH  27  28
ATOM     28  C   UNL     1       7.101   9.785  48.959  1.00  0.00    -0.000 C 
BRANCH  28  29
ATOM     29  C   UNL     1       8.341   8.926  48.663  1.00  0.00    -0.003 C 
ATOM     30  C   UNL     1       8.072   7.950  47.523  1.00  0.00     0.004 C 
ENDBRANCH  28  29
ENDBRANCH  27  28
ENDBRANCH  26  27
ENDBRANCH  25  26
ENDBRANCH  24  25
ENDBRANCH  23  24
ENDBRANCH  22  23
ENDBRANCH  21  22
ENDBRANCH  20  21
ENDBRANCH  19  20
ENDBRANCH  18  19
ENDBRANCH  17  18
ENDBRANCH   1  17
TORSDOF 26
ENDMDL
