MODEL 1
REMARK VINA RESULT:    -6.194      0.000      0.000
REMARK INTER + INTRA:          -9.432
REMARK INTER:                  -8.185
REMARK INTRA:                  -1.247
REMARK UNBOUND:                -1.247
REMARK SMILES CC[C@@H](C=C[C@@H](C)[C@H]1CC[C@H]2[C@H]3CC=C4C[C@H](O)CC[C@]4(C)[C@@H]3CC[C@@]12C)C(C)C
REMARK SMILES IDX 6 1 7 2 5 3 4 4 3 5 2 6 1 7 28 8 29 9 30 10 8 11 9 12 26 13
REMARK SMILES IDX 10 14 11 15 25 16 27 17 12 18 24 19 23 20 13 21 21 22 14 23
REMARK SMILES IDX 15 24 20 25 22 26 16 27 19 28 17 29 18 30
REMARK H PARENT 18 31
REMARK Flexibility Score: inf
ROOT
ATOM      1  C   UNL     1      73.308  46.799   7.636  1.00  0.00     0.012 C 
ATOM      2  C   UNL     1      74.495  47.329   8.442  1.00  0.00     0.012 C 
ENDROOT
BRANCH   1   3
ATOM      3  C   UNL     1      72.259  47.881   7.487  1.00  0.00    -0.028 C 
ATOM      4  C   UNL     1      71.780  48.269   6.272  1.00  0.00    -0.027 C 
BRANCH   4   5
ATOM      5  C   UNL     1      70.789  49.347   5.868  1.00  0.00     0.014 C 
BRANCH   5   6
ATOM      6  C   UNL     1      69.660  49.257   6.968  1.00  0.00     0.004 C 
ATOM      7  C   UNL     1      68.620  48.122   6.809  1.00  0.00     0.004 C 
ENDBRANCH   5   6
BRANCH   5   8
ATOM      8  C   UNL     1      70.342  49.264   4.367  1.00  0.00    -0.011 C 
ATOM      9  C   UNL     1      71.390  48.521   3.524  1.00  0.00     0.008 C 
ATOM     10  C   UNL     1      69.878  50.529   3.722  1.00  0.00     0.008 C 
ENDBRANCH   5   8
ENDBRANCH   4   5
ENDBRANCH   1   3
BRANCH   1  11
ATOM     11  C   UNL     1      72.604  45.526   8.240  1.00  0.00     0.002 C 
ATOM     12  C   UNL     1      71.058  45.635   8.115  1.00  0.00     0.005 C 
ATOM     13  C   UNL     1      72.959  44.069   7.745  1.00  0.00    -0.026 C 
ATOM     14  C   UNL     1      70.627  44.591   7.102  1.00  0.00     0.005 C 
ATOM     15  C   UNL     1      71.575  43.450   7.381  1.00  0.00    -0.001 C 
ATOM     16  C   UNL     1      73.862  43.952   6.526  1.00  0.00     0.007 C 
ATOM     17  C   UNL     1      73.546  43.215   8.934  1.00  0.00     0.012 C 
ATOM     18  C   UNL     1      71.559  42.189   6.443  1.00  0.00     0.000 C 
ATOM     19  C   UNL     1      74.104  42.529   6.036  1.00  0.00     0.005 C 
ATOM     20  C   UNL     1      72.803  41.928   5.573  1.00  0.00     0.003 C 
ATOM     21  C   UNL     1      70.335  42.083   5.557  1.00  0.00     0.031 C 
ATOM     22  C   UNL     1      72.845  40.429   5.220  1.00  0.00    -0.008 C 
ATOM     23  C   UNL     1      70.322  40.747   4.868  1.00  0.00    -0.027 C 
ATOM     24  C   UNL     1      71.419  39.950   4.775  1.00  0.00    -0.065 C 
ATOM     25  C   UNL     1      73.244  39.566   6.466  1.00  0.00     0.014 C 
ATOM     26  C   UNL     1      73.891  40.229   4.093  1.00  0.00     0.016 C 
ATOM     27  C   UNL     1      71.268  38.482   4.432  1.00  0.00     0.063 C 
ATOM     28  C   UNL     1      73.080  38.051   6.199  1.00  0.00     0.033 C 
ATOM     29  C   UNL     1      71.707  37.670   5.666  1.00  0.00     0.118 C 
BRANCH  29  30
ATOM     30  O   UNL     1      70.778  37.693   6.724  1.00  0.00    -0.393 OA
ATOM     31  H   UNL     1      71.270  37.953   7.562  1.00  0.00     0.210 HD
ENDBRANCH  29  30
ENDBRANCH   1  11
TORSDOF 6
ENDMDL
MODEL 2
REMARK VINA RESULT:    -6.090      1.533      2.793
REMARK INTER + INTRA:          -9.295
REMARK INTER:                  -8.408
REMARK INTRA:                  -0.886
REMARK UNBOUND:                -1.247
REMARK SMILES CC[C@@H](C=C[C@@H](C)[C@H]1CC[C@H]2[C@H]3CC=C4C[C@H](O)CC[C@]4(C)[C@@H]3CC[C@@]12C)C(C)C
REMARK SMILES IDX 6 1 7 2 5 3 4 4 3 5 2 6 1 7 28 8 29 9 30 10 8 11 9 12 26 13
REMARK SMILES IDX 10 14 11 15 25 16 27 17 12 18 24 19 23 20 13 21 21 22 14 23
REMARK SMILES IDX 15 24 20 25 22 26 16 27 19 28 17 29 18 30
REMARK H PARENT 18 31
REMARK Flexibility Score: inf
ROOT
ATOM      1  C   UNL     1      73.448  47.038   7.795  1.00  0.00     0.012 C 
ATOM      2  C   UNL     1      72.272  46.854   8.755  1.00  0.00     0.012 C 
ENDROOT
BRANCH   1   3
ATOM      3  C   UNL     1      73.093  48.053   6.729  1.00  0.00    -0.028 C 
ATOM      4  C   UNL     1      71.813  48.242   6.300  1.00  0.00    -0.027 C 
BRANCH   4   5
ATOM      5  C   UNL     1      71.223  49.140   5.227  1.00  0.00     0.014 C 
BRANCH   5   6
ATOM      6  C   UNL     1      69.697  49.246   5.615  1.00  0.00     0.004 C 
ATOM      7  C   UNL     1      69.246  48.486   6.886  1.00  0.00     0.004 C 
ENDBRANCH   5   6
BRANCH   5   8
ATOM      8  C   UNL     1      71.566  48.686   3.766  1.00  0.00    -0.011 C 
ATOM      9  C   UNL     1      70.637  49.365   2.749  1.00  0.00     0.008 C 
ATOM     10  C   UNL     1      71.707  47.218   3.522  1.00  0.00     0.008 C 
ENDBRANCH   5   8
ENDBRANCH   4   5
ENDBRANCH   1   3
BRANCH   1  11
ATOM     11  C   UNL     1      73.931  45.727   7.068  1.00  0.00     0.002 C 
ATOM     12  C   UNL     1      74.901  44.916   7.971  1.00  0.00     0.005 C 
ATOM     13  C   UNL     1      72.904  44.666   6.504  1.00  0.00    -0.026 C 
ATOM     14  C   UNL     1      74.169  43.648   8.371  1.00  0.00     0.005 C 
ATOM     15  C   UNL     1      73.378  43.318   7.127  1.00  0.00    -0.001 C 
ATOM     16  C   UNL     1      71.439  44.861   6.864  1.00  0.00     0.007 C 
ATOM     17  C   UNL     1      73.061  44.530   4.941  1.00  0.00     0.012 C 
ATOM     18  C   UNL     1      72.356  42.125   7.159  1.00  0.00     0.000 C 
ATOM     19  C   UNL     1      70.501  43.766   6.369  1.00  0.00     0.005 C 
ATOM     20  C   UNL     1      70.859  42.460   7.031  1.00  0.00     0.003 C 
ATOM     21  C   UNL     1      72.528  41.184   8.334  1.00  0.00     0.031 C 
ATOM     22  C   UNL     1      70.124  41.216   6.500  1.00  0.00    -0.008 C 
ATOM     23  C   UNL     1      71.651  39.977   8.151  1.00  0.00    -0.027 C 
ATOM     24  C   UNL     1      70.614  39.942   7.273  1.00  0.00    -0.065 C 
ATOM     25  C   UNL     1      70.442  40.976   4.984  1.00  0.00     0.014 C 
ATOM     26  C   UNL     1      68.601  41.442   6.682  1.00  0.00     0.016 C 
ATOM     27  C   UNL     1      70.023  38.613   6.845  1.00  0.00     0.063 C 
ATOM     28  C   UNL     1      69.896  39.616   4.485  1.00  0.00     0.033 C 
ATOM     29  C   UNL     1      70.322  38.435   5.344  1.00  0.00     0.118 C 
BRANCH  29  30
ATOM     30  O   UNL     1      71.666  38.121   5.063  1.00  0.00    -0.393 OA
ATOM     31  H   UNL     1      71.770  38.071   4.064  1.00  0.00     0.210 HD
ENDBRANCH  29  30
ENDBRANCH   1  11
TORSDOF 6
ENDMDL
MODEL 3
REMARK VINA RESULT:    -5.978      1.958      2.965
REMARK INTER + INTRA:          -9.147
REMARK INTER:                  -8.053
REMARK INTRA:                  -1.094
REMARK UNBOUND:                -1.247
REMARK SMILES CC[C@@H](C=C[C@@H](C)[C@H]1CC[C@H]2[C@H]3CC=C4C[C@H](O)CC[C@]4(C)[C@@H]3CC[C@@]12C)C(C)C
REMARK SMILES IDX 6 1 7 2 5 3 4 4 3 5 2 6 1 7 28 8 29 9 30 10 8 11 9 12 26 13
REMARK SMILES IDX 10 14 11 15 25 16 27 17 12 18 24 19 23 20 13 21 21 22 14 23
REMARK SMILES IDX 15 24 20 25 22 26 16 27 19 28 17 29 18 30
REMARK H PARENT 18 31
REMARK Flexibility Score: inf
ROOT
ATOM      1  C   UNL     1      72.499  46.041   5.789  1.00  0.00     0.012 C 
ATOM      2  C   UNL     1      73.690  46.906   5.374  1.00  0.00     0.012 C 
ENDROOT
BRANCH   1   3
ATOM      3  C   UNL     1      71.405  46.910   6.373  1.00  0.00    -0.028 C 
ATOM      4  C   UNL     1      71.410  48.268   6.251  1.00  0.00    -0.027 C 
BRANCH   4   5
ATOM      5  C   UNL     1      70.476  49.339   6.787  1.00  0.00     0.014 C 
BRANCH   5   6
ATOM      6  C   UNL     1      70.238  50.289   5.549  1.00  0.00     0.004 C 
ATOM      7  C   UNL     1      70.251  49.629   4.149  1.00  0.00     0.004 C 
ENDBRANCH   5   6
BRANCH   5   8
ATOM      8  C   UNL     1      70.971  50.000   8.119  1.00  0.00    -0.011 C 
ATOM      9  C   UNL     1      72.499  49.907   8.242  1.00  0.00     0.008 C 
ATOM     10  C   UNL     1      70.269  49.608   9.378  1.00  0.00     0.008 C 
ENDBRANCH   5   8
ENDBRANCH   4   5
ENDBRANCH   1   3
BRANCH   1  11
ATOM     11  C   UNL     1      72.826  44.911   6.837  1.00  0.00     0.002 C 
ATOM     12  C   UNL     1      72.192  45.235   8.218  1.00  0.00     0.005 C 
ATOM     13  C   UNL     1      72.469  43.397   6.561  1.00  0.00    -0.026 C 
ATOM     14  C   UNL     1      71.087  44.219   8.442  1.00  0.00     0.005 C 
ATOM     15  C   UNL     1      71.661  42.967   7.823  1.00  0.00    -0.001 C 
ATOM     16  C   UNL     1      71.621  43.097   5.334  1.00  0.00     0.007 C 
ATOM     17  C   UNL     1      73.781  42.522   6.535  1.00  0.00     0.012 C 
ATOM     18  C   UNL     1      70.764  41.680   7.717  1.00  0.00     0.000 C 
ATOM     19  C   UNL     1      71.232  41.633   5.160  1.00  0.00     0.005 C 
ATOM     20  C   UNL     1      70.358  41.205   6.310  1.00  0.00     0.003 C 
ATOM     21  C   UNL     1      69.519  41.712   8.581  1.00  0.00     0.031 C 
ATOM     22  C   UNL     1      70.030  39.702   6.379  1.00  0.00    -0.008 C 
ATOM     23  C   UNL     1      68.857  40.362   8.565  1.00  0.00    -0.027 C 
ATOM     24  C   UNL     1      69.132  39.413   7.633  1.00  0.00    -0.065 C 
ATOM     25  C   UNL     1      71.333  38.847   6.549  1.00  0.00     0.014 C 
ATOM     26  C   UNL     1      69.316  39.303   5.062  1.00  0.00     0.016 C 
ATOM     27  C   UNL     1      68.750  37.967   7.881  1.00  0.00     0.063 C 
ATOM     28  C   UNL     1      71.017  37.360   6.842  1.00  0.00     0.033 C 
ATOM     29  C   UNL     1      70.054  37.157   8.002  1.00  0.00     0.118 C 
BRANCH  29  30
ATOM     30  O   UNL     1      70.742  37.361   9.213  1.00  0.00    -0.393 OA
ATOM     31  H   UNL     1      71.582  36.809   9.190  1.00  0.00     0.210 HD
ENDBRANCH  29  30
ENDBRANCH   1  11
TORSDOF 6
ENDMDL
MODEL 4
REMARK VINA RESULT:    -5.948      2.296      4.288
REMARK INTER + INTRA:          -9.108
REMARK INTER:                  -7.267
REMARK INTRA:                  -1.841
REMARK UNBOUND:                -1.247
REMARK SMILES CC[C@@H](C=C[C@@H](C)[C@H]1CC[C@H]2[C@H]3CC=C4C[C@H](O)CC[C@]4(C)[C@@H]3CC[C@@]12C)C(C)C
REMARK SMILES IDX 6 1 7 2 5 3 4 4 3 5 2 6 1 7 28 8 29 9 30 10 8 11 9 12 26 13
REMARK SMILES IDX 10 14 11 15 25 16 27 17 12 18 24 19 23 20 13 21 21 22 14 23
REMARK SMILES IDX 15 24 20 25 22 26 16 27 19 28 17 29 18 30
REMARK H PARENT 18 31
REMARK Flexibility Score: inf
ROOT
ATOM      1  C   UNL     1      71.559  49.450   8.127  1.00  0.00     0.012 C 
ATOM      2  C   UNL     1      71.916  50.935   8.223  1.00  0.00     0.012 C 
ENDROOT
BRANCH   1   3
ATOM      3  C   UNL     1      70.625  49.068   9.256  1.00  0.00    -0.028 C 
ATOM      4  C   UNL     1      69.497  48.332   9.051  1.00  0.00    -0.027 C 
BRANCH   4   5
ATOM      5  C   UNL     1      68.395  47.879   9.993  1.00  0.00     0.014 C 
BRANCH   5   6
ATOM      6  C   UNL     1      68.565  46.311  10.050  1.00  0.00     0.004 C 
ATOM      7  C   UNL     1      68.908  45.597   8.720  1.00  0.00     0.004 C 
ENDBRANCH   5   6
BRANCH   5   8
ATOM      8  C   UNL     1      66.978  48.439   9.623  1.00  0.00    -0.011 C 
ATOM      9  C   UNL     1      66.816  49.886  10.111  1.00  0.00     0.008 C 
ATOM     10  C   UNL     1      65.798  47.585   9.957  1.00  0.00     0.008 C 
ENDBRANCH   5   8
ENDBRANCH   4   5
ENDBRANCH   1   3
BRANCH   1  11
ATOM     11  C   UNL     1      72.786  48.464   8.163  1.00  0.00     0.002 C 
ATOM     12  C   UNL     1      73.086  48.003   9.616  1.00  0.00     0.005 C 
ATOM     13  C   UNL     1      72.814  47.144   7.295  1.00  0.00    -0.026 C 
ATOM     14  C   UNL     1      72.730  46.530   9.690  1.00  0.00     0.005 C 
ATOM     15  C   UNL     1      73.141  46.023   8.328  1.00  0.00    -0.001 C 
ATOM     16  C   UNL     1      71.530  46.761   6.575  1.00  0.00     0.007 C 
ATOM     17  C   UNL     1      74.013  47.188   6.271  1.00  0.00     0.012 C 
ATOM     18  C   UNL     1      72.814  44.539   7.928  1.00  0.00     0.000 C 
ATOM     19  C   UNL     1      71.583  45.437   5.822  1.00  0.00     0.005 C 
ATOM     20  C   UNL     1      71.791  44.309   6.800  1.00  0.00     0.003 C 
ATOM     21  C   UNL     1      72.438  43.645   9.092  1.00  0.00     0.031 C 
ATOM     22  C   UNL     1      72.051  42.923   6.181  1.00  0.00    -0.008 C 
ATOM     23  C   UNL     1      72.357  42.217   8.630  1.00  0.00    -0.027 C 
ATOM     24  C   UNL     1      72.264  41.867   7.320  1.00  0.00    -0.065 C 
ATOM     25  C   UNL     1      73.358  42.928   5.316  1.00  0.00     0.014 C 
ATOM     26  C   UNL     1      70.838  42.561   5.286  1.00  0.00     0.016 C 
ATOM     27  C   UNL     1      72.578  40.449   6.886  1.00  0.00     0.063 C 
ATOM     28  C   UNL     1      73.760  41.502   4.866  1.00  0.00     0.033 C 
ATOM     29  C   UNL     1      73.843  40.501   6.008  1.00  0.00     0.118 C 
BRANCH  29  30
ATOM     30  O   UNL     1      75.030  40.724   6.731  1.00  0.00    -0.393 OA
ATOM     31  H   UNL     1      74.804  40.702   7.711  1.00  0.00     0.210 HD
ENDBRANCH  29  30
ENDBRANCH   1  11
TORSDOF 6
ENDMDL
MODEL 5
REMARK VINA RESULT:    -5.913      2.717      8.060
REMARK INTER + INTRA:          -9.061
REMARK INTER:                  -7.211
REMARK INTRA:                  -1.851
REMARK UNBOUND:                -1.247
REMARK SMILES CC[C@@H](C=C[C@@H](C)[C@H]1CC[C@H]2[C@H]3CC=C4C[C@H](O)CC[C@]4(C)[C@@H]3CC[C@@]12C)C(C)C
REMARK SMILES IDX 6 1 7 2 5 3 4 4 3 5 2 6 1 7 28 8 29 9 30 10 8 11 9 12 26 13
REMARK SMILES IDX 10 14 11 15 25 16 27 17 12 18 24 19 23 20 13 21 21 22 14 23
REMARK SMILES IDX 15 24 20 25 22 26 16 27 19 28 17 29 18 30
REMARK H PARENT 18 31
REMARK Flexibility Score: inf
ROOT
ATOM      1  C   UNL     1      70.249  40.174   5.556  1.00  0.00     0.012 C 
ATOM      2  C   UNL     1      69.196  39.066   5.499  1.00  0.00     0.012 C 
ENDROOT
BRANCH   1   3
ATOM      3  C   UNL     1      71.628  39.570   5.717  1.00  0.00    -0.028 C 
ATOM      4  C   UNL     1      72.692  39.971   4.965  1.00  0.00    -0.027 C 
BRANCH   4   5
ATOM      5  C   UNL     1      74.130  39.488   4.903  1.00  0.00     0.014 C 
BRANCH   5   6
ATOM      6  C   UNL     1      74.962  40.805   4.646  1.00  0.00     0.004 C 
ATOM      7  C   UNL     1      74.587  42.045   5.493  1.00  0.00     0.004 C 
ENDBRANCH   5   6
BRANCH   5   8
ATOM      8  C   UNL     1      74.352  38.291   3.916  1.00  0.00    -0.011 C 
ATOM      9  C   UNL     1      73.655  38.551   2.573  1.00  0.00     0.008 C 
ATOM     10  C   UNL     1      74.093  36.916   4.440  1.00  0.00     0.008 C 
ENDBRANCH   5   8
ENDBRANCH   4   5
ENDBRANCH   1   3
BRANCH   1  11
ATOM     11  C   UNL     1      70.048  41.229   6.708  1.00  0.00     0.002 C 
ATOM     12  C   UNL     1      70.848  40.823   7.978  1.00  0.00     0.005 C 
ATOM     13  C   UNL     1      70.362  42.762   6.492  1.00  0.00    -0.026 C 
ATOM     14  C   UNL     1      71.968  41.836   8.131  1.00  0.00     0.005 C 
ATOM     15  C   UNL     1      71.318  43.119   7.671  1.00  0.00    -0.001 C 
ATOM     16  C   UNL     1      71.052  43.152   5.193  1.00  0.00     0.007 C 
ATOM     17  C   UNL     1      69.053  43.621   6.685  1.00  0.00     0.012 C 
ATOM     18  C   UNL     1      72.189  44.420   7.542  1.00  0.00     0.000 C 
ATOM     19  C   UNL     1      71.410  44.628   5.070  1.00  0.00     0.005 C 
ATOM     20  C   UNL     1      72.418  44.992   6.131  1.00  0.00     0.003 C 
ATOM     21  C   UNL     1      73.530  44.348   8.243  1.00  0.00     0.031 C 
ATOM     22  C   UNL     1      72.745  46.491   6.259  1.00  0.00    -0.008 C 
ATOM     23  C   UNL     1      74.180  45.704   8.236  1.00  0.00    -0.027 C 
ATOM     24  C   UNL     1      73.789  46.708   7.409  1.00  0.00    -0.065 C 
ATOM     25  C   UNL     1      71.469  47.317   6.643  1.00  0.00     0.014 C 
ATOM     26  C   UNL     1      73.290  46.983   4.893  1.00  0.00     0.016 C 
ATOM     27  C   UNL     1      74.192  48.139   7.704  1.00  0.00     0.063 C 
ATOM     28  C   UNL     1      71.812  48.785   6.993  1.00  0.00     0.033 C 
ATOM     29  C   UNL     1      72.909  48.924   8.037  1.00  0.00     0.118 C 
BRANCH  29  30
ATOM     30  O   UNL     1      72.376  48.633   9.307  1.00  0.00    -0.393 OA
ATOM     31  H   UNL     1      71.432  48.976   9.333  1.00  0.00     0.210 HD
ENDBRANCH  29  30
ENDBRANCH   1  11
TORSDOF 6
ENDMDL
MODEL 6
REMARK VINA RESULT:    -5.814      1.733      2.648
REMARK INTER + INTRA:          -8.931
REMARK INTER:                  -7.943
REMARK INTRA:                  -0.988
REMARK UNBOUND:                -1.247
REMARK SMILES CC[C@@H](C=C[C@@H](C)[C@H]1CC[C@H]2[C@H]3CC=C4C[C@H](O)CC[C@]4(C)[C@@H]3CC[C@@]12C)C(C)C
REMARK SMILES IDX 6 1 7 2 5 3 4 4 3 5 2 6 1 7 28 8 29 9 30 10 8 11 9 12 26 13
REMARK SMILES IDX 10 14 11 15 25 16 27 17 12 18 24 19 23 20 13 21 21 22 14 23
REMARK SMILES IDX 15 24 20 25 22 26 16 27 19 28 17 29 18 30
REMARK H PARENT 18 31
REMARK Flexibility Score: inf
ROOT
ATOM      1  C   UNL     1      73.122  48.171   8.168  1.00  0.00     0.012 C 
ATOM      2  C   UNL     1      72.714  49.645   8.206  1.00  0.00     0.012 C 
ENDROOT
BRANCH   1   3
ATOM      3  C   UNL     1      73.230  47.701   6.733  1.00  0.00    -0.028 C 
ATOM      4  C   UNL     1      72.446  48.205   5.739  1.00  0.00    -0.027 C 
BRANCH   4   5
ATOM      5  C   UNL     1      72.330  47.863   4.264  1.00  0.00     0.014 C 
BRANCH   5   6
ATOM      6  C   UNL     1      71.164  48.794   3.748  1.00  0.00     0.004 C 
ATOM      7  C   UNL     1      70.238  49.414   4.822  1.00  0.00     0.004 C 
ENDBRANCH   5   6
BRANCH   5   8
ATOM      8  C   UNL     1      72.205  46.326   3.981  1.00  0.00    -0.011 C 
ATOM      9  C   UNL     1      73.541  45.612   4.233  1.00  0.00     0.008 C 
ATOM     10  C   UNL     1      71.571  45.918   2.691  1.00  0.00     0.008 C 
ENDBRANCH   5   8
ENDBRANCH   4   5
ENDBRANCH   1   3
BRANCH   1  11
ATOM     11  C   UNL     1      72.150  47.188   8.924  1.00  0.00     0.002 C 
ATOM     12  C   UNL     1      70.665  47.548   8.640  1.00  0.00     0.005 C 
ATOM     13  C   UNL     1      72.242  45.623   8.733  1.00  0.00    -0.026 C 
ATOM     14  C   UNL     1      70.097  46.422   7.796  1.00  0.00     0.005 C 
ATOM     15  C   UNL     1      70.788  45.204   8.362  1.00  0.00    -0.001 C 
ATOM     16  C   UNL     1      73.172  45.111   7.643  1.00  0.00     0.007 C 
ATOM     17  C   UNL     1      72.585  44.924  10.105  1.00  0.00     0.012 C 
ATOM     18  C   UNL     1      70.579  43.809   7.668  1.00  0.00     0.000 C 
ATOM     19  C   UNL     1      73.161  43.600   7.442  1.00  0.00     0.005 C 
ATOM     20  C   UNL     1      71.795  43.165   6.978  1.00  0.00     0.003 C 
ATOM     21  C   UNL     1      69.409  43.756   6.708  1.00  0.00     0.031 C 
ATOM     22  C   UNL     1      71.564  41.644   6.905  1.00  0.00    -0.008 C 
ATOM     23  C   UNL     1      69.175  42.337   6.271  1.00  0.00    -0.027 C 
ATOM     24  C   UNL     1      70.100  41.353   6.425  1.00  0.00    -0.065 C 
ATOM     25  C   UNL     1      71.718  40.981   8.318  1.00  0.00     0.014 C 
ATOM     26  C   UNL     1      72.613  41.044   5.933  1.00  0.00     0.016 C 
ATOM     27  C   UNL     1      69.686  39.897   6.339  1.00  0.00     0.063 C 
ATOM     28  C   UNL     1      71.277  39.498   8.313  1.00  0.00     0.033 C 
ATOM     29  C   UNL     1      69.888  39.274   7.734  1.00  0.00     0.118 C 
BRANCH  29  30
ATOM     30  O   UNL     1      68.925  39.670   8.681  1.00  0.00    -0.393 OA
ATOM     31  H   UNL     1      68.401  40.434   8.289  1.00  0.00     0.210 HD
ENDBRANCH  29  30
ENDBRANCH   1  11
TORSDOF 6
ENDMDL
MODEL 7
REMARK VINA RESULT:    -5.777      1.811      2.960
REMARK INTER + INTRA:          -8.882
REMARK INTER:                  -7.904
REMARK INTRA:                  -0.978
REMARK UNBOUND:                -1.247
REMARK SMILES CC[C@@H](C=C[C@@H](C)[C@H]1CC[C@H]2[C@H]3CC=C4C[C@H](O)CC[C@]4(C)[C@@H]3CC[C@@]12C)C(C)C
REMARK SMILES IDX 6 1 7 2 5 3 4 4 3 5 2 6 1 7 28 8 29 9 30 10 8 11 9 12 26 13
REMARK SMILES IDX 10 14 11 15 25 16 27 17 12 18 24 19 23 20 13 21 21 22 14 23
REMARK SMILES IDX 15 24 20 25 22 26 16 27 19 28 17 29 18 30
REMARK H PARENT 18 31
REMARK Flexibility Score: inf
ROOT
ATOM      1  C   UNL     1      70.056  45.742   9.625  1.00  0.00     0.012 C 
ATOM      2  C   UNL     1      69.339  46.998  10.125  1.00  0.00     0.012 C 
ENDROOT
BRANCH   1   3
ATOM      3  C   UNL     1      70.991  46.097   8.487  1.00  0.00    -0.028 C 
ATOM      4  C   UNL     1      71.018  47.340   7.928  1.00  0.00    -0.027 C 
BRANCH   4   5
ATOM      5  C   UNL     1      71.809  47.912   6.764  1.00  0.00     0.014 C 
BRANCH   5   6
ATOM      6  C   UNL     1      73.106  48.505   7.442  1.00  0.00     0.004 C 
ATOM      7  C   UNL     1      72.893  49.437   8.659  1.00  0.00     0.004 C 
ENDBRANCH   5   6
BRANCH   5   8
ATOM      8  C   UNL     1      70.975  48.867   5.843  1.00  0.00    -0.011 C 
ATOM      9  C   UNL     1      69.522  48.969   6.331  1.00  0.00     0.008 C 
ATOM     10  C   UNL     1      71.071  48.649   4.368  1.00  0.00     0.008 C 
ENDBRANCH   5   8
ENDBRANCH   4   5
ENDBRANCH   1   3
BRANCH   1  11
ATOM     11  C   UNL     1      69.110  44.585   9.126  1.00  0.00     0.002 C 
ATOM     12  C   UNL     1      68.437  44.961   7.777  1.00  0.00     0.005 C 
ATOM     13  C   UNL     1      69.638  43.109   8.930  1.00  0.00    -0.026 C 
ATOM     14  C   UNL     1      69.032  44.047   6.722  1.00  0.00     0.005 C 
ATOM     15  C   UNL     1      69.213  42.750   7.474  1.00  0.00    -0.001 C 
ATOM     16  C   UNL     1      71.139  42.889   9.050  1.00  0.00     0.007 C 
ATOM     17  C   UNL     1      68.871  42.121   9.890  1.00  0.00     0.012 C 
ATOM     18  C   UNL     1      69.944  41.548   6.772  1.00  0.00     0.000 C 
ATOM     19  C   UNL     1      71.607  41.466   8.768  1.00  0.00     0.005 C 
ATOM     20  C   UNL     1      71.310  41.114   7.333  1.00  0.00     0.003 C 
ATOM     21  C   UNL     1      70.075  41.688   5.269  1.00  0.00     0.031 C 
ATOM     22  C   UNL     1      71.555  39.645   6.938  1.00  0.00    -0.008 C 
ATOM     23  C   UNL     1      70.590  40.403   4.683  1.00  0.00    -0.027 C 
ATOM     24  C   UNL     1      71.185  39.435   5.429  1.00  0.00    -0.065 C 
ATOM     25  C   UNL     1      70.641  38.678   7.768  1.00  0.00     0.014 C 
ATOM     26  C   UNL     1      73.044  39.315   7.212  1.00  0.00     0.016 C 
ATOM     27  C   UNL     1      71.324  38.028   4.881  1.00  0.00     0.063 C 
ATOM     28  C   UNL     1      70.706  37.225   7.239  1.00  0.00     0.033 C 
ATOM     29  C   UNL     1      70.444  37.105   5.745  1.00  0.00     0.118 C 
BRANCH  29  30
ATOM     30  O   UNL     1      69.064  37.245   5.506  1.00  0.00    -0.393 OA
ATOM     31  H   UNL     1      68.891  38.197   5.234  1.00  0.00     0.210 HD
ENDBRANCH  29  30
ENDBRANCH   1  11
TORSDOF 6
ENDMDL
MODEL 8
REMARK VINA RESULT:    -5.711      2.056      3.456
REMARK INTER + INTRA:          -8.794
REMARK INTER:                  -6.787
REMARK INTRA:                  -2.007
REMARK UNBOUND:                -1.247
REMARK SMILES CC[C@@H](C=C[C@@H](C)[C@H]1CC[C@H]2[C@H]3CC=C4C[C@H](O)CC[C@]4(C)[C@@H]3CC[C@@]12C)C(C)C
REMARK SMILES IDX 6 1 7 2 5 3 4 4 3 5 2 6 1 7 28 8 29 9 30 10 8 11 9 12 26 13
REMARK SMILES IDX 10 14 11 15 25 16 27 17 12 18 24 19 23 20 13 21 21 22 14 23
REMARK SMILES IDX 15 24 20 25 22 26 16 27 19 28 17 29 18 30
REMARK H PARENT 18 31
REMARK Flexibility Score: inf
ROOT
ATOM      1  C   UNL     1      73.230  47.234   5.510  1.00  0.00     0.012 C 
ATOM      2  C   UNL     1      74.287  48.140   4.875  1.00  0.00     0.012 C 
ENDROOT
BRANCH   1   3
ATOM      3  C   UNL     1      72.362  48.036   6.458  1.00  0.00    -0.028 C 
ATOM      4  C   UNL     1      71.004  47.923   6.473  1.00  0.00    -0.027 C 
BRANCH   4   5
ATOM      5  C   UNL     1      69.935  48.646   7.273  1.00  0.00     0.014 C 
BRANCH   5   6
ATOM      6  C   UNL     1      70.753  49.616   8.212  1.00  0.00     0.004 C 
ATOM      7  C   UNL     1      70.873  49.212   9.701  1.00  0.00     0.004 C 
ENDBRANCH   5   6
BRANCH   5   8
ATOM      8  C   UNL     1      68.900  47.686   7.955  1.00  0.00    -0.011 C 
ATOM      9  C   UNL     1      69.457  46.257   8.049  1.00  0.00     0.008 C 
ATOM     10  C   UNL     1      67.496  47.722   7.447  1.00  0.00     0.008 C 
ENDBRANCH   5   8
ENDBRANCH   4   5
ENDBRANCH   1   3
BRANCH   1  11
ATOM     11  C   UNL     1      73.799  46.000   6.307  1.00  0.00     0.002 C 
ATOM     12  C   UNL     1      73.976  46.345   7.812  1.00  0.00     0.005 C 
ATOM     13  C   UNL     1      73.077  44.595   6.285  1.00  0.00    -0.026 C 
ATOM     14  C   UNL     1      72.943  45.532   8.571  1.00  0.00     0.005 C 
ATOM     15  C   UNL     1      72.905  44.239   7.793  1.00  0.00    -0.001 C 
ATOM     16  C   UNL     1      71.707  44.531   5.627  1.00  0.00     0.007 C 
ATOM     17  C   UNL     1      74.027  43.502   5.660  1.00  0.00     0.012 C 
ATOM     18  C   UNL     1      71.843  43.144   8.172  1.00  0.00     0.000 C 
ATOM     19  C   UNL     1      71.015  43.174   5.707  1.00  0.00     0.005 C 
ATOM     20  C   UNL     1      70.733  42.838   7.149  1.00  0.00     0.003 C 
ATOM     21  C   UNL     1      71.193  43.343   9.526  1.00  0.00     0.031 C 
ATOM     22  C   UNL     1      70.203  41.417   7.415  1.00  0.00    -0.008 C 
ATOM     23  C   UNL     1      70.364  42.138   9.873  1.00  0.00    -0.027 C 
ATOM     24  C   UNL     1      69.977  41.216   8.954  1.00  0.00    -0.065 C 
ATOM     25  C   UNL     1      71.243  40.333   6.964  1.00  0.00     0.014 C 
ATOM     26  C   UNL     1      68.887  41.237   6.616  1.00  0.00     0.016 C 
ATOM     27  C   UNL     1      69.496  39.850   9.400  1.00  0.00     0.063 C 
ATOM     28  C   UNL     1      70.832  38.912   7.420  1.00  0.00     0.033 C 
ATOM     29  C   UNL     1      70.521  38.812   8.906  1.00  0.00     0.118 C 
BRANCH  29  30
ATOM     30  O   UNL     1      71.728  38.813   9.630  1.00  0.00    -0.393 OA
ATOM     31  H   UNL     1      72.484  38.726   8.973  1.00  0.00     0.210 HD
ENDBRANCH  29  30
ENDBRANCH   1  11
TORSDOF 6
ENDMDL
MODEL 9
REMARK VINA RESULT:    -5.685      2.655      8.069
REMARK INTER + INTRA:          -8.759
REMARK INTER:                  -7.950
REMARK INTRA:                  -0.810
REMARK UNBOUND:                -1.247
REMARK SMILES CC[C@@H](C=C[C@@H](C)[C@H]1CC[C@H]2[C@H]3CC=C4C[C@H](O)CC[C@]4(C)[C@@H]3CC[C@@]12C)C(C)C
REMARK SMILES IDX 6 1 7 2 5 3 4 4 3 5 2 6 1 7 28 8 29 9 30 10 8 11 9 12 26 13
REMARK SMILES IDX 10 14 11 15 25 16 27 17 12 18 24 19 23 20 13 21 21 22 14 23
REMARK SMILES IDX 15 24 20 25 22 26 16 27 19 28 17 29 18 30
REMARK H PARENT 18 31
REMARK Flexibility Score: inf
ROOT
ATOM      1  C   UNL     1      74.688  41.781   6.662  1.00  0.00     0.012 C 
ATOM      2  C   UNL     1      74.903  42.624   5.404  1.00  0.00     0.012 C 
ENDROOT
BRANCH   1   3
ATOM      3  C   UNL     1      73.814  40.587   6.343  1.00  0.00    -0.028 C 
ATOM      4  C   UNL     1      72.783  40.655   5.454  1.00  0.00    -0.027 C 
BRANCH   4   5
ATOM      5  C   UNL     1      71.749  39.631   5.018  1.00  0.00     0.014 C 
BRANCH   5   6
ATOM      6  C   UNL     1      72.394  38.961   3.742  1.00  0.00     0.004 C 
ATOM      7  C   UNL     1      73.401  37.812   3.990  1.00  0.00     0.004 C 
ENDBRANCH   5   6
BRANCH   5   8
ATOM      8  C   UNL     1      70.303  40.217   4.871  1.00  0.00    -0.011 C 
ATOM      9  C   UNL     1      70.282  41.716   5.207  1.00  0.00     0.008 C 
ATOM     10  C   UNL     1      69.191  39.466   5.530  1.00  0.00     0.008 C 
ENDBRANCH   5   8
ENDBRANCH   4   5
ENDBRANCH   1   3
BRANCH   1  11
ATOM     11  C   UNL     1      74.034  42.545   7.875  1.00  0.00     0.002 C 
ATOM     12  C   UNL     1      75.125  43.122   8.820  1.00  0.00     0.005 C 
ATOM     13  C   UNL     1      73.008  43.725   7.656  1.00  0.00    -0.026 C 
ATOM     14  C   UNL     1      75.069  44.632   8.681  1.00  0.00     0.005 C 
ATOM     15  C   UNL     1      73.592  44.892   8.508  1.00  0.00    -0.001 C 
ATOM     16  C   UNL     1      72.825  44.228   6.232  1.00  0.00     0.007 C 
ATOM     17  C   UNL     1      71.608  43.356   8.280  1.00  0.00     0.012 C 
ATOM     18  C   UNL     1      73.100  46.351   8.191  1.00  0.00     0.000 C 
ATOM     19  C   UNL     1      71.890  45.424   6.084  1.00  0.00     0.005 C 
ATOM     20  C   UNL     1      72.473  46.610   6.809  1.00  0.00     0.003 C 
ATOM     21  C   UNL     1      74.131  47.430   8.449  1.00  0.00     0.031 C 
ATOM     22  C   UNL     1      71.561  47.847   6.911  1.00  0.00    -0.008 C 
ATOM     23  C   UNL     1      73.492  48.785   8.318  1.00  0.00    -0.027 C 
ATOM     24  C   UNL     1      72.297  48.983   7.702  1.00  0.00    -0.065 C 
ATOM     25  C   UNL     1      70.250  47.518   7.706  1.00  0.00     0.014 C 
ATOM     26  C   UNL     1      71.196  48.297   5.473  1.00  0.00     0.016 C 
ATOM     27  C   UNL     1      71.523  50.265   7.936  1.00  0.00     0.063 C 
ATOM     28  C   UNL     1      69.424  48.790   8.013  1.00  0.00     0.033 C 
ATOM     29  C   UNL     1      70.227  49.894   8.683  1.00  0.00     0.118 C 
BRANCH  29  30
ATOM     30  O   UNL     1      70.424  49.565  10.037  1.00  0.00    -0.393 OA
ATOM     31  H   UNL     1      71.228  48.963  10.096  1.00  0.00     0.210 HD
ENDBRANCH  29  30
ENDBRANCH   1  11
TORSDOF 6
ENDMDL
