MODEL 1
REMARK VINA RESULT:    -4.191      0.000      0.000
REMARK INTER + INTRA:          -4.191
REMARK INTER:                  -4.191
REMARK INTRA:                   0.000
REMARK UNBOUND:                 0.000
REMARK SMILES CC1(C)O[C@]2(C)CC[C@H]1CC2
REMARK SMILES IDX 1 1 2 2 9 3 10 4 11 5 5 6 4 7 7 8 8 9 6 10 3 11
REMARK H PARENT
REMARK Flexibility Score: inf
ROOT
ATOM      1  C   UNL     1      25.859   1.428  34.707  1.00  0.00     0.042 C 
ATOM      2  C   UNL     1      25.335   0.130  34.057  1.00  0.00     0.066 C 
ATOM      3  C   UNL     1      26.116  -1.125  34.609  1.00  0.00     0.021 C 
ATOM      4  C   UNL     1      25.842  -1.244  36.127  1.00  0.00     0.009 C 
ATOM      5  C   UNL     1      24.314  -1.209  36.371  1.00  0.00     0.035 C 
ATOM      6  C   UNL     1      23.562  -1.158  35.009  1.00  0.00     0.066 C 
ATOM      7  O   UNL     1      23.927   0.038  34.317  1.00  0.00    -0.369 OA
ATOM      8  C   UNL     1      23.981  -2.390  34.155  1.00  0.00     0.035 C 
ATOM      9  C   UNL     1      25.517  -2.397  33.963  1.00  0.00     0.009 C 
ATOM     10  C   UNL     1      22.047  -1.156  35.235  1.00  0.00     0.042 C 
ATOM     11  C   UNL     1      25.532   0.269  32.532  1.00  0.00     0.042 C 
ENDROOT
TORSDOF 0
ENDMDL
MODEL 2
REMARK VINA RESULT:    -4.160      1.193      2.993
REMARK INTER + INTRA:          -4.160
REMARK INTER:                  -4.160
REMARK INTRA:                   0.000
REMARK UNBOUND:                 0.000
REMARK SMILES CC1(C)O[C@]2(C)CC[C@H]1CC2
REMARK SMILES IDX 1 1 2 2 9 3 10 4 11 5 5 6 4 7 7 8 8 9 6 10 3 11
REMARK H PARENT
REMARK Flexibility Score: inf
ROOT
ATOM      1  C   UNL     1      25.495   0.262  32.528  1.00  0.00     0.042 C 
ATOM      2  C   UNL     1      25.234   0.144  34.045  1.00  0.00     0.066 C 
ATOM      3  C   UNL     1      24.137  -0.951  34.339  1.00  0.00     0.021 C 
ATOM      4  C   UNL     1      24.676  -2.324  33.871  1.00  0.00     0.009 C 
ATOM      5  C   UNL     1      26.078  -2.556  34.486  1.00  0.00     0.035 C 
ATOM      6  C   UNL     1      26.437  -1.379  35.440  1.00  0.00     0.066 C 
ATOM      7  O   UNL     1      26.480  -0.165  34.688  1.00  0.00    -0.369 OA
ATOM      8  C   UNL     1      25.338  -1.264  36.535  1.00  0.00     0.035 C 
ATOM      9  C   UNL     1      23.955  -1.062  35.872  1.00  0.00     0.009 C 
ATOM     10  C   UNL     1      27.808  -1.613  36.081  1.00  0.00     0.042 C 
ATOM     11  C   UNL     1      24.769   1.530  34.540  1.00  0.00     0.042 C 
ENDROOT
TORSDOF 0
ENDMDL
MODEL 3
REMARK VINA RESULT:    -3.972      1.633      3.350
REMARK INTER + INTRA:          -3.972
REMARK INTER:                  -3.972
REMARK INTRA:                   0.000
REMARK UNBOUND:                 0.000
REMARK SMILES CC1(C)O[C@]2(C)CC[C@H]1CC2
REMARK SMILES IDX 1 1 2 2 9 3 10 4 11 5 5 6 4 7 7 8 8 9 6 10 3 11
REMARK H PARENT
REMARK Flexibility Score: inf
ROOT
ATOM      1  C   UNL     1      23.979  -1.635  34.281  1.00  0.00     0.042 C 
ATOM      2  C   UNL     1      25.276  -0.799  34.328  1.00  0.00     0.066 C 
ATOM      3  C   UNL     1      25.145   0.376  35.374  1.00  0.00     0.021 C 
ATOM      4  C   UNL     1      24.958  -0.240  36.781  1.00  0.00     0.009 C 
ATOM      5  C   UNL     1      26.077  -1.279  37.034  1.00  0.00     0.035 C 
ATOM      6  C   UNL     1      27.067  -1.292  35.832  1.00  0.00     0.066 C 
ATOM      7  O   UNL     1      26.362  -1.680  34.651  1.00  0.00    -0.369 OA
ATOM      8  C   UNL     1      27.643   0.140  35.636  1.00  0.00     0.035 C 
ATOM      9  C   UNL     1      26.487   1.145  35.416  1.00  0.00     0.009 C 
ATOM     10  C   UNL     1      28.199  -2.293  36.084  1.00  0.00     0.042 C 
ATOM     11  C   UNL     1      25.516  -0.243  32.908  1.00  0.00     0.042 C 
ENDROOT
TORSDOF 0
ENDMDL
MODEL 4
REMARK VINA RESULT:    -3.824      1.175      2.315
REMARK INTER + INTRA:          -3.824
REMARK INTER:                  -3.824
REMARK INTRA:                   0.000
REMARK UNBOUND:                 0.000
REMARK SMILES CC1(C)O[C@]2(C)CC[C@H]1CC2
REMARK SMILES IDX 1 1 2 2 9 3 10 4 11 5 5 6 4 7 7 8 8 9 6 10 3 11
REMARK H PARENT
REMARK Flexibility Score: inf
ROOT
ATOM      1  C   UNL     1      25.921  -1.251  36.826  1.00  0.00     0.042 C 
ATOM      2  C   UNL     1      25.649  -0.324  35.621  1.00  0.00     0.066 C 
ATOM      3  C   UNL     1      25.706  -1.136  34.269  1.00  0.00     0.021 C 
ATOM      4  C   UNL     1      24.575  -2.192  34.284  1.00  0.00     0.009 C 
ATOM      5  C   UNL     1      23.235  -1.497  34.626  1.00  0.00     0.035 C 
ATOM      6  C   UNL     1      23.454   0.039  34.750  1.00  0.00     0.066 C 
ATOM      7  O   UNL     1      24.371   0.297  35.816  1.00  0.00    -0.369 OA
ATOM      8  C   UNL     1      24.057   0.572  33.418  1.00  0.00     0.035 C 
ATOM      9  C   UNL     1      25.377  -0.171  33.105  1.00  0.00     0.009 C 
ATOM     10  C   UNL     1      22.129   0.744  35.056  1.00  0.00     0.042 C 
ATOM     11  C   UNL     1      26.727   0.781  35.640  1.00  0.00     0.042 C 
ENDROOT
TORSDOF 0
ENDMDL
MODEL 5
REMARK VINA RESULT:    -3.802      1.264      2.824
REMARK INTER + INTRA:          -3.802
REMARK INTER:                  -3.802
REMARK INTRA:                   0.000
REMARK UNBOUND:                 0.000
REMARK SMILES CC1(C)O[C@]2(C)CC[C@H]1CC2
REMARK SMILES IDX 1 1 2 2 9 3 10 4 11 5 5 6 4 7 7 8 8 9 6 10 3 11
REMARK H PARENT
REMARK Flexibility Score: inf
ROOT
ATOM      1  C   UNL     1      25.282   0.474  37.000  1.00  0.00     0.042 C 
ATOM      2  C   UNL     1      25.696  -0.433  35.821  1.00  0.00     0.066 C 
ATOM      3  C   UNL     1      24.568  -1.491  35.509  1.00  0.00     0.021 C 
ATOM      4  C   UNL     1      23.295  -0.732  35.063  1.00  0.00     0.009 C 
ATOM      5  C   UNL     1      23.662   0.254  33.928  1.00  0.00     0.035 C 
ATOM      6  C   UNL     1      25.164   0.090  33.551  1.00  0.00     0.066 C 
ATOM      7  O   UNL     1      25.969   0.405  34.689  1.00  0.00    -0.369 OA
ATOM      8  C   UNL     1      25.422  -1.388  33.137  1.00  0.00     0.035 C 
ATOM      9  C   UNL     1      25.014  -2.335  34.290  1.00  0.00     0.009 C 
ATOM     10  C   UNL     1      25.533   1.037  32.406  1.00  0.00     0.042 C 
ATOM     11  C   UNL     1      27.010  -1.137  36.224  1.00  0.00     0.042 C 
ENDROOT
TORSDOF 0
ENDMDL
MODEL 6
REMARK VINA RESULT:    -3.802      7.731      9.175
REMARK INTER + INTRA:          -3.802
REMARK INTER:                  -3.802
REMARK INTRA:                   0.000
REMARK UNBOUND:                 0.000
REMARK SMILES CC1(C)O[C@]2(C)CC[C@H]1CC2
REMARK SMILES IDX 1 1 2 2 9 3 10 4 11 5 5 6 4 7 7 8 8 9 6 10 3 11
REMARK H PARENT
REMARK Flexibility Score: inf
ROOT
ATOM      1  C   UNL     1      30.392  -4.546  34.985  1.00  0.00     0.042 C 
ATOM      2  C   UNL     1      31.425  -4.494  33.839  1.00  0.00     0.066 C 
ATOM      3  C   UNL     1      31.949  -3.020  33.627  1.00  0.00     0.021 C 
ATOM      4  C   UNL     1      32.685  -2.572  34.912  1.00  0.00     0.009 C 
ATOM      5  C   UNL     1      33.738  -3.641  35.294  1.00  0.00     0.035 C 
ATOM      6  C   UNL     1      33.770  -4.760  34.212  1.00  0.00     0.066 C 
ATOM      7  O   UNL     1      32.492  -5.397  34.161  1.00  0.00    -0.369 OA
ATOM      8  C   UNL     1      34.076  -4.117  32.829  1.00  0.00     0.035 C 
ATOM      9  C   UNL     1      33.016  -3.038  32.505  1.00  0.00     0.009 C 
ATOM     10  C   UNL     1      34.832  -5.807  34.561  1.00  0.00     0.042 C 
ATOM     11  C   UNL     1      30.724  -5.013  32.566  1.00  0.00     0.042 C 
ENDROOT
TORSDOF 0
ENDMDL
MODEL 7
REMARK VINA RESULT:    -3.787      1.218      3.147
REMARK INTER + INTRA:          -3.787
REMARK INTER:                  -3.787
REMARK INTRA:                   0.000
REMARK UNBOUND:                 0.000
REMARK SMILES CC1(C)O[C@]2(C)CC[C@H]1CC2
REMARK SMILES IDX 1 1 2 2 9 3 10 4 11 5 5 6 4 7 7 8 8 9 6 10 3 11
REMARK H PARENT
REMARK Flexibility Score: inf
ROOT
ATOM      1  C   UNL     1      26.502  -2.929  34.292  1.00  0.00     0.042 C 
ATOM      2  C   UNL     1      25.235  -2.054  34.191  1.00  0.00     0.066 C 
ATOM      3  C   UNL     1      24.982  -1.280  35.543  1.00  0.00     0.021 C 
ATOM      4  C   UNL     1      26.170  -0.319  35.787  1.00  0.00     0.009 C 
ATOM      5  C   UNL     1      26.395   0.542  34.520  1.00  0.00     0.035 C 
ATOM      6  C   UNL     1      25.300   0.221  33.462  1.00  0.00     0.066 C 
ATOM      7  O   UNL     1      25.402  -1.154  33.086  1.00  0.00    -0.369 OA
ATOM      8  C   UNL     1      23.900   0.476  34.090  1.00  0.00     0.035 C 
ATOM      9  C   UNL     1      23.733  -0.383  35.367  1.00  0.00     0.009 C 
ATOM     10  C   UNL     1      25.492   1.090  32.215  1.00  0.00     0.042 C 
ATOM     11  C   UNL     1      24.053  -2.993  33.870  1.00  0.00     0.042 C 
ENDROOT
TORSDOF 0
ENDMDL
MODEL 8
REMARK VINA RESULT:    -3.717      1.027      3.255
REMARK INTER + INTRA:          -3.717
REMARK INTER:                  -3.717
REMARK INTRA:                   0.000
REMARK UNBOUND:                 0.000
REMARK SMILES CC1(C)O[C@]2(C)CC[C@H]1CC2
REMARK SMILES IDX 1 1 2 2 9 3 10 4 11 5 5 6 4 7 7 8 8 9 6 10 3 11
REMARK H PARENT
REMARK Flexibility Score: inf
ROOT
ATOM      1  C   UNL     1      22.460  -1.186  35.009  1.00  0.00     0.042 C 
ATOM      2  C   UNL     1      23.713  -0.332  35.297  1.00  0.00     0.066 C 
ATOM      3  C   UNL     1      24.940  -1.250  35.670  1.00  0.00     0.021 C 
ATOM      4  C   UNL     1      25.276  -2.139  34.449  1.00  0.00     0.009 C 
ATOM      5  C   UNL     1      25.429  -1.244  33.196  1.00  0.00     0.035 C 
ATOM      6  C   UNL     1      25.286   0.253  33.596  1.00  0.00     0.066 C 
ATOM      7  O   UNL     1      23.981   0.470  34.137  1.00  0.00    -0.369 OA
ATOM      8  C   UNL     1      26.351   0.591  34.678  1.00  0.00     0.035 C 
ATOM      9  C   UNL     1      26.176  -0.347  35.897  1.00  0.00     0.009 C 
ATOM     10  C   UNL     1      25.468   1.153  32.369  1.00  0.00     0.042 C 
ATOM     11  C   UNL     1      23.364   0.616  36.464  1.00  0.00     0.042 C 
ENDROOT
TORSDOF 0
ENDMDL
MODEL 9
REMARK VINA RESULT:    -3.651      1.338      2.946
REMARK INTER + INTRA:          -3.651
REMARK INTER:                  -3.651
REMARK INTRA:                   0.000
REMARK UNBOUND:                 0.000
REMARK SMILES CC1(C)O[C@]2(C)CC[C@H]1CC2
REMARK SMILES IDX 1 1 2 2 9 3 10 4 11 5 5 6 4 7 7 8 8 9 6 10 3 11
REMARK H PARENT
REMARK Flexibility Score: inf
ROOT
ATOM      1  C   UNL     1      23.123   1.086  35.806  1.00  0.00     0.042 C 
ATOM      2  C   UNL     1      23.773  -0.229  35.324  1.00  0.00     0.066 C 
ATOM      3  C   UNL     1      24.596   0.009  33.998  1.00  0.00     0.021 C 
ATOM      4  C   UNL     1      25.751   0.991  34.308  1.00  0.00     0.009 C 
ATOM      5  C   UNL     1      26.539   0.477  35.537  1.00  0.00     0.035 C 
ATOM      6  C   UNL     1      25.968  -0.897  35.994  1.00  0.00     0.066 C 
ATOM      7  O   UNL     1      24.602  -0.730  36.382  1.00  0.00    -0.369 OA
ATOM      8  C   UNL     1      26.041  -1.896  34.803  1.00  0.00     0.035 C 
ATOM      9  C   UNL     1      25.265  -1.326  33.592  1.00  0.00     0.009 C 
ATOM     10  C   UNL     1      26.760  -1.433  37.190  1.00  0.00     0.042 C 
ATOM     11  C   UNL     1      22.635  -1.243  35.085  1.00  0.00     0.042 C 
ENDROOT
TORSDOF 0
ENDMDL
