MODEL 1
REMARK VINA RESULT:    -3.666      0.000      0.000
REMARK INTER + INTRA:          -9.192
REMARK INTER:                  -6.666
REMARK INTRA:                  -2.526
REMARK UNBOUND:                -2.526
REMARK SMILES CCCCCCCCCCCCCCCC(=O)[O-]
REMARK SMILES IDX 9 1 10 2 11 3 12 4 13 5 14 6 15 7 16 8 17 9 18 10 8 11 7 12
REMARK SMILES IDX 6 13 5 14 4 15 3 16 2 17 1 18
REMARK H PARENT
REMARK Flexibility Score: inf
ROOT
ATOM      1  C   UNL     1      23.219  30.918 -15.031  1.00  0.00     0.000 C 
ENDROOT
BRANCH   1   2
ATOM      2  C   UNL     1      23.657  32.381 -15.171  1.00  0.00     0.000 C 
BRANCH   2   3
ATOM      3  C   UNL     1      24.728  32.736 -14.128  1.00  0.00     0.000 C 
BRANCH   3   4
ATOM      4  C   UNL     1      24.183  32.719 -12.689  1.00  0.00     0.000 C 
BRANCH   4   5
ATOM      5  C   UNL     1      24.950  31.742 -11.781  1.00  0.00     0.000 C 
BRANCH   5   6
ATOM      6  C   UNL     1      24.071  30.579 -11.291  1.00  0.00     0.006 C 
BRANCH   6   7
ATOM      7  C   UNL     1      24.894  29.420 -10.712  1.00  0.00     0.053 C 
BRANCH   7   8
ATOM      8  C   UNL     1      24.381  29.041  -9.359  1.00  0.00     0.041 C 
ATOM      9  O   UNL     1      25.178  28.654  -8.464  1.00  0.00    -0.550 OA
ATOM     10  O   UNL     1      23.016  29.068  -9.101  1.00  0.00    -0.550 OA
ENDBRANCH   7   8
ENDBRANCH   6   7
ENDBRANCH   5   6
ENDBRANCH   4   5
ENDBRANCH   3   4
ENDBRANCH   2   3
ENDBRANCH   1   2
BRANCH   1  11
ATOM     11  C   UNL     1      24.307  29.967 -15.540  1.00  0.00     0.000 C 
BRANCH  11  12
ATOM     12  C   UNL     1      24.738  28.984 -14.443  1.00  0.00    -0.000 C 
BRANCH  12  13
ATOM     13  C   UNL     1      26.249  28.733 -14.491  1.00  0.00    -0.000 C 
BRANCH  13  14
ATOM     14  C   UNL     1      27.010  30.013 -14.857  1.00  0.00    -0.000 C 
BRANCH  14  15
ATOM     15  C   UNL     1      27.731  30.594 -13.630  1.00  0.00    -0.000 C 
BRANCH  15  16
ATOM     16  C   UNL     1      28.102  29.518 -12.598  1.00  0.00    -0.000 C 
BRANCH  16  17
ATOM     17  C   UNL     1      29.071  30.036 -11.526  1.00  0.00    -0.003 C 
ATOM     18  C   UNL     1      28.321  30.752 -10.407  1.00  0.00     0.004 C 
ENDBRANCH  16  17
ENDBRANCH  15  16
ENDBRANCH  14  15
ENDBRANCH  13  14
ENDBRANCH  12  13
ENDBRANCH  11  12
ENDBRANCH   1  11
TORSDOF 14
ENDMDL
MODEL 2
REMARK VINA RESULT:    -3.645      1.245      3.801
REMARK INTER + INTRA:          -9.155
REMARK INTER:                  -6.653
REMARK INTRA:                  -2.502
REMARK UNBOUND:                -2.526
REMARK SMILES CCCCCCCCCCCCCCCC(=O)[O-]
REMARK SMILES IDX 9 1 10 2 11 3 12 4 13 5 14 6 15 7 16 8 17 9 18 10 8 11 7 12
REMARK SMILES IDX 6 13 5 14 4 15 3 16 2 17 1 18
REMARK H PARENT
REMARK Flexibility Score: inf
ROOT
ATOM      1  C   UNL     1      24.828  28.921 -14.542  1.00  0.00     0.000 C 
ENDROOT
BRANCH   1   2
ATOM      2  C   UNL     1      26.344  28.790 -14.349  1.00  0.00     0.000 C 
BRANCH   2   3
ATOM      3  C   UNL     1      27.037  30.152 -14.512  1.00  0.00     0.000 C 
BRANCH   3   4
ATOM      4  C   UNL     1      28.004  30.467 -13.358  1.00  0.00     0.000 C 
BRANCH   4   5
ATOM      5  C   UNL     1      28.225  29.262 -12.428  1.00  0.00     0.000 C 
BRANCH   5   6
ATOM      6  C   UNL     1      27.798  29.548 -10.979  1.00  0.00     0.006 C 
BRANCH   6   7
ATOM      7  C   UNL     1      26.745  28.557 -10.466  1.00  0.00     0.053 C 
BRANCH   7   8
ATOM      8  C   UNL     1      26.752  28.517  -8.970  1.00  0.00     0.041 C 
ATOM      9  O   UNL     1      26.087  27.642  -8.355  1.00  0.00    -0.550 OA
ATOM     10  O   UNL     1      27.453  29.479  -8.253  1.00  0.00    -0.550 OA
ENDBRANCH   7   8
ENDBRANCH   6   7
ENDBRANCH   5   6
ENDBRANCH   4   5
ENDBRANCH   3   4
ENDBRANCH   2   3
ENDBRANCH   1   2
BRANCH   1  11
ATOM     11  C   UNL     1      24.500  29.907 -15.669  1.00  0.00     0.000 C 
BRANCH  11  12
ATOM     12  C   UNL     1      23.355  30.845 -15.265  1.00  0.00    -0.000 C 
BRANCH  12  13
ATOM     13  C   UNL     1      23.763  32.313 -15.429  1.00  0.00    -0.000 C 
BRANCH  13  14
ATOM     14  C   UNL     1      24.752  32.736 -14.337  1.00  0.00    -0.000 C 
BRANCH  14  15
ATOM     15  C   UNL     1      24.093  32.693 -12.950  1.00  0.00    -0.000 C 
BRANCH  15  16
ATOM     16  C   UNL     1      24.847  31.787 -11.963  1.00  0.00    -0.000 C 
BRANCH  16  17
ATOM     17  C   UNL     1      23.962  30.672 -11.388  1.00  0.00    -0.003 C 
ATOM     18  C   UNL     1      22.485  30.958 -11.640  1.00  0.00     0.004 C 
ENDBRANCH  16  17
ENDBRANCH  15  16
ENDBRANCH  14  15
ENDBRANCH  13  14
ENDBRANCH  12  13
ENDBRANCH  11  12
ENDBRANCH   1  11
TORSDOF 14
ENDMDL
MODEL 3
REMARK VINA RESULT:    -3.612      2.888      4.985
REMARK INTER + INTRA:          -9.094
REMARK INTER:                  -6.883
REMARK INTRA:                  -2.211
REMARK UNBOUND:                -2.526
REMARK SMILES CCCCCCCCCCCCCCCC(=O)[O-]
REMARK SMILES IDX 9 1 10 2 11 3 12 4 13 5 14 6 15 7 16 8 17 9 18 10 8 11 7 12
REMARK SMILES IDX 6 13 5 14 4 15 3 16 2 17 1 18
REMARK H PARENT
REMARK Flexibility Score: inf
ROOT
ATOM      1  C   UNL     1      27.158  30.499 -13.135  1.00  0.00     0.000 C 
ENDROOT
BRANCH   1   2
ATOM      2  C   UNL     1      28.477  30.283 -12.384  1.00  0.00     0.000 C 
BRANCH   2   3
ATOM      3  C   UNL     1      28.319  29.211 -11.294  1.00  0.00     0.000 C 
BRANCH   3   4
ATOM      4  C   UNL     1      26.848  28.849 -11.028  1.00  0.00     0.000 C 
BRANCH   4   5
ATOM      5  C   UNL     1      26.583  27.339 -11.148  1.00  0.00     0.000 C 
BRANCH   5   6
ATOM      6  C   UNL     1      25.990  26.951 -12.513  1.00  0.00     0.006 C 
BRANCH   6   7
ATOM      7  C   UNL     1      27.043  26.385 -13.475  1.00  0.00     0.053 C 
BRANCH   7   8
ATOM      8  C   UNL     1      26.973  24.891 -13.505  1.00  0.00     0.041 C 
ATOM      9  O   UNL     1      27.608  24.209 -12.657  1.00  0.00    -0.550 OA
ATOM     10  O   UNL     1      26.246  24.249 -14.499  1.00  0.00    -0.550 OA
ENDBRANCH   7   8
ENDBRANCH   6   7
ENDBRANCH   5   6
ENDBRANCH   4   5
ENDBRANCH   3   4
ENDBRANCH   2   3
ENDBRANCH   1   2
BRANCH   1  11
ATOM     11  C   UNL     1      27.365  30.399 -14.651  1.00  0.00     0.000 C 
BRANCH  11  12
ATOM     12  C   UNL     1      26.258  29.560 -15.304  1.00  0.00    -0.000 C 
BRANCH  12  13
ATOM     13  C   UNL     1      24.916  29.773 -14.595  1.00  0.00    -0.000 C 
BRANCH  13  14
ATOM     14  C   UNL     1      24.024  30.741 -15.382  1.00  0.00    -0.000 C 
BRANCH  14  15
ATOM     15  C   UNL     1      23.359  31.762 -14.446  1.00  0.00    -0.000 C 
BRANCH  15  16
ATOM     16  C   UNL     1      24.382  32.599 -13.661  1.00  0.00    -0.000 C 
BRANCH  16  17
ATOM     17  C   UNL     1      24.011  32.748 -12.178  1.00  0.00    -0.003 C 
ATOM     18  C   UNL     1      24.066  31.403 -11.460  1.00  0.00     0.004 C 
ENDBRANCH  16  17
ENDBRANCH  15  16
ENDBRANCH  14  15
ENDBRANCH  13  14
ENDBRANCH  12  13
ENDBRANCH  11  12
ENDBRANCH   1  11
TORSDOF 14
ENDMDL
MODEL 4
REMARK VINA RESULT:    -3.558      1.663      4.614
REMARK INTER + INTRA:          -8.997
REMARK INTER:                  -6.430
REMARK INTRA:                  -2.567
REMARK UNBOUND:                -2.526
REMARK SMILES CCCCCCCCCCCCCCCC(=O)[O-]
REMARK SMILES IDX 9 1 10 2 11 3 12 4 13 5 14 6 15 7 16 8 17 9 18 10 8 11 7 12
REMARK SMILES IDX 6 13 5 14 4 15 3 16 2 17 1 18
REMARK H PARENT
REMARK Flexibility Score: inf
ROOT
ATOM      1  C   UNL     1      24.354  27.764 -13.855  1.00  0.00     0.000 C 
ENDROOT
BRANCH   1   2
ATOM      2  C   UNL     1      24.879  28.934 -14.696  1.00  0.00     0.000 C 
BRANCH   2   3
ATOM      3  C   UNL     1      26.211  28.570 -15.370  1.00  0.00     0.000 C 
BRANCH   3   4
ATOM      4  C   UNL     1      27.195  29.752 -15.416  1.00  0.00     0.000 C 
BRANCH   4   5
ATOM      5  C   UNL     1      27.131  30.621 -14.148  1.00  0.00     0.000 C 
BRANCH   5   6
ATOM      6  C   UNL     1      28.317  30.372 -13.202  1.00  0.00     0.006 C 
BRANCH   6   7
ATOM      7  C   UNL     1      28.060  29.218 -12.224  1.00  0.00     0.053 C 
BRANCH   7   8
ATOM      8  C   UNL     1      28.168  29.699 -10.811  1.00  0.00     0.041 C 
ATOM      9  O   UNL     1      27.836  28.946  -9.857  1.00  0.00    -0.550 OA
ATOM     10  O   UNL     1      28.587  30.997 -10.549  1.00  0.00    -0.550 OA
ENDBRANCH   7   8
ENDBRANCH   6   7
ENDBRANCH   5   6
ENDBRANCH   4   5
ENDBRANCH   3   4
ENDBRANCH   2   3
ENDBRANCH   1   2
BRANCH   1  11
ATOM     11  C   UNL     1      23.596  28.270 -12.622  1.00  0.00     0.000 C 
BRANCH  11  12
ATOM     12  C   UNL     1      24.539  28.996 -11.655  1.00  0.00    -0.000 C 
BRANCH  12  13
ATOM     13  C   UNL     1      23.953  30.345 -11.222  1.00  0.00    -0.000 C 
BRANCH  13  14
ATOM     14  C   UNL     1      24.881  31.500 -11.615  1.00  0.00    -0.000 C 
BRANCH  14  15
ATOM     15  C   UNL     1      24.224  32.397 -12.675  1.00  0.00    -0.000 C 
BRANCH  15  16
ATOM     16  C   UNL     1      22.904  31.818 -13.206  1.00  0.00    -0.000 C 
BRANCH  16  17
ATOM     17  C   UNL     1      22.860  31.752 -14.739  1.00  0.00    -0.003 C 
ATOM     18  C   UNL     1      24.062  32.462 -15.354  1.00  0.00     0.004 C 
ENDBRANCH  16  17
ENDBRANCH  15  16
ENDBRANCH  14  15
ENDBRANCH  13  14
ENDBRANCH  12  13
ENDBRANCH  11  12
ENDBRANCH   1  11
TORSDOF 14
ENDMDL
MODEL 5
REMARK VINA RESULT:    -3.534      3.178      5.344
REMARK INTER + INTRA:          -8.952
REMARK INTER:                  -6.629
REMARK INTRA:                  -2.324
REMARK UNBOUND:                -2.526
REMARK SMILES CCCCCCCCCCCCCCCC(=O)[O-]
REMARK SMILES IDX 9 1 10 2 11 3 12 4 13 5 14 6 15 7 16 8 17 9 18 10 8 11 7 12
REMARK SMILES IDX 6 13 5 14 4 15 3 16 2 17 1 18
REMARK H PARENT
REMARK Flexibility Score: inf
ROOT
ATOM      1  C   UNL     1      26.723  28.664 -10.427  1.00  0.00     0.000 C 
ENDROOT
BRANCH   1   2
ATOM      2  C   UNL     1      27.734  29.637  -9.810  1.00  0.00     0.000 C 
BRANCH   2   3
ATOM      3  C   UNL     1      28.606  30.285 -10.896  1.00  0.00     0.000 C 
BRANCH   3   4
ATOM      4  C   UNL     1      28.539  29.534 -12.236  1.00  0.00     0.000 C 
BRANCH   4   5
ATOM      5  C   UNL     1      28.539  30.485 -13.445  1.00  0.00     0.000 C 
BRANCH   5   6
ATOM      6  C   UNL     1      27.246  30.388 -14.272  1.00  0.00     0.006 C 
BRANCH   6   7
ATOM      7  C   UNL     1      26.057  31.081 -13.592  1.00  0.00     0.053 C 
BRANCH   7   8
ATOM      8  C   UNL     1      25.115  31.626 -14.619  1.00  0.00     0.041 C 
ATOM      9  O   UNL     1      24.411  30.844 -15.312  1.00  0.00    -0.550 OA
ATOM     10  O   UNL     1      25.052  32.994 -14.847  1.00  0.00    -0.550 OA
ENDBRANCH   7   8
ENDBRANCH   6   7
ENDBRANCH   5   6
ENDBRANCH   4   5
ENDBRANCH   3   4
ENDBRANCH   2   3
ENDBRANCH   1   2
BRANCH   1  11
ATOM     11  C   UNL     1      25.320  29.281 -10.470  1.00  0.00     0.000 C 
BRANCH  11  12
ATOM     12  C   UNL     1      24.395  28.484 -11.398  1.00  0.00    -0.000 C 
BRANCH  12  13
ATOM     13  C   UNL     1      25.158  27.351 -12.095  1.00  0.00    -0.000 C 
BRANCH  13  14
ATOM     14  C   UNL     1      25.059  27.477 -13.620  1.00  0.00    -0.000 C 
BRANCH  14  15
ATOM     15  C   UNL     1      26.099  26.584 -14.315  1.00  0.00    -0.000 C 
BRANCH  15  16
ATOM     16  C   UNL     1      27.235  26.156 -13.373  1.00  0.00    -0.000 C 
BRANCH  16  17
ATOM     17  C   UNL     1      27.419  24.632 -13.322  1.00  0.00    -0.003 C 
ATOM     18  C   UNL     1      26.972  24.069 -11.976  1.00  0.00     0.004 C 
ENDBRANCH  16  17
ENDBRANCH  15  16
ENDBRANCH  14  15
ENDBRANCH  13  14
ENDBRANCH  12  13
ENDBRANCH  11  12
ENDBRANCH   1  11
TORSDOF 14
ENDMDL
MODEL 6
REMARK VINA RESULT:    -3.516      2.406      3.494
REMARK INTER + INTRA:          -8.919
REMARK INTER:                  -6.458
REMARK INTRA:                  -2.461
REMARK UNBOUND:                -2.526
REMARK SMILES CCCCCCCCCCCCCCCC(=O)[O-]
REMARK SMILES IDX 9 1 10 2 11 3 12 4 13 5 14 6 15 7 16 8 17 9 18 10 8 11 7 12
REMARK SMILES IDX 6 13 5 14 4 15 3 16 2 17 1 18
REMARK H PARENT
REMARK Flexibility Score: inf
ROOT
ATOM      1  C   UNL     1      24.344  32.764 -12.458  1.00  0.00     0.000 C 
ENDROOT
BRANCH   1   2
ATOM      2  C   UNL     1      24.983  31.676 -11.586  1.00  0.00     0.000 C 
BRANCH   2   3
ATOM      3  C   UNL     1      23.936  30.644 -11.140  1.00  0.00     0.000 C 
BRANCH   3   4
ATOM      4  C   UNL     1      24.325  29.204 -11.514  1.00  0.00     0.000 C 
BRANCH   4   5
ATOM      5  C   UNL     1      25.307  28.579 -10.509  1.00  0.00     0.000 C 
BRANCH   5   6
ATOM      6  C   UNL     1      25.637  27.114 -10.841  1.00  0.00     0.006 C 
BRANCH   6   7
ATOM      7  C   UNL     1      25.687  26.847 -12.351  1.00  0.00     0.053 C 
BRANCH   7   8
ATOM      8  C   UNL     1      26.668  25.759 -12.656  1.00  0.00     0.041 C 
ATOM      9  O   UNL     1      26.873  24.838 -11.821  1.00  0.00    -0.550 OA
ATOM     10  O   UNL     1      27.394  25.790 -13.840  1.00  0.00    -0.550 OA
ENDBRANCH   7   8
ENDBRANCH   6   7
ENDBRANCH   5   6
ENDBRANCH   4   5
ENDBRANCH   3   4
ENDBRANCH   2   3
ENDBRANCH   1   2
BRANCH   1  11
ATOM     11  C   UNL     1      23.949  32.208 -13.831  1.00  0.00     0.000 C 
BRANCH  11  12
ATOM     12  C   UNL     1      25.185  31.761 -14.621  1.00  0.00    -0.000 C 
BRANCH  12  13
ATOM     13  C   UNL     1      25.081  30.283 -15.017  1.00  0.00    -0.000 C 
BRANCH  13  14
ATOM     14  C   UNL     1      26.427  29.570 -14.843  1.00  0.00    -0.000 C 
BRANCH  14  15
ATOM     15  C   UNL     1      27.386  30.408 -13.984  1.00  0.00    -0.000 C 
BRANCH  15  16
ATOM     16  C   UNL     1      27.959  29.619 -12.796  1.00  0.00    -0.000 C 
BRANCH  16  17
ATOM     17  C   UNL     1      28.916  30.456 -11.935  1.00  0.00    -0.003 C 
ATOM     18  C   UNL     1      28.359  30.656 -10.529  1.00  0.00     0.004 C 
ENDBRANCH  16  17
ENDBRANCH  15  16
ENDBRANCH  14  15
ENDBRANCH  13  14
ENDBRANCH  12  13
ENDBRANCH  11  12
ENDBRANCH   1  11
TORSDOF 14
ENDMDL
MODEL 7
REMARK VINA RESULT:    -3.510      1.626      3.095
REMARK INTER + INTRA:          -8.908
REMARK INTER:                  -6.569
REMARK INTRA:                  -2.340
REMARK UNBOUND:                -2.526
REMARK SMILES CCCCCCCCCCCCCCCC(=O)[O-]
REMARK SMILES IDX 9 1 10 2 11 3 12 4 13 5 14 6 15 7 16 8 17 9 18 10 8 11 7 12
REMARK SMILES IDX 6 13 5 14 4 15 3 16 2 17 1 18
REMARK H PARENT
REMARK Flexibility Score: inf
ROOT
ATOM      1  C   UNL     1      26.207  29.221 -15.348  1.00  0.00     0.000 C 
ENDROOT
BRANCH   1   2
ATOM      2  C   UNL     1      24.993  29.540 -14.467  1.00  0.00     0.000 C 
BRANCH   2   3
ATOM      3  C   UNL     1      24.143  30.660 -15.086  1.00  0.00     0.000 C 
BRANCH   3   4
ATOM      4  C   UNL     1      23.352  31.455 -14.034  1.00  0.00     0.000 C 
BRANCH   4   5
ATOM      5  C   UNL     1      24.201  32.546 -13.360  1.00  0.00     0.000 C 
BRANCH   5   6
ATOM      6  C   UNL     1      24.509  32.229 -11.887  1.00  0.00     0.006 C 
BRANCH   6   7
ATOM      7  C   UNL     1      23.781  30.973 -11.389  1.00  0.00     0.053 C 
BRANCH   7   8
ATOM      8  C   UNL     1      22.632  31.352 -10.508  1.00  0.00     0.041 C 
ATOM      9  O   UNL     1      22.750  31.302  -9.255  1.00  0.00    -0.550 OA
ATOM     10  O   UNL     1      21.414  31.711 -11.071  1.00  0.00    -0.550 OA
ENDBRANCH   7   8
ENDBRANCH   6   7
ENDBRANCH   5   6
ENDBRANCH   4   5
ENDBRANCH   3   4
ENDBRANCH   2   3
ENDBRANCH   1   2
BRANCH   1  11
ATOM     11  C   UNL     1      27.364  30.184 -15.060  1.00  0.00     0.000 C 
BRANCH  11  12
ATOM     12  C   UNL     1      27.445  30.517 -13.565  1.00  0.00    -0.000 C 
BRANCH  12  13
ATOM     13  C   UNL     1      28.885  30.402 -13.052  1.00  0.00    -0.000 C 
BRANCH  13  14
ATOM     14  C   UNL     1      28.913  30.154 -11.540  1.00  0.00    -0.000 C 
BRANCH  14  15
ATOM     15  C   UNL     1      27.489  30.052 -10.972  1.00  0.00    -0.000 C 
BRANCH  15  16
ATOM     16  C   UNL     1      27.165  28.649 -10.436  1.00  0.00    -0.000 C 
BRANCH  16  17
ATOM     17  C   UNL     1      26.197  27.877 -11.344  1.00  0.00    -0.003 C 
ATOM     18  C   UNL     1      26.955  27.022 -12.355  1.00  0.00     0.004 C 
ENDBRANCH  16  17
ENDBRANCH  15  16
ENDBRANCH  14  15
ENDBRANCH  13  14
ENDBRANCH  12  13
ENDBRANCH  11  12
ENDBRANCH   1  11
TORSDOF 14
ENDMDL
MODEL 8
REMARK VINA RESULT:    -3.491      4.283      6.316
REMARK INTER + INTRA:          -8.874
REMARK INTER:                  -6.853
REMARK INTRA:                  -2.021
REMARK UNBOUND:                -2.526
REMARK SMILES CCCCCCCCCCCCCCCC(=O)[O-]
REMARK SMILES IDX 9 1 10 2 11 3 12 4 13 5 14 6 15 7 16 8 17 9 18 10 8 11 7 12
REMARK SMILES IDX 6 13 5 14 4 15 3 16 2 17 1 18
REMARK H PARENT
REMARK Flexibility Score: inf
ROOT
ATOM      1  C   UNL     1      25.694  27.700 -10.693  1.00  0.00     0.000 C 
ENDROOT
BRANCH   1   2
ATOM      2  C   UNL     1      26.742  27.048 -11.602  1.00  0.00     0.000 C 
BRANCH   2   3
ATOM      3  C   UNL     1      26.165  26.775 -12.999  1.00  0.00     0.000 C 
BRANCH   3   4
ATOM      4  C   UNL     1      27.085  25.894 -13.860  1.00  0.00     0.000 C 
BRANCH   4   5
ATOM      5  C   UNL     1      26.683  24.410 -13.824  1.00  0.00     0.000 C 
BRANCH   5   6
ATOM      6  C   UNL     1      27.645  23.558 -12.979  1.00  0.00     0.006 C 
BRANCH   6   7
ATOM      7  C   UNL     1      27.045  23.158 -11.624  1.00  0.00     0.053 C 
BRANCH   7   8
ATOM      8  C   UNL     1      27.547  21.811 -11.209  1.00  0.00     0.041 C 
ATOM      9  O   UNL     1      26.776  20.995 -10.637  1.00  0.00    -0.550 OA
ATOM     10  O   UNL     1      28.880  21.474 -11.409  1.00  0.00    -0.550 OA
ENDBRANCH   7   8
ENDBRANCH   6   7
ENDBRANCH   5   6
ENDBRANCH   4   5
ENDBRANCH   3   4
ENDBRANCH   2   3
ENDBRANCH   1   2
BRANCH   1  11
ATOM     11  C   UNL     1      26.201  29.037 -10.138  1.00  0.00     0.000 C 
BRANCH  11  12
ATOM     12  C   UNL     1      27.726  29.143 -10.267  1.00  0.00    -0.000 C 
BRANCH  12  13
ATOM     13  C   UNL     1      28.126  30.396 -11.056  1.00  0.00    -0.000 C 
BRANCH  13  14
ATOM     14  C   UNL     1      28.955  30.028 -12.292  1.00  0.00    -0.000 C 
BRANCH  14  15
ATOM     15  C   UNL     1      28.170  30.307 -13.583  1.00  0.00    -0.000 C 
BRANCH  15  16
ATOM     16  C   UNL     1      26.750  30.826 -13.313  1.00  0.00    -0.000 C 
BRANCH  16  17
ATOM     17  C   UNL     1      25.701  30.191 -14.237  1.00  0.00    -0.003 C 
ATOM     18  C   UNL     1      24.375  29.993 -13.508  1.00  0.00     0.004 C 
ENDBRANCH  16  17
ENDBRANCH  15  16
ENDBRANCH  14  15
ENDBRANCH  13  14
ENDBRANCH  12  13
ENDBRANCH  11  12
ENDBRANCH   1  11
TORSDOF 14
ENDMDL
MODEL 9
REMARK VINA RESULT:    -3.484      3.442      5.268
REMARK INTER + INTRA:          -8.863
REMARK INTER:                  -6.663
REMARK INTRA:                  -2.199
REMARK UNBOUND:                -2.526
REMARK SMILES CCCCCCCCCCCCCCCC(=O)[O-]
REMARK SMILES IDX 9 1 10 2 11 3 12 4 13 5 14 6 15 7 16 8 17 9 18 10 8 11 7 12
REMARK SMILES IDX 6 13 5 14 4 15 3 16 2 17 1 18
REMARK H PARENT
REMARK Flexibility Score: inf
ROOT
ATOM      1  C   UNL     1      26.117  30.701 -13.581  1.00  0.00     0.000 C 
ENDROOT
BRANCH   1   2
ATOM      2  C   UNL     1      25.158  29.540 -13.870  1.00  0.00     0.000 C 
BRANCH   2   3
ATOM      3  C   UNL     1      25.292  29.067 -15.326  1.00  0.00     0.000 C 
BRANCH   3   4
ATOM      4  C   UNL     1      25.838  27.634 -15.436  1.00  0.00     0.000 C 
BRANCH   4   5
ATOM      5  C   UNL     1      25.810  26.888 -14.091  1.00  0.00     0.000 C 
BRANCH   5   6
ATOM      6  C   UNL     1      27.102  26.096 -13.829  1.00  0.00     0.006 C 
BRANCH   6   7
ATOM      7  C   UNL     1      26.914  24.990 -12.782  1.00  0.00     0.053 C 
BRANCH   7   8
ATOM      8  C   UNL     1      27.448  23.690 -13.296  1.00  0.00     0.041 C 
ATOM      9  O   UNL     1      26.894  23.117 -14.271  1.00  0.00    -0.550 OA
ATOM     10  O   UNL     1      28.529  23.085 -12.666  1.00  0.00    -0.550 OA
ENDBRANCH   7   8
ENDBRANCH   6   7
ENDBRANCH   5   6
ENDBRANCH   4   5
ENDBRANCH   3   4
ENDBRANCH   2   3
ENDBRANCH   1   2
BRANCH   1  11
ATOM     11  C   UNL     1      27.461  30.493 -14.289  1.00  0.00     0.000 C 
BRANCH  11  12
ATOM     12  C   UNL     1      28.622  30.524 -13.286  1.00  0.00    -0.000 C 
BRANCH  12  13
ATOM     13  C   UNL     1      28.497  29.389 -12.263  1.00  0.00    -0.000 C 
BRANCH  13  14
ATOM     14  C   UNL     1      28.471  29.938 -10.832  1.00  0.00    -0.000 C 
BRANCH  14  15
ATOM     15  C   UNL     1      27.401  29.228  -9.989  1.00  0.00    -0.000 C 
BRANCH  15  16
ATOM     16  C   UNL     1      26.593  28.202 -10.800  1.00  0.00    -0.000 C 
BRANCH  16  17
ATOM     17  C   UNL     1      25.840  27.204  -9.910  1.00  0.00    -0.003 C 
ATOM     18  C   UNL     1      24.431  26.951 -10.437  1.00  0.00     0.004 C 
ENDBRANCH  16  17
ENDBRANCH  15  16
ENDBRANCH  14  15
ENDBRANCH  13  14
ENDBRANCH  12  13
ENDBRANCH  11  12
ENDBRANCH   1  11
TORSDOF 14
ENDMDL
