MODEL 1
REMARK VINA RESULT:     1.074      0.000      0.000
REMARK INTER + INTRA:           2.984
REMARK INTER:                   2.456
REMARK INTRA:                   0.527
REMARK UNBOUND:                 0.527
REMARK SMILES CCCCCCCCCCCCCCCCCCCCCCCC(=O)[O-]
REMARK SMILES IDX 13 1 14 2 15 3 16 4 17 5 18 6 19 7 20 8 21 9 22 10 23 11
REMARK SMILES IDX 24 12 25 13 26 14 12 15 11 16 10 17 9 18 8 19 7 20 6 21 5 22
REMARK SMILES IDX 4 23 3 24 2 25 1 26
REMARK H PARENT
REMARK Flexibility Score: inf
ROOT
ATOM      1  C   UNL     1      24.698  19.494  24.098  1.00  0.00     0.000 C 
ENDROOT
BRANCH   1   2
ATOM      2  C   UNL     1      26.110  19.556  23.489  1.00  0.00     0.000 C 
BRANCH   2   3
ATOM      3  C   UNL     1      26.251  18.875  22.111  1.00  0.00     0.000 C 
BRANCH   3   4
ATOM      4  C   UNL     1      27.564  19.180  21.361  1.00  0.00     0.000 C 
BRANCH   4   5
ATOM      5  C   UNL     1      28.834  19.142  22.230  1.00  0.00     0.000 C 
BRANCH   5   6
ATOM      6  C   UNL     1      30.107  18.879  21.414  1.00  0.00     0.000 C 
BRANCH   6   7
ATOM      7  C   UNL     1      31.359  19.286  22.205  1.00  0.00     0.000 C 
BRANCH   7   8
ATOM      8  C   UNL     1      31.088  20.446  23.177  1.00  0.00     0.000 C 
BRANCH   8   9
ATOM      9  C   UNL     1      30.384  19.981  24.464  1.00  0.00     0.000 C 
BRANCH   9  10
ATOM     10  C   UNL     1      29.456  21.059  25.046  1.00  0.00     0.006 C 
BRANCH  10  11
ATOM     11  C   UNL     1      27.981  20.636  25.027  1.00  0.00     0.053 C 
BRANCH  11  12
ATOM     12  C   UNL     1      27.309  21.024  26.307  1.00  0.00     0.041 C 
ATOM     13  O   UNL     1      27.874  20.807  27.413  1.00  0.00    -0.550 OA
ATOM     14  O   UNL     1      26.073  21.658  26.279  1.00  0.00    -0.550 OA
ENDBRANCH  11  12
ENDBRANCH  10  11
ENDBRANCH   9  10
ENDBRANCH   8   9
ENDBRANCH   7   8
ENDBRANCH   6   7
ENDBRANCH   5   6
ENDBRANCH   4   5
ENDBRANCH   3   4
ENDBRANCH   2   3
ENDBRANCH   1   2
BRANCH   1  15
ATOM     15  C   UNL     1      24.687  18.875  25.505  1.00  0.00     0.000 C 
BRANCH  15  16
ATOM     16  C   UNL     1      23.291  18.893  26.149  1.00  0.00     0.000 C 
BRANCH  16  17
ATOM     17  C   UNL     1      23.354  18.930  27.686  1.00  0.00     0.000 C 
BRANCH  17  18
ATOM     18  C   UNL     1      22.833  20.259  28.264  1.00  0.00    -0.000 C 
BRANCH  18  19
ATOM     19  C   UNL     1      21.455  20.679  27.715  1.00  0.00    -0.000 C 
BRANCH  19  20
ATOM     20  C   UNL     1      21.479  22.083  27.085  1.00  0.00    -0.000 C 
BRANCH  20  21
ATOM     21  C   UNL     1      22.887  22.499  26.631  1.00  0.00    -0.000 C 
BRANCH  21  22
ATOM     22  C   UNL     1      23.256  23.928  27.066  1.00  0.00    -0.000 C 
BRANCH  22  23
ATOM     23  C   UNL     1      24.768  24.080  27.340  1.00  0.00    -0.000 C 
BRANCH  23  24
ATOM     24  C   UNL     1      25.511  24.903  26.270  1.00  0.00    -0.000 C 
BRANCH  24  25
ATOM     25  C   UNL     1      25.074  26.375  26.175  1.00  0.00    -0.003 C 
ATOM     26  C   UNL     1      24.799  26.819  24.738  1.00  0.00     0.004 C 
ENDBRANCH  24  25
ENDBRANCH  23  24
ENDBRANCH  22  23
ENDBRANCH  21  22
ENDBRANCH  20  21
ENDBRANCH  19  20
ENDBRANCH  18  19
ENDBRANCH  17  18
ENDBRANCH  16  17
ENDBRANCH  15  16
ENDBRANCH   1  15
TORSDOF 22
ENDMDL
MODEL 2
REMARK VINA RESULT:     1.290      2.008      3.517
REMARK INTER + INTRA:           3.477
REMARK INTER:                   2.653
REMARK INTRA:                   0.824
REMARK UNBOUND:                 0.527
REMARK SMILES CCCCCCCCCCCCCCCCCCCCCCCC(=O)[O-]
REMARK SMILES IDX 13 1 14 2 15 3 16 4 17 5 18 6 19 7 20 8 21 9 22 10 23 11
REMARK SMILES IDX 24 12 25 13 26 14 12 15 11 16 10 17 9 18 8 19 7 20 6 21 5 22
REMARK SMILES IDX 4 23 3 24 2 25 1 26
REMARK H PARENT
REMARK Flexibility Score: inf
ROOT
ATOM      1  C   UNL     1      24.014  18.964  27.776  1.00  0.00     0.000 C 
ENDROOT
BRANCH   1   2
ATOM      2  C   UNL     1      24.990  18.938  26.586  1.00  0.00     0.000 C 
BRANCH   2   3
ATOM      3  C   UNL     1      24.559  19.795  25.377  1.00  0.00     0.000 C 
BRANCH   3   4
ATOM      4  C   UNL     1      24.387  19.021  24.054  1.00  0.00     0.000 C 
BRANCH   4   5
ATOM      5  C   UNL     1      25.570  19.134  23.076  1.00  0.00     0.000 C 
BRANCH   5   6
ATOM      6  C   UNL     1      26.692  20.043  23.599  1.00  0.00     0.000 C 
BRANCH   6   7
ATOM      7  C   UNL     1      27.126  19.621  25.010  1.00  0.00     0.000 C 
BRANCH   7   8
ATOM      8  C   UNL     1      28.156  20.584  25.621  1.00  0.00     0.000 C 
BRANCH   8   9
ATOM      9  C   UNL     1      29.134  21.139  24.571  1.00  0.00     0.000 C 
BRANCH   9  10
ATOM     10  C   UNL     1      30.508  20.452  24.629  1.00  0.00     0.006 C 
BRANCH  10  11
ATOM     11  C   UNL     1      30.527  19.114  23.878  1.00  0.00     0.053 C 
BRANCH  11  12
ATOM     12  C   UNL     1      30.293  19.331  22.416  1.00  0.00     0.041 C 
ATOM     13  O   UNL     1      31.172  19.890  21.707  1.00  0.00    -0.550 OA
ATOM     14  O   UNL     1      29.117  18.882  21.827  1.00  0.00    -0.550 OA
ENDBRANCH  11  12
ENDBRANCH  10  11
ENDBRANCH   9  10
ENDBRANCH   8   9
ENDBRANCH   7   8
ENDBRANCH   6   7
ENDBRANCH   5   6
ENDBRANCH   4   5
ENDBRANCH   3   4
ENDBRANCH   2   3
ENDBRANCH   1   2
BRANCH   1  15
ATOM     15  C   UNL     1      22.542  18.894  27.336  1.00  0.00     0.000 C 
BRANCH  15  16
ATOM     16  C   UNL     1      22.039  20.220  26.742  1.00  0.00     0.000 C 
BRANCH  16  17
ATOM     17  C   UNL     1      21.881  21.319  27.808  1.00  0.00     0.000 C 
BRANCH  17  18
ATOM     18  C   UNL     1      22.494  22.660  27.366  1.00  0.00    -0.000 C 
BRANCH  18  19
ATOM     19  C   UNL     1      23.393  22.552  26.118  1.00  0.00    -0.000 C 
BRANCH  19  20
ATOM     20  C   UNL     1      24.885  22.722  26.454  1.00  0.00    -0.000 C 
BRANCH  20  21
ATOM     21  C   UNL     1      25.132  23.849  27.470  1.00  0.00    -0.000 C 
BRANCH  21  22
ATOM     22  C   UNL     1      24.485  25.181  27.052  1.00  0.00    -0.000 C 
BRANCH  22  23
ATOM     23  C   UNL     1      25.530  26.302  26.865  1.00  0.00    -0.000 C 
BRANCH  23  24
ATOM     24  C   UNL     1      26.377  26.151  25.587  1.00  0.00    -0.000 C 
BRANCH  24  25
ATOM     25  C   UNL     1      25.583  26.259  24.274  1.00  0.00    -0.003 C 
ATOM     26  C   UNL     1      24.431  27.261  24.358  1.00  0.00     0.004 C 
ENDBRANCH  24  25
ENDBRANCH  23  24
ENDBRANCH  22  23
ENDBRANCH  21  22
ENDBRANCH  20  21
ENDBRANCH  19  20
ENDBRANCH  18  19
ENDBRANCH  17  18
ENDBRANCH  16  17
ENDBRANCH  15  16
ENDBRANCH   1  15
TORSDOF 22
ENDMDL
MODEL 3
REMARK VINA RESULT:     1.464      1.767      7.664
REMARK INTER + INTRA:           3.874
REMARK INTER:                   5.496
REMARK INTRA:                  -1.623
REMARK UNBOUND:                 0.527
REMARK SMILES CCCCCCCCCCCCCCCCCCCCCCCC(=O)[O-]
REMARK SMILES IDX 13 1 14 2 15 3 16 4 17 5 18 6 19 7 20 8 21 9 22 10 23 11
REMARK SMILES IDX 24 12 25 13 26 14 12 15 11 16 10 17 9 18 8 19 7 20 6 21 5 22
REMARK SMILES IDX 4 23 3 24 2 25 1 26
REMARK H PARENT
REMARK Flexibility Score: inf
ROOT
ATOM      1  C   UNL     1      26.731  21.002  26.595  1.00  0.00     0.000 C 
ENDROOT
BRANCH   1   2
ATOM      2  C   UNL     1      25.822  20.587  25.424  1.00  0.00     0.000 C 
BRANCH   2   3
ATOM      3  C   UNL     1      24.852  19.428  25.737  1.00  0.00     0.000 C 
BRANCH   3   4
ATOM      4  C   UNL     1      24.892  18.913  27.190  1.00  0.00     0.000 C 
BRANCH   4   5
ATOM      5  C   UNL     1      23.530  18.877  27.905  1.00  0.00     0.000 C 
BRANCH   5   6
ATOM      6  C   UNL     1      22.360  19.233  26.977  1.00  0.00     0.000 C 
BRANCH   6   7
ATOM      7  C   UNL     1      21.804  20.626  27.307  1.00  0.00     0.000 C 
BRANCH   7   8
ATOM      8  C   UNL     1      22.914  21.651  27.589  1.00  0.00     0.000 C 
BRANCH   8   9
ATOM      9  C   UNL     1      22.734  22.948  26.780  1.00  0.00     0.000 C 
BRANCH   9  10
ATOM     10  C   UNL     1      23.931  23.900  26.925  1.00  0.00     0.006 C 
BRANCH  10  11
ATOM     11  C   UNL     1      24.532  24.298  25.571  1.00  0.00     0.053 C 
BRANCH  11  12
ATOM     12  C   UNL     1      25.150  25.659  25.651  1.00  0.00     0.041 C 
ATOM     13  O   UNL     1      24.755  26.581  24.889  1.00  0.00    -0.550 OA
ATOM     14  O   UNL     1      26.138  25.919  26.593  1.00  0.00    -0.550 OA
ENDBRANCH  11  12
ENDBRANCH  10  11
ENDBRANCH   9  10
ENDBRANCH   8   9
ENDBRANCH   7   8
ENDBRANCH   6   7
ENDBRANCH   5   6
ENDBRANCH   4   5
ENDBRANCH   3   4
ENDBRANCH   2   3
ENDBRANCH   1   2
BRANCH   1  15
ATOM     15  C   UNL     1      28.047  20.209  26.632  1.00  0.00     0.000 C 
BRANCH  15  16
ATOM     16  C   UNL     1      28.510  19.766  25.235  1.00  0.00     0.000 C 
BRANCH  16  17
ATOM     17  C   UNL     1      29.390  20.823  24.545  1.00  0.00     0.000 C 
BRANCH  17  18
ATOM     18  C   UNL     1      30.885  20.451  24.569  1.00  0.00    -0.000 C 
BRANCH  18  19
ATOM     19  C   UNL     1      31.184  19.047  24.007  1.00  0.00    -0.000 C 
BRANCH  19  20
ATOM     20  C   UNL     1      31.153  19.012  22.469  1.00  0.00    -0.000 C 
BRANCH  20  21
ATOM     21  C   UNL     1      29.964  19.794  21.888  1.00  0.00    -0.000 C 
BRANCH  21  22
ATOM     22  C   UNL     1      28.842  18.875  21.372  1.00  0.00    -0.000 C 
BRANCH  22  23
ATOM     23  C   UNL     1      27.614  18.877  22.307  1.00  0.00    -0.000 C 
BRANCH  23  24
ATOM     24  C   UNL     1      26.315  19.340  21.622  1.00  0.00    -0.000 C 
BRANCH  24  25
ATOM     25  C   UNL     1      26.191  18.939  20.142  1.00  0.00    -0.003 C 
ATOM     26  C   UNL     1      25.344  19.918  19.330  1.00  0.00     0.004 C 
ENDBRANCH  24  25
ENDBRANCH  23  24
ENDBRANCH  22  23
ENDBRANCH  21  22
ENDBRANCH  20  21
ENDBRANCH  19  20
ENDBRANCH  18  19
ENDBRANCH  17  18
ENDBRANCH  16  17
ENDBRANCH  15  16
ENDBRANCH   1  15
TORSDOF 22
ENDMDL
MODEL 4
REMARK VINA RESULT:     1.676      2.497      7.828
REMARK INTER + INTRA:           4.359
REMARK INTER:                   6.242
REMARK INTRA:                  -1.883
REMARK UNBOUND:                 0.527
REMARK SMILES CCCCCCCCCCCCCCCCCCCCCCCC(=O)[O-]
REMARK SMILES IDX 13 1 14 2 15 3 16 4 17 5 18 6 19 7 20 8 21 9 22 10 23 11
REMARK SMILES IDX 24 12 25 13 26 14 12 15 11 16 10 17 9 18 8 19 7 20 6 21 5 22
REMARK SMILES IDX 4 23 3 24 2 25 1 26
REMARK H PARENT
REMARK Flexibility Score: inf
ROOT
ATOM      1  C   UNL     1      25.626  20.889  25.116  1.00  0.00     0.000 C 
ENDROOT
BRANCH   1   2
ATOM      2  C   UNL     1      25.080  19.556  24.573  1.00  0.00     0.000 C 
BRANCH   2   3
ATOM      3  C   UNL     1      23.830  19.022  25.304  1.00  0.00     0.000 C 
BRANCH   3   4
ATOM      4  C   UNL     1      23.926  19.009  26.843  1.00  0.00     0.000 C 
BRANCH   4   5
ATOM      5  C   UNL     1      22.607  19.309  27.579  1.00  0.00     0.000 C 
BRANCH   5   6
ATOM      6  C   UNL     1      22.506  20.766  28.051  1.00  0.00     0.000 C 
BRANCH   6   7
ATOM      7  C   UNL     1      21.911  21.658  26.952  1.00  0.00     0.000 C 
BRANCH   7   8
ATOM      8  C   UNL     1      22.889  22.751  26.488  1.00  0.00     0.000 C 
BRANCH   8   9
ATOM      9  C   UNL     1      23.510  23.520  27.667  1.00  0.00     0.000 C 
BRANCH   9  10
ATOM     10  C   UNL     1      24.712  24.376  27.240  1.00  0.00     0.006 C 
BRANCH  10  11
ATOM     11  C   UNL     1      24.756  24.612  25.725  1.00  0.00     0.053 C 
BRANCH  11  12
ATOM     12  C   UNL     1      25.232  25.999  25.424  1.00  0.00     0.041 C 
ATOM     13  O   UNL     1      25.245  26.423  24.237  1.00  0.00    -0.550 OA
ATOM     14  O   UNL     1      25.627  26.838  26.459  1.00  0.00    -0.550 OA
ENDBRANCH  11  12
ENDBRANCH  10  11
ENDBRANCH   9  10
ENDBRANCH   8   9
ENDBRANCH   7   8
ENDBRANCH   6   7
ENDBRANCH   5   6
ENDBRANCH   4   5
ENDBRANCH   3   4
ENDBRANCH   2   3
ENDBRANCH   1   2
BRANCH   1  15
ATOM     15  C   UNL     1      27.147  20.860  25.334  1.00  0.00     0.000 C 
BRANCH  15  16
ATOM     16  C   UNL     1      27.695  19.433  25.495  1.00  0.00     0.000 C 
BRANCH  16  17
ATOM     17  C   UNL     1      28.649  19.037  24.354  1.00  0.00     0.000 C 
BRANCH  17  18
ATOM     18  C   UNL     1      28.453  19.904  23.097  1.00  0.00    -0.000 C 
BRANCH  18  19
ATOM     19  C   UNL     1      27.711  19.183  21.954  1.00  0.00    -0.000 C 
BRANCH  19  20
ATOM     20  C   UNL     1      26.201  19.479  21.958  1.00  0.00    -0.000 C 
BRANCH  20  21
ATOM     21  C   UNL     1      25.481  18.876  20.741  1.00  0.00    -0.000 C 
BRANCH  21  22
ATOM     22  C   UNL     1      26.351  18.880  19.472  1.00  0.00    -0.000 C 
BRANCH  22  23
ATOM     23  C   UNL     1      25.882  19.937  18.449  1.00  0.00    -0.000 C 
BRANCH  23  24
ATOM     24  C   UNL     1      26.773  20.023  17.196  1.00  0.00    -0.000 C 
BRANCH  24  25
ATOM     25  C   UNL     1      27.807  18.891  17.065  1.00  0.00    -0.003 C 
ATOM     26  C   UNL     1      28.596  18.957  15.757  1.00  0.00     0.004 C 
ENDBRANCH  24  25
ENDBRANCH  23  24
ENDBRANCH  22  23
ENDBRANCH  21  22
ENDBRANCH  20  21
ENDBRANCH  19  20
ENDBRANCH  18  19
ENDBRANCH  17  18
ENDBRANCH  16  17
ENDBRANCH  15  16
ENDBRANCH   1  15
TORSDOF 22
ENDMDL
MODEL 5
REMARK VINA RESULT:     2.009      2.246      7.056
REMARK INTER + INTRA:           5.120
REMARK INTER:                   6.753
REMARK INTRA:                  -1.633
REMARK UNBOUND:                 0.527
REMARK SMILES CCCCCCCCCCCCCCCCCCCCCCCC(=O)[O-]
REMARK SMILES IDX 13 1 14 2 15 3 16 4 17 5 18 6 19 7 20 8 21 9 22 10 23 11
REMARK SMILES IDX 24 12 25 13 26 14 12 15 11 16 10 17 9 18 8 19 7 20 6 21 5 22
REMARK SMILES IDX 4 23 3 24 2 25 1 26
REMARK H PARENT
REMARK Flexibility Score: inf
ROOT
ATOM      1  C   UNL     1      23.625  18.878  26.355  1.00  0.00     0.000 C 
ENDROOT
BRANCH   1   2
ATOM      2  C   UNL     1      22.892  19.247  27.657  1.00  0.00     0.000 C 
BRANCH   2   3
ATOM      3  C   UNL     1      21.725  20.241  27.485  1.00  0.00     0.000 C 
BRANCH   3   4
ATOM      4  C   UNL     1      22.067  21.714  27.789  1.00  0.00     0.000 C 
BRANCH   4   5
ATOM      5  C   UNL     1      22.736  22.478  26.633  1.00  0.00     0.000 C 
BRANCH   5   6
ATOM      6  C   UNL     1      24.223  22.765  26.889  1.00  0.00     0.000 C 
BRANCH   6   7
ATOM      7  C   UNL     1      24.396  23.792  28.017  1.00  0.00     0.000 C 
BRANCH   7   8
ATOM      8  C   UNL     1      24.146  25.233  27.543  1.00  0.00     0.000 C 
BRANCH   8   9
ATOM      9  C   UNL     1      25.403  25.875  26.929  1.00  0.00     0.000 C 
BRANCH   9  10
ATOM     10  C   UNL     1      25.634  25.436  25.475  1.00  0.00     0.006 C 
BRANCH  10  11
ATOM     11  C   UNL     1      24.467  25.818  24.555  1.00  0.00     0.053 C 
BRANCH  11  12
ATOM     12  C   UNL     1      24.801  27.046  23.768  1.00  0.00     0.041 C 
ATOM     13  O   UNL     1      24.403  28.177  24.156  1.00  0.00    -0.550 OA
ATOM     14  O   UNL     1      25.584  26.947  22.624  1.00  0.00    -0.550 OA
ENDBRANCH  11  12
ENDBRANCH  10  11
ENDBRANCH   9  10
ENDBRANCH   8   9
ENDBRANCH   7   8
ENDBRANCH   6   7
ENDBRANCH   5   6
ENDBRANCH   4   5
ENDBRANCH   3   4
ENDBRANCH   2   3
ENDBRANCH   1   2
BRANCH   1  15
ATOM     15  C   UNL     1      23.077  19.633  25.133  1.00  0.00     0.000 C 
BRANCH  15  16
ATOM     16  C   UNL     1      23.878  19.346  23.853  1.00  0.00     0.000 C 
BRANCH  16  17
ATOM     17  C   UNL     1      25.314  18.878  24.151  1.00  0.00     0.000 C 
BRANCH  17  18
ATOM     18  C   UNL     1      26.334  19.432  23.139  1.00  0.00    -0.000 C 
BRANCH  18  19
ATOM     19  C   UNL     1      26.724  20.902  23.390  1.00  0.00    -0.000 C 
BRANCH  19  20
ATOM     20  C   UNL     1      26.408  21.354  24.827  1.00  0.00    -0.000 C 
BRANCH  20  21
ATOM     21  C   UNL     1      27.568  21.079  25.797  1.00  0.00    -0.000 C 
BRANCH  21  22
ATOM     22  C   UNL     1      28.625  20.128  25.209  1.00  0.00    -0.000 C 
BRANCH  22  23
ATOM     23  C   UNL     1      29.981  20.831  24.987  1.00  0.00    -0.000 C 
BRANCH  23  24
ATOM     24  C   UNL     1      30.501  20.730  23.541  1.00  0.00    -0.000 C 
BRANCH  24  25
ATOM     25  C   UNL     1      29.685  19.797  22.629  1.00  0.00    -0.003 C 
ATOM     26  C   UNL     1      30.525  19.175  21.513  1.00  0.00     0.004 C 
ENDBRANCH  24  25
ENDBRANCH  23  24
ENDBRANCH  22  23
ENDBRANCH  21  22
ENDBRANCH  20  21
ENDBRANCH  19  20
ENDBRANCH  18  19
ENDBRANCH  17  18
ENDBRANCH  16  17
ENDBRANCH  15  16
ENDBRANCH   1  15
TORSDOF 22
ENDMDL
MODEL 6
REMARK VINA RESULT:     2.019      1.213      2.232
REMARK INTER + INTRA:           5.144
REMARK INTER:                   3.848
REMARK INTRA:                   1.296
REMARK UNBOUND:                 0.527
REMARK SMILES CCCCCCCCCCCCCCCCCCCCCCCC(=O)[O-]
REMARK SMILES IDX 13 1 14 2 15 3 16 4 17 5 18 6 19 7 20 8 21 9 22 10 23 11
REMARK SMILES IDX 24 12 25 13 26 14 12 15 11 16 10 17 9 18 8 19 7 20 6 21 5 22
REMARK SMILES IDX 4 23 3 24 2 25 1 26
REMARK H PARENT
REMARK Flexibility Score: inf
ROOT
ATOM      1  C   UNL     1      24.175  19.429  26.602  1.00  0.00     0.000 C 
ENDROOT
BRANCH   1   2
ATOM      2  C   UNL     1      25.182  18.875  25.578  1.00  0.00     0.000 C 
BRANCH   2   3
ATOM      3  C   UNL     1      25.418  19.777  24.348  1.00  0.00     0.000 C 
BRANCH   3   4
ATOM      4  C   UNL     1      25.091  19.128  22.988  1.00  0.00     0.000 C 
BRANCH   4   5
ATOM      5  C   UNL     1      26.247  19.134  21.971  1.00  0.00     0.000 C 
BRANCH   5   6
ATOM      6  C   UNL     1      27.507  19.830  22.504  1.00  0.00     0.000 C 
BRANCH   6   7
ATOM      7  C   UNL     1      28.709  18.876  22.487  1.00  0.00     0.000 C 
BRANCH   7   8
ATOM      8  C   UNL     1      29.900  19.443  21.697  1.00  0.00     0.000 C 
BRANCH   8   9
ATOM      9  C   UNL     1      31.251  19.115  22.358  1.00  0.00     0.000 C 
BRANCH   9  10
ATOM     10  C   UNL     1      31.219  19.302  23.882  1.00  0.00     0.006 C 
BRANCH  10  11
ATOM     11  C   UNL     1      30.633  20.659  24.295  1.00  0.00     0.053 C 
BRANCH  11  12
ATOM     12  C   UNL     1      29.288  20.478  24.927  1.00  0.00     0.041 C 
ATOM     13  O   UNL     1      28.685  21.463  25.431  1.00  0.00    -0.550 OA
ATOM     14  O   UNL     1      28.683  19.227  24.927  1.00  0.00    -0.550 OA
ENDBRANCH  11  12
ENDBRANCH  10  11
ENDBRANCH   9  10
ENDBRANCH   8   9
ENDBRANCH   7   8
ENDBRANCH   6   7
ENDBRANCH   5   6
ENDBRANCH   4   5
ENDBRANCH   3   4
ENDBRANCH   2   3
ENDBRANCH   1   2
BRANCH   1  15
ATOM     15  C   UNL     1      24.614  19.186  28.055  1.00  0.00     0.000 C 
BRANCH  15  16
ATOM     16  C   UNL     1      23.426  19.118  29.028  1.00  0.00     0.000 C 
BRANCH  16  17
ATOM     17  C   UNL     1      22.069  19.158  28.303  1.00  0.00     0.000 C 
BRANCH  17  18
ATOM     18  C   UNL     1      21.126  20.232  28.877  1.00  0.00    -0.000 C 
BRANCH  18  19
ATOM     19  C   UNL     1      20.718  21.312  27.856  1.00  0.00    -0.000 C 
BRANCH  19  20
ATOM     20  C   UNL     1      21.812  21.567  26.804  1.00  0.00    -0.000 C 
BRANCH  20  21
ATOM     21  C   UNL     1      22.750  22.719  27.201  1.00  0.00    -0.000 C 
BRANCH  21  22
ATOM     22  C   UNL     1      24.205  22.482  26.761  1.00  0.00    -0.000 C 
BRANCH  22  23
ATOM     23  C   UNL     1      25.132  23.648  27.165  1.00  0.00    -0.000 C 
BRANCH  23  24
ATOM     24  C   UNL     1      24.477  25.035  27.028  1.00  0.00    -0.000 C 
BRANCH  24  25
ATOM     25  C   UNL     1      25.288  26.050  26.204  1.00  0.00    -0.003 C 
ATOM     26  C   UNL     1      24.784  26.186  24.768  1.00  0.00     0.004 C 
ENDBRANCH  24  25
ENDBRANCH  23  24
ENDBRANCH  22  23
ENDBRANCH  21  22
ENDBRANCH  20  21
ENDBRANCH  19  20
ENDBRANCH  18  19
ENDBRANCH  17  18
ENDBRANCH  16  17
ENDBRANCH  15  16
ENDBRANCH   1  15
TORSDOF 22
ENDMDL
MODEL 7
REMARK VINA RESULT:     2.460      2.974      7.237
REMARK INTER + INTRA:           6.151
REMARK INTER:                   7.619
REMARK INTRA:                  -1.468
REMARK UNBOUND:                 0.527
REMARK SMILES CCCCCCCCCCCCCCCCCCCCCCCC(=O)[O-]
REMARK SMILES IDX 13 1 14 2 15 3 16 4 17 5 18 6 19 7 20 8 21 9 22 10 23 11
REMARK SMILES IDX 24 12 25 13 26 14 12 15 11 16 10 17 9 18 8 19 7 20 6 21 5 22
REMARK SMILES IDX 4 23 3 24 2 25 1 26
REMARK H PARENT
REMARK Flexibility Score: inf
ROOT
ATOM      1  C   UNL     1      22.271  23.470  27.405  1.00  0.00     0.000 C 
ENDROOT
BRANCH   1   2
ATOM      2  C   UNL     1      21.777  22.155  26.776  1.00  0.00     0.000 C 
BRANCH   2   3
ATOM      3  C   UNL     1      22.087  20.887  27.598  1.00  0.00     0.000 C 
BRANCH   3   4
ATOM      4  C   UNL     1      22.988  19.853  26.893  1.00  0.00     0.000 C 
BRANCH   4   5
ATOM      5  C   UNL     1      22.743  19.701  25.381  1.00  0.00     0.000 C 
BRANCH   5   6
ATOM      6  C   UNL     1      23.853  18.910  24.674  1.00  0.00     0.000 C 
BRANCH   6   7
ATOM      7  C   UNL     1      23.679  18.966  23.149  1.00  0.00     0.000 C 
BRANCH   7   8
ATOM      8  C   UNL     1      25.018  18.876  22.401  1.00  0.00     0.000 C 
BRANCH   8   9
ATOM      9  C   UNL     1      24.836  18.875  20.872  1.00  0.00     0.000 C 
BRANCH   9  10
ATOM     10  C   UNL     1      26.157  19.115  20.125  1.00  0.00     0.006 C 
BRANCH  10  11
ATOM     11  C   UNL     1      25.956  19.268  18.612  1.00  0.00     0.053 C 
BRANCH  11  12
ATOM     12  C   UNL     1      27.236  18.999  17.884  1.00  0.00     0.041 C 
ATOM     13  O   UNL     1      27.246  18.916  16.626  1.00  0.00    -0.550 OA
ATOM     14  O   UNL     1      28.425  18.875  18.591  1.00  0.00    -0.550 OA
ENDBRANCH  11  12
ENDBRANCH  10  11
ENDBRANCH   9  10
ENDBRANCH   8   9
ENDBRANCH   7   8
ENDBRANCH   6   7
ENDBRANCH   5   6
ENDBRANCH   4   5
ENDBRANCH   3   4
ENDBRANCH   2   3
ENDBRANCH   1   2
BRANCH   1  15
ATOM     15  C   UNL     1      23.469  24.072  26.652  1.00  0.00     0.000 C 
BRANCH  15  16
ATOM     16  C   UNL     1      24.400  22.998  26.067  1.00  0.00     0.000 C 
BRANCH  16  17
ATOM     17  C   UNL     1      25.745  22.918  26.812  1.00  0.00     0.000 C 
BRANCH  17  18
ATOM     18  C   UNL     1      26.268  21.474  26.928  1.00  0.00    -0.000 C 
BRANCH  18  19
ATOM     19  C   UNL     1      26.013  20.618  25.672  1.00  0.00    -0.000 C 
BRANCH  19  20
ATOM     20  C   UNL     1      27.311  20.036  25.086  1.00  0.00    -0.000 C 
BRANCH  20  21
ATOM     21  C   UNL     1      28.491  21.016  25.186  1.00  0.00    -0.000 C 
BRANCH  21  22
ATOM     22  C   UNL     1      29.661  20.636  24.261  1.00  0.00    -0.000 C 
BRANCH  22  23
ATOM     23  C   UNL     1      29.368  19.356  23.449  1.00  0.00    -0.000 C 
BRANCH  23  24
ATOM     24  C   UNL     1      29.771  19.459  21.966  1.00  0.00    -0.000 C 
BRANCH  24  25
ATOM     25  C   UNL     1      31.219  19.037  21.663  1.00  0.00    -0.003 C 
ATOM     26  C   UNL     1      32.252  19.908  22.377  1.00  0.00     0.004 C 
ENDBRANCH  24  25
ENDBRANCH  23  24
ENDBRANCH  22  23
ENDBRANCH  21  22
ENDBRANCH  20  21
ENDBRANCH  19  20
ENDBRANCH  18  19
ENDBRANCH  17  18
ENDBRANCH  16  17
ENDBRANCH  15  16
ENDBRANCH   1  15
TORSDOF 22
ENDMDL
MODEL 8
REMARK VINA RESULT:     2.475      2.070      3.200
REMARK INTER + INTRA:           6.187
REMARK INTER:                   5.095
REMARK INTRA:                   1.092
REMARK UNBOUND:                 0.527
REMARK SMILES CCCCCCCCCCCCCCCCCCCCCCCC(=O)[O-]
REMARK SMILES IDX 13 1 14 2 15 3 16 4 17 5 18 6 19 7 20 8 21 9 22 10 23 11
REMARK SMILES IDX 24 12 25 13 26 14 12 15 11 16 10 17 9 18 8 19 7 20 6 21 5 22
REMARK SMILES IDX 4 23 3 24 2 25 1 26
REMARK H PARENT
REMARK Flexibility Score: inf
ROOT
ATOM      1  C   UNL     1      23.449  19.537  26.902  1.00  0.00     0.000 C 
ENDROOT
BRANCH   1   2
ATOM      2  C   UNL     1      24.426  18.876  25.912  1.00  0.00     0.000 C 
BRANCH   2   3
ATOM      3  C   UNL     1      24.908  19.792  24.768  1.00  0.00     0.000 C 
BRANCH   3   4
ATOM      4  C   UNL     1      24.547  19.312  23.347  1.00  0.00     0.000 C 
BRANCH   4   5
ATOM      5  C   UNL     1      25.746  18.881  22.484  1.00  0.00     0.000 C 
BRANCH   5   6
ATOM      6  C   UNL     1      27.092  19.056  23.201  1.00  0.00     0.000 C 
BRANCH   6   7
ATOM      7  C   UNL     1      27.131  20.381  23.976  1.00  0.00     0.000 C 
BRANCH   7   8
ATOM      8  C   UNL     1      27.629  20.204  25.420  1.00  0.00     0.000 C 
BRANCH   8   9
ATOM      9  C   UNL     1      28.889  21.037  25.712  1.00  0.00     0.000 C 
BRANCH   9  10
ATOM     10  C   UNL     1      29.752  21.254  24.459  1.00  0.00     0.006 C 
BRANCH  10  11
ATOM     11  C   UNL     1      30.328  19.943  23.909  1.00  0.00     0.053 C 
BRANCH  11  12
ATOM     12  C   UNL     1      30.373  19.977  22.413  1.00  0.00     0.041 C 
ATOM     13  O   UNL     1      30.837  20.985  21.815  1.00  0.00    -0.550 OA
ATOM     14  O   UNL     1      29.936  18.882  21.679  1.00  0.00    -0.550 OA
ENDBRANCH  11  12
ENDBRANCH  10  11
ENDBRANCH   9  10
ENDBRANCH   8   9
ENDBRANCH   7   8
ENDBRANCH   6   7
ENDBRANCH   5   6
ENDBRANCH   4   5
ENDBRANCH   3   4
ENDBRANCH   2   3
ENDBRANCH   1   2
BRANCH   1  15
ATOM     15  C   UNL     1      23.775  19.202  28.367  1.00  0.00     0.000 C 
BRANCH  15  16
ATOM     16  C   UNL     1      22.513  18.978  29.216  1.00  0.00     0.000 C 
BRANCH  16  17
ATOM     17  C   UNL     1      21.218  19.206  28.416  1.00  0.00     0.000 C 
BRANCH  17  18
ATOM     18  C   UNL     1      20.350  20.331  29.011  1.00  0.00    -0.000 C 
BRANCH  18  19
ATOM     19  C   UNL     1      20.091  21.498  28.039  1.00  0.00    -0.000 C 
BRANCH  19  20
ATOM     20  C   UNL     1      21.298  21.778  27.126  1.00  0.00    -0.000 C 
BRANCH  20  21
ATOM     21  C   UNL     1      22.259  22.817  27.727  1.00  0.00    -0.000 C 
BRANCH  21  22
ATOM     22  C   UNL     1      23.679  22.723  27.141  1.00  0.00    -0.000 C 
BRANCH  22  23
ATOM     23  C   UNL     1      23.967  23.852  26.129  1.00  0.00    -0.000 C 
BRANCH  23  24
ATOM     24  C   UNL     1      25.088  24.810  26.572  1.00  0.00    -0.000 C 
BRANCH  24  25
ATOM     25  C   UNL     1      25.788  25.556  25.423  1.00  0.00    -0.003 C 
ATOM     26  C   UNL     1      24.936  26.686  24.844  1.00  0.00     0.004 C 
ENDBRANCH  24  25
ENDBRANCH  23  24
ENDBRANCH  22  23
ENDBRANCH  21  22
ENDBRANCH  20  21
ENDBRANCH  19  20
ENDBRANCH  18  19
ENDBRANCH  17  18
ENDBRANCH  16  17
ENDBRANCH  15  16
ENDBRANCH   1  15
TORSDOF 22
ENDMDL
