MODEL 1
REMARK VINA RESULT:    -3.652      0.000      0.000
REMARK INTER + INTRA:         -12.496
REMARK INTER:                  -8.349
REMARK INTRA:                  -4.147
REMARK UNBOUND:                -4.147
REMARK SMILES CCCCCCCCCCCCCCCCCCCCCCCC(=O)[O-]
REMARK SMILES IDX 13 1 14 2 15 3 16 4 17 5 18 6 19 7 20 8 21 9 22 10 23 11
REMARK SMILES IDX 24 12 25 13 26 14 12 15 11 16 10 17 9 18 8 19 7 20 6 21 5 22
REMARK SMILES IDX 4 23 3 24 2 25 1 26
REMARK H PARENT
REMARK Flexibility Score: inf
ROOT
ATOM      1  C   UNL     1       5.796   3.753  -5.624  1.00  0.00     0.000 C 
ENDROOT
BRANCH   1   2
ATOM      2  C   UNL     1       6.725   4.962  -5.416  1.00  0.00     0.000 C 
BRANCH   2   3
ATOM      3  C   UNL     1       6.727   5.990  -6.563  1.00  0.00     0.000 C 
BRANCH   3   4
ATOM      4  C   UNL     1       6.885   5.343  -7.947  1.00  0.00     0.000 C 
BRANCH   4   5
ATOM      5  C   UNL     1       6.226   6.205  -9.033  1.00  0.00     0.000 C 
BRANCH   5   6
ATOM      6  C   UNL     1       6.921   6.079 -10.401  1.00  0.00     0.000 C 
BRANCH   6   7
ATOM      7  C   UNL     1       8.426   6.416 -10.401  1.00  0.00     0.000 C 
BRANCH   7   8
ATOM      8  C   UNL     1       8.773   7.854  -9.970  1.00  0.00     0.000 C 
BRANCH   8   9
ATOM      9  C   UNL     1       9.330   7.990  -8.538  1.00  0.00     0.000 C 
BRANCH   9  10
ATOM     10  C   UNL     1       8.758   9.169  -7.726  1.00  0.00     0.006 C 
BRANCH  10  11
ATOM     11  C   UNL     1       7.355   9.621  -8.163  1.00  0.00     0.053 C 
BRANCH  11  12
ATOM     12  C   UNL     1       7.371  10.981  -8.789  1.00  0.00     0.041 C 
ATOM     13  O   UNL     1       6.842  11.168  -9.916  1.00  0.00    -0.550 OA
ATOM     14  O   UNL     1       7.999  12.038  -8.139  1.00  0.00    -0.550 OA
ENDBRANCH  11  12
ENDBRANCH  10  11
ENDBRANCH   9  10
ENDBRANCH   8   9
ENDBRANCH   7   8
ENDBRANCH   6   7
ENDBRANCH   5   6
ENDBRANCH   4   5
ENDBRANCH   3   4
ENDBRANCH   2   3
ENDBRANCH   1   2
BRANCH   1  15
ATOM     15  C   UNL     1       6.563   2.428  -5.768  1.00  0.00     0.000 C 
BRANCH  15  16
ATOM     16  C   UNL     1       7.960   2.484  -5.128  1.00  0.00     0.000 C 
BRANCH  16  17
ATOM     17  C   UNL     1       9.088   2.232  -6.140  1.00  0.00     0.000 C 
BRANCH  17  18
ATOM     18  C   UNL     1       8.521   2.026  -7.553  1.00  0.00    -0.000 C 
BRANCH  18  19
ATOM     19  C   UNL     1       9.612   1.987  -8.640  1.00  0.00    -0.000 C 
BRANCH  19  20
ATOM     20  C   UNL     1       9.427   2.995  -9.789  1.00  0.00    -0.000 C 
BRANCH  20  21
ATOM     21  C   UNL     1       8.833   2.356 -11.055  1.00  0.00    -0.000 C 
BRANCH  21  22
ATOM     22  C   UNL     1       7.303   2.487 -11.121  1.00  0.00    -0.000 C 
BRANCH  22  23
ATOM     23  C   UNL     1       6.584   1.138 -10.964  1.00  0.00    -0.000 C 
BRANCH  23  24
ATOM     24  C   UNL     1       5.582   1.182  -9.805  1.00  0.00    -0.000 C 
BRANCH  24  25
ATOM     25  C   UNL     1       5.309   2.625  -9.367  1.00  0.00    -0.003 C 
ATOM     26  C   UNL     1       3.861   3.020  -9.641  1.00  0.00     0.004 C 
ENDBRANCH  24  25
ENDBRANCH  23  24
ENDBRANCH  22  23
ENDBRANCH  21  22
ENDBRANCH  20  21
ENDBRANCH  19  20
ENDBRANCH  18  19
ENDBRANCH  17  18
ENDBRANCH  16  17
ENDBRANCH  15  16
ENDBRANCH   1  15
TORSDOF 22
ENDMDL
MODEL 2
REMARK VINA RESULT:    -3.602      3.490      6.823
REMARK INTER + INTRA:         -12.382
REMARK INTER:                  -7.811
REMARK INTRA:                  -4.571
REMARK UNBOUND:                -4.147
REMARK SMILES CCCCCCCCCCCCCCCCCCCCCCCC(=O)[O-]
REMARK SMILES IDX 13 1 14 2 15 3 16 4 17 5 18 6 19 7 20 8 21 9 22 10 23 11
REMARK SMILES IDX 24 12 25 13 26 14 12 15 11 16 10 17 9 18 8 19 7 20 6 21 5 22
REMARK SMILES IDX 4 23 3 24 2 25 1 26
REMARK H PARENT
REMARK Flexibility Score: inf
ROOT
ATOM      1  C   UNL     1       6.520   5.457  -5.622  1.00  0.00     0.000 C 
ENDROOT
BRANCH   1   2
ATOM      2  C   UNL     1       5.843   4.077  -5.533  1.00  0.00     0.000 C 
BRANCH   2   3
ATOM      3  C   UNL     1       6.321   3.046  -6.571  1.00  0.00     0.000 C 
BRANCH   3   4
ATOM      4  C   UNL     1       6.993   1.821  -5.932  1.00  0.00     0.000 C 
BRANCH   4   5
ATOM      5  C   UNL     1       8.324   1.501  -6.628  1.00  0.00     0.000 C 
BRANCH   5   6
ATOM      6  C   UNL     1       8.945   2.726  -7.325  1.00  0.00     0.000 C 
BRANCH   6   7
ATOM      7  C   UNL     1       9.428   2.479  -8.768  1.00  0.00     0.000 C 
BRANCH   7   8
ATOM      8  C   UNL     1       8.753   1.296  -9.489  1.00  0.00     0.000 C 
BRANCH   8   9
ATOM      9  C   UNL     1       8.264   1.599 -10.920  1.00  0.00     0.000 C 
BRANCH   9  10
ATOM     10  C   UNL     1       6.733   1.569 -11.104  1.00  0.00     0.006 C 
BRANCH  10  11
ATOM     11  C   UNL     1       5.939   1.407  -9.798  1.00  0.00     0.053 C 
BRANCH  11  12
ATOM     12  C   UNL     1       5.028   0.218  -9.838  1.00  0.00     0.041 C 
ATOM     13  O   UNL     1       4.014   0.221 -10.585  1.00  0.00    -0.550 OA
ATOM     14  O   UNL     1       5.282  -0.880  -9.026  1.00  0.00    -0.550 OA
ENDBRANCH  11  12
ENDBRANCH  10  11
ENDBRANCH   9  10
ENDBRANCH   8   9
ENDBRANCH   7   8
ENDBRANCH   6   7
ENDBRANCH   5   6
ENDBRANCH   4   5
ENDBRANCH   3   4
ENDBRANCH   2   3
ENDBRANCH   1   2
BRANCH   1  15
ATOM     15  C   UNL     1       7.040   5.776  -7.034  1.00  0.00     0.000 C 
BRANCH  15  16
ATOM     16  C   UNL     1       6.119   6.741  -7.798  1.00  0.00     0.000 C 
BRANCH  16  17
ATOM     17  C   UNL     1       5.746   6.225  -9.196  1.00  0.00     0.000 C 
BRANCH  17  18
ATOM     18  C   UNL     1       6.644   5.046  -9.603  1.00  0.00    -0.000 C 
BRANCH  18  19
ATOM     19  C   UNL     1       7.310   5.243 -10.978  1.00  0.00    -0.000 C 
BRANCH  19  20
ATOM     20  C   UNL     1       8.849   5.291 -10.958  1.00  0.00    -0.000 C 
BRANCH  20  21
ATOM     21  C   UNL     1       9.407   6.128  -9.796  1.00  0.00    -0.000 C 
BRANCH  21  22
ATOM     22  C   UNL     1       9.721   7.575 -10.209  1.00  0.00    -0.000 C 
BRANCH  22  23
ATOM     23  C   UNL     1       8.874   8.607  -9.449  1.00  0.00    -0.000 C 
BRANCH  23  24
ATOM     24  C   UNL     1       9.260   8.647  -7.966  1.00  0.00    -0.000 C 
BRANCH  24  25
ATOM     25  C   UNL     1       8.657   9.874  -7.273  1.00  0.00    -0.003 C 
ATOM     26  C   UNL     1       7.235  10.139  -7.758  1.00  0.00     0.004 C 
ENDBRANCH  24  25
ENDBRANCH  23  24
ENDBRANCH  22  23
ENDBRANCH  21  22
ENDBRANCH  20  21
ENDBRANCH  19  20
ENDBRANCH  18  19
ENDBRANCH  17  18
ENDBRANCH  16  17
ENDBRANCH  15  16
ENDBRANCH   1  15
TORSDOF 22
ENDMDL
MODEL 3
REMARK VINA RESULT:    -3.594      3.928      7.080
REMARK INTER + INTRA:         -12.363
REMARK INTER:                  -7.888
REMARK INTRA:                  -4.475
REMARK UNBOUND:                -4.147
REMARK SMILES CCCCCCCCCCCCCCCCCCCCCCCC(=O)[O-]
REMARK SMILES IDX 13 1 14 2 15 3 16 4 17 5 18 6 19 7 20 8 21 9 22 10 23 11
REMARK SMILES IDX 24 12 25 13 26 14 12 15 11 16 10 17 9 18 8 19 7 20 6 21 5 22
REMARK SMILES IDX 4 23 3 24 2 25 1 26
REMARK H PARENT
REMARK Flexibility Score: inf
ROOT
ATOM      1  C   UNL     1       6.666   4.763  -5.661  1.00  0.00     0.000 C 
ENDROOT
BRANCH   1   2
ATOM      2  C   UNL     1       5.987   3.396  -5.861  1.00  0.00     0.000 C 
BRANCH   2   3
ATOM      3  C   UNL     1       6.860   2.175  -5.516  1.00  0.00     0.000 C 
BRANCH   3   4
ATOM      4  C   UNL     1       8.342   2.532  -5.333  1.00  0.00     0.000 C 
BRANCH   4   5
ATOM      5  C   UNL     1       9.210   1.825  -6.385  1.00  0.00     0.000 C 
BRANCH   5   6
ATOM      6  C   UNL     1       9.002   2.383  -7.805  1.00  0.00     0.000 C 
BRANCH   6   7
ATOM      7  C   UNL     1       9.310   1.391  -8.945  1.00  0.00     0.000 C 
BRANCH   7   8
ATOM      8  C   UNL     1       8.078   0.886  -9.722  1.00  0.00     0.000 C 
BRANCH   8   9
ATOM      9  C   UNL     1       6.727   1.099  -9.010  1.00  0.00     0.000 C 
BRANCH   9  10
ATOM     10  C   UNL     1       5.513   1.255  -9.948  1.00  0.00     0.006 C 
BRANCH  10  11
ATOM     11  C   UNL     1       5.196   0.007 -10.789  1.00  0.00     0.053 C 
BRANCH  11  12
ATOM     12  C   UNL     1       5.041  -1.218  -9.941  1.00  0.00     0.041 C 
ATOM     13  O   UNL     1       4.032  -1.353  -9.201  1.00  0.00    -0.550 OA
ATOM     14  O   UNL     1       6.028  -2.196  -9.947  1.00  0.00    -0.550 OA
ENDBRANCH  11  12
ENDBRANCH  10  11
ENDBRANCH   9  10
ENDBRANCH   8   9
ENDBRANCH   7   8
ENDBRANCH   6   7
ENDBRANCH   5   6
ENDBRANCH   4   5
ENDBRANCH   3   4
ENDBRANCH   2   3
ENDBRANCH   1   2
BRANCH   1  15
ATOM     15  C   UNL     1       6.755   5.581  -6.960  1.00  0.00     0.000 C 
BRANCH  15  16
ATOM     16  C   UNL     1       6.373   4.759  -8.201  1.00  0.00     0.000 C 
BRANCH  16  17
ATOM     17  C   UNL     1       5.659   5.598  -9.272  1.00  0.00     0.000 C 
BRANCH  17  18
ATOM     18  C   UNL     1       6.261   5.341 -10.662  1.00  0.00    -0.000 C 
BRANCH  18  19
ATOM     19  C   UNL     1       7.437   4.347 -10.635  1.00  0.00    -0.000 C 
BRANCH  19  20
ATOM     20  C   UNL     1       8.804   4.941 -11.023  1.00  0.00    -0.000 C 
BRANCH  20  21
ATOM     21  C   UNL     1       9.582   5.493  -9.817  1.00  0.00    -0.000 C 
BRANCH  21  22
ATOM     22  C   UNL     1       9.664   7.028  -9.821  1.00  0.00    -0.000 C 
BRANCH  22  23
ATOM     23  C   UNL     1       9.052   7.659  -8.562  1.00  0.00    -0.000 C 
BRANCH  23  24
ATOM     24  C   UNL     1       8.063   8.771  -8.931  1.00  0.00    -0.000 C 
BRANCH  24  25
ATOM     25  C   UNL     1       8.142   9.105 -10.425  1.00  0.00    -0.003 C 
ATOM     26  C   UNL     1       6.817   8.822 -11.125  1.00  0.00     0.004 C 
ENDBRANCH  24  25
ENDBRANCH  23  24
ENDBRANCH  22  23
ENDBRANCH  21  22
ENDBRANCH  20  21
ENDBRANCH  19  20
ENDBRANCH  18  19
ENDBRANCH  17  18
ENDBRANCH  16  17
ENDBRANCH  15  16
ENDBRANCH   1  15
TORSDOF 22
ENDMDL
MODEL 4
REMARK VINA RESULT:    -3.428      4.013      7.199
REMARK INTER + INTRA:         -11.985
REMARK INTER:                  -8.619
REMARK INTRA:                  -3.365
REMARK UNBOUND:                -4.147
REMARK SMILES CCCCCCCCCCCCCCCCCCCCCCCC(=O)[O-]
REMARK SMILES IDX 13 1 14 2 15 3 16 4 17 5 18 6 19 7 20 8 21 9 22 10 23 11
REMARK SMILES IDX 24 12 25 13 26 14 12 15 11 16 10 17 9 18 8 19 7 20 6 21 5 22
REMARK SMILES IDX 4 23 3 24 2 25 1 26
REMARK H PARENT
REMARK Flexibility Score: inf
ROOT
ATOM      1  C   UNL     1       6.400   4.035  -5.385  1.00  0.00     0.000 C 
ENDROOT
BRANCH   1   2
ATOM      2  C   UNL     1       7.524   3.810  -4.358  1.00  0.00     0.000 C 
BRANCH   2   3
ATOM      3  C   UNL     1       8.622   2.823  -4.796  1.00  0.00     0.000 C 
BRANCH   3   4
ATOM      4  C   UNL     1       8.082   1.669  -5.654  1.00  0.00     0.000 C 
BRANCH   4   5
ATOM      5  C   UNL     1       9.147   1.178  -6.645  1.00  0.00     0.000 C 
BRANCH   5   6
ATOM      6  C   UNL     1       9.371   2.153  -7.815  1.00  0.00     0.000 C 
BRANCH   6   7
ATOM      7  C   UNL     1       9.378   1.502  -9.213  1.00  0.00     0.000 C 
BRANCH   7   8
ATOM      8  C   UNL     1       8.543   2.235 -10.280  1.00  0.00     0.000 C 
BRANCH   8   9
ATOM      9  C   UNL     1       7.365   1.423 -10.857  1.00  0.00     0.000 C 
BRANCH   9  10
ATOM     10  C   UNL     1       6.723   0.421  -9.876  1.00  0.00     0.006 C 
BRANCH  10  11
ATOM     11  C   UNL     1       5.304  -0.027 -10.264  1.00  0.00     0.053 C 
BRANCH  11  12
ATOM     12  C   UNL     1       5.028  -1.440  -9.850  1.00  0.00     0.041 C 
ATOM     13  O   UNL     1       3.867  -1.783  -9.503  1.00  0.00    -0.550 OA
ATOM     14  O   UNL     1       6.060  -2.370  -9.820  1.00  0.00    -0.550 OA
ENDBRANCH  11  12
ENDBRANCH  10  11
ENDBRANCH   9  10
ENDBRANCH   8   9
ENDBRANCH   7   8
ENDBRANCH   6   7
ENDBRANCH   5   6
ENDBRANCH   4   5
ENDBRANCH   3   4
ENDBRANCH   2   3
ENDBRANCH   1   2
BRANCH   1  15
ATOM     15  C   UNL     1       6.745   5.117  -6.421  1.00  0.00     0.000 C 
BRANCH  15  16
ATOM     16  C   UNL     1       6.696   4.589  -7.864  1.00  0.00     0.000 C 
BRANCH  16  17
ATOM     17  C   UNL     1       5.813   3.340  -8.010  1.00  0.00     0.000 C 
BRANCH  17  18
ATOM     18  C   UNL     1       4.730   3.557  -9.077  1.00  0.00    -0.000 C 
BRANCH  18  19
ATOM     19  C   UNL     1       5.188   4.478 -10.224  1.00  0.00    -0.000 C 
BRANCH  19  20
ATOM     20  C   UNL     1       4.880   5.973 -10.025  1.00  0.00    -0.000 C 
BRANCH  20  21
ATOM     21  C   UNL     1       5.486   6.861 -11.124  1.00  0.00    -0.000 C 
BRANCH  21  22
ATOM     22  C   UNL     1       6.945   7.248 -10.832  1.00  0.00    -0.000 C 
BRANCH  22  23
ATOM     23  C   UNL     1       7.075   8.243  -9.670  1.00  0.00    -0.000 C 
BRANCH  23  24
ATOM     24  C   UNL     1       8.190   7.819  -8.706  1.00  0.00    -0.000 C 
BRANCH  24  25
ATOM     25  C   UNL     1       8.146   8.645  -7.416  1.00  0.00    -0.003 C 
ATOM     26  C   UNL     1       7.805  10.103  -7.705  1.00  0.00     0.004 C 
ENDBRANCH  24  25
ENDBRANCH  23  24
ENDBRANCH  22  23
ENDBRANCH  21  22
ENDBRANCH  20  21
ENDBRANCH  19  20
ENDBRANCH  18  19
ENDBRANCH  17  18
ENDBRANCH  16  17
ENDBRANCH  15  16
ENDBRANCH   1  15
TORSDOF 22
ENDMDL
MODEL 5
REMARK VINA RESULT:    -3.390      3.711      7.411
REMARK INTER + INTRA:         -11.896
REMARK INTER:                  -8.873
REMARK INTRA:                  -3.023
REMARK UNBOUND:                -4.147
REMARK SMILES CCCCCCCCCCCCCCCCCCCCCCCC(=O)[O-]
REMARK SMILES IDX 13 1 14 2 15 3 16 4 17 5 18 6 19 7 20 8 21 9 22 10 23 11
REMARK SMILES IDX 24 12 25 13 26 14 12 15 11 16 10 17 9 18 8 19 7 20 6 21 5 22
REMARK SMILES IDX 4 23 3 24 2 25 1 26
REMARK H PARENT
REMARK Flexibility Score: inf
ROOT
ATOM      1  C   UNL     1       5.987   3.513  -5.882  1.00  0.00     0.000 C 
ENDROOT
BRANCH   1   2
ATOM      2  C   UNL     1       6.434   2.907  -7.225  1.00  0.00     0.000 C 
BRANCH   2   3
ATOM      3  C   UNL     1       5.517   3.219  -8.421  1.00  0.00     0.000 C 
BRANCH   3   4
ATOM      4  C   UNL     1       6.228   4.006  -9.532  1.00  0.00     0.000 C 
BRANCH   4   5
ATOM      5  C   UNL     1       7.743   3.762  -9.492  1.00  0.00     0.000 C 
BRANCH   5   6
ATOM      6  C   UNL     1       8.344   3.499 -10.885  1.00  0.00     0.000 C 
BRANCH   6   7
ATOM      7  C   UNL     1       9.568   2.560 -10.899  1.00  0.00     0.000 C 
BRANCH   7   8
ATOM      8  C   UNL     1      10.124   2.190  -9.511  1.00  0.00     0.000 C 
BRANCH   8   9
ATOM      9  C   UNL     1       9.707   0.799  -8.991  1.00  0.00     0.000 C 
BRANCH   9  10
ATOM     10  C   UNL     1       8.999   0.801  -7.621  1.00  0.00     0.006 C 
BRANCH  10  11
ATOM     11  C   UNL     1       9.945   0.939  -6.417  1.00  0.00     0.053 C 
BRANCH  11  12
ATOM     12  C   UNL     1       9.314   0.453  -5.148  1.00  0.00     0.041 C 
ATOM     13  O   UNL     1       8.709   1.258  -4.393  1.00  0.00    -0.550 OA
ATOM     14  O   UNL     1       9.423  -0.884  -4.785  1.00  0.00    -0.550 OA
ENDBRANCH  11  12
ENDBRANCH  10  11
ENDBRANCH   9  10
ENDBRANCH   8   9
ENDBRANCH   7   8
ENDBRANCH   6   7
ENDBRANCH   5   6
ENDBRANCH   4   5
ENDBRANCH   3   4
ENDBRANCH   2   3
ENDBRANCH   1   2
BRANCH   1  15
ATOM     15  C   UNL     1       6.869   4.690  -5.435  1.00  0.00     0.000 C 
BRANCH  15  16
ATOM     16  C   UNL     1       6.339   6.045  -5.930  1.00  0.00     0.000 C 
BRANCH  16  17
ATOM     17  C   UNL     1       7.159   6.612  -7.099  1.00  0.00     0.000 C 
BRANCH  17  18
ATOM     18  C   UNL     1       6.354   7.667  -7.874  1.00  0.00    -0.000 C 
BRANCH  18  19
ATOM     19  C   UNL     1       6.635   7.647  -9.388  1.00  0.00    -0.000 C 
BRANCH  19  20
ATOM     20  C   UNL     1       8.100   7.378  -9.778  1.00  0.00    -0.000 C 
BRANCH  20  21
ATOM     21  C   UNL     1       8.859   8.656 -10.169  1.00  0.00    -0.000 C 
BRANCH  21  22
ATOM     22  C   UNL     1       9.679   9.235  -9.005  1.00  0.00    -0.000 C 
BRANCH  22  23
ATOM     23  C   UNL     1       9.449  10.741  -8.807  1.00  0.00    -0.000 C 
BRANCH  23  24
ATOM     24  C   UNL     1       7.983  11.110  -9.060  1.00  0.00    -0.000 C 
BRANCH  24  25
ATOM     25  C   UNL     1       7.705  12.565  -8.668  1.00  0.00    -0.003 C 
ATOM     26  C   UNL     1       8.926  13.201  -8.010  1.00  0.00     0.004 C 
ENDBRANCH  24  25
ENDBRANCH  23  24
ENDBRANCH  22  23
ENDBRANCH  21  22
ENDBRANCH  20  21
ENDBRANCH  19  20
ENDBRANCH  18  19
ENDBRANCH  17  18
ENDBRANCH  16  17
ENDBRANCH  15  16
ENDBRANCH   1  15
TORSDOF 22
ENDMDL
MODEL 6
REMARK VINA RESULT:    -3.381      1.311      2.002
REMARK INTER + INTRA:         -11.876
REMARK INTER:                  -8.142
REMARK INTRA:                  -3.734
REMARK UNBOUND:                -4.147
REMARK SMILES CCCCCCCCCCCCCCCCCCCCCCCC(=O)[O-]
REMARK SMILES IDX 13 1 14 2 15 3 16 4 17 5 18 6 19 7 20 8 21 9 22 10 23 11
REMARK SMILES IDX 24 12 25 13 26 14 12 15 11 16 10 17 9 18 8 19 7 20 6 21 5 22
REMARK SMILES IDX 4 23 3 24 2 25 1 26
REMARK H PARENT
REMARK Flexibility Score: inf
ROOT
ATOM      1  C   UNL     1       6.377   2.382  -5.477  1.00  0.00     0.000 C 
ENDROOT
BRANCH   1   2
ATOM      2  C   UNL     1       5.797   3.795  -5.672  1.00  0.00     0.000 C 
BRANCH   2   3
ATOM      3  C   UNL     1       6.808   4.945  -5.511  1.00  0.00     0.000 C 
BRANCH   3   4
ATOM      4  C   UNL     1       6.716   5.987  -6.635  1.00  0.00     0.000 C 
BRANCH   4   5
ATOM      5  C   UNL     1       7.428   5.490  -7.902  1.00  0.00     0.000 C 
BRANCH   5   6
ATOM      6  C   UNL     1       6.452   5.147  -9.042  1.00  0.00     0.000 C 
BRANCH   6   7
ATOM      7  C   UNL     1       7.033   5.296 -10.463  1.00  0.00     0.000 C 
BRANCH   7   8
ATOM      8  C   UNL     1       8.463   5.866 -10.528  1.00  0.00     0.000 C 
BRANCH   8   9
ATOM      9  C   UNL     1       8.553   7.361 -10.895  1.00  0.00     0.000 C 
BRANCH   9  10
ATOM     10  C   UNL     1       8.719   8.318  -9.696  1.00  0.00     0.006 C 
BRANCH  10  11
ATOM     11  C   UNL     1       7.408   8.946  -9.199  1.00  0.00     0.053 C 
BRANCH  11  12
ATOM     12  C   UNL     1       7.562   9.571  -7.846  1.00  0.00     0.041 C 
ATOM     13  O   UNL     1       6.689  10.368  -7.413  1.00  0.00    -0.550 OA
ATOM     14  O   UNL     1       8.686   9.295  -7.076  1.00  0.00    -0.550 OA
ENDBRANCH  11  12
ENDBRANCH  10  11
ENDBRANCH   9  10
ENDBRANCH   8   9
ENDBRANCH   7   8
ENDBRANCH   6   7
ENDBRANCH   5   6
ENDBRANCH   4   5
ENDBRANCH   3   4
ENDBRANCH   2   3
ENDBRANCH   1   2
BRANCH   1  15
ATOM     15  C   UNL     1       7.142   1.876  -6.711  1.00  0.00     0.000 C 
BRANCH  15  16
ATOM     16  C   UNL     1       8.483   1.218  -6.345  1.00  0.00     0.000 C 
BRANCH  16  17
ATOM     17  C   UNL     1       9.668   1.814  -7.118  1.00  0.00     0.000 C 
BRANCH  17  18
ATOM     18  C   UNL     1       9.180   2.694  -8.278  1.00  0.00    -0.000 C 
BRANCH  18  19
ATOM     19  C   UNL     1      10.018   2.522  -9.559  1.00  0.00    -0.000 C 
BRANCH  19  20
ATOM     20  C   UNL     1       9.219   2.133 -10.817  1.00  0.00    -0.000 C 
BRANCH  20  21
ATOM     21  C   UNL     1       8.040   1.195 -10.511  1.00  0.00    -0.000 C 
BRANCH  21  22
ATOM     22  C   UNL     1       6.719   1.688 -11.123  1.00  0.00    -0.000 C 
BRANCH  22  23
ATOM     23  C   UNL     1       5.556   1.673 -10.120  1.00  0.00    -0.000 C 
BRANCH  23  24
ATOM     24  C   UNL     1       4.240   1.297 -10.811  1.00  0.00    -0.000 C 
BRANCH  24  25
ATOM     25  C   UNL     1       3.777  -0.101 -10.389  1.00  0.00    -0.003 C 
ATOM     26  C   UNL     1       4.696  -1.181 -10.953  1.00  0.00     0.004 C 
ENDBRANCH  24  25
ENDBRANCH  23  24
ENDBRANCH  22  23
ENDBRANCH  21  22
ENDBRANCH  20  21
ENDBRANCH  19  20
ENDBRANCH  18  19
ENDBRANCH  17  18
ENDBRANCH  16  17
ENDBRANCH  15  16
ENDBRANCH   1  15
TORSDOF 22
ENDMDL
MODEL 7
REMARK VINA RESULT:    -3.315      1.278      3.248
REMARK INTER + INTRA:         -11.725
REMARK INTER:                  -7.261
REMARK INTRA:                  -4.464
REMARK UNBOUND:                -4.147
REMARK SMILES CCCCCCCCCCCCCCCCCCCCCCCC(=O)[O-]
REMARK SMILES IDX 13 1 14 2 15 3 16 4 17 5 18 6 19 7 20 8 21 9 22 10 23 11
REMARK SMILES IDX 24 12 25 13 26 14 12 15 11 16 10 17 9 18 8 19 7 20 6 21 5 22
REMARK SMILES IDX 4 23 3 24 2 25 1 26
REMARK H PARENT
REMARK Flexibility Score: inf
ROOT
ATOM      1  C   UNL     1       8.315   2.577  -6.179  1.00  0.00     0.000 C 
ENDROOT
BRANCH   1   2
ATOM      2  C   UNL     1       8.915   1.456  -7.046  1.00  0.00     0.000 C 
BRANCH   2   3
ATOM      3  C   UNL     1       9.439   1.905  -8.423  1.00  0.00     0.000 C 
BRANCH   3   4
ATOM      4  C   UNL     1       9.026   3.339  -8.783  1.00  0.00     0.000 C 
BRANCH   4   5
ATOM      5  C   UNL     1       8.840   3.492 -10.300  1.00  0.00     0.000 C 
BRANCH   5   6
ATOM      6  C   UNL     1       9.235   4.888 -10.813  1.00  0.00     0.000 C 
BRANCH   6   7
ATOM      7  C   UNL     1       9.660   5.888  -9.719  1.00  0.00     0.000 C 
BRANCH   7   8
ATOM      8  C   UNL     1       9.874   7.336 -10.204  1.00  0.00     0.000 C 
BRANCH   8   9
ATOM      9  C   UNL     1       8.617   8.023 -10.775  1.00  0.00     0.000 C 
BRANCH   9  10
ATOM     10  C   UNL     1       8.273   9.386 -10.138  1.00  0.00     0.006 C 
BRANCH  10  11
ATOM     11  C   UNL     1       9.127   9.747  -8.912  1.00  0.00     0.053 C 
BRANCH  11  12
ATOM     12  C   UNL     1       8.327   9.732  -7.646  1.00  0.00     0.041 C 
ATOM     13  O   UNL     1       7.090   9.495  -7.679  1.00  0.00    -0.550 OA
ATOM     14  O   UNL     1       8.942  10.011  -6.431  1.00  0.00    -0.550 OA
ENDBRANCH  11  12
ENDBRANCH  10  11
ENDBRANCH   9  10
ENDBRANCH   8   9
ENDBRANCH   7   8
ENDBRANCH   6   7
ENDBRANCH   5   6
ENDBRANCH   4   5
ENDBRANCH   3   4
ENDBRANCH   2   3
ENDBRANCH   1   2
BRANCH   1  15
ATOM     15  C   UNL     1       6.820   2.367  -5.882  1.00  0.00     0.000 C 
BRANCH  15  16
ATOM     16  C   UNL     1       5.993   3.647  -6.088  1.00  0.00     0.000 C 
BRANCH  16  17
ATOM     17  C   UNL     1       6.698   4.902  -5.553  1.00  0.00     0.000 C 
BRANCH  17  18
ATOM     18  C   UNL     1       6.744   6.004  -6.622  1.00  0.00    -0.000 C 
BRANCH  18  19
ATOM     19  C   UNL     1       6.458   5.478  -8.042  1.00  0.00    -0.000 C 
BRANCH  19  20
ATOM     20  C   UNL     1       5.820   6.500  -9.001  1.00  0.00    -0.000 C 
BRANCH  20  21
ATOM     21  C   UNL     1       5.650   5.955 -10.429  1.00  0.00    -0.000 C 
BRANCH  21  22
ATOM     22  C   UNL     1       4.561   4.874 -10.522  1.00  0.00    -0.000 C 
BRANCH  22  23
ATOM     23  C   UNL     1       5.135   3.470 -10.765  1.00  0.00    -0.000 C 
BRANCH  23  24
ATOM     24  C   UNL     1       4.809   2.534  -9.595  1.00  0.00    -0.000 C 
BRANCH  24  25
ATOM     25  C   UNL     1       5.884   1.453  -9.439  1.00  0.00    -0.003 C 
ATOM     26  C   UNL     1       6.262   0.852 -10.788  1.00  0.00     0.004 C 
ENDBRANCH  24  25
ENDBRANCH  23  24
ENDBRANCH  22  23
ENDBRANCH  21  22
ENDBRANCH  20  21
ENDBRANCH  19  20
ENDBRANCH  18  19
ENDBRANCH  17  18
ENDBRANCH  16  17
ENDBRANCH  15  16
ENDBRANCH   1  15
TORSDOF 22
ENDMDL
MODEL 8
REMARK VINA RESULT:    -3.308      2.672      4.805
REMARK INTER + INTRA:         -11.709
REMARK INTER:                  -8.208
REMARK INTRA:                  -3.501
REMARK UNBOUND:                -4.147
REMARK SMILES CCCCCCCCCCCCCCCCCCCCCCCC(=O)[O-]
REMARK SMILES IDX 13 1 14 2 15 3 16 4 17 5 18 6 19 7 20 8 21 9 22 10 23 11
REMARK SMILES IDX 24 12 25 13 26 14 12 15 11 16 10 17 9 18 8 19 7 20 6 21 5 22
REMARK SMILES IDX 4 23 3 24 2 25 1 26
REMARK H PARENT
REMARK Flexibility Score: inf
ROOT
ATOM      1  C   UNL     1       7.071   3.436  -5.126  1.00  0.00     0.000 C 
ENDROOT
BRANCH   1   2
ATOM      2  C   UNL     1       8.347   3.226  -5.961  1.00  0.00     0.000 C 
BRANCH   2   3
ATOM      3  C   UNL     1       8.858   1.774  -6.020  1.00  0.00     0.000 C 
BRANCH   3   4
ATOM      4  C   UNL     1       9.369   1.375  -7.412  1.00  0.00     0.000 C 
BRANCH   4   5
ATOM      5  C   UNL     1       8.228   1.398  -8.441  1.00  0.00     0.000 C 
BRANCH   5   6
ATOM      6  C   UNL     1       8.564   0.615  -9.724  1.00  0.00     0.000 C 
BRANCH   6   7
ATOM      7  C   UNL     1       8.536   1.448 -11.021  1.00  0.00     0.000 C 
BRANCH   7   8
ATOM      8  C   UNL     1       9.460   2.681 -11.026  1.00  0.00     0.000 C 
BRANCH   8   9
ATOM      9  C   UNL     1       8.734   4.039 -11.112  1.00  0.00     0.000 C 
BRANCH   9  10
ATOM     10  C   UNL     1       9.364   5.169 -10.272  1.00  0.00     0.006 C 
BRANCH  10  11
ATOM     11  C   UNL     1       8.751   5.338  -8.873  1.00  0.00     0.053 C 
BRANCH  11  12
ATOM     12  C   UNL     1       8.345   6.755  -8.604  1.00  0.00     0.041 C 
ATOM     13  O   UNL     1       9.167   7.566  -8.102  1.00  0.00    -0.550 OA
ATOM     14  O   UNL     1       7.048   7.171  -8.880  1.00  0.00    -0.550 OA
ENDBRANCH  11  12
ENDBRANCH  10  11
ENDBRANCH   9  10
ENDBRANCH   8   9
ENDBRANCH   7   8
ENDBRANCH   6   7
ENDBRANCH   5   6
ENDBRANCH   4   5
ENDBRANCH   3   4
ENDBRANCH   2   3
ENDBRANCH   1   2
BRANCH   1  15
ATOM     15  C   UNL     1       5.785   3.323  -5.963  1.00  0.00     0.000 C 
BRANCH  15  16
ATOM     16  C   UNL     1       5.931   3.960  -7.355  1.00  0.00     0.000 C 
BRANCH  16  17
ATOM     17  C   UNL     1       5.132   3.215  -8.435  1.00  0.00     0.000 C 
BRANCH  17  18
ATOM     18  C   UNL     1       5.438   3.779  -9.830  1.00  0.00    -0.000 C 
BRANCH  18  19
ATOM     19  C   UNL     1       5.014   2.833 -10.970  1.00  0.00    -0.000 C 
BRANCH  19  20
ATOM     20  C   UNL     1       4.302   1.544 -10.518  1.00  0.00    -0.000 C 
BRANCH  20  21
ATOM     21  C   UNL     1       5.083   0.270 -10.878  1.00  0.00    -0.000 C 
BRANCH  21  22
ATOM     22  C   UNL     1       4.826  -0.879  -9.891  1.00  0.00    -0.000 C 
BRANCH  22  23
ATOM     23  C   UNL     1       5.474  -2.200 -10.334  1.00  0.00    -0.000 C 
BRANCH  23  24
ATOM     24  C   UNL     1       4.411  -3.204 -10.796  1.00  0.00    -0.000 C 
BRANCH  24  25
ATOM     25  C   UNL     1       4.452  -4.479  -9.945  1.00  0.00    -0.003 C 
ATOM     26  C   UNL     1       5.844  -5.105  -9.956  1.00  0.00     0.004 C 
ENDBRANCH  24  25
ENDBRANCH  23  24
ENDBRANCH  22  23
ENDBRANCH  21  22
ENDBRANCH  20  21
ENDBRANCH  19  20
ENDBRANCH  18  19
ENDBRANCH  17  18
ENDBRANCH  16  17
ENDBRANCH  15  16
ENDBRANCH   1  15
TORSDOF 22
ENDMDL
MODEL 9
REMARK VINA RESULT:    -3.293      4.568      6.808
REMARK INTER + INTRA:         -11.674
REMARK INTER:                  -9.683
REMARK INTRA:                  -1.991
REMARK UNBOUND:                -4.147
REMARK SMILES CCCCCCCCCCCCCCCCCCCCCCCC(=O)[O-]
REMARK SMILES IDX 13 1 14 2 15 3 16 4 17 5 18 6 19 7 20 8 21 9 22 10 23 11
REMARK SMILES IDX 24 12 25 13 26 14 12 15 11 16 10 17 9 18 8 19 7 20 6 21 5 22
REMARK SMILES IDX 4 23 3 24 2 25 1 26
REMARK H PARENT
REMARK Flexibility Score: inf
ROOT
ATOM      1  C   UNL     1       5.159   4.448  -9.815  1.00  0.00     0.000 C 
ENDROOT
BRANCH   1   2
ATOM      2  C   UNL     1       4.756   5.461 -10.901  1.00  0.00     0.000 C 
BRANCH   2   3
ATOM      3  C   UNL     1       5.624   6.732 -10.965  1.00  0.00     0.000 C 
BRANCH   3   4
ATOM      4  C   UNL     1       7.101   6.464 -10.640  1.00  0.00     0.000 C 
BRANCH   4   5
ATOM      5  C   UNL     1       7.662   7.548  -9.708  1.00  0.00     0.000 C 
BRANCH   5   6
ATOM      6  C   UNL     1       6.993   7.549  -8.321  1.00  0.00     0.000 C 
BRANCH   6   7
ATOM      7  C   UNL     1       7.393   6.375  -7.405  1.00  0.00     0.000 C 
BRANCH   7   8
ATOM      8  C   UNL     1       6.316   5.941  -6.391  1.00  0.00     0.000 C 
BRANCH   8   9
ATOM      9  C   UNL     1       6.708   4.748  -5.495  1.00  0.00     0.000 C 
BRANCH   9  10
ATOM     10  C   UNL     1       7.607   3.693  -6.172  1.00  0.00     0.006 C 
BRANCH  10  11
ATOM     11  C   UNL     1       8.171   2.631  -5.214  1.00  0.00     0.053 C 
BRANCH  11  12
ATOM     12  C   UNL     1       7.741   1.247  -5.593  1.00  0.00     0.041 C 
ATOM     13  O   UNL     1       6.747   1.076  -6.346  1.00  0.00    -0.550 OA
ATOM     14  O   UNL     1       8.421   0.145  -5.088  1.00  0.00    -0.550 OA
ENDBRANCH  11  12
ENDBRANCH  10  11
ENDBRANCH   9  10
ENDBRANCH   8   9
ENDBRANCH   7   8
ENDBRANCH   6   7
ENDBRANCH   5   6
ENDBRANCH   4   5
ENDBRANCH   3   4
ENDBRANCH   2   3
ENDBRANCH   1   2
BRANCH   1  15
ATOM     15  C   UNL     1       4.027   3.469  -9.462  1.00  0.00     0.000 C 
BRANCH  15  16
ATOM     16  C   UNL     1       3.737   2.470 -10.595  1.00  0.00     0.000 C 
BRANCH  16  17
ATOM     17  C   UNL     1       5.000   1.746 -11.086  1.00  0.00     0.000 C 
BRANCH  17  18
ATOM     18  C   UNL     1       5.117   0.354 -10.447  1.00  0.00    -0.000 C 
BRANCH  18  19
ATOM     19  C   UNL     1       3.754  -0.335 -10.248  1.00  0.00    -0.000 C 
BRANCH  19  20
ATOM     20  C   UNL     1       3.609  -1.708 -10.929  1.00  0.00    -0.000 C 
BRANCH  20  21
ATOM     21  C   UNL     1       3.763  -2.882  -9.949  1.00  0.00    -0.000 C 
BRANCH  21  22
ATOM     22  C   UNL     1       3.303  -4.219 -10.552  1.00  0.00    -0.000 C 
BRANCH  22  23
ATOM     23  C   UNL     1       3.847  -5.435  -9.786  1.00  0.00    -0.000 C 
BRANCH  23  24
ATOM     24  C   UNL     1       5.144  -5.948 -10.421  1.00  0.00    -0.000 C 
BRANCH  24  25
ATOM     25  C   UNL     1       6.344  -5.695  -9.502  1.00  0.00    -0.003 C 
ATOM     26  C   UNL     1       7.179  -4.517  -9.996  1.00  0.00     0.004 C 
ENDBRANCH  24  25
ENDBRANCH  23  24
ENDBRANCH  22  23
ENDBRANCH  21  22
ENDBRANCH  20  21
ENDBRANCH  19  20
ENDBRANCH  18  19
ENDBRANCH  17  18
ENDBRANCH  16  17
ENDBRANCH  15  16
ENDBRANCH   1  15
TORSDOF 22
ENDMDL
