MODEL 1
REMARK VINA RESULT:    -4.092      0.000      0.000
REMARK INTER + INTRA:          -4.830
REMARK INTER:                  -4.690
REMARK INTRA:                  -0.140
REMARK UNBOUND:                -0.140
REMARK SMILES O=C([O-])C=Cc1ccc(O)cc1
REMARK SMILES IDX 6 1 7 2 12 3 8 4 11 5 9 6 5 7 4 8 2 9 1 10 3 11 10 12
REMARK H PARENT 10 13
REMARK Flexibility Score: inf
ROOT
ATOM      1  C   UNL     1     -25.944   9.101  -4.510  1.00  0.00    -0.025 A 
ATOM      2  C   UNL     1     -25.215  10.173  -3.968  1.00  0.00     0.012 A 
ATOM      3  C   UNL     1     -25.243   7.973  -4.984  1.00  0.00     0.012 A 
ATOM      4  C   UNL     1     -23.822  10.112  -3.875  1.00  0.00     0.047 A 
ATOM      5  C   UNL     1     -23.849   7.916  -4.889  1.00  0.00     0.047 A 
ATOM      6  C   UNL     1     -23.135   8.982  -4.335  1.00  0.00     0.115 A 
ENDROOT
BRANCH   1   7
ATOM      7  C   UNL     1     -27.421   9.218  -4.596  1.00  0.00     0.010 C 
ATOM      8  C   UNL     1     -28.234   8.196  -4.898  1.00  0.00     0.025 C 
BRANCH   8   9
ATOM      9  C   UNL     1     -29.695   8.355  -4.960  1.00  0.00     0.064 C 
ATOM     10  O   UNL     1     -30.309   8.042  -6.013  1.00  0.00    -0.545 OA
ATOM     11  O   UNL     1     -30.410   8.848  -3.875  1.00  0.00    -0.545 OA
ENDBRANCH   8   9
ENDBRANCH   1   7
BRANCH   6  12
ATOM     12  O   UNL     1     -21.746   8.909  -4.247  1.00  0.00    -0.508 OA
ATOM     13  H   UNL     1     -21.154   9.645  -4.614  1.00  0.00     0.293 HD
ENDBRANCH   6  12
TORSDOF 3
ENDMDL
MODEL 2
REMARK VINA RESULT:    -3.498      1.142      5.878
REMARK INTER + INTRA:          -4.149
REMARK INTER:                  -4.003
REMARK INTRA:                  -0.146
REMARK UNBOUND:                -0.140
REMARK SMILES O=C([O-])C=Cc1ccc(O)cc1
REMARK SMILES IDX 6 1 7 2 12 3 8 4 11 5 9 6 5 7 4 8 2 9 1 10 3 11 10 12
REMARK H PARENT 10 13
REMARK Flexibility Score: inf
ROOT
ATOM      1  C   UNL     1     -26.163   8.822  -4.682  1.00  0.00    -0.025 A 
ATOM      2  C   UNL     1     -26.861   7.825  -5.385  1.00  0.00     0.012 A 
ATOM      3  C   UNL     1     -26.895   9.766  -3.934  1.00  0.00     0.012 A 
ATOM      4  C   UNL     1     -28.256   7.755  -5.323  1.00  0.00     0.047 A 
ATOM      5  C   UNL     1     -28.291   9.692  -3.875  1.00  0.00     0.047 A 
ATOM      6  C   UNL     1     -28.974   8.688  -4.566  1.00  0.00     0.115 A 
ENDROOT
BRANCH   1   7
ATOM      7  C   UNL     1     -24.683   8.861  -4.787  1.00  0.00     0.010 C 
ATOM      8  C   UNL     1     -23.907   7.768  -4.796  1.00  0.00     0.025 C 
BRANCH   8   9
ATOM      9  C   UNL     1     -22.443   7.854  -4.914  1.00  0.00     0.064 C 
ATOM     10  O   UNL     1     -21.815   8.718  -4.250  1.00  0.00    -0.545 OA
ATOM     11  O   UNL     1     -21.740   6.994  -5.750  1.00  0.00    -0.545 OA
ENDBRANCH   8   9
ENDBRANCH   1   7
BRANCH   6  12
ATOM     12  O   UNL     1     -30.364   8.628  -4.496  1.00  0.00    -0.508 OA
ATOM     13  H   UNL     1     -30.838   7.870  -4.019  1.00  0.00     0.293 HD
ENDBRANCH   6  12
TORSDOF 3
ENDMDL
MODEL 3
REMARK VINA RESULT:    -2.752      1.130      1.666
REMARK INTER + INTRA:          -3.294
REMARK INTER:                  -3.154
REMARK INTRA:                  -0.140
REMARK UNBOUND:                -0.140
REMARK SMILES O=C([O-])C=Cc1ccc(O)cc1
REMARK SMILES IDX 6 1 7 2 12 3 8 4 11 5 9 6 5 7 4 8 2 9 1 10 3 11 10 12
REMARK H PARENT 10 13
REMARK Flexibility Score: inf
ROOT
ATOM      1  C   UNL     1     -25.173   8.218  -4.984  1.00  0.00    -0.025 A 
ATOM      2  C   UNL     1     -24.160   9.036  -4.454  1.00  0.00     0.012 A 
ATOM      3  C   UNL     1     -24.811   7.014  -5.621  1.00  0.00     0.012 A 
ATOM      4  C   UNL     1     -22.819   8.650  -4.534  1.00  0.00     0.047 A 
ATOM      5  C   UNL     1     -23.468   6.632  -5.699  1.00  0.00     0.047 A 
ATOM      6  C   UNL     1     -22.470   7.444  -5.155  1.00  0.00     0.115 A 
ENDROOT
BRANCH   1   7
ATOM      7  C   UNL     1     -26.580   8.677  -4.883  1.00  0.00     0.010 C 
ATOM      8  C   UNL     1     -27.640   7.865  -5.002  1.00  0.00     0.025 C 
BRANCH   8   9
ATOM      9  C   UNL     1     -29.019   8.362  -4.884  1.00  0.00     0.064 C 
ATOM     10  O   UNL     1     -29.353   9.036  -3.875  1.00  0.00    -0.545 OA
ATOM     11  O   UNL     1     -29.964   8.098  -5.869  1.00  0.00    -0.545 OA
ENDBRANCH   8   9
ENDBRANCH   1   7
BRANCH   6  12
ATOM     12  O   UNL     1     -21.136   7.048  -5.241  1.00  0.00    -0.508 OA
ATOM     13  H   UNL     1     -20.665   6.605  -4.461  1.00  0.00     0.293 HD
ENDBRANCH   6  12
TORSDOF 3
ENDMDL
MODEL 4
REMARK VINA RESULT:    -2.644      1.485      2.486
REMARK INTER + INTRA:          -3.171
REMARK INTER:                  -3.016
REMARK INTRA:                  -0.154
REMARK UNBOUND:                -0.140
REMARK SMILES O=C([O-])C=Cc1ccc(O)cc1
REMARK SMILES IDX 6 1 7 2 12 3 8 4 11 5 9 6 5 7 4 8 2 9 1 10 3 11 10 12
REMARK H PARENT 10 13
REMARK Flexibility Score: inf
ROOT
ATOM      1  C   UNL     1     -24.564   8.179  -4.806  1.00  0.00    -0.025 A 
ATOM      2  C   UNL     1     -24.409   6.989  -5.538  1.00  0.00     0.012 A 
ATOM      3  C   UNL     1     -23.413   8.841  -4.334  1.00  0.00     0.012 A 
ATOM      4  C   UNL     1     -23.135   6.485  -5.815  1.00  0.00     0.047 A 
ATOM      5  C   UNL     1     -22.140   8.333  -4.613  1.00  0.00     0.047 A 
ATOM      6  C   UNL     1     -21.997   7.158  -5.354  1.00  0.00     0.115 A 
ENDROOT
BRANCH   1   7
ATOM      7  C   UNL     1     -25.938   8.668  -4.529  1.00  0.00     0.010 C 
ATOM      8  C   UNL     1     -27.039   8.161  -5.099  1.00  0.00     0.025 C 
BRANCH   8   9
ATOM      9  C   UNL     1     -28.383   8.669  -4.786  1.00  0.00     0.064 C 
ATOM     10  O   UNL     1     -28.515   9.612  -3.963  1.00  0.00    -0.545 OA
ATOM     11  O   UNL     1     -29.514   8.124  -5.383  1.00  0.00    -0.545 OA
ENDBRANCH   8   9
ENDBRANCH   1   7
BRANCH   6  12
ATOM     12  O   UNL     1     -20.722   6.665  -5.625  1.00  0.00    -0.508 OA
ATOM     13  H   UNL     1     -19.985   6.693  -4.930  1.00  0.00     0.293 HD
ENDBRANCH   6  12
TORSDOF 3
ENDMDL
MODEL 5
REMARK VINA RESULT:    -2.628      1.299      2.215
REMARK INTER + INTRA:          -3.152
REMARK INTER:                  -3.013
REMARK INTRA:                  -0.139
REMARK UNBOUND:                -0.140
REMARK SMILES O=C([O-])C=Cc1ccc(O)cc1
REMARK SMILES IDX 6 1 7 2 12 3 8 4 11 5 9 6 5 7 4 8 2 9 1 10 3 11 10 12
REMARK H PARENT 10 13
REMARK Flexibility Score: inf
ROOT
ATOM      1  C   UNL     1     -26.838   9.186  -4.767  1.00  0.00    -0.025 A 
ATOM      2  C   UNL     1     -25.632   8.479  -4.914  1.00  0.00     0.012 A 
ATOM      3  C   UNL     1     -26.794  10.516  -4.301  1.00  0.00     0.012 A 
ATOM      4  C   UNL     1     -24.408   9.092  -4.628  1.00  0.00     0.047 A 
ATOM      5  C   UNL     1     -25.568  11.125  -4.016  1.00  0.00     0.047 A 
ATOM      6  C   UNL     1     -24.374  10.418  -4.180  1.00  0.00     0.115 A 
ENDROOT
BRANCH   1   7
ATOM      7  C   UNL     1     -28.111   8.488  -5.074  1.00  0.00     0.010 C 
ATOM      8  C   UNL     1     -29.064   8.991  -5.870  1.00  0.00     0.025 C 
BRANCH   8   9
ATOM      9  C   UNL     1     -30.307   8.258  -6.156  1.00  0.00     0.064 C 
ATOM     10  O   UNL     1     -30.685   7.347  -5.375  1.00  0.00    -0.545 OA
ATOM     11  O   UNL     1     -31.073   8.555  -7.278  1.00  0.00    -0.545 OA
ENDBRANCH   8   9
ENDBRANCH   1   7
BRANCH   6  12
ATOM     12  O   UNL     1     -23.160  11.040  -3.892  1.00  0.00    -0.508 OA
ATOM     13  H   UNL     1     -22.857  11.867  -4.394  1.00  0.00     0.293 HD
ENDBRANCH   6  12
TORSDOF 3
ENDMDL
MODEL 6
REMARK VINA RESULT:    -2.540      2.075      5.747
REMARK INTER + INTRA:          -3.051
REMARK INTER:                  -2.899
REMARK INTRA:                  -0.153
REMARK UNBOUND:                -0.140
REMARK SMILES O=C([O-])C=Cc1ccc(O)cc1
REMARK SMILES IDX 6 1 7 2 12 3 8 4 11 5 9 6 5 7 4 8 2 9 1 10 3 11 10 12
REMARK H PARENT 10 13
REMARK Flexibility Score: inf
ROOT
ATOM      1  C   UNL     1     -24.365   9.147  -4.639  1.00  0.00    -0.025 A 
ATOM      2  C   UNL     1     -25.579   8.494  -4.910  1.00  0.00     0.012 A 
ATOM      3  C   UNL     1     -24.399  10.462  -4.132  1.00  0.00     0.012 A 
ATOM      4  C   UNL     1     -26.800   9.126  -4.657  1.00  0.00     0.047 A 
ATOM      5  C   UNL     1     -25.622  11.092  -3.881  1.00  0.00     0.047 A 
ATOM      6  C   UNL     1     -26.824  10.427  -4.139  1.00  0.00     0.115 A 
ENDROOT
BRANCH   1   7
ATOM      7  C   UNL     1     -23.096   8.437  -4.934  1.00  0.00     0.010 C 
ATOM      8  C   UNL     1     -23.033   7.231  -5.515  1.00  0.00     0.025 C 
BRANCH   8   9
ATOM      9  C   UNL     1     -21.751   6.570  -5.800  1.00  0.00     0.064 C 
ATOM     10  O   UNL     1     -21.742   5.459  -6.391  1.00  0.00    -0.545 OA
ATOM     11  O   UNL     1     -20.545   7.151  -5.426  1.00  0.00    -0.545 OA
ENDBRANCH   8   9
ENDBRANCH   1   7
BRANCH   6  12
ATOM     12  O   UNL     1     -28.034  11.068  -3.882  1.00  0.00    -0.508 OA
ATOM     13  H   UNL     1     -28.072  11.943  -3.373  1.00  0.00     0.293 HD
ENDBRANCH   6  12
TORSDOF 3
ENDMDL
