MODEL 1
REMARK VINA RESULT:    -4.219      0.000      0.000
REMARK INTER + INTRA:         -12.965
REMARK INTER:                  -9.152
REMARK INTRA:                  -3.814
REMARK UNBOUND:                -3.814
REMARK SMILES CCCCCCCCCCCCCCCCCCCCCC(=O)[O-]
REMARK SMILES IDX 12 1 11 2 10 3 9 4 8 5 7 6 6 7 5 8 4 9 3 10 2 11 1 12 13 13
REMARK SMILES IDX 14 14 15 15 16 16 17 17 18 18 19 19 20 20 21 21 22 22 23 23
REMARK SMILES IDX 24 24
REMARK H PARENT
REMARK Flexibility Score: inf
ROOT
ATOM      1  C   UNL     1      15.688  31.034  68.504  1.00  0.00     0.000 C 
ENDROOT
BRANCH   1   2
ATOM      2  C   UNL     1      15.550  31.281  70.019  1.00  0.00     0.000 C 
BRANCH   2   3
ATOM      3  C   UNL     1      15.491  30.009  70.885  1.00  0.00     0.000 C 
BRANCH   3   4
ATOM      4  C   UNL     1      16.804  29.732  71.632  1.00  0.00    -0.000 C 
BRANCH   4   5
ATOM      5  C   UNL     1      17.541  28.532  71.018  1.00  0.00    -0.000 C 
BRANCH   5   6
ATOM      6  C   UNL     1      18.648  28.953  70.038  1.00  0.00    -0.000 C 
BRANCH   6   7
ATOM      7  C   UNL     1      19.179  30.369  70.319  1.00  0.00    -0.000 C 
BRANCH   7   8
ATOM      8  C   UNL     1      19.297  31.222  69.046  1.00  0.00    -0.000 C 
BRANCH   8   9
ATOM      9  C   UNL     1      19.194  30.388  67.759  1.00  0.00    -0.000 C 
BRANCH   9  10
ATOM     10  C   UNL     1      18.985  31.293  66.536  1.00  0.00    -0.000 C 
BRANCH  10  11
ATOM     11  C   UNL     1      18.595  32.727  66.924  1.00  0.00    -0.003 C 
ATOM     12  C   UNL     1      19.526  33.778  66.319  1.00  0.00     0.004 C 
ENDBRANCH  10  11
ENDBRANCH   9  10
ENDBRANCH   8   9
ENDBRANCH   7   8
ENDBRANCH   6   7
ENDBRANCH   5   6
ENDBRANCH   4   5
ENDBRANCH   3   4
ENDBRANCH   2   3
ENDBRANCH   1   2
BRANCH   1  13
ATOM     13  C   UNL     1      15.229  29.641  68.025  1.00  0.00     0.000 C 
BRANCH  13  14
ATOM     14  C   UNL     1      14.491  29.635  66.672  1.00  0.00     0.000 C 
BRANCH  14  15
ATOM     15  C   UNL     1      14.631  30.930  65.846  1.00  0.00     0.000 C 
BRANCH  15  16
ATOM     16  C   UNL     1      13.307  31.643  65.515  1.00  0.00     0.000 C 
BRANCH  16  17
ATOM     17  C   UNL     1      12.256  31.501  66.629  1.00  0.00     0.000 C 
BRANCH  17  18
ATOM     18  C   UNL     1      11.953  32.834  67.334  1.00  0.00     0.000 C 
BRANCH  18  19
ATOM     19  C   UNL     1      13.075  33.349  68.256  1.00  0.00     0.000 C 
BRANCH  19  20
ATOM     20  C   UNL     1      13.769  34.626  67.734  1.00  0.00     0.006 C 
BRANCH  20  21
ATOM     21  C   UNL     1      15.212  34.358  67.286  1.00  0.00     0.053 C 
BRANCH  21  22
ATOM     22  C   UNL     1      15.877  35.635  66.878  1.00  0.00     0.041 C 
ATOM     23  O   UNL     1      16.571  35.680  65.828  1.00  0.00    -0.550 OA
ATOM     24  O   UNL     1      15.676  36.789  67.622  1.00  0.00    -0.550 OA
ENDBRANCH  21  22
ENDBRANCH  20  21
ENDBRANCH  19  20
ENDBRANCH  18  19
ENDBRANCH  17  18
ENDBRANCH  16  17
ENDBRANCH  15  16
ENDBRANCH  14  15
ENDBRANCH  13  14
ENDBRANCH   1  13
TORSDOF 20
ENDMDL
MODEL 2
REMARK VINA RESULT:    -4.175      1.848      5.132
REMARK INTER + INTRA:         -12.870
REMARK INTER:                  -9.878
REMARK INTRA:                  -2.992
REMARK UNBOUND:                -3.814
REMARK SMILES CCCCCCCCCCCCCCCCCCCCCC(=O)[O-]
REMARK SMILES IDX 12 1 11 2 10 3 9 4 8 5 7 6 6 7 5 8 4 9 3 10 2 11 1 12 13 13
REMARK SMILES IDX 14 14 15 15 16 16 17 17 18 18 19 19 20 20 21 21 22 22 23 23
REMARK SMILES IDX 24 24
REMARK H PARENT
REMARK Flexibility Score: inf
ROOT
ATOM      1  C   UNL     1      17.539  30.951  71.146  1.00  0.00     0.000 C 
ENDROOT
BRANCH   1   2
ATOM      2  C   UNL     1      16.863  29.642  71.603  1.00  0.00     0.000 C 
BRANCH   2   3
ATOM      3  C   UNL     1      15.465  29.389  71.008  1.00  0.00     0.000 C 
BRANCH   3   4
ATOM      4  C   UNL     1      14.915  30.597  70.236  1.00  0.00    -0.000 C 
BRANCH   4   5
ATOM      5  C   UNL     1      14.196  30.148  68.955  1.00  0.00    -0.000 C 
BRANCH   5   6
ATOM      6  C   UNL     1      13.359  31.269  68.319  1.00  0.00    -0.000 C 
BRANCH   6   7
ATOM      7  C   UNL     1      13.584  31.384  66.800  1.00  0.00    -0.000 C 
BRANCH   7   8
ATOM      8  C   UNL     1      13.961  32.808  66.363  1.00  0.00    -0.000 C 
BRANCH   8   9
ATOM      9  C   UNL     1      14.577  33.637  67.502  1.00  0.00    -0.000 C 
BRANCH   9  10
ATOM     10  C   UNL     1      15.773  34.458  66.997  1.00  0.00    -0.000 C 
BRANCH  10  11
ATOM     11  C   UNL     1      15.360  35.842  66.475  1.00  0.00    -0.003 C 
ATOM     12  C   UNL     1      14.314  36.520  67.359  1.00  0.00     0.004 C 
ENDBRANCH  10  11
ENDBRANCH   9  10
ENDBRANCH   8   9
ENDBRANCH   7   8
ENDBRANCH   6   7
ENDBRANCH   5   6
ENDBRANCH   4   5
ENDBRANCH   3   4
ENDBRANCH   2   3
ENDBRANCH   1   2
BRANCH   1  13
ATOM     13  C   UNL     1      18.976  30.790  70.610  1.00  0.00     0.000 C 
BRANCH  13  14
ATOM     14  C   UNL     1      19.139  31.079  69.105  1.00  0.00     0.000 C 
BRANCH  14  15
ATOM     15  C   UNL     1      18.225  30.252  68.179  1.00  0.00     0.000 C 
BRANCH  15  16
ATOM     16  C   UNL     1      17.282  31.075  67.282  1.00  0.00     0.000 C 
BRANCH  16  17
ATOM     17  C   UNL     1      17.631  30.966  65.788  1.00  0.00     0.000 C 
BRANCH  17  18
ATOM     18  C   UNL     1      18.962  31.654  65.437  1.00  0.00     0.000 C 
BRANCH  18  19
ATOM     19  C   UNL     1      18.884  33.188  65.309  1.00  0.00     0.000 C 
BRANCH  19  20
ATOM     20  C   UNL     1      19.510  33.941  66.503  1.00  0.00     0.006 C 
BRANCH  20  21
ATOM     21  C   UNL     1      20.919  34.460  66.187  1.00  0.00     0.053 C 
BRANCH  21  22
ATOM     22  C   UNL     1      20.915  35.952  66.090  1.00  0.00     0.041 C 
ATOM     23  O   UNL     1      20.083  36.537  65.345  1.00  0.00    -0.550 OA
ATOM     24  O   UNL     1      21.786  36.701  66.871  1.00  0.00    -0.550 OA
ENDBRANCH  21  22
ENDBRANCH  20  21
ENDBRANCH  19  20
ENDBRANCH  18  19
ENDBRANCH  17  18
ENDBRANCH  16  17
ENDBRANCH  15  16
ENDBRANCH  14  15
ENDBRANCH  13  14
ENDBRANCH   1  13
TORSDOF 20
ENDMDL
MODEL 3
REMARK VINA RESULT:    -4.158      2.338      4.410
REMARK INTER + INTRA:         -12.833
REMARK INTER:                  -9.368
REMARK INTRA:                  -3.465
REMARK UNBOUND:                -3.814
REMARK SMILES CCCCCCCCCCCCCCCCCCCCCC(=O)[O-]
REMARK SMILES IDX 12 1 11 2 10 3 9 4 8 5 7 6 6 7 5 8 4 9 3 10 2 11 1 12 13 13
REMARK SMILES IDX 14 14 15 15 16 16 17 17 18 18 19 19 20 20 21 21 22 22 23 23
REMARK SMILES IDX 24 24
REMARK H PARENT
REMARK Flexibility Score: inf
ROOT
ATOM      1  C   UNL     1      18.447  30.888  70.938  1.00  0.00     0.000 C 
ENDROOT
BRANCH   1   2
ATOM      2  C   UNL     1      19.124  31.274  69.608  1.00  0.00     0.000 C 
BRANCH   2   3
ATOM      3  C   UNL     1      20.115  30.234  69.054  1.00  0.00     0.000 C 
BRANCH   3   4
ATOM      4  C   UNL     1      19.683  29.657  67.699  1.00  0.00    -0.000 C 
BRANCH   4   5
ATOM      5  C   UNL     1      18.602  30.534  67.050  1.00  0.00    -0.000 C 
BRANCH   5   6
ATOM      6  C   UNL     1      18.811  30.713  65.537  1.00  0.00    -0.000 C 
BRANCH   6   7
ATOM      7  C   UNL     1      18.731  32.187  65.101  1.00  0.00    -0.000 C 
BRANCH   7   8
ATOM      8  C   UNL     1      19.739  33.080  65.842  1.00  0.00    -0.000 C 
BRANCH   8   9
ATOM      9  C   UNL     1      19.120  34.402  66.324  1.00  0.00    -0.000 C 
BRANCH   9  10
ATOM     10  C   UNL     1      17.586  34.325  66.313  1.00  0.00    -0.000 C 
BRANCH  10  11
ATOM     11  C   UNL     1      16.927  35.705  66.166  1.00  0.00    -0.003 C 
ATOM     12  C   UNL     1      15.800  35.932  67.172  1.00  0.00     0.004 C 
ENDBRANCH  10  11
ENDBRANCH   9  10
ENDBRANCH   8   9
ENDBRANCH   7   8
ENDBRANCH   6   7
ENDBRANCH   5   6
ENDBRANCH   4   5
ENDBRANCH   3   4
ENDBRANCH   2   3
ENDBRANCH   1   2
BRANCH   1  13
ATOM     13  C   UNL     1      16.905  30.866  70.903  1.00  0.00     0.000 C 
BRANCH  13  14
ATOM     14  C   UNL     1      16.283  29.462  70.772  1.00  0.00     0.000 C 
BRANCH  14  15
ATOM     15  C   UNL     1      15.987  29.012  69.327  1.00  0.00     0.000 C 
BRANCH  15  16
ATOM     16  C   UNL     1      14.716  29.613  68.699  1.00  0.00     0.000 C 
BRANCH  16  17
ATOM     17  C   UNL     1      14.956  30.182  67.290  1.00  0.00     0.000 C 
BRANCH  17  18
ATOM     18  C   UNL     1      15.281  31.685  67.303  1.00  0.00     0.000 C 
BRANCH  18  19
ATOM     19  C   UNL     1      14.755  32.451  68.532  1.00  0.00     0.000 C 
BRANCH  19  20
ATOM     20  C   UNL     1      13.473  33.265  68.254  1.00  0.00     0.006 C 
BRANCH  20  21
ATOM     21  C   UNL     1      12.230  32.620  68.881  1.00  0.00     0.053 C 
BRANCH  21  22
ATOM     22  C   UNL     1      11.425  31.916  67.836  1.00  0.00     0.041 C 
ATOM     23  O   UNL     1      11.472  30.660  67.739  1.00  0.00    -0.550 OA
ATOM     24  O   UNL     1      10.573  32.639  67.012  1.00  0.00    -0.550 OA
ENDBRANCH  21  22
ENDBRANCH  20  21
ENDBRANCH  19  20
ENDBRANCH  18  19
ENDBRANCH  17  18
ENDBRANCH  16  17
ENDBRANCH  15  16
ENDBRANCH  14  15
ENDBRANCH  13  14
ENDBRANCH   1  13
TORSDOF 20
ENDMDL
MODEL 4
REMARK VINA RESULT:    -4.143      2.484      5.116
REMARK INTER + INTRA:         -12.802
REMARK INTER:                 -10.140
REMARK INTRA:                  -2.662
REMARK UNBOUND:                -3.814
REMARK SMILES CCCCCCCCCCCCCCCCCCCCCC(=O)[O-]
REMARK SMILES IDX 12 1 11 2 10 3 9 4 8 5 7 6 6 7 5 8 4 9 3 10 2 11 1 12 13 13
REMARK SMILES IDX 14 14 15 15 16 16 17 17 18 18 19 19 20 20 21 21 22 22 23 23
REMARK SMILES IDX 24 24
REMARK H PARENT
REMARK Flexibility Score: inf
ROOT
ATOM      1  C   UNL     1      17.901  29.741  70.442  1.00  0.00     0.000 C 
ENDROOT
BRANCH   1   2
ATOM      2  C   UNL     1      19.147  30.642  70.562  1.00  0.00     0.000 C 
BRANCH   2   3
ATOM      3  C   UNL     1      19.768  31.077  69.223  1.00  0.00     0.000 C 
BRANCH   3   4
ATOM      4  C   UNL     1      19.065  30.458  68.007  1.00  0.00    -0.000 C 
BRANCH   4   5
ATOM      5  C   UNL     1      18.583  31.548  67.038  1.00  0.00    -0.000 C 
BRANCH   5   6
ATOM      6  C   UNL     1      19.243  32.911  67.301  1.00  0.00    -0.000 C 
BRANCH   6   7
ATOM      7  C   UNL     1      19.617  33.646  66.002  1.00  0.00    -0.000 C 
BRANCH   7   8
ATOM      8  C   UNL     1      18.674  34.820  65.692  1.00  0.00    -0.000 C 
BRANCH   8   9
ATOM      9  C   UNL     1      17.285  34.651  66.328  1.00  0.00    -0.000 C 
BRANCH   9  10
ATOM     10  C   UNL     1      16.383  35.850  65.999  1.00  0.00    -0.000 C 
BRANCH  10  11
ATOM     11  C   UNL     1      14.941  35.656  66.491  1.00  0.00    -0.003 C 
ATOM     12  C   UNL     1      14.396  36.880  67.225  1.00  0.00     0.004 C 
ENDBRANCH  10  11
ENDBRANCH   9  10
ENDBRANCH   8   9
ENDBRANCH   7   8
ENDBRANCH   6   7
ENDBRANCH   5   6
ENDBRANCH   4   5
ENDBRANCH   3   4
ENDBRANCH   2   3
ENDBRANCH   1   2
BRANCH   1  13
ATOM     13  C   UNL     1      16.768  30.058  71.439  1.00  0.00     0.000 C 
BRANCH  13  14
ATOM     14  C   UNL     1      15.509  30.683  70.806  1.00  0.00     0.000 C 
BRANCH  14  15
ATOM     15  C   UNL     1      15.526  30.771  69.267  1.00  0.00     0.000 C 
BRANCH  15  16
ATOM     16  C   UNL     1      15.294  32.178  68.686  1.00  0.00     0.000 C 
BRANCH  16  17
ATOM     17  C   UNL     1      14.305  32.183  67.508  1.00  0.00     0.000 C 
BRANCH  17  18
ATOM     18  C   UNL     1      14.995  31.961  66.152  1.00  0.00     0.000 C 
BRANCH  18  19
ATOM     19  C   UNL     1      14.892  30.526  65.599  1.00  0.00     0.000 C 
BRANCH  19  20
ATOM     20  C   UNL     1      15.943  30.202  64.515  1.00  0.00     0.006 C 
BRANCH  20  21
ATOM     21  C   UNL     1      15.307  29.614  63.249  1.00  0.00     0.053 C 
BRANCH  21  22
ATOM     22  C   UNL     1      16.009  30.120  62.029  1.00  0.00     0.041 C 
ATOM     23  O   UNL     1      15.472  30.004  60.895  1.00  0.00    -0.550 OA
ATOM     24  O   UNL     1      17.226  30.777  62.152  1.00  0.00    -0.550 OA
ENDBRANCH  21  22
ENDBRANCH  20  21
ENDBRANCH  19  20
ENDBRANCH  18  19
ENDBRANCH  17  18
ENDBRANCH  16  17
ENDBRANCH  15  16
ENDBRANCH  14  15
ENDBRANCH  13  14
ENDBRANCH   1  13
TORSDOF 20
ENDMDL
MODEL 5
REMARK VINA RESULT:    -4.132      1.930      5.262
REMARK INTER + INTRA:         -12.777
REMARK INTER:                  -9.785
REMARK INTRA:                  -2.992
REMARK UNBOUND:                -3.814
REMARK SMILES CCCCCCCCCCCCCCCCCCCCCC(=O)[O-]
REMARK SMILES IDX 12 1 11 2 10 3 9 4 8 5 7 6 6 7 5 8 4 9 3 10 2 11 1 12 13 13
REMARK SMILES IDX 14 14 15 15 16 16 17 17 18 18 19 19 20 20 21 21 22 22 23 23
REMARK SMILES IDX 24 24
REMARK H PARENT
REMARK Flexibility Score: inf
ROOT
ATOM      1  C   UNL     1      18.765  30.876  70.695  1.00  0.00     0.000 C 
ENDROOT
BRANCH   1   2
ATOM      2  C   UNL     1      17.445  30.900  71.491  1.00  0.00     0.000 C 
BRANCH   2   3
ATOM      3  C   UNL     1      16.744  29.536  71.631  1.00  0.00     0.000 C 
BRANCH   3   4
ATOM      4  C   UNL     1      15.444  29.444  70.820  1.00  0.00    -0.000 C 
BRANCH   4   5
ATOM      5  C   UNL     1      15.123  30.787  70.146  1.00  0.00    -0.000 C 
BRANCH   5   6
ATOM      6  C   UNL     1      15.375  30.767  68.630  1.00  0.00    -0.000 C 
BRANCH   6   7
ATOM      7  C   UNL     1      16.036  32.063  68.125  1.00  0.00    -0.000 C 
BRANCH   7   8
ATOM      8  C   UNL     1      15.320  32.654  66.900  1.00  0.00    -0.000 C 
BRANCH   8   9
ATOM      9  C   UNL     1      14.813  34.085  67.141  1.00  0.00    -0.000 C 
BRANCH   9  10
ATOM     10  C   UNL     1      13.564  34.079  68.036  1.00  0.00    -0.000 C 
BRANCH  10  11
ATOM     11  C   UNL     1      12.499  33.082  67.556  1.00  0.00    -0.003 C 
ATOM     12  C   UNL     1      11.944  32.218  68.688  1.00  0.00     0.004 C 
ENDBRANCH  10  11
ENDBRANCH   9  10
ENDBRANCH   8   9
ENDBRANCH   7   8
ENDBRANCH   6   7
ENDBRANCH   5   6
ENDBRANCH   4   5
ENDBRANCH   3   4
ENDBRANCH   2   3
ENDBRANCH   1   2
BRANCH   1  13
ATOM     13  C   UNL     1      19.158  29.499  70.123  1.00  0.00     0.000 C 
BRANCH  13  14
ATOM     14  C   UNL     1      18.982  29.360  68.598  1.00  0.00     0.000 C 
BRANCH  14  15
ATOM     15  C   UNL     1      19.185  30.662  67.796  1.00  0.00     0.000 C 
BRANCH  15  16
ATOM     16  C   UNL     1      19.332  30.479  66.274  1.00  0.00     0.000 C 
BRANCH  16  17
ATOM     17  C   UNL     1      18.977  31.749  65.482  1.00  0.00     0.000 C 
BRANCH  17  18
ATOM     18  C   UNL     1      19.520  33.030  66.137  1.00  0.00     0.000 C 
BRANCH  18  19
ATOM     19  C   UNL     1      18.530  34.210  66.171  1.00  0.00     0.000 C 
BRANCH  19  20
ATOM     20  C   UNL     1      19.061  35.484  65.479  1.00  0.00     0.006 C 
BRANCH  20  21
ATOM     21  C   UNL     1      20.519  35.783  65.854  1.00  0.00     0.053 C 
BRANCH  21  22
ATOM     22  C   UNL     1      20.726  37.255  66.014  1.00  0.00     0.041 C 
ATOM     23  O   UNL     1      19.891  38.068  65.533  1.00  0.00    -0.550 OA
ATOM     24  O   UNL     1      21.804  37.729  66.749  1.00  0.00    -0.550 OA
ENDBRANCH  21  22
ENDBRANCH  20  21
ENDBRANCH  19  20
ENDBRANCH  18  19
ENDBRANCH  17  18
ENDBRANCH  16  17
ENDBRANCH  15  16
ENDBRANCH  14  15
ENDBRANCH  13  14
ENDBRANCH   1  13
TORSDOF 20
ENDMDL
MODEL 6
REMARK VINA RESULT:    -4.118      2.287      5.297
REMARK INTER + INTRA:         -12.746
REMARK INTER:                  -9.718
REMARK INTRA:                  -3.028
REMARK UNBOUND:                -3.814
REMARK SMILES CCCCCCCCCCCCCCCCCCCCCC(=O)[O-]
REMARK SMILES IDX 12 1 11 2 10 3 9 4 8 5 7 6 6 7 5 8 4 9 3 10 2 11 1 12 13 13
REMARK SMILES IDX 14 14 15 15 16 16 17 17 18 18 19 19 20 20 21 21 22 22 23 23
REMARK SMILES IDX 24 24
REMARK H PARENT
REMARK Flexibility Score: inf
ROOT
ATOM      1  C   UNL     1      16.800  35.972  65.897  1.00  0.00     0.000 C 
ENDROOT
BRANCH   1   2
ATOM      2  C   UNL     1      17.483  34.651  66.305  1.00  0.00     0.000 C 
BRANCH   2   3
ATOM      3  C   UNL     1      18.987  34.569  65.986  1.00  0.00     0.000 C 
BRANCH   3   4
ATOM      4  C   UNL     1      19.463  33.136  65.710  1.00  0.00    -0.000 C 
BRANCH   4   5
ATOM      5  C   UNL     1      18.447  32.110  66.234  1.00  0.00    -0.000 C 
BRANCH   5   6
ATOM      6  C   UNL     1      19.102  30.997  67.068  1.00  0.00    -0.000 C 
BRANCH   6   7
ATOM      7  C   UNL     1      19.463  31.461  68.491  1.00  0.00    -0.000 C 
BRANCH   7   8
ATOM      8  C   UNL     1      19.990  30.316  69.371  1.00  0.00    -0.000 C 
BRANCH   8   9
ATOM      9  C   UNL     1      19.016  29.936  70.498  1.00  0.00    -0.000 C 
BRANCH   9  10
ATOM     10  C   UNL     1      18.023  31.076  70.771  1.00  0.00    -0.000 C 
BRANCH  10  11
ATOM     11  C   UNL     1      16.633  30.563  71.178  1.00  0.00    -0.003 C 
ATOM     12  C   UNL     1      16.695  29.270  71.990  1.00  0.00     0.004 C 
ENDBRANCH  10  11
ENDBRANCH   9  10
ENDBRANCH   8   9
ENDBRANCH   7   8
ENDBRANCH   6   7
ENDBRANCH   5   6
ENDBRANCH   4   5
ENDBRANCH   3   4
ENDBRANCH   2   3
ENDBRANCH   1   2
BRANCH   1  13
ATOM     13  C   UNL     1      15.278  36.021  66.140  1.00  0.00     0.000 C 
BRANCH  13  14
ATOM     14  C   UNL     1      14.628  34.655  66.438  1.00  0.00     0.000 C 
BRANCH  14  15
ATOM     15  C   UNL     1      14.012  34.519  67.846  1.00  0.00     0.000 C 
BRANCH  15  16
ATOM     16  C   UNL     1      14.001  33.091  68.421  1.00  0.00     0.000 C 
BRANCH  16  17
ATOM     17  C   UNL     1      15.351  32.372  68.264  1.00  0.00     0.000 C 
BRANCH  17  18
ATOM     18  C   UNL     1      15.203  30.936  67.732  1.00  0.00     0.000 C 
BRANCH  18  19
ATOM     19  C   UNL     1      14.020  30.721  66.768  1.00  0.00     0.000 C 
BRANCH  19  20
ATOM     20  C   UNL     1      14.403  30.857  65.278  1.00  0.00     0.006 C 
BRANCH  20  21
ATOM     21  C   UNL     1      15.719  30.140  64.950  1.00  0.00     0.053 C 
BRANCH  21  22
ATOM     22  C   UNL     1      15.968  30.156  63.475  1.00  0.00     0.041 C 
ATOM     23  O   UNL     1      17.046  30.625  63.020  1.00  0.00    -0.550 OA
ATOM     24  O   UNL     1      15.040  29.595  62.609  1.00  0.00    -0.550 OA
ENDBRANCH  21  22
ENDBRANCH  20  21
ENDBRANCH  19  20
ENDBRANCH  18  19
ENDBRANCH  17  18
ENDBRANCH  16  17
ENDBRANCH  15  16
ENDBRANCH  14  15
ENDBRANCH  13  14
ENDBRANCH   1  13
TORSDOF 20
ENDMDL
MODEL 7
REMARK VINA RESULT:    -4.100      2.234      4.957
REMARK INTER + INTRA:         -12.707
REMARK INTER:                  -9.904
REMARK INTRA:                  -2.803
REMARK UNBOUND:                -3.814
REMARK SMILES CCCCCCCCCCCCCCCCCCCCCC(=O)[O-]
REMARK SMILES IDX 12 1 11 2 10 3 9 4 8 5 7 6 6 7 5 8 4 9 3 10 2 11 1 12 13 13
REMARK SMILES IDX 14 14 15 15 16 16 17 17 18 18 19 19 20 20 21 21 22 22 23 23
REMARK SMILES IDX 24 24
REMARK H PARENT
REMARK Flexibility Score: inf
ROOT
ATOM      1  C   UNL     1      18.695  31.102  69.613  1.00  0.00     0.000 C 
ENDROOT
BRANCH   1   2
ATOM      2  C   UNL     1      18.572  30.098  68.449  1.00  0.00     0.000 C 
BRANCH   2   3
ATOM      3  C   UNL     1      19.222  30.549  67.128  1.00  0.00     0.000 C 
BRANCH   3   4
ATOM      4  C   UNL     1      18.866  31.993  66.748  1.00  0.00    -0.000 C 
BRANCH   4   5
ATOM      5  C   UNL     1      18.144  32.041  65.393  1.00  0.00    -0.000 C 
BRANCH   5   6
ATOM      6  C   UNL     1      17.501  30.697  65.014  1.00  0.00    -0.000 C 
BRANCH   6   7
ATOM      7  C   UNL     1      16.009  30.630  65.389  1.00  0.00    -0.000 C 
BRANCH   7   8
ATOM      8  C   UNL     1      15.123  30.186  64.215  1.00  0.00    -0.000 C 
BRANCH   8   9
ATOM      9  C   UNL     1      15.920  29.504  63.091  1.00  0.00    -0.000 C 
BRANCH   9  10
ATOM     10  C   UNL     1      15.085  29.416  61.804  1.00  0.00    -0.000 C 
BRANCH  10  11
ATOM     11  C   UNL     1      15.630  30.316  60.685  1.00  0.00    -0.003 C 
ATOM     12  C   UNL     1      16.991  30.923  61.023  1.00  0.00     0.004 C 
ENDBRANCH  10  11
ENDBRANCH   9  10
ENDBRANCH   8   9
ENDBRANCH   7   8
ENDBRANCH   6   7
ENDBRANCH   5   6
ENDBRANCH   4   5
ENDBRANCH   3   4
ENDBRANCH   2   3
ENDBRANCH   1   2
BRANCH   1  13
ATOM     13  C   UNL     1      18.212  30.578  70.981  1.00  0.00     0.000 C 
BRANCH  13  14
ATOM     14  C   UNL     1      17.674  29.133  70.964  1.00  0.00     0.000 C 
BRANCH  14  15
ATOM     15  C   UNL     1      16.363  28.917  71.745  1.00  0.00     0.000 C 
BRANCH  15  16
ATOM     16  C   UNL     1      15.124  29.614  71.154  1.00  0.00     0.000 C 
BRANCH  16  17
ATOM     17  C   UNL     1      15.118  29.621  69.616  1.00  0.00     0.000 C 
BRANCH  17  18
ATOM     18  C   UNL     1      14.340  30.811  69.029  1.00  0.00     0.000 C 
BRANCH  18  19
ATOM     19  C   UNL     1      15.203  32.036  68.670  1.00  0.00     0.000 C 
BRANCH  19  20
ATOM     20  C   UNL     1      14.467  33.077  67.799  1.00  0.00     0.006 C 
BRANCH  20  21
ATOM     21  C   UNL     1      15.427  34.116  67.203  1.00  0.00     0.053 C 
BRANCH  21  22
ATOM     22  C   UNL     1      14.930  35.500  67.473  1.00  0.00     0.041 C 
ATOM     23  O   UNL     1      13.710  35.699  67.721  1.00  0.00    -0.550 OA
ATOM     24  O   UNL     1      15.823  36.563  67.514  1.00  0.00    -0.550 OA
ENDBRANCH  21  22
ENDBRANCH  20  21
ENDBRANCH  19  20
ENDBRANCH  18  19
ENDBRANCH  17  18
ENDBRANCH  16  17
ENDBRANCH  15  16
ENDBRANCH  14  15
ENDBRANCH  13  14
ENDBRANCH   1  13
TORSDOF 20
ENDMDL
MODEL 8
REMARK VINA RESULT:    -4.079      2.100      5.292
REMARK INTER + INTRA:         -12.661
REMARK INTER:                  -9.519
REMARK INTRA:                  -3.142
REMARK UNBOUND:                -3.814
REMARK SMILES CCCCCCCCCCCCCCCCCCCCCC(=O)[O-]
REMARK SMILES IDX 12 1 11 2 10 3 9 4 8 5 7 6 6 7 5 8 4 9 3 10 2 11 1 12 13 13
REMARK SMILES IDX 14 14 15 15 16 16 17 17 18 18 19 19 20 20 21 21 22 22 23 23
REMARK SMILES IDX 24 24
REMARK H PARENT
REMARK Flexibility Score: inf
ROOT
ATOM      1  C   UNL     1      19.141  31.041  70.128  1.00  0.00     0.000 C 
ENDROOT
BRANCH   1   2
ATOM      2  C   UNL     1      19.532  31.322  68.663  1.00  0.00     0.000 C 
BRANCH   2   3
ATOM      3  C   UNL     1      19.002  30.300  67.640  1.00  0.00     0.000 C 
BRANCH   3   4
ATOM      4  C   UNL     1      19.264  30.718  66.186  1.00  0.00    -0.000 C 
BRANCH   4   5
ATOM      5  C   UNL     1      19.585  32.218  66.097  1.00  0.00    -0.000 C 
BRANCH   5   6
ATOM      6  C   UNL     1      18.667  32.965  65.116  1.00  0.00    -0.000 C 
BRANCH   6   7
ATOM      7  C   UNL     1      18.372  34.407  65.567  1.00  0.00    -0.000 C 
BRANCH   7   8
ATOM      8  C   UNL     1      16.916  34.600  66.018  1.00  0.00    -0.000 C 
BRANCH   8   9
ATOM      9  C   UNL     1      16.574  36.070  66.314  1.00  0.00    -0.000 C 
BRANCH   9  10
ATOM     10  C   UNL     1      15.078  36.339  66.093  1.00  0.00    -0.000 C 
BRANCH  10  11
ATOM     11  C   UNL     1      14.298  36.447  67.412  1.00  0.00    -0.003 C 
ATOM     12  C   UNL     1      13.788  35.095  67.910  1.00  0.00     0.004 C 
ENDBRANCH  10  11
ENDBRANCH   9  10
ENDBRANCH   8   9
ENDBRANCH   7   8
ENDBRANCH   6   7
ENDBRANCH   5   6
ENDBRANCH   4   5
ENDBRANCH   3   4
ENDBRANCH   2   3
ENDBRANCH   1   2
BRANCH   1  13
ATOM     13  C   UNL     1      18.673  29.600  70.414  1.00  0.00     0.000 C 
BRANCH  13  14
ATOM     14  C   UNL     1      17.179  29.467  70.772  1.00  0.00     0.000 C 
BRANCH  14  15
ATOM     15  C   UNL     1      16.467  30.793  71.105  1.00  0.00     0.000 C 
BRANCH  15  16
ATOM     16  C   UNL     1      15.267  31.138  70.204  1.00  0.00     0.000 C 
BRANCH  16  17
ATOM     17  C   UNL     1      15.689  31.706  68.838  1.00  0.00     0.000 C 
BRANCH  17  18
ATOM     18  C   UNL     1      15.202  30.846  67.660  1.00  0.00     0.000 C 
BRANCH  18  19
ATOM     19  C   UNL     1      15.087  31.591  66.316  1.00  0.00     0.000 C 
BRANCH  19  20
ATOM     20  C   UNL     1      13.635  31.932  65.919  1.00  0.00     0.006 C 
BRANCH  20  21
ATOM     21  C   UNL     1      12.609  31.119  66.719  1.00  0.00     0.053 C 
BRANCH  21  22
ATOM     22  C   UNL     1      11.775  32.023  67.570  1.00  0.00     0.041 C 
ATOM     23  O   UNL     1      10.834  32.686  67.056  1.00  0.00    -0.550 OA
ATOM     24  O   UNL     1      11.994  32.084  68.939  1.00  0.00    -0.550 OA
ENDBRANCH  21  22
ENDBRANCH  20  21
ENDBRANCH  19  20
ENDBRANCH  18  19
ENDBRANCH  17  18
ENDBRANCH  16  17
ENDBRANCH  15  16
ENDBRANCH  14  15
ENDBRANCH  13  14
ENDBRANCH   1  13
TORSDOF 20
ENDMDL
MODEL 9
REMARK VINA RESULT:    -4.028      1.455      5.906
REMARK INTER + INTRA:         -12.552
REMARK INTER:                  -8.872
REMARK INTRA:                  -3.680
REMARK UNBOUND:                -3.814
REMARK SMILES CCCCCCCCCCCCCCCCCCCCCC(=O)[O-]
REMARK SMILES IDX 12 1 11 2 10 3 9 4 8 5 7 6 6 7 5 8 4 9 3 10 2 11 1 12 13 13
REMARK SMILES IDX 14 14 15 15 16 16 17 17 18 18 19 19 20 20 21 21 22 22 23 23
REMARK SMILES IDX 24 24
REMARK H PARENT
REMARK Flexibility Score: inf
ROOT
ATOM      1  C   UNL     1      14.995  29.472  69.559  1.00  0.00     0.000 C 
ENDROOT
BRANCH   1   2
ATOM      2  C   UNL     1      14.598  30.130  68.222  1.00  0.00     0.000 C 
BRANCH   2   3
ATOM      3  C   UNL     1      15.758  30.349  67.234  1.00  0.00     0.000 C 
BRANCH   3   4
ATOM      4  C   UNL     1      15.869  31.804  66.755  1.00  0.00    -0.000 C 
BRANCH   4   5
ATOM      5  C   UNL     1      15.590  32.782  67.906  1.00  0.00    -0.000 C 
BRANCH   5   6
ATOM      6  C   UNL     1      15.006  34.119  67.421  1.00  0.00    -0.000 C 
BRANCH   6   7
ATOM      7  C   UNL     1      13.489  34.221  67.659  1.00  0.00    -0.000 C 
BRANCH   7   8
ATOM      8  C   UNL     1      13.019  33.383  68.859  1.00  0.00    -0.000 C 
BRANCH   8   9
ATOM      9  C   UNL     1      11.948  32.348  68.480  1.00  0.00    -0.000 C 
BRANCH   9  10
ATOM     10  C   UNL     1      11.258  32.733  67.163  1.00  0.00    -0.000 C 
BRANCH  10  11
ATOM     11  C   UNL     1      11.399  31.648  66.084  1.00  0.00    -0.003 C 
ATOM     12  C   UNL     1      12.755  31.688  65.380  1.00  0.00     0.004 C 
ENDBRANCH  10  11
ENDBRANCH   9  10
ENDBRANCH   8   9
ENDBRANCH   7   8
ENDBRANCH   6   7
ENDBRANCH   5   6
ENDBRANCH   4   5
ENDBRANCH   3   4
ENDBRANCH   2   3
ENDBRANCH   1   2
BRANCH   1  13
ATOM     13  C   UNL     1      15.281  30.457  70.711  1.00  0.00     0.000 C 
BRANCH  13  14
ATOM     14  C   UNL     1      16.755  30.889  70.840  1.00  0.00     0.000 C 
BRANCH  14  15
ATOM     15  C   UNL     1      17.786  29.759  70.639  1.00  0.00     0.000 C 
BRANCH  15  16
ATOM     16  C   UNL     1      19.152  30.208  70.088  1.00  0.00     0.000 C 
BRANCH  16  17
ATOM     17  C   UNL     1      19.031  31.253  68.966  1.00  0.00     0.000 C 
BRANCH  17  18
ATOM     18  C   UNL     1      19.352  30.674  67.578  1.00  0.00     0.000 C 
BRANCH  18  19
ATOM     19  C   UNL     1      19.372  31.707  66.434  1.00  0.00     0.000 C 
BRANCH  19  20
ATOM     20  C   UNL     1      19.307  33.171  66.920  1.00  0.00     0.006 C 
BRANCH  20  21
ATOM     21  C   UNL     1      18.763  34.116  65.840  1.00  0.00     0.053 C 
BRANCH  21  22
ATOM     22  C   UNL     1      19.639  35.322  65.714  1.00  0.00     0.041 C 
ATOM     23  O   UNL     1      19.133  36.449  65.462  1.00  0.00    -0.550 OA
ATOM     24  O   UNL     1      21.004  35.214  65.938  1.00  0.00    -0.550 OA
ENDBRANCH  21  22
ENDBRANCH  20  21
ENDBRANCH  19  20
ENDBRANCH  18  19
ENDBRANCH  17  18
ENDBRANCH  16  17
ENDBRANCH  15  16
ENDBRANCH  14  15
ENDBRANCH  13  14
ENDBRANCH   1  13
TORSDOF 20
ENDMDL
