MODEL 1
REMARK VINA RESULT:    -5.092      0.000      0.000
REMARK INTER + INTRA:         -10.030
REMARK INTER:                  -8.663
REMARK INTRA:                  -1.367
REMARK UNBOUND:                -1.367
REMARK SMILES CCCCCCCCCCCCCC(=O)[O-]
REMARK SMILES IDX 8 1 9 2 10 3 11 4 12 5 13 6 14 7 15 8 16 9 7 10 6 11 5 12
REMARK SMILES IDX 4 13 3 14 2 15 1 16
REMARK H PARENT
REMARK Flexibility Score: inf
ROOT
ATOM      1  C   UNL     1      21.895   7.058  12.052  1.00  0.00     0.000 C 
ENDROOT
BRANCH   1   2
ATOM      2  C   UNL     1      23.068   7.304  13.012  1.00  0.00     0.000 C 
BRANCH   2   3
ATOM      3  C   UNL     1      23.158   8.765  13.481  1.00  0.00     0.000 C 
BRANCH   3   4
ATOM      4  C   UNL     1      24.497   9.424  13.109  1.00  0.00     0.000 C 
BRANCH   4   5
ATOM      5  C   UNL     1      24.443  10.142  11.751  1.00  0.00     0.006 C 
BRANCH   5   6
ATOM      6  C   UNL     1      25.182   9.375  10.646  1.00  0.00     0.053 C 
BRANCH   6   7
ATOM      7  C   UNL     1      24.205   8.683   9.749  1.00  0.00     0.041 C 
ATOM      8  O   UNL     1      24.308   7.447   9.533  1.00  0.00    -0.550 OA
ATOM      9  O   UNL     1      23.208   9.412   9.111  1.00  0.00    -0.550 OA
ENDBRANCH   6   7
ENDBRANCH   5   6
ENDBRANCH   4   5
ENDBRANCH   3   4
ENDBRANCH   2   3
ENDBRANCH   1   2
BRANCH   1  10
ATOM     10  C   UNL     1      21.066   8.336  11.861  1.00  0.00     0.000 C 
BRANCH  10  11
ATOM     11  C   UNL     1      19.786   8.102  11.037  1.00  0.00    -0.000 C 
BRANCH  11  12
ATOM     12  C   UNL     1      19.303   6.639  10.981  1.00  0.00    -0.000 C 
BRANCH  12  13
ATOM     13  C   UNL     1      19.412   5.964   9.602  1.00  0.00    -0.000 C 
BRANCH  13  14
ATOM     14  C   UNL     1      20.211   6.801   8.589  1.00  0.00    -0.000 C 
BRANCH  14  15
ATOM     15  C   UNL     1      19.416   7.086   7.305  1.00  0.00    -0.003 C 
ATOM     16  C   UNL     1      19.169   8.578   7.080  1.00  0.00     0.004 C 
ENDBRANCH  14  15
ENDBRANCH  13  14
ENDBRANCH  12  13
ENDBRANCH  11  12
ENDBRANCH  10  11
ENDBRANCH   1  10
TORSDOF 12
ENDMDL
MODEL 2
REMARK VINA RESULT:    -5.068      1.166      1.510
REMARK INTER + INTRA:          -9.990
REMARK INTER:                  -8.913
REMARK INTRA:                  -1.077
REMARK UNBOUND:                -1.367
REMARK SMILES CCCCCCCCCCCCCC(=O)[O-]
REMARK SMILES IDX 8 1 9 2 10 3 11 4 12 5 13 6 14 7 15 8 16 9 7 10 6 11 5 12
REMARK SMILES IDX 4 13 3 14 2 15 1 16
REMARK H PARENT
REMARK Flexibility Score: inf
ROOT
ATOM      1  C   UNL     1      21.654   7.244  12.011  1.00  0.00     0.000 C 
ENDROOT
BRANCH   1   2
ATOM      2  C   UNL     1      22.722   7.763  12.985  1.00  0.00     0.000 C 
BRANCH   2   3
ATOM      3  C   UNL     1      23.875   6.768  13.190  1.00  0.00     0.000 C 
BRANCH   3   4
ATOM      4  C   UNL     1      24.647   6.483  11.890  1.00  0.00     0.000 C 
BRANCH   4   5
ATOM      5  C   UNL     1      25.292   7.747  11.300  1.00  0.00     0.006 C 
BRANCH   5   6
ATOM      6  C   UNL     1      24.782   8.069   9.889  1.00  0.00     0.053 C 
BRANCH   6   7
ATOM      7  C   UNL     1      23.934   9.301   9.910  1.00  0.00     0.041 C 
ATOM      8  O   UNL     1      23.070   9.491   9.014  1.00  0.00    -0.550 OA
ATOM      9  O   UNL     1      24.131  10.265  10.891  1.00  0.00    -0.550 OA
ENDBRANCH   6   7
ENDBRANCH   5   6
ENDBRANCH   4   5
ENDBRANCH   3   4
ENDBRANCH   2   3
ENDBRANCH   1   2
BRANCH   1  10
ATOM     10  C   UNL     1      20.749   8.388  11.528  1.00  0.00     0.000 C 
BRANCH  10  11
ATOM     11  C   UNL     1      19.362   7.903  11.071  1.00  0.00    -0.000 C 
BRANCH  11  12
ATOM     12  C   UNL     1      19.187   6.371  11.026  1.00  0.00    -0.000 C 
BRANCH  12  13
ATOM     13  C   UNL     1      19.421   5.723   9.650  1.00  0.00    -0.000 C 
BRANCH  13  14
ATOM     14  C   UNL     1      20.120   6.667   8.656  1.00  0.00    -0.000 C 
BRANCH  14  15
ATOM     15  C   UNL     1      19.186   7.128   7.527  1.00  0.00    -0.003 C 
ATOM     16  C   UNL     1      19.656   8.422   6.861  1.00  0.00     0.004 C 
ENDBRANCH  14  15
ENDBRANCH  13  14
ENDBRANCH  12  13
ENDBRANCH  11  12
ENDBRANCH  10  11
ENDBRANCH   1  10
TORSDOF 12
ENDMDL
MODEL 3
REMARK VINA RESULT:    -4.790      1.770      2.656
REMARK INTER + INTRA:          -9.516
REMARK INTER:                  -7.810
REMARK INTRA:                  -1.706
REMARK UNBOUND:                -1.367
REMARK SMILES CCCCCCCCCCCCCC(=O)[O-]
REMARK SMILES IDX 8 1 9 2 10 3 11 4 12 5 13 6 14 7 15 8 16 9 7 10 6 11 5 12
REMARK SMILES IDX 4 13 3 14 2 15 1 16
REMARK H PARENT
REMARK Flexibility Score: inf
ROOT
ATOM      1  C   UNL     1      21.743   9.461  10.357  1.00  0.00     0.000 C 
ENDROOT
BRANCH   1   2
ATOM      2  C   UNL     1      22.805   8.909   9.395  1.00  0.00     0.000 C 
BRANCH   2   3
ATOM      3  C   UNL     1      23.446   7.606   9.899  1.00  0.00     0.000 C 
BRANCH   3   4
ATOM      4  C   UNL     1      24.978   7.608   9.756  1.00  0.00     0.000 C 
BRANCH   4   5
ATOM      5  C   UNL     1      25.647   8.703  10.603  1.00  0.00     0.006 C 
BRANCH   5   6
ATOM      6  C   UNL     1      25.343   8.562  12.100  1.00  0.00     0.053 C 
BRANCH   6   7
ATOM      7  C   UNL     1      24.689   9.804  12.618  1.00  0.00     0.041 C 
ATOM      8  O   UNL     1      24.808  10.891  11.993  1.00  0.00    -0.550 OA
ATOM      9  O   UNL     1      23.989   9.774  13.818  1.00  0.00    -0.550 OA
ENDBRANCH   6   7
ENDBRANCH   5   6
ENDBRANCH   4   5
ENDBRANCH   3   4
ENDBRANCH   2   3
ENDBRANCH   1   2
BRANCH   1  10
ATOM     10  C   UNL     1      21.284   8.379  11.346  1.00  0.00     0.000 C 
BRANCH  10  11
ATOM     11  C   UNL     1      19.820   7.954  11.131  1.00  0.00    -0.000 C 
BRANCH  11  12
ATOM     12  C   UNL     1      19.573   6.431  11.127  1.00  0.00    -0.000 C 
BRANCH  12  13
ATOM     13  C   UNL     1      19.309   5.812   9.744  1.00  0.00    -0.000 C 
BRANCH  13  14
ATOM     14  C   UNL     1      20.105   6.498   8.620  1.00  0.00    -0.000 C 
BRANCH  14  15
ATOM     15  C   UNL     1      19.196   7.105   7.541  1.00  0.00    -0.003 C 
ATOM     16  C   UNL     1      19.662   8.488   7.083  1.00  0.00     0.004 C 
ENDBRANCH  14  15
ENDBRANCH  13  14
ENDBRANCH  12  13
ENDBRANCH  11  12
ENDBRANCH  10  11
ENDBRANCH   1  10
TORSDOF 12
ENDMDL
MODEL 4
REMARK VINA RESULT:    -4.782      1.728      5.045
REMARK INTER + INTRA:          -9.503
REMARK INTER:                  -7.893
REMARK INTRA:                  -1.611
REMARK UNBOUND:                -1.367
REMARK SMILES CCCCCCCCCCCCCC(=O)[O-]
REMARK SMILES IDX 8 1 9 2 10 3 11 4 12 5 13 6 14 7 15 8 16 9 7 10 6 11 5 12
REMARK SMILES IDX 4 13 3 14 2 15 1 16
REMARK H PARENT
REMARK Flexibility Score: inf
ROOT
ATOM      1  C   UNL     1      22.042   7.216  12.001  1.00  0.00     0.000 C 
ENDROOT
BRANCH   1   2
ATOM      2  C   UNL     1      21.007   8.351  12.025  1.00  0.00     0.000 C 
BRANCH   2   3
ATOM      3  C   UNL     1      19.762   8.039  11.179  1.00  0.00     0.000 C 
BRANCH   3   4
ATOM      4  C   UNL     1      19.538   6.528  10.992  1.00  0.00     0.000 C 
BRANCH   4   5
ATOM      5  C   UNL     1      19.613   6.100   9.517  1.00  0.00     0.006 C 
BRANCH   5   6
ATOM      6  C   UNL     1      20.549   6.989   8.689  1.00  0.00     0.053 C 
BRANCH   6   7
ATOM      7  C   UNL     1      19.823   7.554   7.509  1.00  0.00     0.041 C 
ATOM      8  O   UNL     1      18.739   7.040   7.127  1.00  0.00    -0.550 OA
ATOM      9  O   UNL     1      20.368   8.617   6.799  1.00  0.00    -0.550 OA
ENDBRANCH   6   7
ENDBRANCH   5   6
ENDBRANCH   4   5
ENDBRANCH   3   4
ENDBRANCH   2   3
ENDBRANCH   1   2
BRANCH   1  10
ATOM     10  C   UNL     1      23.051   7.371  13.149  1.00  0.00     0.000 C 
BRANCH  10  11
ATOM     11  C   UNL     1      23.280   8.840  13.550  1.00  0.00    -0.000 C 
BRANCH  11  12
ATOM     12  C   UNL     1      24.584   9.468  13.016  1.00  0.00    -0.000 C 
BRANCH  12  13
ATOM     13  C   UNL     1      24.491  10.071  11.603  1.00  0.00    -0.000 C 
BRANCH  13  14
ATOM     14  C   UNL     1      25.063   9.142  10.518  1.00  0.00    -0.000 C 
BRANCH  14  15
ATOM     15  C   UNL     1      24.015   8.751   9.465  1.00  0.00    -0.003 C 
ATOM     16  C   UNL     1      22.861   9.750   9.379  1.00  0.00     0.004 C 
ENDBRANCH  14  15
ENDBRANCH  13  14
ENDBRANCH  12  13
ENDBRANCH  11  12
ENDBRANCH  10  11
ENDBRANCH   1  10
TORSDOF 12
ENDMDL
MODEL 5
REMARK VINA RESULT:    -4.678      1.808      2.653
REMARK INTER + INTRA:          -9.327
REMARK INTER:                  -7.696
REMARK INTRA:                  -1.631
REMARK UNBOUND:                -1.367
REMARK SMILES CCCCCCCCCCCCCC(=O)[O-]
REMARK SMILES IDX 8 1 9 2 10 3 11 4 12 5 13 6 14 7 15 8 16 9 7 10 6 11 5 12
REMARK SMILES IDX 4 13 3 14 2 15 1 16
REMARK H PARENT
REMARK Flexibility Score: inf
ROOT
ATOM      1  C   UNL     1      21.447   9.124  10.571  1.00  0.00     0.000 C 
ENDROOT
BRANCH   1   2
ATOM      2  C   UNL     1      22.582   8.263   9.995  1.00  0.00     0.000 C 
BRANCH   2   3
ATOM      3  C   UNL     1      23.845   9.079   9.676  1.00  0.00     0.000 C 
BRANCH   3   4
ATOM      4  C   UNL     1      24.479   9.701  10.933  1.00  0.00     0.000 C 
BRANCH   4   5
ATOM      5  C   UNL     1      25.483   8.757  11.614  1.00  0.00     0.006 C 
BRANCH   5   6
ATOM      6  C   UNL     1      25.301   8.695  13.136  1.00  0.00     0.053 C 
BRANCH   6   7
ATOM      7  C   UNL     1      23.937   8.184  13.477  1.00  0.00     0.041 C 
ATOM      8  O   UNL     1      23.119   8.921  14.088  1.00  0.00    -0.550 OA
ATOM      9  O   UNL     1      23.585   6.877  13.164  1.00  0.00    -0.550 OA
ENDBRANCH   6   7
ENDBRANCH   5   6
ENDBRANCH   4   5
ENDBRANCH   3   4
ENDBRANCH   2   3
ENDBRANCH   1   2
BRANCH   1  10
ATOM     10  C   UNL     1      20.671   8.356  11.651  1.00  0.00     0.000 C 
BRANCH  10  11
ATOM     11  C   UNL     1      20.578   6.847  11.362  1.00  0.00    -0.000 C 
BRANCH  11  12
ATOM     12  C   UNL     1      19.180   6.345  10.946  1.00  0.00    -0.000 C 
BRANCH  12  13
ATOM     13  C   UNL     1      19.104   5.692   9.555  1.00  0.00    -0.000 C 
BRANCH  13  14
ATOM     14  C   UNL     1      19.901   6.462   8.488  1.00  0.00    -0.000 C 
BRANCH  14  15
ATOM     15  C   UNL     1      19.202   7.761   8.056  1.00  0.00    -0.003 C 
ATOM     16  C   UNL     1      19.816   8.373   6.797  1.00  0.00     0.004 C 
ENDBRANCH  14  15
ENDBRANCH  13  14
ENDBRANCH  12  13
ENDBRANCH  11  12
ENDBRANCH  10  11
ENDBRANCH   1  10
TORSDOF 12
ENDMDL
MODEL 6
REMARK VINA RESULT:    -4.573      1.292      2.081
REMARK INTER + INTRA:          -9.147
REMARK INTER:                  -8.240
REMARK INTRA:                  -0.908
REMARK UNBOUND:                -1.367
REMARK SMILES CCCCCCCCCCCCCC(=O)[O-]
REMARK SMILES IDX 8 1 9 2 10 3 11 4 12 5 13 6 14 7 15 8 16 9 7 10 6 11 5 12
REMARK SMILES IDX 4 13 3 14 2 15 1 16
REMARK H PARENT
REMARK Flexibility Score: inf
ROOT
ATOM      1  C   UNL     1      20.893   8.329  11.668  1.00  0.00     0.000 C 
ENDROOT
BRANCH   1   2
ATOM      2  C   UNL     1      21.792   7.085  11.738  1.00  0.00     0.000 C 
BRANCH   2   3
ATOM      3  C   UNL     1      22.961   7.251  12.723  1.00  0.00     0.000 C 
BRANCH   3   4
ATOM      4  C   UNL     1      22.845   8.533  13.566  1.00  0.00     0.000 C 
BRANCH   4   5
ATOM      5  C   UNL     1      24.217   9.116  13.942  1.00  0.00     0.006 C 
BRANCH   5   6
ATOM      6  C   UNL     1      25.198   9.130  12.762  1.00  0.00     0.053 C 
BRANCH   6   7
ATOM      7  C   UNL     1      24.876  10.256  11.831  1.00  0.00     0.041 C 
ATOM      8  O   UNL     1      25.154  11.442  12.150  1.00  0.00    -0.550 OA
ATOM      9  O   UNL     1      24.224  10.001  10.630  1.00  0.00    -0.550 OA
ENDBRANCH   6   7
ENDBRANCH   5   6
ENDBRANCH   4   5
ENDBRANCH   3   4
ENDBRANCH   2   3
ENDBRANCH   1   2
BRANCH   1  10
ATOM     10  C   UNL     1      19.475   7.954  11.209  1.00  0.00     0.000 C 
BRANCH  10  11
ATOM     11  C   UNL     1      19.150   6.465  11.428  1.00  0.00    -0.000 C 
BRANCH  11  12
ATOM     12  C   UNL     1      19.205   5.590  10.160  1.00  0.00    -0.000 C 
BRANCH  12  13
ATOM     13  C   UNL     1      19.033   6.347   8.831  1.00  0.00    -0.000 C 
BRANCH  13  14
ATOM     14  C   UNL     1      20.363   6.880   8.270  1.00  0.00    -0.000 C 
BRANCH  14  15
ATOM     15  C   UNL     1      20.242   8.313   7.729  1.00  0.00    -0.003 C 
ATOM     16  C   UNL     1      19.099   8.471   6.725  1.00  0.00     0.004 C 
ENDBRANCH  14  15
ENDBRANCH  13  14
ENDBRANCH  12  13
ENDBRANCH  11  12
ENDBRANCH  10  11
ENDBRANCH   1  10
TORSDOF 12
ENDMDL
MODEL 7
REMARK VINA RESULT:    -4.378      2.294      5.508
REMARK INTER + INTRA:          -8.817
REMARK INTER:                  -7.259
REMARK INTRA:                  -1.558
REMARK UNBOUND:                -1.367
REMARK SMILES CCCCCCCCCCCCCC(=O)[O-]
REMARK SMILES IDX 8 1 9 2 10 3 11 4 12 5 13 6 14 7 15 8 16 9 7 10 6 11 5 12
REMARK SMILES IDX 4 13 3 14 2 15 1 16
REMARK H PARENT
REMARK Flexibility Score: inf
ROOT
ATOM      1  C   UNL     1      25.167   9.016  10.708  1.00  0.00     0.000 C 
ENDROOT
BRANCH   1   2
ATOM      2  C   UNL     1      24.125   8.470   9.720  1.00  0.00     0.000 C 
BRANCH   2   3
ATOM      3  C   UNL     1      23.020   9.488   9.397  1.00  0.00     0.000 C 
BRANCH   3   4
ATOM      4  C   UNL     1      21.632   9.023   9.871  1.00  0.00     0.000 C 
BRANCH   4   5
ATOM      5  C   UNL     1      21.223   7.672   9.261  1.00  0.00     0.006 C 
BRANCH   5   6
ATOM      6  C   UNL     1      19.703   7.470   9.234  1.00  0.00     0.053 C 
BRANCH   6   7
ATOM      7  C   UNL     1      19.301   6.407  10.207  1.00  0.00     0.041 C 
ATOM      8  O   UNL     1      19.481   5.193   9.929  1.00  0.00    -0.550 OA
ATOM      9  O   UNL     1      18.683   6.755  11.402  1.00  0.00    -0.550 OA
ENDBRANCH   6   7
ENDBRANCH   5   6
ENDBRANCH   4   5
ENDBRANCH   3   4
ENDBRANCH   2   3
ENDBRANCH   1   2
BRANCH   1  10
ATOM     10  C   UNL     1      24.542  10.070  11.636  1.00  0.00     0.000 C 
BRANCH  10  11
ATOM     11  C   UNL     1      24.924   9.868  13.113  1.00  0.00    -0.000 C 
BRANCH  11  12
ATOM     12  C   UNL     1      24.203   8.704  13.823  1.00  0.00    -0.000 C 
BRANCH  12  13
ATOM     13  C   UNL     1      22.806   8.365  13.273  1.00  0.00    -0.000 C 
BRANCH  13  14
ATOM     14  C   UNL     1      22.718   6.938  12.704  1.00  0.00    -0.000 C 
BRANCH  14  15
ATOM     15  C   UNL     1      24.016   6.142  12.909  1.00  0.00    -0.003 C 
ATOM     16  C   UNL     1      23.780   4.787  13.578  1.00  0.00     0.004 C 
ENDBRANCH  14  15
ENDBRANCH  13  14
ENDBRANCH  12  13
ENDBRANCH  11  12
ENDBRANCH  10  11
ENDBRANCH   1  10
TORSDOF 12
ENDMDL
MODEL 8
REMARK VINA RESULT:    -4.378      2.317      5.408
REMARK INTER + INTRA:          -8.817
REMARK INTER:                  -6.813
REMARK INTRA:                  -2.003
REMARK UNBOUND:                -1.367
REMARK SMILES CCCCCCCCCCCCCC(=O)[O-]
REMARK SMILES IDX 8 1 9 2 10 3 11 4 12 5 13 6 14 7 15 8 16 9 7 10 6 11 5 12
REMARK SMILES IDX 4 13 3 14 2 15 1 16
REMARK H PARENT
REMARK Flexibility Score: inf
ROOT
ATOM      1  C   UNL     1      22.351   7.008  12.123  1.00  0.00     0.000 C 
ENDROOT
BRANCH   1   2
ATOM      2  C   UNL     1      21.779   8.432  12.066  1.00  0.00     0.000 C 
BRANCH   2   3
ATOM      3  C   UNL     1      21.715   8.991  10.635  1.00  0.00     0.000 C 
BRANCH   3   4
ATOM      4  C   UNL     1      21.572   7.886   9.575  1.00  0.00     0.000 C 
BRANCH   4   5
ATOM      5  C   UNL     1      20.229   7.955   8.830  1.00  0.00     0.006 C 
BRANCH   5   6
ATOM      6  C   UNL     1      19.437   6.643   8.913  1.00  0.00     0.053 C 
BRANCH   6   7
ATOM      7  C   UNL     1      19.181   6.279  10.341  1.00  0.00     0.041 C 
ATOM      8  O   UNL     1      19.431   5.116  10.753  1.00  0.00    -0.550 OA
ATOM      9  O   UNL     1      18.620   7.210  11.207  1.00  0.00    -0.550 OA
ENDBRANCH   6   7
ENDBRANCH   5   6
ENDBRANCH   4   5
ENDBRANCH   3   4
ENDBRANCH   2   3
ENDBRANCH   1   2
BRANCH   1  10
ATOM     10  C   UNL     1      23.555   6.939  13.075  1.00  0.00     0.000 C 
BRANCH  10  11
ATOM     11  C   UNL     1      24.043   8.328  13.524  1.00  0.00    -0.000 C 
BRANCH  11  12
ATOM     12  C   UNL     1      25.537   8.612  13.264  1.00  0.00    -0.000 C 
BRANCH  12  13
ATOM     13  C   UNL     1      26.085   8.075  11.930  1.00  0.00    -0.000 C 
BRANCH  13  14
ATOM     14  C   UNL     1      25.616   8.895  10.717  1.00  0.00    -0.000 C 
BRANCH  14  15
ATOM     15  C   UNL     1      25.119   8.008   9.564  1.00  0.00    -0.003 C 
ATOM     16  C   UNL     1      25.389   6.522   9.801  1.00  0.00     0.004 C 
ENDBRANCH  14  15
ENDBRANCH  13  14
ENDBRANCH  12  13
ENDBRANCH  11  12
ENDBRANCH  10  11
ENDBRANCH   1  10
TORSDOF 12
ENDMDL
MODEL 9
REMARK VINA RESULT:    -4.371      2.360      5.087
REMARK INTER + INTRA:          -8.804
REMARK INTER:                  -6.632
REMARK INTRA:                  -2.172
REMARK UNBOUND:                -1.367
REMARK SMILES CCCCCCCCCCCCCC(=O)[O-]
REMARK SMILES IDX 8 1 9 2 10 3 11 4 12 5 13 6 14 7 15 8 16 9 7 10 6 11 5 12
REMARK SMILES IDX 4 13 3 14 2 15 1 16
REMARK H PARENT
REMARK Flexibility Score: inf
ROOT
ATOM      1  C   UNL     1      23.625   7.493  13.486  1.00  0.00     0.000 C 
ENDROOT
BRANCH   1   2
ATOM      2  C   UNL     1      22.365   8.259  13.056  1.00  0.00     0.000 C 
BRANCH   2   3
ATOM      3  C   UNL     1      21.759   7.723  11.749  1.00  0.00     0.000 C 
BRANCH   3   4
ATOM      4  C   UNL     1      21.202   8.843  10.853  1.00  0.00     0.000 C 
BRANCH   4   5
ATOM      5  C   UNL     1      21.211   8.464   9.363  1.00  0.00     0.006 C 
BRANCH   5   6
ATOM      6  C   UNL     1      21.117   6.949   9.137  1.00  0.00     0.053 C 
BRANCH   6   7
ATOM      7  C   UNL     1      19.697   6.545   8.899  1.00  0.00     0.041 C 
ATOM      8  O   UNL     1      19.079   6.964   7.885  1.00  0.00    -0.550 OA
ATOM      9  O   UNL     1      19.037   5.744   9.823  1.00  0.00    -0.550 OA
ENDBRANCH   6   7
ENDBRANCH   5   6
ENDBRANCH   4   5
ENDBRANCH   3   4
ENDBRANCH   2   3
ENDBRANCH   1   2
BRANCH   1  10
ATOM     10  C   UNL     1      23.817   6.231  12.631  1.00  0.00     0.000 C 
BRANCH  10  11
ATOM     11  C   UNL     1      25.299   5.885  12.399  1.00  0.00    -0.000 C 
BRANCH  11  12
ATOM     12  C   UNL     1      25.879   6.360  11.051  1.00  0.00    -0.000 C 
BRANCH  12  13
ATOM     13  C   UNL     1      24.837   6.766   9.995  1.00  0.00    -0.000 C 
BRANCH  13  14
ATOM     14  C   UNL     1      24.897   8.261   9.639  1.00  0.00    -0.000 C 
BRANCH  14  15
ATOM     15  C   UNL     1      25.621   9.092  10.710  1.00  0.00    -0.003 C 
ATOM     16  C   UNL     1      24.758  10.224  11.265  1.00  0.00     0.004 C 
ENDBRANCH  14  15
ENDBRANCH  13  14
ENDBRANCH  12  13
ENDBRANCH  11  12
ENDBRANCH  10  11
ENDBRANCH   1  10
TORSDOF 12
ENDMDL
