MODEL 1
REMARK VINA RESULT:    -5.627      0.000      0.000
REMARK INTER + INTRA:          -9.698
REMARK INTER:                  -8.917
REMARK INTRA:                  -0.781
REMARK UNBOUND:                -0.781
REMARK SMILES CCCCCCCCCCCC(=O)[O-]
REMARK SMILES IDX 7 1 8 2 9 3 10 4 11 5 12 6 13 7 14 8 6 9 5 10 4 11 3 12 2 13
REMARK SMILES IDX 1 14
REMARK H PARENT
REMARK Flexibility Score: inf
ROOT
ATOM      1  C   UNL     1       5.060   6.404  13.584  1.00  0.00     0.000 C 
ENDROOT
BRANCH   1   2
ATOM      2  C   UNL     1       4.734   5.334  14.640  1.00  0.00     0.000 C 
BRANCH   2   3
ATOM      3  C   UNL     1       3.792   4.242  14.090  1.00  0.00     0.000 C 
BRANCH   3   4
ATOM      4  C   UNL     1       2.664   3.856  15.063  1.00  0.00     0.006 C 
BRANCH   4   5
ATOM      5  C   UNL     1       2.932   4.316  16.500  1.00  0.00     0.053 C 
BRANCH   5   6
ATOM      6  C   UNL     1       3.294   3.149  17.363  1.00  0.00     0.041 C 
ATOM      7  O   UNL     1       3.864   2.144  16.862  1.00  0.00    -0.550 OA
ATOM      8  O   UNL     1       2.961   3.151  18.711  1.00  0.00    -0.550 OA
ENDBRANCH   5   6
ENDBRANCH   4   5
ENDBRANCH   3   4
ENDBRANCH   2   3
ENDBRANCH   1   2
BRANCH   1   9
ATOM      9  C   UNL     1       5.393   7.769  14.207  1.00  0.00     0.000 C 
BRANCH   9  10
ATOM     10  C   UNL     1       5.277   7.767  15.738  1.00  0.00    -0.000 C 
BRANCH  10  11
ATOM     11  C   UNL     1       4.177   8.731  16.205  1.00  0.00    -0.000 C 
BRANCH  11  12
ATOM     12  C   UNL     1       3.296   8.142  17.321  1.00  0.00    -0.000 C 
BRANCH  12  13
ATOM     13  C   UNL     1       2.669   9.181  18.268  1.00  0.00    -0.003 C 
ATOM     14  C   UNL     1       2.040   8.553  19.510  1.00  0.00     0.004 C 
ENDBRANCH  12  13
ENDBRANCH  11  12
ENDBRANCH  10  11
ENDBRANCH   9  10
ENDBRANCH   1   9
TORSDOF 10
ENDMDL
MODEL 2
REMARK VINA RESULT:    -5.486      0.879      1.664
REMARK INTER + INTRA:          -9.473
REMARK INTER:                  -8.677
REMARK INTRA:                  -0.797
REMARK UNBOUND:                -0.781
REMARK SMILES CCCCCCCCCCCC(=O)[O-]
REMARK SMILES IDX 7 1 8 2 9 3 10 4 11 5 12 6 13 7 14 8 6 9 5 10 4 11 3 12 2 13
REMARK SMILES IDX 1 14
REMARK H PARENT
REMARK Flexibility Score: inf
ROOT
ATOM      1  C   UNL     1       4.865   5.410  14.259  1.00  0.00     0.000 C 
ENDROOT
BRANCH   1   2
ATOM      2  C   UNL     1       3.869   4.394  13.672  1.00  0.00     0.000 C 
BRANCH   2   3
ATOM      3  C   UNL     1       2.851   3.903  14.723  1.00  0.00     0.000 C 
BRANCH   3   4
ATOM      4  C   UNL     1       3.448   3.754  16.134  1.00  0.00     0.006 C 
BRANCH   4   5
ATOM      5  C   UNL     1       2.774   4.663  17.167  1.00  0.00     0.053 C 
BRANCH   5   6
ATOM      6  C   UNL     1       2.493   3.904  18.426  1.00  0.00     0.041 C 
ATOM      7  O   UNL     1       1.481   4.185  19.121  1.00  0.00    -0.550 OA
ATOM      8  O   UNL     1       3.373   2.919  18.855  1.00  0.00    -0.550 OA
ENDBRANCH   5   6
ENDBRANCH   4   5
ENDBRANCH   3   4
ENDBRANCH   2   3
ENDBRANCH   1   2
BRANCH   1   9
ATOM      9  C   UNL     1       5.075   6.629  13.347  1.00  0.00     0.000 C 
BRANCH   9  10
ATOM     10  C   UNL     1       5.261   7.934  14.134  1.00  0.00    -0.000 C 
BRANCH  10  11
ATOM     11  C   UNL     1       5.038   7.706  15.635  1.00  0.00    -0.000 C 
BRANCH  11  12
ATOM     12  C   UNL     1       4.105   8.753  16.270  1.00  0.00    -0.000 C 
BRANCH  12  13
ATOM     13  C   UNL     1       3.202   8.219  17.396  1.00  0.00    -0.003 C 
ATOM     14  C   UNL     1       2.645   9.325  18.291  1.00  0.00     0.004 C 
ENDBRANCH  12  13
ENDBRANCH  11  12
ENDBRANCH  10  11
ENDBRANCH   9  10
ENDBRANCH   1   9
TORSDOF 10
ENDMDL
MODEL 3
REMARK VINA RESULT:    -5.442      2.308      4.059
REMARK INTER + INTRA:          -9.405
REMARK INTER:                  -8.824
REMARK INTRA:                  -0.580
REMARK UNBOUND:                -0.781
REMARK SMILES CCCCCCCCCCCC(=O)[O-]
REMARK SMILES IDX 7 1 8 2 9 3 10 4 11 5 12 6 13 7 14 8 6 9 5 10 4 11 3 12 2 13
REMARK SMILES IDX 1 14
REMARK H PARENT
REMARK Flexibility Score: inf
ROOT
ATOM      1  C   UNL     1       2.979   3.254  18.972  1.00  0.00     0.000 C 
ENDROOT
BRANCH   1   2
ATOM      2  C   UNL     1       3.141   2.737  17.531  1.00  0.00     0.000 C 
BRANCH   2   3
ATOM      3  C   UNL     1       3.267   3.888  16.511  1.00  0.00     0.000 C 
BRANCH   3   4
ATOM      4  C   UNL     1       2.868   3.488  15.080  1.00  0.00     0.006 C 
BRANCH   4   5
ATOM      5  C   UNL     1       4.076   3.210  14.179  1.00  0.00     0.053 C 
BRANCH   5   6
ATOM      6  C   UNL     1       4.461   1.765  14.252  1.00  0.00     0.041 C 
ATOM      7  O   UNL     1       5.480   1.414  14.903  1.00  0.00    -0.550 OA
ATOM      8  O   UNL     1       3.721   0.813  13.563  1.00  0.00    -0.550 OA
ENDBRANCH   5   6
ENDBRANCH   4   5
ENDBRANCH   3   4
ENDBRANCH   2   3
ENDBRANCH   1   2
BRANCH   1   9
ATOM      9  C   UNL     1       1.891   4.332  19.095  1.00  0.00     0.000 C 
BRANCH   9  10
ATOM     10  C   UNL     1       2.436   5.668  19.621  1.00  0.00    -0.000 C 
BRANCH  10  11
ATOM     11  C   UNL     1       2.001   6.831  18.718  1.00  0.00    -0.000 C 
BRANCH  11  12
ATOM     12  C   UNL     1       2.091   8.200  19.417  1.00  0.00    -0.000 C 
BRANCH  12  13
ATOM     13  C   UNL     1       2.540   9.361  18.512  1.00  0.00    -0.003 C 
ATOM     14  C   UNL     1       3.366   8.898  17.313  1.00  0.00     0.004 C 
ENDBRANCH  12  13
ENDBRANCH  11  12
ENDBRANCH  10  11
ENDBRANCH   9  10
ENDBRANCH   1   9
TORSDOF 10
ENDMDL
MODEL 4
REMARK VINA RESULT:    -5.417      2.758      5.634
REMARK INTER + INTRA:          -9.364
REMARK INTER:                  -8.740
REMARK INTRA:                  -0.624
REMARK UNBOUND:                -0.781
REMARK SMILES CCCCCCCCCCCC(=O)[O-]
REMARK SMILES IDX 7 1 8 2 9 3 10 4 11 5 12 6 13 7 14 8 6 9 5 10 4 11 3 12 2 13
REMARK SMILES IDX 1 14
REMARK H PARENT
REMARK Flexibility Score: inf
ROOT
ATOM      1  C   UNL     1       2.999   4.227  17.110  1.00  0.00     0.000 C 
ENDROOT
BRANCH   1   2
ATOM      2  C   UNL     1       2.882   3.990  18.626  1.00  0.00     0.000 C 
BRANCH   2   3
ATOM      3  C   UNL     1       2.400   5.251  19.376  1.00  0.00     0.000 C 
BRANCH   3   4
ATOM      4  C   UNL     1       2.212   6.475  18.462  1.00  0.00     0.006 C 
BRANCH   4   5
ATOM      5  C   UNL     1       2.104   7.790  19.241  1.00  0.00     0.053 C 
BRANCH   5   6
ATOM      6  C   UNL     1       2.633   8.926  18.423  1.00  0.00     0.041 C 
ATOM      7  O   UNL     1       3.184   8.704  17.313  1.00  0.00    -0.550 OA
ATOM      8  O   UNL     1       2.560  10.225  18.909  1.00  0.00    -0.550 OA
ENDBRANCH   5   6
ENDBRANCH   4   5
ENDBRANCH   3   4
ENDBRANCH   2   3
ENDBRANCH   1   2
BRANCH   1   9
ATOM      9  C   UNL     1       3.421   2.963  16.344  1.00  0.00     0.000 C 
BRANCH   9  10
ATOM     10  C   UNL     1       3.040   3.014  14.858  1.00  0.00    -0.000 C 
BRANCH  10  11
ATOM     11  C   UNL     1       4.231   3.470  14.002  1.00  0.00    -0.000 C 
BRANCH  11  12
ATOM     12  C   UNL     1       3.930   4.736  13.180  1.00  0.00    -0.000 C 
BRANCH  12  13
ATOM     13  C   UNL     1       5.049   5.793  13.185  1.00  0.00    -0.003 C 
ATOM     14  C   UNL     1       5.119   6.582  14.492  1.00  0.00     0.004 C 
ENDBRANCH  12  13
ENDBRANCH  11  12
ENDBRANCH  10  11
ENDBRANCH   9  10
ENDBRANCH   1   9
TORSDOF 10
ENDMDL
MODEL 5
REMARK VINA RESULT:    -5.416      3.123      5.916
REMARK INTER + INTRA:          -9.363
REMARK INTER:                  -8.564
REMARK INTRA:                  -0.800
REMARK UNBOUND:                -0.781
REMARK SMILES CCCCCCCCCCCC(=O)[O-]
REMARK SMILES IDX 7 1 8 2 9 3 10 4 11 5 12 6 13 7 14 8 6 9 5 10 4 11 3 12 2 13
REMARK SMILES IDX 1 14
REMARK H PARENT
REMARK Flexibility Score: inf
ROOT
ATOM      1  C   UNL     1       2.245   7.924  19.312  1.00  0.00     0.000 C 
ENDROOT
BRANCH   1   2
ATOM      2  C   UNL     1       2.732   8.812  18.153  1.00  0.00     0.000 C 
BRANCH   2   3
ATOM      3  C   UNL     1       3.343   7.984  17.003  1.00  0.00     0.000 C 
BRANCH   3   4
ATOM      4  C   UNL     1       4.532   8.676  16.312  1.00  0.00     0.006 C 
BRANCH   4   5
ATOM      5  C   UNL     1       5.351   7.722  15.437  1.00  0.00     0.053 C 
BRANCH   5   6
ATOM      6  C   UNL     1       5.524   8.291  14.063  1.00  0.00     0.041 C 
ATOM      7  O   UNL     1       6.272   7.716  13.230  1.00  0.00    -0.550 OA
ATOM      8  O   UNL     1       4.896   9.481  13.720  1.00  0.00    -0.550 OA
ENDBRANCH   5   6
ENDBRANCH   4   5
ENDBRANCH   3   4
ENDBRANCH   2   3
ENDBRANCH   1   2
BRANCH   1   9
ATOM      9  C   UNL     1       1.833   6.518  18.847  1.00  0.00     0.000 C 
BRANCH   9  10
ATOM     10  C   UNL     1       2.542   5.403  19.630  1.00  0.00    -0.000 C 
BRANCH  10  11
ATOM     11  C   UNL     1       2.797   4.181  18.735  1.00  0.00    -0.000 C 
BRANCH  11  12
ATOM     12  C   UNL     1       2.791   4.525  17.234  1.00  0.00    -0.000 C 
BRANCH  12  13
ATOM     13  C   UNL     1       3.440   3.466  16.325  1.00  0.00    -0.003 C 
ATOM     14  C   UNL     1       3.845   4.019  14.960  1.00  0.00     0.004 C 
ENDBRANCH  12  13
ENDBRANCH  11  12
ENDBRANCH  10  11
ENDBRANCH   9  10
ENDBRANCH   1   9
TORSDOF 10
ENDMDL
MODEL 6
REMARK VINA RESULT:    -5.390      1.498      4.473
REMARK INTER + INTRA:          -9.321
REMARK INTER:                  -8.697
REMARK INTRA:                  -0.624
REMARK UNBOUND:                -0.781
REMARK SMILES CCCCCCCCCCCC(=O)[O-]
REMARK SMILES IDX 7 1 8 2 9 3 10 4 11 5 12 6 13 7 14 8 6 9 5 10 4 11 3 12 2 13
REMARK SMILES IDX 1 14
REMARK H PARENT
REMARK Flexibility Score: inf
ROOT
ATOM      1  C   UNL     1       3.926   9.120  17.757  1.00  0.00     0.000 C 
ENDROOT
BRANCH   1   2
ATOM      2  C   UNL     1       2.499   9.119  18.332  1.00  0.00     0.000 C 
BRANCH   2   3
ATOM      3  C   UNL     1       2.250   7.917  19.267  1.00  0.00     0.000 C 
BRANCH   3   4
ATOM      4  C   UNL     1       2.239   6.562  18.537  1.00  0.00     0.006 C 
BRANCH   4   5
ATOM      5  C   UNL     1       2.527   5.380  19.469  1.00  0.00     0.053 C 
BRANCH   5   6
ATOM      6  C   UNL     1       2.746   4.131  18.674  1.00  0.00     0.041 C 
ATOM      7  O   UNL     1       2.748   3.009  19.246  1.00  0.00    -0.550 OA
ATOM      8  O   UNL     1       2.994   4.209  17.310  1.00  0.00    -0.550 OA
ENDBRANCH   5   6
ENDBRANCH   4   5
ENDBRANCH   3   4
ENDBRANCH   2   3
ENDBRANCH   1   2
BRANCH   1   9
ATOM      9  C   UNL     1       3.954   8.878  16.239  1.00  0.00     0.000 C 
BRANCH   9  10
ATOM     10  C   UNL     1       4.744   7.620  15.853  1.00  0.00    -0.000 C 
BRANCH  10  11
ATOM     11  C   UNL     1       5.901   7.968  14.905  1.00  0.00    -0.000 C 
BRANCH  11  12
ATOM     12  C   UNL     1       6.123   6.907  13.813  1.00  0.00    -0.000 C 
BRANCH  12  13
ATOM     13  C   UNL     1       4.879   6.579  12.967  1.00  0.00    -0.003 C 
ATOM     14  C   UNL     1       4.505   5.098  13.006  1.00  0.00     0.004 C 
ENDBRANCH  12  13
ENDBRANCH  11  12
ENDBRANCH  10  11
ENDBRANCH   9  10
ENDBRANCH   1   9
TORSDOF 10
ENDMDL
MODEL 7
REMARK VINA RESULT:    -5.387      1.248      2.257
REMARK INTER + INTRA:          -9.318
REMARK INTER:                  -8.328
REMARK INTRA:                  -0.990
REMARK UNBOUND:                -0.781
REMARK SMILES CCCCCCCCCCCC(=O)[O-]
REMARK SMILES IDX 7 1 8 2 9 3 10 4 11 5 12 6 13 7 14 8 6 9 5 10 4 11 3 12 2 13
REMARK SMILES IDX 1 14
REMARK H PARENT
REMARK Flexibility Score: inf
ROOT
ATOM      1  C   UNL     1       4.586   4.750  12.875  1.00  0.00     0.000 C 
ENDROOT
BRANCH   1   2
ATOM      2  C   UNL     1       4.280   3.651  13.908  1.00  0.00     0.000 C 
BRANCH   2   3
ATOM      3  C   UNL     1       3.061   4.001  14.787  1.00  0.00     0.000 C 
BRANCH   3   4
ATOM      4  C   UNL     1       3.315   3.815  16.293  1.00  0.00     0.006 C 
BRANCH   4   5
ATOM      5  C   UNL     1       2.807   4.991  17.134  1.00  0.00     0.053 C 
BRANCH   5   6
ATOM      6  C   UNL     1       2.587   4.562  18.551  1.00  0.00     0.041 C 
ATOM      7  O   UNL     1       2.496   5.423  19.466  1.00  0.00    -0.550 OA
ATOM      8  O   UNL     1       2.529   3.212  18.868  1.00  0.00    -0.550 OA
ENDBRANCH   5   6
ENDBRANCH   4   5
ENDBRANCH   3   4
ENDBRANCH   2   3
ENDBRANCH   1   2
BRANCH   1   9
ATOM      9  C   UNL     1       4.543   6.162  13.483  1.00  0.00     0.000 C 
BRANCH   9  10
ATOM     10  C   UNL     1       5.910   6.861  13.457  1.00  0.00    -0.000 C 
BRANCH  10  11
ATOM     11  C   UNL     1       6.124   7.692  14.729  1.00  0.00    -0.000 C 
BRANCH  11  12
ATOM     12  C   UNL     1       5.001   7.506  15.765  1.00  0.00    -0.000 C 
BRANCH  12  13
ATOM     13  C   UNL     1       4.162   8.766  16.044  1.00  0.00    -0.003 C 
ATOM     14  C   UNL     1       3.335   8.661  17.324  1.00  0.00     0.004 C 
ENDBRANCH  12  13
ENDBRANCH  11  12
ENDBRANCH  10  11
ENDBRANCH   9  10
ENDBRANCH   1   9
TORSDOF 10
ENDMDL
MODEL 8
REMARK VINA RESULT:    -5.237      2.241      4.149
REMARK INTER + INTRA:          -9.080
REMARK INTER:                  -8.299
REMARK INTRA:                  -0.780
REMARK UNBOUND:                -0.781
REMARK SMILES CCCCCCCCCCCC(=O)[O-]
REMARK SMILES IDX 7 1 8 2 9 3 10 4 11 5 12 6 13 7 14 8 6 9 5 10 4 11 3 12 2 13
REMARK SMILES IDX 1 14
REMARK H PARENT
REMARK Flexibility Score: inf
ROOT
ATOM      1  C   UNL     1       4.191   2.355  14.358  1.00  0.00     0.000 C 
ENDROOT
BRANCH   1   2
ATOM      2  C   UNL     1       3.324   3.061  15.416  1.00  0.00     0.000 C 
BRANCH   2   3
ATOM      3  C   UNL     1       3.447   2.398  16.804  1.00  0.00     0.000 C 
BRANCH   3   4
ATOM      4  C   UNL     1       3.026   3.317  17.964  1.00  0.00     0.006 C 
BRANCH   4   5
ATOM      5  C   UNL     1       2.607   4.715  17.496  1.00  0.00     0.053 C 
BRANCH   5   6
ATOM      6  C   UNL     1       2.475   5.640  18.665  1.00  0.00     0.041 C 
ATOM      7  O   UNL     1       2.585   5.197  19.838  1.00  0.00    -0.550 OA
ATOM      8  O   UNL     1       2.183   6.982  18.460  1.00  0.00    -0.550 OA
ENDBRANCH   5   6
ENDBRANCH   4   5
ENDBRANCH   3   4
ENDBRANCH   2   3
ENDBRANCH   1   2
BRANCH   1   9
ATOM      9  C   UNL     1       4.580   3.284  13.196  1.00  0.00     0.000 C 
BRANCH   9  10
ATOM     10  C   UNL     1       3.904   4.660  13.284  1.00  0.00    -0.000 C 
BRANCH  10  11
ATOM     11  C   UNL     1       4.950   5.778  13.399  1.00  0.00    -0.000 C 
BRANCH  11  12
ATOM     12  C   UNL     1       4.985   6.425  14.796  1.00  0.00    -0.000 C 
BRANCH  12  13
ATOM     13  C   UNL     1       6.020   7.553  14.960  1.00  0.00    -0.003 C 
ATOM     14  C   UNL     1       6.804   7.836  13.679  1.00  0.00     0.004 C 
ENDBRANCH  12  13
ENDBRANCH  11  12
ENDBRANCH  10  11
ENDBRANCH   9  10
ENDBRANCH   1   9
TORSDOF 10
ENDMDL
MODEL 9
REMARK VINA RESULT:    -5.195      2.894      4.546
REMARK INTER + INTRA:          -9.013
REMARK INTER:                  -8.284
REMARK INTRA:                  -0.729
REMARK UNBOUND:                -0.781
REMARK SMILES CCCCCCCCCCCC(=O)[O-]
REMARK SMILES IDX 7 1 8 2 9 3 10 4 11 5 12 6 13 7 14 8 6 9 5 10 4 11 3 12 2 13
REMARK SMILES IDX 1 14
REMARK H PARENT
REMARK Flexibility Score: inf
ROOT
ATOM      1  C   UNL     1       3.639   2.720  14.881  1.00  0.00     0.000 C 
ENDROOT
BRANCH   1   2
ATOM      2  C   UNL     1       3.426   4.147  14.347  1.00  0.00     0.000 C 
BRANCH   2   3
ATOM      3  C   UNL     1       4.459   4.522  13.262  1.00  0.00     0.000 C 
BRANCH   3   4
ATOM      4  C   UNL     1       5.004   5.955  13.402  1.00  0.00     0.006 C 
BRANCH   4   5
ATOM      5  C   UNL     1       5.094   6.419  14.860  1.00  0.00     0.053 C 
BRANCH   5   6
ATOM      6  C   UNL     1       4.961   7.908  14.943  1.00  0.00     0.041 C 
ATOM      7  O   UNL     1       4.334   8.435  15.899  1.00  0.00    -0.550 OA
ATOM      8  O   UNL     1       5.488   8.709  13.939  1.00  0.00    -0.550 OA
ENDBRANCH   5   6
ENDBRANCH   4   5
ENDBRANCH   3   4
ENDBRANCH   2   3
ENDBRANCH   1   2
BRANCH   1   9
ATOM      9  C   UNL     1       3.556   2.642  16.414  1.00  0.00     0.000 C 
BRANCH   9  10
ATOM     10  C   UNL     1       3.090   3.960  17.050  1.00  0.00    -0.000 C 
BRANCH  10  11
ATOM     11  C   UNL     1       2.805   3.775  18.547  1.00  0.00    -0.000 C 
BRANCH  11  12
ATOM     12  C   UNL     1       2.591   5.108  19.287  1.00  0.00    -0.000 C 
BRANCH  12  13
ATOM     13  C   UNL     1       2.033   6.248  18.418  1.00  0.00    -0.003 C 
ATOM     14  C   UNL     1       2.144   7.618  19.086  1.00  0.00     0.004 C 
ENDBRANCH  12  13
ENDBRANCH  11  12
ENDBRANCH  10  11
ENDBRANCH   9  10
ENDBRANCH   1   9
TORSDOF 10
ENDMDL
