MODEL 1
REMARK VINA RESULT:    -6.851      0.000      0.000
REMARK INTER + INTRA:          -8.575
REMARK INTER:                  -8.252
REMARK INTRA:                  -0.323
REMARK UNBOUND:                -0.323
REMARK SMILES Oc1cc(O)c2cc(O)c(-c3ccc(O)c(O)c3)[o+]c2c1
REMARK SMILES IDX 10 1 19 2 20 3 21 4 2 5 3 6 4 7 6 8 7 9 8 10 11 11 12 12
REMARK SMILES IDX 13 13 14 14 18 15 16 16 15 17 17 19 9 21 1 23 5 25
REMARK H PARENT 15 18 17 20 9 22 1 24 5 26
REMARK Flexibility Score: inf
ROOT
ATOM      1  C   UNL     1     -21.789  14.578 -39.652  1.00  0.00     0.402 A 
ATOM      2  O   UNL     1     -22.838  14.742 -38.850  1.00  0.00    -0.202 OA
ATOM      3  C   UNL     1     -23.728  15.716 -39.001  1.00  0.00     0.368 A 
ATOM      4  C   UNL     1     -24.799  15.803 -38.109  1.00  0.00     0.162 A 
ATOM      5  C   UNL     1     -25.753  16.817 -38.247  1.00  0.00     0.128 A 
ATOM      6  C   UNL     1     -25.634  17.746 -39.284  1.00  0.00     0.093 A 
ATOM      7  C   UNL     1     -24.570  17.680 -40.192  1.00  0.00     0.136 A 
ATOM      8  C   UNL     1     -23.598  16.654 -40.053  1.00  0.00     0.125 A 
ATOM      9  C   UNL     1     -22.492  16.519 -40.908  1.00  0.00     0.078 A 
ATOM     10  C   UNL     1     -21.573  15.484 -40.707  1.00  0.00     0.223 A 
ENDROOT
BRANCH   1  11
ATOM     11  C   UNL     1     -20.872  13.447 -39.384  1.00  0.00     0.087 A 
ATOM     12  C   UNL     1     -20.908  12.274 -40.160  1.00  0.00     0.022 A 
ATOM     13  C   UNL     1     -20.049  11.210 -39.873  1.00  0.00     0.051 A 
ATOM     14  C   UNL     1     -19.152  11.297 -38.802  1.00  0.00     0.157 A 
ATOM     15  C   UNL     1     -19.984  13.519 -38.297  1.00  0.00     0.068 A 
ATOM     16  C   UNL     1     -19.121  12.451 -38.010  1.00  0.00     0.158 A 
BRANCH  14  17
ATOM     17  O   UNL     1     -18.292  10.237 -38.513  1.00  0.00    -0.504 OA
ATOM     18  H   UNL     1     -17.893  10.115 -37.591  1.00  0.00     0.293 HD
ENDBRANCH  14  17
BRANCH  16  19
ATOM     19  O   UNL     1     -18.232  12.532 -36.940  1.00  0.00    -0.504 OA
ATOM     20  H   UNL     1     -17.511  13.242 -36.902  1.00  0.00     0.293 HD
ENDBRANCH  16  19
ENDBRANCH   1  11
BRANCH  10  21
ATOM     21  O   UNL     1     -20.448  15.379 -41.524  1.00  0.00    -0.500 OA
ATOM     22  H   UNL     1     -19.747  16.110 -41.563  1.00  0.00     0.294 HD
ENDBRANCH  10  21
BRANCH   5  23
ATOM     23  O   UNL     1     -26.823  16.910 -37.361  1.00  0.00    -0.507 OA
ATOM     24  H   UNL     1     -26.957  16.235 -36.618  1.00  0.00     0.293 HD
ENDBRANCH   5  23
BRANCH   7  25
ATOM     25  O   UNL     1     -24.525  18.644 -41.202  1.00  0.00    -0.507 OA
ATOM     26  H   UNL     1     -23.768  18.743 -41.863  1.00  0.00     0.293 HD
ENDBRANCH   7  25
TORSDOF 6
ENDMDL
MODEL 2
REMARK VINA RESULT:    -6.797      4.588      6.102
REMARK INTER + INTRA:          -8.511
REMARK INTER:                  -8.181
REMARK INTRA:                  -0.330
REMARK UNBOUND:                -0.323
REMARK SMILES Oc1cc(O)c2cc(O)c(-c3ccc(O)c(O)c3)[o+]c2c1
REMARK SMILES IDX 10 1 19 2 20 3 21 4 2 5 3 6 4 7 6 8 7 9 8 10 11 11 12 12
REMARK SMILES IDX 13 13 14 14 18 15 16 16 15 17 17 19 9 21 1 23 5 25
REMARK H PARENT 15 18 17 20 9 22 1 24 5 26
REMARK Flexibility Score: inf
ROOT
ATOM      1  C   UNL     1     -24.089  17.969 -38.100  1.00  0.00     0.402 A 
ATOM      2  O   UNL     1     -23.493  19.152 -37.974  1.00  0.00    -0.202 OA
ATOM      3  C   UNL     1     -23.083  19.877 -39.009  1.00  0.00     0.368 A 
ATOM      4  C   UNL     1     -22.469  21.110 -38.775  1.00  0.00     0.162 A 
ATOM      5  C   UNL     1     -22.030  21.894 -39.846  1.00  0.00     0.128 A 
ATOM      6  C   UNL     1     -22.207  21.443 -41.156  1.00  0.00     0.093 A 
ATOM      7  C   UNL     1     -22.819  20.211 -41.417  1.00  0.00     0.136 A 
ATOM      8  C   UNL     1     -23.264  19.410 -40.333  1.00  0.00     0.125 A 
ATOM      9  C   UNL     1     -23.875  18.157 -40.499  1.00  0.00     0.078 A 
ATOM     10  C   UNL     1     -24.284  17.422 -39.382  1.00  0.00     0.223 A 
ENDROOT
BRANCH   1  11
ATOM     11  C   UNL     1     -24.510  17.262 -36.869  1.00  0.00     0.087 A 
ATOM     12  C   UNL     1     -25.850  17.265 -36.443  1.00  0.00     0.022 A 
ATOM     13  C   UNL     1     -26.219  16.610 -35.265  1.00  0.00     0.051 A 
ATOM     14  C   UNL     1     -25.254  15.956 -34.490  1.00  0.00     0.157 A 
ATOM     15  C   UNL     1     -23.543  16.621 -36.075  1.00  0.00     0.068 A 
ATOM     16  C   UNL     1     -23.913  15.963 -34.893  1.00  0.00     0.158 A 
BRANCH  14  17
ATOM     17  O   UNL     1     -25.619  15.300 -33.314  1.00  0.00    -0.504 OA
ATOM     18  H   UNL     1     -25.224  14.402 -33.065  1.00  0.00     0.293 HD
ENDBRANCH  14  17
BRANCH  16  19
ATOM     19  O   UNL     1     -22.954  15.316 -34.116  1.00  0.00    -0.504 OA
ATOM     20  H   UNL     1     -21.988  15.249 -34.414  1.00  0.00     0.293 HD
ENDBRANCH  16  19
ENDBRANCH   1  11
BRANCH  10  21
ATOM     21  O   UNL     1     -24.845  16.156 -39.544  1.00  0.00    -0.500 OA
ATOM     22  H   UNL     1     -24.839  15.471 -38.797  1.00  0.00     0.294 HD
ENDBRANCH  10  21
BRANCH   5  23
ATOM     23  O   UNL     1     -21.418  23.125 -39.621  1.00  0.00    -0.507 OA
ATOM     24  H   UNL     1     -20.562  23.386 -40.096  1.00  0.00     0.293 HD
ENDBRANCH   5  23
BRANCH   7  25
ATOM     25  O   UNL     1     -22.962  19.834 -42.755  1.00  0.00    -0.507 OA
ATOM     26  H   UNL     1     -22.211  19.836 -43.432  1.00  0.00     0.293 HD
ENDBRANCH   7  25
TORSDOF 6
ENDMDL
MODEL 3
REMARK VINA RESULT:    -6.640      4.556      7.212
REMARK INTER + INTRA:          -8.321
REMARK INTER:                  -8.038
REMARK INTRA:                  -0.283
REMARK UNBOUND:                -0.323
REMARK SMILES Oc1cc(O)c2cc(O)c(-c3ccc(O)c(O)c3)[o+]c2c1
REMARK SMILES IDX 10 1 19 2 20 3 21 4 2 5 3 6 4 7 6 8 7 9 8 10 11 11 12 12
REMARK SMILES IDX 13 13 14 14 18 15 16 16 15 17 17 19 9 21 1 23 5 25
REMARK H PARENT 15 18 17 20 9 22 1 24 5 26
REMARK Flexibility Score: inf
ROOT
ATOM      1  C   UNL     1     -24.251  18.338 -38.767  1.00  0.00     0.402 A 
ATOM      2  O   UNL     1     -23.435  17.932 -37.798  1.00  0.00    -0.202 OA
ATOM      3  C   UNL     1     -23.774  17.021 -36.892  1.00  0.00     0.368 A 
ATOM      4  C   UNL     1     -22.845  16.657 -35.913  1.00  0.00     0.162 A 
ATOM      5  C   UNL     1     -23.175  15.699 -34.949  1.00  0.00     0.128 A 
ATOM      6  C   UNL     1     -24.438  15.102 -34.966  1.00  0.00     0.093 A 
ATOM      7  C   UNL     1     -25.386  15.450 -35.936  1.00  0.00     0.136 A 
ATOM      8  C   UNL     1     -25.058  16.424 -36.915  1.00  0.00     0.125 A 
ATOM      9  C   UNL     1     -25.948  16.843 -37.916  1.00  0.00     0.078 A 
ATOM     10  C   UNL     1     -25.554  17.812 -38.844  1.00  0.00     0.223 A 
ENDROOT
BRANCH   1  11
ATOM     11  C   UNL     1     -23.753  19.353 -39.723  1.00  0.00     0.087 A 
ATOM     12  C   UNL     1     -23.463  19.022 -41.059  1.00  0.00     0.022 A 
ATOM     13  C   UNL     1     -22.971  19.992 -41.936  1.00  0.00     0.051 A 
ATOM     14  C   UNL     1     -22.750  21.300 -41.490  1.00  0.00     0.157 A 
ATOM     15  C   UNL     1     -23.509  20.663 -39.276  1.00  0.00     0.068 A 
ATOM     16  C   UNL     1     -23.016  21.637 -40.157  1.00  0.00     0.158 A 
BRANCH  14  17
ATOM     17  O   UNL     1     -22.260  22.271 -42.363  1.00  0.00    -0.504 OA
ATOM     18  H   UNL     1     -21.563  22.944 -42.069  1.00  0.00     0.293 HD
ENDBRANCH  14  17
BRANCH  16  19
ATOM     19  O   UNL     1     -22.788  22.938 -39.713  1.00  0.00    -0.504 OA
ATOM     20  H   UNL     1     -22.300  23.616 -40.287  1.00  0.00     0.293 HD
ENDBRANCH  16  19
ENDBRANCH   1  11
BRANCH  10  21
ATOM     21  O   UNL     1     -26.455  18.265 -39.807  1.00  0.00    -0.500 OA
ATOM     22  H   UNL     1     -26.760  19.231 -39.839  1.00  0.00     0.294 HD
ENDBRANCH  10  21
BRANCH   5  23
ATOM     23  O   UNL     1     -22.254  15.331 -33.971  1.00  0.00    -0.507 OA
ATOM     24  H   UNL     1     -22.546  14.884 -33.110  1.00  0.00     0.293 HD
ENDBRANCH   5  23
BRANCH   7  25
ATOM     25  O   UNL     1     -26.625  14.804 -35.885  1.00  0.00    -0.507 OA
ATOM     26  H   UNL     1     -26.992  14.337 -35.068  1.00  0.00     0.293 HD
ENDBRANCH   7  25
TORSDOF 6
ENDMDL
MODEL 4
REMARK VINA RESULT:    -6.545      4.854      8.082
REMARK INTER + INTRA:          -8.207
REMARK INTER:                  -8.231
REMARK INTRA:                   0.024
REMARK UNBOUND:                -0.323
REMARK SMILES Oc1cc(O)c2cc(O)c(-c3ccc(O)c(O)c3)[o+]c2c1
REMARK SMILES IDX 10 1 19 2 20 3 21 4 2 5 3 6 4 7 6 8 7 9 8 10 11 11 12 12
REMARK SMILES IDX 13 13 14 14 18 15 16 16 15 17 17 19 9 21 1 23 5 25
REMARK H PARENT 15 18 17 20 9 22 1 24 5 26
REMARK Flexibility Score: inf
ROOT
ATOM      1  C   UNL     1     -17.698  12.076 -34.834  1.00  0.00     0.402 A 
ATOM      2  O   UNL     1     -18.014  12.623 -36.005  1.00  0.00    -0.202 OA
ATOM      3  C   UNL     1     -18.822  12.044 -36.886  1.00  0.00     0.368 A 
ATOM      4  C   UNL     1     -19.098  12.699 -38.089  1.00  0.00     0.162 A 
ATOM      5  C   UNL     1     -19.947  12.114 -39.033  1.00  0.00     0.128 A 
ATOM      6  C   UNL     1     -20.524  10.869 -38.771  1.00  0.00     0.093 A 
ATOM      7  C   UNL     1     -20.264  10.192 -37.573  1.00  0.00     0.136 A 
ATOM      8  C   UNL     1     -19.400  10.780 -36.613  1.00  0.00     0.125 A 
ATOM      9  C   UNL     1     -19.072  10.169 -35.393  1.00  0.00     0.078 A 
ATOM     10  C   UNL     1     -18.209  10.810 -34.497  1.00  0.00     0.223 A 
ENDROOT
BRANCH   1  11
ATOM     11  C   UNL     1     -16.793  12.825 -33.933  1.00  0.00     0.087 A 
ATOM     12  C   UNL     1     -15.584  13.375 -34.398  1.00  0.00     0.022 A 
ATOM     13  C   UNL     1     -14.735  14.057 -33.524  1.00  0.00     0.051 A 
ATOM     14  C   UNL     1     -15.072  14.189 -32.171  1.00  0.00     0.157 A 
ATOM     15  C   UNL     1     -17.115  12.943 -32.570  1.00  0.00     0.068 A 
ATOM     16  C   UNL     1     -16.263  13.629 -31.692  1.00  0.00     0.158 A 
BRANCH  14  17
ATOM     17  O   UNL     1     -14.227  14.871 -31.296  1.00  0.00    -0.504 OA
ATOM     18  H   UNL     1     -13.239  14.657 -31.240  1.00  0.00     0.293 HD
ENDBRANCH  14  17
BRANCH  16  19
ATOM     19  O   UNL     1     -16.593  13.755 -30.344  1.00  0.00    -0.504 OA
ATOM     20  H   UNL     1     -15.911  14.057 -29.658  1.00  0.00     0.293 HD
ENDBRANCH  16  19
ENDBRANCH   1  11
BRANCH  10  21
ATOM     21  O   UNL     1     -17.844  10.181 -33.307  1.00  0.00    -0.500 OA
ATOM     22  H   UNL     1     -18.536   9.853 -32.643  1.00  0.00     0.294 HD
ENDBRANCH  10  21
BRANCH   5  23
ATOM     23  O   UNL     1     -20.227  12.761 -40.234  1.00  0.00    -0.507 OA
ATOM     24  H   UNL     1     -20.086  13.759 -40.344  1.00  0.00     0.293 HD
ENDBRANCH   5  23
BRANCH   7  25
ATOM     25  O   UNL     1     -20.883   8.952 -37.387  1.00  0.00    -0.507 OA
ATOM     26  H   UNL     1     -21.172   8.589 -36.490  1.00  0.00     0.293 HD
ENDBRANCH   7  25
TORSDOF 6
ENDMDL
MODEL 5
REMARK VINA RESULT:    -6.541      1.193      2.738
REMARK INTER + INTRA:          -8.202
REMARK INTER:                  -7.853
REMARK INTRA:                  -0.349
REMARK UNBOUND:                -0.323
REMARK SMILES Oc1cc(O)c2cc(O)c(-c3ccc(O)c(O)c3)[o+]c2c1
REMARK SMILES IDX 10 1 19 2 20 3 21 4 2 5 3 6 4 7 6 8 7 9 8 10 11 11 12 12
REMARK SMILES IDX 13 13 14 14 18 15 16 16 15 17 17 19 9 21 1 23 5 25
REMARK H PARENT 15 18 17 20 9 22 1 24 5 26
REMARK Flexibility Score: inf
ROOT
ATOM      1  C   UNL     1     -22.111  14.641 -39.502  1.00  0.00     0.402 A 
ATOM      2  O   UNL     1     -21.832  15.638 -40.337  1.00  0.00    -0.202 OA
ATOM      3  C   UNL     1     -22.657  16.655 -40.561  1.00  0.00     0.368 A 
ATOM      4  C   UNL     1     -22.273  17.658 -41.455  1.00  0.00     0.162 A 
ATOM      5  C   UNL     1     -23.121  18.741 -41.706  1.00  0.00     0.128 A 
ATOM      6  C   UNL     1     -24.356  18.823 -41.059  1.00  0.00     0.093 A 
ATOM      7  C   UNL     1     -24.764  17.830 -40.159  1.00  0.00     0.136 A 
ATOM      8  C   UNL     1     -23.908  16.727 -39.903  1.00  0.00     0.125 A 
ATOM      9  C   UNL     1     -24.239  15.681 -39.026  1.00  0.00     0.078 A 
ATOM     10  C   UNL     1     -23.346  14.624 -38.827  1.00  0.00     0.223 A 
ENDROOT
BRANCH   1  11
ATOM     11  C   UNL     1     -21.105  13.568 -39.331  1.00  0.00     0.087 A 
ATOM     12  C   UNL     1     -21.106  12.425 -40.151  1.00  0.00     0.022 A 
ATOM     13  C   UNL     1     -20.161  11.414 -39.955  1.00  0.00     0.051 A 
ATOM     14  C   UNL     1     -19.212  11.524 -38.931  1.00  0.00     0.157 A 
ATOM     15  C   UNL     1     -20.163  13.661 -38.292  1.00  0.00     0.068 A 
ATOM     16  C   UNL     1     -19.215  12.647 -38.096  1.00  0.00     0.158 A 
BRANCH  14  17
ATOM     17  O   UNL     1     -18.267  10.517 -38.734  1.00  0.00    -0.504 OA
ATOM     18  H   UNL     1     -18.170   9.748 -39.385  1.00  0.00     0.293 HD
ENDBRANCH  14  17
BRANCH  16  19
ATOM     19  O   UNL     1     -18.274  12.750 -37.073  1.00  0.00    -0.504 OA
ATOM     20  H   UNL     1     -18.238  13.560 -36.464  1.00  0.00     0.293 HD
ENDBRANCH  16  19
ENDBRANCH   1  11
BRANCH  10  21
ATOM     21  O   UNL     1     -23.695  13.560 -37.996  1.00  0.00    -0.500 OA
ATOM     22  H   UNL     1     -23.580  12.596 -38.287  1.00  0.00     0.294 HD
ENDBRANCH  10  21
BRANCH   5  23
ATOM     23  O   UNL     1     -22.745  19.745 -42.597  1.00  0.00    -0.507 OA
ATOM     24  H   UNL     1     -22.064  19.576 -43.328  1.00  0.00     0.293 HD
ENDBRANCH   5  23
BRANCH   7  25
ATOM     25  O   UNL     1     -26.012  17.987 -39.551  1.00  0.00    -0.507 OA
ATOM     26  H   UNL     1     -26.727  18.626 -39.871  1.00  0.00     0.293 HD
ENDBRANCH   7  25
TORSDOF 6
ENDMDL
MODEL 6
REMARK VINA RESULT:    -6.535      1.730      2.056
REMARK INTER + INTRA:          -8.195
REMARK INTER:                  -7.878
REMARK INTRA:                  -0.316
REMARK UNBOUND:                -0.323
REMARK SMILES Oc1cc(O)c2cc(O)c(-c3ccc(O)c(O)c3)[o+]c2c1
REMARK SMILES IDX 10 1 19 2 20 3 21 4 2 5 3 6 4 7 6 8 7 9 8 10 11 11 12 12
REMARK SMILES IDX 13 13 14 14 18 15 16 16 15 17 17 19 9 21 1 23 5 25
REMARK H PARENT 15 18 17 20 9 22 1 24 5 26
REMARK Flexibility Score: inf
ROOT
ATOM      1  C   UNL     1     -22.102  15.153 -40.206  1.00  0.00     0.402 A 
ATOM      2  O   UNL     1     -22.859  15.972 -39.481  1.00  0.00    -0.202 OA
ATOM      3  C   UNL     1     -23.199  17.194 -39.876  1.00  0.00     0.368 A 
ATOM      4  C   UNL     1     -24.002  17.979 -39.044  1.00  0.00     0.162 A 
ATOM      5  C   UNL     1     -24.377  19.267 -39.437  1.00  0.00     0.128 A 
ATOM      6  C   UNL     1     -23.950  19.771 -40.668  1.00  0.00     0.093 A 
ATOM      7  C   UNL     1     -23.144  19.004 -41.519  1.00  0.00     0.136 A 
ATOM      8  C   UNL     1     -22.758  17.697 -41.124  1.00  0.00     0.125 A 
ATOM      9  C   UNL     1     -21.943  16.863 -41.906  1.00  0.00     0.078 A 
ATOM     10  C   UNL     1     -21.601  15.587 -41.448  1.00  0.00     0.223 A 
ENDROOT
BRANCH   1  11
ATOM     11  C   UNL     1     -21.799  13.811 -39.660  1.00  0.00     0.087 A 
ATOM     12  C   UNL     1     -22.741  12.768 -39.714  1.00  0.00     0.022 A 
ATOM     13  C   UNL     1     -22.441  11.516 -39.170  1.00  0.00     0.051 A 
ATOM     14  C   UNL     1     -21.204  11.292 -38.554  1.00  0.00     0.157 A 
ATOM     15  C   UNL     1     -20.567  13.586 -39.022  1.00  0.00     0.068 A 
ATOM     16  C   UNL     1     -20.266  12.329 -38.476  1.00  0.00     0.158 A 
BRANCH  14  17
ATOM     17  O   UNL     1     -20.901  10.044 -38.011  1.00  0.00    -0.504 OA
ATOM     18  H   UNL     1     -21.320   9.727 -37.146  1.00  0.00     0.293 HD
ENDBRANCH  14  17
BRANCH  16  19
ATOM     19  O   UNL     1     -19.038  12.105 -37.856  1.00  0.00    -0.504 OA
ATOM     20  H   UNL     1     -18.972  11.926 -36.861  1.00  0.00     0.293 HD
ENDBRANCH  16  19
ENDBRANCH   1  11
BRANCH  10  21
ATOM     21  O   UNL     1     -20.751  14.778 -42.201  1.00  0.00    -0.500 OA
ATOM     22  H   UNL     1     -19.759  14.969 -42.274  1.00  0.00     0.294 HD
ENDBRANCH  10  21
BRANCH   5  23
ATOM     23  O   UNL     1     -25.178  20.055 -38.613  1.00  0.00    -0.507 OA
ATOM     24  H   UNL     1     -24.820  20.457 -37.754  1.00  0.00     0.293 HD
ENDBRANCH   5  23
BRANCH   7  25
ATOM     25  O   UNL     1     -22.762  19.580 -42.734  1.00  0.00    -0.507 OA
ATOM     26  H   UNL     1     -23.255  19.452 -43.606  1.00  0.00     0.293 HD
ENDBRANCH   7  25
TORSDOF 6
ENDMDL
MODEL 7
REMARK VINA RESULT:    -6.405      4.852      8.886
REMARK INTER + INTRA:          -8.038
REMARK INTER:                  -7.689
REMARK INTRA:                  -0.349
REMARK UNBOUND:                -0.323
REMARK SMILES Oc1cc(O)c2cc(O)c(-c3ccc(O)c(O)c3)[o+]c2c1
REMARK SMILES IDX 10 1 19 2 20 3 21 4 2 5 3 6 4 7 6 8 7 9 8 10 11 11 12 12
REMARK SMILES IDX 13 13 14 14 18 15 16 16 15 17 17 19 9 21 1 23 5 25
REMARK H PARENT 15 18 17 20 9 22 1 24 5 26
REMARK Flexibility Score: inf
ROOT
ATOM      1  C   UNL     1     -17.836  12.442 -35.113  1.00  0.00     0.402 A 
ATOM      2  O   UNL     1     -16.640  13.026 -35.104  1.00  0.00    -0.202 OA
ATOM      3  C   UNL     1     -16.051  13.465 -33.998  1.00  0.00     0.368 A 
ATOM      4  C   UNL     1     -14.791  14.062 -34.090  1.00  0.00     0.162 A 
ATOM      5  C   UNL     1     -14.147  14.532 -32.940  1.00  0.00     0.128 A 
ATOM      6  C   UNL     1     -14.765  14.401 -31.695  1.00  0.00     0.093 A 
ATOM      7  C   UNL     1     -16.028  13.807 -31.576  1.00  0.00     0.136 A 
ATOM      8  C   UNL     1     -16.687  13.332 -32.740  1.00  0.00     0.125 A 
ATOM      9  C   UNL     1     -17.958  12.736 -32.718  1.00  0.00     0.078 A 
ATOM     10  C   UNL     1     -18.546  12.295 -33.908  1.00  0.00     0.223 A 
ENDROOT
BRANCH   1  11
ATOM     11  C   UNL     1     -18.383  11.986 -36.411  1.00  0.00     0.087 A 
ATOM     12  C   UNL     1     -18.258  10.649 -36.830  1.00  0.00     0.022 A 
ATOM     13  C   UNL     1     -18.761  10.247 -38.070  1.00  0.00     0.051 A 
ATOM     14  C   UNL     1     -19.383  11.175 -38.914  1.00  0.00     0.157 A 
ATOM     15  C   UNL     1     -18.989  12.917 -37.272  1.00  0.00     0.068 A 
ATOM     16  C   UNL     1     -19.494  12.513 -38.516  1.00  0.00     0.158 A 
BRANCH  14  17
ATOM     17  O   UNL     1     -19.887  10.777 -40.152  1.00  0.00    -0.504 OA
ATOM     18  H   UNL     1     -20.774  11.122 -40.497  1.00  0.00     0.293 HD
ENDBRANCH  14  17
BRANCH  16  19
ATOM     19  O   UNL     1     -20.107  13.436 -39.362  1.00  0.00    -0.504 OA
ATOM     20  H   UNL     1     -20.130  14.425 -39.140  1.00  0.00     0.293 HD
ENDBRANCH  16  19
ENDBRANCH   1  11
BRANCH  10  21
ATOM     21  O   UNL     1     -19.829  11.748 -33.893  1.00  0.00    -0.500 OA
ATOM     22  H   UNL     1     -19.984  10.757 -33.748  1.00  0.00     0.294 HD
ENDBRANCH  10  21
BRANCH   5  23
ATOM     23  O   UNL     1     -12.890  15.127 -33.024  1.00  0.00    -0.507 OA
ATOM     24  H   UNL     1     -12.631  15.904 -32.428  1.00  0.00     0.293 HD
ENDBRANCH   5  23
BRANCH   7  25
ATOM     25  O   UNL     1     -16.576  13.712 -30.294  1.00  0.00    -0.507 OA
ATOM     26  H   UNL     1     -16.155  14.103 -29.463  1.00  0.00     0.293 HD
ENDBRANCH   7  25
TORSDOF 6
ENDMDL
MODEL 8
REMARK VINA RESULT:    -6.366      2.183      6.974
REMARK INTER + INTRA:          -7.992
REMARK INTER:                  -7.644
REMARK INTRA:                  -0.348
REMARK UNBOUND:                -0.323
REMARK SMILES Oc1cc(O)c2cc(O)c(-c3ccc(O)c(O)c3)[o+]c2c1
REMARK SMILES IDX 10 1 19 2 20 3 21 4 2 5 3 6 4 7 6 8 7 9 8 10 11 11 12 12
REMARK SMILES IDX 13 13 14 14 18 15 16 16 15 17 17 19 9 21 1 23 5 25
REMARK H PARENT 15 18 17 20 9 22 1 24 5 26
REMARK Flexibility Score: inf
ROOT
ATOM      1  C   UNL     1     -22.685  14.011 -38.244  1.00  0.00     0.402 A 
ATOM      2  O   UNL     1     -21.901  13.254 -37.480  1.00  0.00    -0.202 OA
ATOM      3  C   UNL     1     -20.930  12.487 -37.965  1.00  0.00     0.368 A 
ATOM      4  C   UNL     1     -20.157  11.730 -37.081  1.00  0.00     0.162 A 
ATOM      5  C   UNL     1     -19.127  10.916 -37.565  1.00  0.00     0.128 A 
ATOM      6  C   UNL     1     -18.870  10.862 -38.936  1.00  0.00     0.093 A 
ATOM      7  C   UNL     1     -19.631  11.611 -39.842  1.00  0.00     0.136 A 
ATOM      8  C   UNL     1     -20.679  12.436 -39.357  1.00  0.00     0.125 A 
ATOM      9  C   UNL     1     -21.500  13.211 -40.192  1.00  0.00     0.078 A 
ATOM     10  C   UNL     1     -22.517  13.997 -39.641  1.00  0.00     0.223 A 
ENDROOT
BRANCH   1  11
ATOM     11  C   UNL     1     -23.727  14.830 -37.583  1.00  0.00     0.087 A 
ATOM     12  C   UNL     1     -23.515  16.190 -37.292  1.00  0.00     0.022 A 
ATOM     13  C   UNL     1     -24.504  16.936 -36.646  1.00  0.00     0.051 A 
ATOM     14  C   UNL     1     -25.711  16.334 -36.271  1.00  0.00     0.157 A 
ATOM     15  C   UNL     1     -24.932  14.227 -37.185  1.00  0.00     0.068 A 
ATOM     16  C   UNL     1     -25.925  14.976 -36.537  1.00  0.00     0.158 A 
BRANCH  14  17
ATOM     17  O   UNL     1     -26.700  17.077 -35.627  1.00  0.00    -0.504 OA
ATOM     18  H   UNL     1     -27.623  17.188 -36.028  1.00  0.00     0.293 HD
ENDBRANCH  14  17
BRANCH  16  19
ATOM     19  O   UNL     1     -27.124  14.378 -36.156  1.00  0.00    -0.504 OA
ATOM     20  H   UNL     1     -27.906  14.926 -35.819  1.00  0.00     0.293 HD
ENDBRANCH  16  19
ENDBRANCH   1  11
BRANCH  10  21
ATOM     21  O   UNL     1     -23.365  14.728 -40.473  1.00  0.00    -0.500 OA
ATOM     22  H   UNL     1     -24.269  14.370 -40.759  1.00  0.00     0.294 HD
ENDBRANCH  10  21
BRANCH   5  23
ATOM     23  O   UNL     1     -18.352  10.158 -36.690  1.00  0.00    -0.507 OA
ATOM     24  H   UNL     1     -17.868  10.583 -35.907  1.00  0.00     0.293 HD
ENDBRANCH   5  23
BRANCH   7  25
ATOM     25  O   UNL     1     -19.307  11.504 -41.197  1.00  0.00    -0.507 OA
ATOM     26  H   UNL     1     -19.702  10.819 -41.826  1.00  0.00     0.293 HD
ENDBRANCH   7  25
TORSDOF 6
ENDMDL
MODEL 9
REMARK VINA RESULT:    -6.295      3.816      6.641
REMARK INTER + INTRA:          -7.906
REMARK INTER:                  -7.554
REMARK INTRA:                  -0.352
REMARK UNBOUND:                -0.323
REMARK SMILES Oc1cc(O)c2cc(O)c(-c3ccc(O)c(O)c3)[o+]c2c1
REMARK SMILES IDX 10 1 19 2 20 3 21 4 2 5 3 6 4 7 6 8 7 9 8 10 11 11 12 12
REMARK SMILES IDX 13 13 14 14 18 15 16 16 15 17 17 19 9 21 1 23 5 25
REMARK H PARENT 15 18 17 20 9 22 1 24 5 26
REMARK Flexibility Score: inf
ROOT
ATOM      1  C   UNL     1     -18.266  12.645 -35.648  1.00  0.00     0.402 A 
ATOM      2  O   UNL     1     -19.485  13.106 -35.917  1.00  0.00    -0.202 OA
ATOM      3  C   UNL     1     -20.100  12.910 -37.078  1.00  0.00     0.368 A 
ATOM      4  C   UNL     1     -21.383  13.431 -37.265  1.00  0.00     0.162 A 
ATOM      5  C   UNL     1     -22.054  13.237 -38.476  1.00  0.00     0.128 A 
ATOM      6  C   UNL     1     -21.440  12.517 -39.503  1.00  0.00     0.093 A 
ATOM      7  C   UNL     1     -20.155  11.984 -39.341  1.00  0.00     0.136 A 
ATOM      8  C   UNL     1     -19.468  12.182 -38.114  1.00  0.00     0.125 A 
ATOM      9  C   UNL     1     -18.174  11.695 -37.868  1.00  0.00     0.078 A 
ATOM     10  C   UNL     1     -17.559  11.933 -36.634  1.00  0.00     0.223 A 
ENDROOT
BRANCH   1  11
ATOM     11  C   UNL     1     -17.692  12.922 -34.312  1.00  0.00     0.087 A 
ATOM     12  C   UNL     1     -17.827  12.008 -33.251  1.00  0.00     0.022 A 
ATOM     13  C   UNL     1     -17.296  12.302 -31.993  1.00  0.00     0.051 A 
ATOM     14  C   UNL     1     -16.637  13.517 -31.771  1.00  0.00     0.157 A 
ATOM     15  C   UNL     1     -17.047  14.149 -34.077  1.00  0.00     0.068 A 
ATOM     16  C   UNL     1     -16.514  14.444 -32.814  1.00  0.00     0.158 A 
BRANCH  14  17
ATOM     17  O   UNL     1     -16.105  13.814 -30.516  1.00  0.00    -0.504 OA
ATOM     18  H   UNL     1     -15.445  13.195 -30.062  1.00  0.00     0.293 HD
ENDBRANCH  14  17
BRANCH  16  19
ATOM     19  O   UNL     1     -15.863  15.655 -32.588  1.00  0.00    -0.504 OA
ATOM     20  H   UNL     1     -16.366  16.535 -32.584  1.00  0.00     0.293 HD
ENDBRANCH  16  19
ENDBRANCH   1  11
BRANCH  10  21
ATOM     21  O   UNL     1     -16.255  11.494 -36.406  1.00  0.00    -0.500 OA
ATOM     22  H   UNL     1     -15.458  12.109 -36.524  1.00  0.00     0.294 HD
ENDBRANCH  10  21
BRANCH   5  23
ATOM     23  O   UNL     1     -23.333  13.754 -38.669  1.00  0.00    -0.507 OA
ATOM     24  H   UNL     1     -23.718  14.461 -38.054  1.00  0.00     0.293 HD
ENDBRANCH   5  23
BRANCH   7  25
ATOM     25  O   UNL     1     -19.612  11.274 -40.415  1.00  0.00    -0.507 OA
ATOM     26  H   UNL     1     -19.720  11.535 -41.385  1.00  0.00     0.293 HD
ENDBRANCH   7  25
TORSDOF 6
ENDMDL
