MODEL 1
REMARK VINA RESULT:    11.294      0.000      0.000
REMARK INTER + INTRA:          21.167
REMARK INTER:                  20.538
REMARK INTRA:                   0.630
REMARK UNBOUND:                 0.630
REMARK SMILES CCCCCCCCCCCCCCCC(=O)[O-]
REMARK SMILES IDX 9 1 10 2 11 3 12 4 13 5 14 6 15 7 16 8 17 9 18 10 8 11 7 12
REMARK SMILES IDX 6 13 5 14 4 15 3 16 2 17 1 18
REMARK H PARENT
REMARK Flexibility Score: inf
ROOT
ATOM      1  C   UNL     1      16.000  51.864  60.543  1.00  0.00     0.000 C 
ENDROOT
BRANCH   1   2
ATOM      2  C   UNL     1      15.827  50.344  60.371  1.00  0.00     0.000 C 
BRANCH   2   3
ATOM      3  C   UNL     1      16.358  49.768  59.042  1.00  0.00     0.000 C 
BRANCH   3   4
ATOM      4  C   UNL     1      16.283  48.235  58.920  1.00  0.00     0.000 C 
BRANCH   4   5
ATOM      5  C   UNL     1      16.552  47.737  57.492  1.00  0.00     0.000 C 
BRANCH   5   6
ATOM      6  C   UNL     1      17.272  46.381  57.511  1.00  0.00     0.006 C 
BRANCH   6   7
ATOM      7  C   UNL     1      16.492  45.297  56.755  1.00  0.00     0.053 C 
BRANCH   7   8
ATOM      8  C   UNL     1      17.407  44.327  56.074  1.00  0.00     0.041 C 
ATOM      9  O   UNL     1      18.545  44.697  55.681  1.00  0.00    -0.550 OA
ATOM     10  O   UNL     1      16.989  43.022  55.840  1.00  0.00    -0.550 OA
ENDBRANCH   7   8
ENDBRANCH   6   7
ENDBRANCH   5   6
ENDBRANCH   4   5
ENDBRANCH   3   4
ENDBRANCH   2   3
ENDBRANCH   1   2
BRANCH   1  11
ATOM     11  C   UNL     1      15.158  52.676  59.545  1.00  0.00     0.000 C 
BRANCH  11  12
ATOM     12  C   UNL     1      15.444  54.185  59.627  1.00  0.00    -0.000 C 
BRANCH  12  13
ATOM     13  C   UNL     1      15.086  54.778  61.001  1.00  0.00    -0.000 C 
BRANCH  13  14
ATOM     14  C   UNL     1      16.327  55.125  61.846  1.00  0.00    -0.000 C 
BRANCH  14  15
ATOM     15  C   UNL     1      16.267  54.674  63.317  1.00  0.00    -0.000 C 
BRANCH  15  16
ATOM     16  C   UNL     1      14.855  54.776  63.918  1.00  0.00    -0.000 C 
BRANCH  16  17
ATOM     17  C   UNL     1      13.794  54.083  63.048  1.00  0.00    -0.003 C 
ATOM     18  C   UNL     1      13.879  52.558  63.112  1.00  0.00     0.004 C 
ENDBRANCH  16  17
ENDBRANCH  15  16
ENDBRANCH  14  15
ENDBRANCH  13  14
ENDBRANCH  12  13
ENDBRANCH  11  12
ENDBRANCH   1  11
TORSDOF 14
ENDMDL
MODEL 2
REMARK VINA RESULT:    11.324      1.253      2.295
REMARK INTER + INTRA:          21.222
REMARK INTER:                  21.638
REMARK INTRA:                  -0.417
REMARK UNBOUND:                 0.630
REMARK SMILES CCCCCCCCCCCCCCCC(=O)[O-]
REMARK SMILES IDX 9 1 10 2 11 3 12 4 13 5 14 6 15 7 16 8 17 9 18 10 8 11 7 12
REMARK SMILES IDX 6 13 5 14 4 15 3 16 2 17 1 18
REMARK H PARENT
REMARK Flexibility Score: inf
ROOT
ATOM      1  C   UNL     1      16.219  51.792  59.789  1.00  0.00     0.000 C 
ENDROOT
BRANCH   1   2
ATOM      2  C   UNL     1      15.525  50.635  59.049  1.00  0.00     0.000 C 
BRANCH   2   3
ATOM      3  C   UNL     1      16.216  49.262  59.181  1.00  0.00     0.000 C 
BRANCH   3   4
ATOM      4  C   UNL     1      16.555  48.571  57.848  1.00  0.00     0.000 C 
BRANCH   4   5
ATOM      5  C   UNL     1      16.840  47.071  58.009  1.00  0.00     0.000 C 
BRANCH   5   6
ATOM      6  C   UNL     1      16.585  46.319  56.694  1.00  0.00     0.006 C 
BRANCH   6   7
ATOM      7  C   UNL     1      17.641  45.239  56.428  1.00  0.00     0.053 C 
BRANCH   7   8
ATOM      8  C   UNL     1      17.024  43.883  56.276  1.00  0.00     0.041 C 
ATOM      9  O   UNL     1      16.907  43.124  57.275  1.00  0.00    -0.550 OA
ATOM     10  O   UNL     1      16.610  43.442  55.025  1.00  0.00    -0.550 OA
ENDBRANCH   7   8
ENDBRANCH   6   7
ENDBRANCH   5   6
ENDBRANCH   4   5
ENDBRANCH   3   4
ENDBRANCH   2   3
ENDBRANCH   1   2
BRANCH   1  11
ATOM     11  C   UNL     1      16.684  51.403  61.203  1.00  0.00     0.000 C 
BRANCH  11  12
ATOM     12  C   UNL     1      15.586  50.684  62.005  1.00  0.00    -0.000 C 
BRANCH  12  13
ATOM     13  C   UNL     1      14.206  51.342  61.833  1.00  0.00    -0.000 C 
BRANCH  13  14
ATOM     14  C   UNL     1      13.981  52.523  62.797  1.00  0.00    -0.000 C 
BRANCH  14  15
ATOM     15  C   UNL     1      14.345  53.909  62.233  1.00  0.00    -0.000 C 
BRANCH  15  16
ATOM     16  C   UNL     1      14.527  54.973  63.329  1.00  0.00    -0.000 C 
BRANCH  16  17
ATOM     17  C   UNL     1      15.994  55.125  63.762  1.00  0.00    -0.003 C 
ATOM     18  C   UNL     1      16.980  54.778  62.647  1.00  0.00     0.004 C 
ENDBRANCH  16  17
ENDBRANCH  15  16
ENDBRANCH  14  15
ENDBRANCH  13  14
ENDBRANCH  12  13
ENDBRANCH  11  12
ENDBRANCH   1  11
TORSDOF 14
ENDMDL
MODEL 3
REMARK VINA RESULT:    11.561      1.207      1.803
REMARK INTER + INTRA:          21.652
REMARK INTER:                  22.522
REMARK INTRA:                  -0.870
REMARK UNBOUND:                 0.630
REMARK SMILES CCCCCCCCCCCCCCCC(=O)[O-]
REMARK SMILES IDX 9 1 10 2 11 3 12 4 13 5 14 6 15 7 16 8 17 9 18 10 8 11 7 12
REMARK SMILES IDX 6 13 5 14 4 15 3 16 2 17 1 18
REMARK H PARENT
REMARK Flexibility Score: inf
ROOT
ATOM      1  C   UNL     1      15.161  51.865  60.701  1.00  0.00     0.000 C 
ENDROOT
BRANCH   1   2
ATOM      2  C   UNL     1      15.785  50.469  60.874  1.00  0.00     0.000 C 
BRANCH   2   3
ATOM      3  C   UNL     1      16.625  49.972  59.679  1.00  0.00     0.000 C 
BRANCH   3   4
ATOM      4  C   UNL     1      16.128  48.668  59.029  1.00  0.00     0.000 C 
BRANCH   4   5
ATOM      5  C   UNL     1      17.240  47.906  58.294  1.00  0.00     0.000 C 
BRANCH   5   6
ATOM      6  C   UNL     1      16.651  46.968  57.230  1.00  0.00     0.006 C 
BRANCH   6   7
ATOM      7  C   UNL     1      17.011  45.499  57.488  1.00  0.00     0.053 C 
BRANCH   7   8
ATOM      8  C   UNL     1      16.801  44.653  56.270  1.00  0.00     0.041 C 
ATOM      9  O   UNL     1      17.622  43.741  55.982  1.00  0.00    -0.550 OA
ATOM     10  O   UNL     1      15.719  44.893  55.432  1.00  0.00    -0.550 OA
ENDBRANCH   7   8
ENDBRANCH   6   7
ENDBRANCH   5   6
ENDBRANCH   4   5
ENDBRANCH   3   4
ENDBRANCH   2   3
ENDBRANCH   1   2
BRANCH   1  11
ATOM     11  C   UNL     1      15.339  52.426  59.280  1.00  0.00     0.000 C 
BRANCH  11  12
ATOM     12  C   UNL     1      14.759  53.843  59.132  1.00  0.00    -0.000 C 
BRANCH  12  13
ATOM     13  C   UNL     1      15.296  54.814  60.198  1.00  0.00    -0.000 C 
BRANCH  13  14
ATOM     14  C   UNL     1      14.436  54.836  61.476  1.00  0.00    -0.000 C 
BRANCH  14  15
ATOM     15  C   UNL     1      15.207  55.109  62.781  1.00  0.00    -0.000 C 
BRANCH  15  16
ATOM     16  C   UNL     1      16.726  54.919  62.631  1.00  0.00    -0.000 C 
BRANCH  16  17
ATOM     17  C   UNL     1      17.191  53.525  63.084  1.00  0.00    -0.003 C 
ATOM     18  C   UNL     1      18.511  53.103  62.440  1.00  0.00     0.004 C 
ENDBRANCH  16  17
ENDBRANCH  15  16
ENDBRANCH  14  15
ENDBRANCH  13  14
ENDBRANCH  12  13
ENDBRANCH  11  12
ENDBRANCH   1  11
TORSDOF 14
ENDMDL
MODEL 4
REMARK VINA RESULT:    11.741      1.200      1.740
REMARK INTER + INTRA:          21.979
REMARK INTER:                  21.789
REMARK INTRA:                   0.190
REMARK UNBOUND:                 0.630
REMARK SMILES CCCCCCCCCCCCCCCC(=O)[O-]
REMARK SMILES IDX 9 1 10 2 11 3 12 4 13 5 14 6 15 7 16 8 17 9 18 10 8 11 7 12
REMARK SMILES IDX 6 13 5 14 4 15 3 16 2 17 1 18
REMARK H PARENT
REMARK Flexibility Score: inf
ROOT
ATOM      1  C   UNL     1      16.842  52.013  60.515  1.00  0.00     0.000 C 
ENDROOT
BRANCH   1   2
ATOM      2  C   UNL     1      15.924  50.778  60.500  1.00  0.00     0.000 C 
BRANCH   2   3
ATOM      3  C   UNL     1      15.803  50.066  59.137  1.00  0.00     0.000 C 
BRANCH   3   4
ATOM      4  C   UNL     1      16.603  48.756  59.013  1.00  0.00     0.000 C 
BRANCH   4   5
ATOM      5  C   UNL     1      16.257  47.964  57.744  1.00  0.00     0.000 C 
BRANCH   5   6
ATOM      6  C   UNL     1      16.798  46.529  57.828  1.00  0.00     0.006 C 
BRANCH   6   7
ATOM      7  C   UNL     1      17.235  45.991  56.460  1.00  0.00     0.053 C 
BRANCH   7   8
ATOM      8  C   UNL     1      17.034  44.511  56.354  1.00  0.00     0.041 C 
ATOM      9  O   UNL     1      17.217  43.923  55.255  1.00  0.00    -0.550 OA
ATOM     10  O   UNL     1      16.609  43.784  57.460  1.00  0.00    -0.550 OA
ENDBRANCH   7   8
ENDBRANCH   6   7
ENDBRANCH   5   6
ENDBRANCH   4   5
ENDBRANCH   3   4
ENDBRANCH   2   3
ENDBRANCH   1   2
BRANCH   1  11
ATOM     11  C   UNL     1      18.015  51.873  61.500  1.00  0.00     0.000 C 
BRANCH  11  12
ATOM     12  C   UNL     1      18.194  53.119  62.383  1.00  0.00    -0.000 C 
BRANCH  12  13
ATOM     13  C   UNL     1      16.999  54.084  62.286  1.00  0.00    -0.000 C 
BRANCH  13  14
ATOM     14  C   UNL     1      16.516  54.580  63.662  1.00  0.00    -0.000 C 
BRANCH  14  15
ATOM     15  C   UNL     1      15.076  55.125  63.695  1.00  0.00    -0.000 C 
BRANCH  15  16
ATOM     16  C   UNL     1      14.335  54.942  62.360  1.00  0.00    -0.000 C 
BRANCH  16  17
ATOM     17  C   UNL     1      14.338  53.482  61.881  1.00  0.00    -0.003 C 
ATOM     18  C   UNL     1      13.722  52.523  62.900  1.00  0.00     0.004 C 
ENDBRANCH  16  17
ENDBRANCH  15  16
ENDBRANCH  14  15
ENDBRANCH  13  14
ENDBRANCH  12  13
ENDBRANCH  11  12
ENDBRANCH   1  11
TORSDOF 14
ENDMDL
MODEL 5
REMARK VINA RESULT:    11.763      1.114      1.684
REMARK INTER + INTRA:          22.019
REMARK INTER:                  23.216
REMARK INTRA:                  -1.196
REMARK UNBOUND:                 0.630
REMARK SMILES CCCCCCCCCCCCCCCC(=O)[O-]
REMARK SMILES IDX 9 1 10 2 11 3 12 4 13 5 14 6 15 7 16 8 17 9 18 10 8 11 7 12
REMARK SMILES IDX 6 13 5 14 4 15 3 16 2 17 1 18
REMARK H PARENT
REMARK Flexibility Score: inf
ROOT
ATOM      1  C   UNL     1      15.427  50.692  61.143  1.00  0.00     0.000 C 
ENDROOT
BRANCH   1   2
ATOM      2  C   UNL     1      15.839  49.291  60.657  1.00  0.00     0.000 C 
BRANCH   2   3
ATOM      3  C   UNL     1      16.159  49.186  59.151  1.00  0.00     0.000 C 
BRANCH   3   4
ATOM      4  C   UNL     1      15.808  47.835  58.502  1.00  0.00     0.000 C 
BRANCH   4   5
ATOM      5  C   UNL     1      17.045  47.076  57.999  1.00  0.00     0.000 C 
BRANCH   5   6
ATOM      6  C   UNL     1      17.053  46.997  56.465  1.00  0.00     0.006 C 
BRANCH   6   7
ATOM      7  C   UNL     1      16.479  45.672  55.948  1.00  0.00     0.053 C 
BRANCH   7   8
ATOM      8  C   UNL     1      17.328  44.504  56.346  1.00  0.00     0.041 C 
ATOM      9  O   UNL     1      16.872  43.626  57.126  1.00  0.00    -0.550 OA
ATOM     10  O   UNL     1      18.635  44.403  55.886  1.00  0.00    -0.550 OA
ENDBRANCH   7   8
ENDBRANCH   6   7
ENDBRANCH   5   6
ENDBRANCH   4   5
ENDBRANCH   3   4
ENDBRANCH   2   3
ENDBRANCH   1   2
BRANCH   1  11
ATOM     11  C   UNL     1      15.717  51.792  60.109  1.00  0.00     0.000 C 
BRANCH  11  12
ATOM     12  C   UNL     1      16.885  52.700  60.529  1.00  0.00    -0.000 C 
BRANCH  12  13
ATOM     13  C   UNL     1      17.232  52.560  62.021  1.00  0.00    -0.000 C 
BRANCH  13  14
ATOM     14  C   UNL     1      17.831  53.845  62.621  1.00  0.00    -0.000 C 
BRANCH  14  15
ATOM     15  C   UNL     1      16.911  55.080  62.580  1.00  0.00    -0.000 C 
BRANCH  15  16
ATOM     16  C   UNL     1      15.856  55.079  63.699  1.00  0.00    -0.000 C 
BRANCH  16  17
ATOM     17  C   UNL     1      14.469  54.647  63.199  1.00  0.00    -0.003 C 
ATOM     18  C   UNL     1      14.210  55.052  61.748  1.00  0.00     0.004 C 
ENDBRANCH  16  17
ENDBRANCH  15  16
ENDBRANCH  14  15
ENDBRANCH  13  14
ENDBRANCH  12  13
ENDBRANCH  11  12
ENDBRANCH   1  11
TORSDOF 14
ENDMDL
MODEL 6
REMARK VINA RESULT:    11.785      4.336      9.538
REMARK INTER + INTRA:          22.061
REMARK INTER:                  21.937
REMARK INTRA:                   0.123
REMARK UNBOUND:                 0.630
REMARK SMILES CCCCCCCCCCCCCCCC(=O)[O-]
REMARK SMILES IDX 9 1 10 2 11 3 12 4 13 5 14 6 15 7 16 8 17 9 18 10 8 11 7 12
REMARK SMILES IDX 6 13 5 14 4 15 3 16 2 17 1 18
REMARK H PARENT
REMARK Flexibility Score: inf
ROOT
ATOM      1  C   UNL     1      15.849  51.353  59.894  1.00  0.00     0.000 C 
ENDROOT
BRANCH   1   2
ATOM      2  C   UNL     1      16.131  52.079  61.222  1.00  0.00     0.000 C 
BRANCH   2   3
ATOM      3  C   UNL     1      17.621  52.196  61.603  1.00  0.00     0.000 C 
BRANCH   3   4
ATOM      4  C   UNL     1      17.991  53.455  62.407  1.00  0.00     0.000 C 
BRANCH   4   5
ATOM      5  C   UNL     1      16.953  54.578  62.269  1.00  0.00     0.000 C 
BRANCH   5   6
ATOM      6  C   UNL     1      16.549  55.124  63.647  1.00  0.00     0.006 C 
BRANCH   6   7
ATOM      7  C   UNL     1      15.038  55.029  63.890  1.00  0.00     0.053 C 
BRANCH   7   8
ATOM      8  C   UNL     1      14.315  54.490  62.694  1.00  0.00     0.041 C 
ATOM      9  O   UNL     1      14.329  55.125  61.606  1.00  0.00    -0.550 OA
ATOM     10  O   UNL     1      13.595  53.305  62.789  1.00  0.00    -0.550 OA
ENDBRANCH   7   8
ENDBRANCH   6   7
ENDBRANCH   5   6
ENDBRANCH   4   5
ENDBRANCH   3   4
ENDBRANCH   2   3
ENDBRANCH   1   2
BRANCH   1  11
ATOM     11  C   UNL     1      15.830  49.822  60.044  1.00  0.00     0.000 C 
BRANCH  11  12
ATOM     12  C   UNL     1      15.695  49.101  58.692  1.00  0.00    -0.000 C 
BRANCH  12  13
ATOM     13  C   UNL     1      16.930  48.246  58.356  1.00  0.00    -0.000 C 
BRANCH  13  14
ATOM     14  C   UNL     1      16.687  47.277  57.184  1.00  0.00    -0.000 C 
BRANCH  14  15
ATOM     15  C   UNL     1      17.241  45.854  57.383  1.00  0.00    -0.000 C 
BRANCH  15  16
ATOM     16  C   UNL     1      16.303  44.764  56.838  1.00  0.00    -0.000 C 
BRANCH  16  17
ATOM     17  C   UNL     1      17.066  43.521  56.352  1.00  0.00    -0.003 C 
ATOM     18  C   UNL     1      18.107  43.846  55.281  1.00  0.00     0.004 C 
ENDBRANCH  16  17
ENDBRANCH  15  16
ENDBRANCH  14  15
ENDBRANCH  13  14
ENDBRANCH  12  13
ENDBRANCH  11  12
ENDBRANCH   1  11
TORSDOF 14
ENDMDL
MODEL 7
REMARK VINA RESULT:    11.931      4.285      9.570
REMARK INTER + INTRA:          22.325
REMARK INTER:                  22.344
REMARK INTRA:                  -0.020
REMARK UNBOUND:                 0.630
REMARK SMILES CCCCCCCCCCCCCCCC(=O)[O-]
REMARK SMILES IDX 9 1 10 2 11 3 12 4 13 5 14 6 15 7 16 8 17 9 18 10 8 11 7 12
REMARK SMILES IDX 6 13 5 14 4 15 3 16 2 17 1 18
REMARK H PARENT
REMARK Flexibility Score: inf
ROOT
ATOM      1  C   UNL     1      15.592  51.316  60.103  1.00  0.00     0.000 C 
ENDROOT
BRANCH   1   2
ATOM      2  C   UNL     1      15.447  51.329  61.635  1.00  0.00     0.000 C 
BRANCH   2   3
ATOM      3  C   UNL     1      14.010  51.537  62.157  1.00  0.00     0.000 C 
BRANCH   3   4
ATOM      4  C   UNL     1      13.856  52.638  63.222  1.00  0.00     0.000 C 
BRANCH   4   5
ATOM      5  C   UNL     1      13.663  54.034  62.613  1.00  0.00     0.000 C 
BRANCH   5   6
ATOM      6  C   UNL     1      14.174  55.124  63.568  1.00  0.00     0.006 C 
BRANCH   6   7
ATOM      7  C   UNL     1      15.693  55.057  63.767  1.00  0.00     0.053 C 
BRANCH   7   8
ATOM      8  C   UNL     1      16.408  54.744  62.489  1.00  0.00     0.041 C 
ATOM      9  O   UNL     1      17.537  54.185  62.515  1.00  0.00    -0.550 OA
ATOM     10  O   UNL     1      15.845  55.100  61.269  1.00  0.00    -0.550 OA
ENDBRANCH   7   8
ENDBRANCH   6   7
ENDBRANCH   5   6
ENDBRANCH   4   5
ENDBRANCH   3   4
ENDBRANCH   2   3
ENDBRANCH   1   2
BRANCH   1  11
ATOM     11  C   UNL     1      16.628  50.292  59.610  1.00  0.00     0.000 C 
BRANCH  11  12
ATOM     12  C   UNL     1      15.974  49.031  59.021  1.00  0.00    -0.000 C 
BRANCH  12  13
ATOM     13  C   UNL     1      16.860  48.347  57.965  1.00  0.00    -0.000 C 
BRANCH  13  14
ATOM     14  C   UNL     1      16.579  46.839  57.833  1.00  0.00    -0.000 C 
BRANCH  14  15
ATOM     15  C   UNL     1      17.616  46.047  57.014  1.00  0.00    -0.000 C 
BRANCH  15  16
ATOM     16  C   UNL     1      16.985  45.242  55.865  1.00  0.00    -0.000 C 
BRANCH  16  17
ATOM     17  C   UNL     1      16.594  43.818  56.291  1.00  0.00    -0.003 C 
ATOM     18  C   UNL     1      17.185  42.743  55.380  1.00  0.00     0.004 C 
ENDBRANCH  16  17
ENDBRANCH  15  16
ENDBRANCH  14  15
ENDBRANCH  13  14
ENDBRANCH  12  13
ENDBRANCH  11  12
ENDBRANCH   1  11
TORSDOF 14
ENDMDL
MODEL 8
REMARK VINA RESULT:    12.051      4.525      9.701
REMARK INTER + INTRA:          22.543
REMARK INTER:                  23.226
REMARK INTRA:                  -0.684
REMARK UNBOUND:                 0.630
REMARK SMILES CCCCCCCCCCCCCCCC(=O)[O-]
REMARK SMILES IDX 9 1 10 2 11 3 12 4 13 5 14 6 15 7 16 8 17 9 18 10 8 11 7 12
REMARK SMILES IDX 6 13 5 14 4 15 3 16 2 17 1 18
REMARK H PARENT
REMARK Flexibility Score: inf
ROOT
ATOM      1  C   UNL     1      16.622  49.924  60.433  1.00  0.00     0.000 C 
ENDROOT
BRANCH   1   2
ATOM      2  C   UNL     1      16.257  51.395  60.697  1.00  0.00     0.000 C 
BRANCH   2   3
ATOM      3  C   UNL     1      14.995  51.900  59.967  1.00  0.00     0.000 C 
BRANCH   3   4
ATOM      4  C   UNL     1      15.248  52.981  58.900  1.00  0.00     0.000 C 
BRANCH   4   5
ATOM      5  C   UNL     1      14.805  54.380  59.352  1.00  0.00     0.000 C 
BRANCH   5   6
ATOM      6  C   UNL     1      15.580  54.823  60.603  1.00  0.00     0.006 C 
BRANCH   6   7
ATOM      7  C   UNL     1      14.652  55.114  61.789  1.00  0.00     0.053 C 
BRANCH   7   8
ATOM      8  C   UNL     1      15.354  54.940  63.100  1.00  0.00     0.041 C 
ATOM      9  O   UNL     1      16.565  54.595  63.130  1.00  0.00    -0.550 OA
ATOM     10  O   UNL     1      14.662  55.124  64.291  1.00  0.00    -0.550 OA
ENDBRANCH   7   8
ENDBRANCH   6   7
ENDBRANCH   5   6
ENDBRANCH   4   5
ENDBRANCH   3   4
ENDBRANCH   2   3
ENDBRANCH   1   2
BRANCH   1  11
ATOM     11  C   UNL     1      15.966  49.366  59.158  1.00  0.00     0.000 C 
BRANCH  11  12
ATOM     12  C   UNL     1      16.624  48.059  58.683  1.00  0.00    -0.000 C 
BRANCH  12  13
ATOM     13  C   UNL     1      16.673  47.949  57.149  1.00  0.00    -0.000 C 
BRANCH  13  14
ATOM     14  C   UNL     1      17.080  46.545  56.662  1.00  0.00    -0.000 C 
BRANCH  14  15
ATOM     15  C   UNL     1      16.647  45.382  57.574  1.00  0.00    -0.000 C 
BRANCH  15  16
ATOM     16  C   UNL     1      16.637  44.025  56.850  1.00  0.00    -0.000 C 
BRANCH  16  17
ATOM     17  C   UNL     1      17.145  44.127  55.403  1.00  0.00    -0.003 C 
ATOM     18  C   UNL     1      17.668  42.796  54.863  1.00  0.00     0.004 C 
ENDBRANCH  16  17
ENDBRANCH  15  16
ENDBRANCH  14  15
ENDBRANCH  13  14
ENDBRANCH  12  13
ENDBRANCH  11  12
ENDBRANCH   1  11
TORSDOF 14
ENDMDL
