MODEL 1
REMARK VINA RESULT:    18.409      0.000      0.000
REMARK INTER + INTRA:          45.357
REMARK INTER:                  46.389
REMARK INTRA:                  -1.032
REMARK UNBOUND:                -1.032
REMARK SMILES CCCCCCCCCCCCCCCCCCCCCCCCCCCC(=O)[O-]
REMARK SMILES IDX 15 1 16 2 17 3 18 4 19 5 20 6 21 7 22 8 23 9 24 10 25 11
REMARK SMILES IDX 26 12 27 13 28 14 29 15 30 16 14 17 13 18 12 19 11 20 10 21
REMARK SMILES IDX 9 22 8 23 7 24 6 25 5 26 4 27 3 28 2 29 1 30
REMARK H PARENT
REMARK Flexibility Score: inf
ROOT
ATOM      1  C   UNL     1      11.904 -10.322   5.229  1.00  0.00     0.000 C 
ENDROOT
BRANCH   1   2
ATOM      2  C   UNL     1      12.758 -10.886   4.073  1.00  0.00     0.000 C 
BRANCH   2   3
ATOM      3  C   UNL     1      13.958  -9.984   3.731  1.00  0.00     0.000 C 
BRANCH   3   4
ATOM      4  C   UNL     1      14.618 -10.350   2.393  1.00  0.00     0.000 C 
BRANCH   4   5
ATOM      5  C   UNL     1      15.953  -9.621   2.172  1.00  0.00     0.000 C 
BRANCH   5   6
ATOM      6  C   UNL     1      15.723  -8.131   1.882  1.00  0.00     0.000 C 
BRANCH   6   7
ATOM      7  C   UNL     1      16.436  -7.208   2.887  1.00  0.00     0.000 C 
BRANCH   7   8
ATOM      8  C   UNL     1      15.512  -6.532   3.917  1.00  0.00     0.000 C 
BRANCH   8   9
ATOM      9  C   UNL     1      15.924  -6.819   5.369  1.00  0.00     0.000 C 
BRANCH   9  10
ATOM     10  C   UNL     1      16.713  -5.640   5.957  1.00  0.00     0.000 C 
BRANCH  10  11
ATOM     11  C   UNL     1      16.007  -4.987   7.159  1.00  0.00     0.000 C 
BRANCH  11  12
ATOM     12  C   UNL     1      16.282  -3.480   7.339  1.00  0.00     0.006 C 
BRANCH  12  13
ATOM     13  C   UNL     1      15.745  -2.594   6.203  1.00  0.00     0.053 C 
BRANCH  13  14
ATOM     14  C   UNL     1      14.271  -2.360   6.324  1.00  0.00     0.041 C 
ATOM     15  O   UNL     1      13.820  -1.187   6.408  1.00  0.00    -0.550 OA
ATOM     16  O   UNL     1      13.397  -3.437   6.380  1.00  0.00    -0.550 OA
ENDBRANCH  13  14
ENDBRANCH  12  13
ENDBRANCH  11  12
ENDBRANCH  10  11
ENDBRANCH   9  10
ENDBRANCH   8   9
ENDBRANCH   7   8
ENDBRANCH   6   7
ENDBRANCH   5   6
ENDBRANCH   4   5
ENDBRANCH   3   4
ENDBRANCH   2   3
ENDBRANCH   1   2
BRANCH   1  17
ATOM     17  C   UNL     1      10.678 -11.187   5.582  1.00  0.00     0.000 C 
BRANCH  17  18
ATOM     18  C   UNL     1      11.003 -12.576   6.162  1.00  0.00     0.000 C 
BRANCH  18  19
ATOM     19  C   UNL     1      12.148 -13.327   5.454  1.00  0.00     0.000 C 
BRANCH  19  20
ATOM     20  C   UNL     1      13.290 -13.793   6.377  1.00  0.00     0.000 C 
BRANCH  20  21
ATOM     21  C   UNL     1      13.920 -15.151   6.003  1.00  0.00     0.000 C 
BRANCH  21  22
ATOM     22  C   UNL     1      14.780 -15.797   7.105  1.00  0.00    -0.000 C 
BRANCH  22  23
ATOM     23  C   UNL     1      16.162 -16.301   6.648  1.00  0.00    -0.000 C 
BRANCH  23  24
ATOM     24  C   UNL     1      17.321 -15.330   6.963  1.00  0.00    -0.000 C 
BRANCH  24  25
ATOM     25  C   UNL     1      18.706 -15.971   6.762  1.00  0.00    -0.000 C 
BRANCH  25  26
ATOM     26  C   UNL     1      18.646 -17.271   5.943  1.00  0.00    -0.000 C 
BRANCH  26  27
ATOM     27  C   UNL     1      19.125 -17.084   4.496  1.00  0.00    -0.000 C 
BRANCH  27  28
ATOM     28  C   UNL     1      18.029 -17.487   3.497  1.00  0.00    -0.000 C 
BRANCH  28  29
ATOM     29  C   UNL     1      17.610 -16.327   2.580  1.00  0.00    -0.003 C 
ATOM     30  C   UNL     1      16.277 -16.581   1.875  1.00  0.00     0.004 C 
ENDBRANCH  28  29
ENDBRANCH  27  28
ENDBRANCH  26  27
ENDBRANCH  25  26
ENDBRANCH  24  25
ENDBRANCH  23  24
ENDBRANCH  22  23
ENDBRANCH  21  22
ENDBRANCH  20  21
ENDBRANCH  19  20
ENDBRANCH  18  19
ENDBRANCH  17  18
ENDBRANCH   1  17
TORSDOF 26
ENDMDL
MODEL 2
REMARK VINA RESULT:    19.078      1.881      2.864
REMARK INTER + INTRA:          47.043
REMARK INTER:                  48.697
REMARK INTRA:                  -1.654
REMARK UNBOUND:                -1.032
REMARK SMILES CCCCCCCCCCCCCCCCCCCCCCCCCCCC(=O)[O-]
REMARK SMILES IDX 15 1 16 2 17 3 18 4 19 5 20 6 21 7 22 8 23 9 24 10 25 11
REMARK SMILES IDX 26 12 27 13 28 14 29 15 30 16 14 17 13 18 12 19 11 20 10 21
REMARK SMILES IDX 9 22 8 23 7 24 6 25 5 26 4 27 3 28 2 29 1 30
REMARK H PARENT
REMARK Flexibility Score: inf
ROOT
ATOM      1  C   UNL     1      12.866 -10.646   4.850  1.00  0.00     0.000 C 
ENDROOT
BRANCH   1   2
ATOM      2  C   UNL     1      13.142 -10.621   3.331  1.00  0.00     0.000 C 
BRANCH   2   3
ATOM      3  C   UNL     1      14.644 -10.525   3.005  1.00  0.00     0.000 C 
BRANCH   3   4
ATOM      4  C   UNL     1      14.951  -9.497   1.905  1.00  0.00     0.000 C 
BRANCH   4   5
ATOM      5  C   UNL     1      16.355  -8.887   2.041  1.00  0.00     0.000 C 
BRANCH   5   6
ATOM      6  C   UNL     1      16.296  -7.353   1.986  1.00  0.00     0.000 C 
BRANCH   6   7
ATOM      7  C   UNL     1      16.671  -6.691   3.325  1.00  0.00     0.000 C 
BRANCH   7   8
ATOM      8  C   UNL     1      15.574  -6.746   4.405  1.00  0.00     0.000 C 
BRANCH   8   9
ATOM      9  C   UNL     1      16.033  -6.165   5.751  1.00  0.00     0.000 C 
BRANCH   9  10
ATOM     10  C   UNL     1      15.255  -4.885   6.089  1.00  0.00     0.000 C 
BRANCH  10  11
ATOM     11  C   UNL     1      15.942  -4.035   7.174  1.00  0.00     0.000 C 
BRANCH  11  12
ATOM     12  C   UNL     1      16.280  -2.590   6.755  1.00  0.00     0.006 C 
BRANCH  12  13
ATOM     13  C   UNL     1      15.353  -1.519   7.353  1.00  0.00     0.053 C 
BRANCH  13  14
ATOM     14  C   UNL     1      14.161  -1.260   6.484  1.00  0.00     0.041 C 
ATOM     15  O   UNL     1      13.070  -0.896   6.996  1.00  0.00    -0.550 OA
ATOM     16  O   UNL     1      14.244  -1.457   5.112  1.00  0.00    -0.550 OA
ENDBRANCH  13  14
ENDBRANCH  12  13
ENDBRANCH  11  12
ENDBRANCH  10  11
ENDBRANCH   9  10
ENDBRANCH   8   9
ENDBRANCH   7   8
ENDBRANCH   6   7
ENDBRANCH   5   6
ENDBRANCH   4   5
ENDBRANCH   3   4
ENDBRANCH   2   3
ENDBRANCH   1   2
BRANCH   1  17
ATOM     17  C   UNL     1      11.388 -10.420   5.223  1.00  0.00     0.000 C 
BRANCH  17  18
ATOM     18  C   UNL     1      10.595 -11.698   5.555  1.00  0.00     0.000 C 
BRANCH  18  19
ATOM     19  C   UNL     1      11.361 -13.018   5.332  1.00  0.00     0.000 C 
BRANCH  19  20
ATOM     20  C   UNL     1      12.043 -13.595   6.587  1.00  0.00     0.000 C 
BRANCH  20  21
ATOM     21  C   UNL     1      13.490 -14.085   6.377  1.00  0.00     0.000 C 
BRANCH  21  22
ATOM     22  C   UNL     1      14.420 -13.916   7.593  1.00  0.00    -0.000 C 
BRANCH  22  23
ATOM     23  C   UNL     1      15.815 -14.553   7.447  1.00  0.00    -0.000 C 
BRANCH  23  24
ATOM     24  C   UNL     1      15.899 -15.636   6.349  1.00  0.00    -0.000 C 
BRANCH  24  25
ATOM     25  C   UNL     1      16.382 -16.994   6.889  1.00  0.00    -0.000 C 
BRANCH  25  26
ATOM     26  C   UNL     1      15.311 -17.718   7.720  1.00  0.00    -0.000 C 
BRANCH  26  27
ATOM     27  C   UNL     1      14.258 -18.420   6.849  1.00  0.00    -0.000 C 
BRANCH  27  28
ATOM     28  C   UNL     1      13.294 -19.249   7.712  1.00  0.00    -0.000 C 
BRANCH  28  29
ATOM     29  C   UNL     1      12.073 -19.746   6.922  1.00  0.00    -0.003 C 
ATOM     30  C   UNL     1      12.417 -20.869   5.942  1.00  0.00     0.004 C 
ENDBRANCH  28  29
ENDBRANCH  27  28
ENDBRANCH  26  27
ENDBRANCH  25  26
ENDBRANCH  24  25
ENDBRANCH  23  24
ENDBRANCH  22  23
ENDBRANCH  21  22
ENDBRANCH  20  21
ENDBRANCH  19  20
ENDBRANCH  18  19
ENDBRANCH  17  18
ENDBRANCH   1  17
TORSDOF 26
ENDMDL
MODEL 3
REMARK VINA RESULT:    19.091      2.170      3.252
REMARK INTER + INTRA:          47.076
REMARK INTER:                  48.647
REMARK INTRA:                  -1.571
REMARK UNBOUND:                -1.032
REMARK SMILES CCCCCCCCCCCCCCCCCCCCCCCCCCCC(=O)[O-]
REMARK SMILES IDX 15 1 16 2 17 3 18 4 19 5 20 6 21 7 22 8 23 9 24 10 25 11
REMARK SMILES IDX 26 12 27 13 28 14 29 15 30 16 14 17 13 18 12 19 11 20 10 21
REMARK SMILES IDX 9 22 8 23 7 24 6 25 5 26 4 27 3 28 2 29 1 30
REMARK H PARENT
REMARK Flexibility Score: inf
ROOT
ATOM      1  C   UNL     1      10.563 -11.986   5.958  1.00  0.00     0.000 C 
ENDROOT
BRANCH   1   2
ATOM      2  C   UNL     1      11.421 -10.783   5.510  1.00  0.00     0.000 C 
BRANCH   2   3
ATOM      3  C   UNL     1      12.484 -11.171   4.466  1.00  0.00     0.000 C 
BRANCH   3   4
ATOM      4  C   UNL     1      13.364  -9.986   4.042  1.00  0.00     0.000 C 
BRANCH   4   5
ATOM      5  C   UNL     1      14.461 -10.391   3.044  1.00  0.00     0.000 C 
BRANCH   5   6
ATOM      6  C   UNL     1      14.780  -9.239   2.080  1.00  0.00     0.000 C 
BRANCH   6   7
ATOM      7  C   UNL     1      16.254  -8.797   2.142  1.00  0.00     0.000 C 
BRANCH   7   8
ATOM      8  C   UNL     1      16.487  -7.398   2.743  1.00  0.00     0.000 C 
BRANCH   8   9
ATOM      9  C   UNL     1      15.397  -6.989   3.745  1.00  0.00     0.000 C 
BRANCH   9  10
ATOM     10  C   UNL     1      15.889  -7.157   5.190  1.00  0.00     0.000 C 
BRANCH  10  11
ATOM     11  C   UNL     1      16.624  -5.912   5.721  1.00  0.00     0.000 C 
BRANCH  11  12
ATOM     12  C   UNL     1      15.836  -5.079   6.752  1.00  0.00     0.006 C 
BRANCH  12  13
ATOM     13  C   UNL     1      14.782  -4.141   6.141  1.00  0.00     0.053 C 
BRANCH  13  14
ATOM     14  C   UNL     1      14.889  -2.749   6.685  1.00  0.00     0.041 C 
ATOM     15  O   UNL     1      15.845  -2.435   7.441  1.00  0.00    -0.550 OA
ATOM     16  O   UNL     1      13.913  -1.808   6.386  1.00  0.00    -0.550 OA
ENDBRANCH  13  14
ENDBRANCH  12  13
ENDBRANCH  11  12
ENDBRANCH  10  11
ENDBRANCH   9  10
ENDBRANCH   8   9
ENDBRANCH   7   8
ENDBRANCH   6   7
ENDBRANCH   5   6
ENDBRANCH   4   5
ENDBRANCH   3   4
ENDBRANCH   2   3
ENDBRANCH   1   2
BRANCH   1  17
ATOM     17  C   UNL     1      10.920 -13.309   5.251  1.00  0.00     0.000 C 
BRANCH  17  18
ATOM     18  C   UNL     1       9.839 -14.403   5.327  1.00  0.00     0.000 C 
BRANCH  18  19
ATOM     19  C   UNL     1      10.082 -15.624   4.416  1.00  0.00     0.000 C 
BRANCH  19  20
ATOM     20  C   UNL     1      11.327 -16.460   4.766  1.00  0.00     0.000 C 
BRANCH  20  21
ATOM     21  C   UNL     1      11.038 -17.796   5.480  1.00  0.00     0.000 C 
BRANCH  21  22
ATOM     22  C   UNL     1      11.809 -19.010   4.929  1.00  0.00    -0.000 C 
BRANCH  22  23
ATOM     23  C   UNL     1      12.317 -20.003   5.992  1.00  0.00    -0.000 C 
BRANCH  23  24
ATOM     24  C   UNL     1      12.764 -19.336   7.311  1.00  0.00    -0.000 C 
BRANCH  24  25
ATOM     25  C   UNL     1      14.295 -19.286   7.462  1.00  0.00    -0.000 C 
BRANCH  25  26
ATOM     26  C   UNL     1      14.826 -17.859   7.672  1.00  0.00    -0.000 C 
BRANCH  26  27
ATOM     27  C   UNL     1      16.073 -17.559   6.829  1.00  0.00    -0.000 C 
BRANCH  27  28
ATOM     28  C   UNL     1      16.538 -16.108   7.029  1.00  0.00    -0.000 C 
BRANCH  28  29
ATOM     29  C   UNL     1      18.068 -15.967   6.996  1.00  0.00    -0.003 C 
ATOM     30  C   UNL     1      18.704 -16.684   5.806  1.00  0.00     0.004 C 
ENDBRANCH  28  29
ENDBRANCH  27  28
ENDBRANCH  26  27
ENDBRANCH  25  26
ENDBRANCH  24  25
ENDBRANCH  23  24
ENDBRANCH  22  23
ENDBRANCH  21  22
ENDBRANCH  20  21
ENDBRANCH  19  20
ENDBRANCH  18  19
ENDBRANCH  17  18
ENDBRANCH   1  17
TORSDOF 26
ENDMDL
MODEL 4
REMARK VINA RESULT:    19.857      4.282     10.805
REMARK INTER + INTRA:          49.008
REMARK INTER:                  49.912
REMARK INTRA:                  -0.904
REMARK UNBOUND:                -1.032
REMARK SMILES CCCCCCCCCCCCCCCCCCCCCCCCCCCC(=O)[O-]
REMARK SMILES IDX 15 1 16 2 17 3 18 4 19 5 20 6 21 7 22 8 23 9 24 10 25 11
REMARK SMILES IDX 26 12 27 13 28 14 29 15 30 16 14 17 13 18 12 19 11 20 10 21
REMARK SMILES IDX 9 22 8 23 7 24 6 25 5 26 4 27 3 28 2 29 1 30
REMARK H PARENT
REMARK Flexibility Score: inf
ROOT
ATOM      1  C   UNL     1      11.852 -12.802   6.116  1.00  0.00     0.000 C 
ENDROOT
BRANCH   1   2
ATOM      2  C   UNL     1      11.742 -14.122   5.323  1.00  0.00     0.000 C 
BRANCH   2   3
ATOM      3  C   UNL     1      10.305 -14.673   5.290  1.00  0.00     0.000 C 
BRANCH   3   4
ATOM      4  C   UNL     1      10.194 -16.009   4.540  1.00  0.00     0.000 C 
BRANCH   4   5
ATOM      5  C   UNL     1      10.150 -17.218   5.488  1.00  0.00     0.000 C 
BRANCH   5   6
ATOM      6  C   UNL     1      11.446 -18.037   5.395  1.00  0.00     0.000 C 
BRANCH   6   7
ATOM      7  C   UNL     1      11.651 -18.972   6.601  1.00  0.00     0.000 C 
BRANCH   7   8
ATOM      8  C   UNL     1      12.946 -19.804   6.565  1.00  0.00     0.000 C 
BRANCH   8   9
ATOM      9  C   UNL     1      14.078 -19.182   7.398  1.00  0.00     0.000 C 
BRANCH   9  10
ATOM     10  C   UNL     1      14.401 -17.763   6.910  1.00  0.00     0.000 C 
BRANCH  10  11
ATOM     11  C   UNL     1      15.853 -17.344   7.205  1.00  0.00     0.000 C 
BRANCH  11  12
ATOM     12  C   UNL     1      16.163 -15.852   6.970  1.00  0.00     0.006 C 
BRANCH  12  13
ATOM     13  C   UNL     1      17.662 -15.513   6.910  1.00  0.00     0.053 C 
BRANCH  13  14
ATOM     14  C   UNL     1      18.456 -16.603   6.258  1.00  0.00     0.041 C 
ATOM     15  O   UNL     1      18.676 -17.681   6.870  1.00  0.00    -0.550 OA
ATOM     16  O   UNL     1      18.986 -16.414   4.989  1.00  0.00    -0.550 OA
ENDBRANCH  13  14
ENDBRANCH  12  13
ENDBRANCH  11  12
ENDBRANCH  10  11
ENDBRANCH   9  10
ENDBRANCH   8   9
ENDBRANCH   7   8
ENDBRANCH   6   7
ENDBRANCH   5   6
ENDBRANCH   4   5
ENDBRANCH   3   4
ENDBRANCH   2   3
ENDBRANCH   1   2
BRANCH   1  17
ATOM     17  C   UNL     1      10.919 -11.685   5.607  1.00  0.00     0.000 C 
BRANCH  17  18
ATOM     18  C   UNL     1      11.602 -10.600   4.754  1.00  0.00     0.000 C 
BRANCH  18  19
ATOM     19  C   UNL     1      13.117 -10.797   4.539  1.00  0.00     0.000 C 
BRANCH  19  20
ATOM     20  C   UNL     1      13.602 -10.588   3.091  1.00  0.00     0.000 C 
BRANCH  20  21
ATOM     21  C   UNL     1      15.123 -10.385   2.935  1.00  0.00     0.000 C 
BRANCH  21  22
ATOM     22  C   UNL     1      15.537  -9.341   1.881  1.00  0.00    -0.000 C 
BRANCH  22  23
ATOM     23  C   UNL     1      16.383  -8.170   2.415  1.00  0.00    -0.000 C 
BRANCH  23  24
ATOM     24  C   UNL     1      15.552  -7.033   3.048  1.00  0.00    -0.000 C 
BRANCH  24  25
ATOM     25  C   UNL     1      16.335  -6.248   4.117  1.00  0.00    -0.000 C 
BRANCH  25  26
ATOM     26  C   UNL     1      15.805  -6.490   5.539  1.00  0.00    -0.000 C 
BRANCH  26  27
ATOM     27  C   UNL     1      16.551  -5.666   6.599  1.00  0.00    -0.000 C 
BRANCH  27  28
ATOM     28  C   UNL     1      15.612  -4.649   7.266  1.00  0.00    -0.000 C 
BRANCH  28  29
ATOM     29  C   UNL     1      15.984  -3.195   6.933  1.00  0.00    -0.003 C 
ATOM     30  C   UNL     1      14.842  -2.429   6.264  1.00  0.00     0.004 C 
ENDBRANCH  28  29
ENDBRANCH  27  28
ENDBRANCH  26  27
ENDBRANCH  25  26
ENDBRANCH  24  25
ENDBRANCH  23  24
ENDBRANCH  22  23
ENDBRANCH  21  22
ENDBRANCH  20  21
ENDBRANCH  19  20
ENDBRANCH  18  19
ENDBRANCH  17  18
ENDBRANCH   1  17
TORSDOF 26
ENDMDL
MODEL 5
REMARK VINA RESULT:    20.251      4.754     11.371
REMARK INTER + INTRA:          49.999
REMARK INTER:                  50.028
REMARK INTRA:                  -0.029
REMARK UNBOUND:                -1.032
REMARK SMILES CCCCCCCCCCCCCCCCCCCCCCCCCCCC(=O)[O-]
REMARK SMILES IDX 15 1 16 2 17 3 18 4 19 5 20 6 21 7 22 8 23 9 24 10 25 11
REMARK SMILES IDX 26 12 27 13 28 14 29 15 30 16 14 17 13 18 12 19 11 20 10 21
REMARK SMILES IDX 9 22 8 23 7 24 6 25 5 26 4 27 3 28 2 29 1 30
REMARK H PARENT
REMARK Flexibility Score: inf
ROOT
ATOM      1  C   UNL     1      11.267 -10.799   5.748  1.00  0.00     0.000 C 
ENDROOT
BRANCH   1   2
ATOM      2  C   UNL     1       9.856 -11.348   5.442  1.00  0.00     0.000 C 
BRANCH   2   3
ATOM      3  C   UNL     1       9.798 -12.886   5.486  1.00  0.00     0.000 C 
BRANCH   3   4
ATOM      4  C   UNL     1      11.189 -13.537   5.446  1.00  0.00     0.000 C 
BRANCH   4   5
ATOM      5  C   UNL     1      12.002 -13.275   6.724  1.00  0.00     0.000 C 
BRANCH   5   6
ATOM      6  C   UNL     1      13.510 -13.375   6.446  1.00  0.00     0.000 C 
BRANCH   6   7
ATOM      7  C   UNL     1      14.200 -14.472   7.276  1.00  0.00     0.000 C 
BRANCH   7   8
ATOM      8  C   UNL     1      15.070 -15.450   6.464  1.00  0.00     0.000 C 
BRANCH   8   9
ATOM      9  C   UNL     1      16.089 -16.205   7.332  1.00  0.00     0.000 C 
BRANCH   9  10
ATOM     10  C   UNL     1      15.893 -17.723   7.211  1.00  0.00     0.000 C 
BRANCH  10  11
ATOM     11  C   UNL     1      14.420 -18.150   7.352  1.00  0.00     0.000 C 
BRANCH  11  12
ATOM     12  C   UNL     1      14.204 -19.599   7.833  1.00  0.00     0.006 C 
BRANCH  12  13
ATOM     13  C   UNL     1      12.791 -20.151   7.580  1.00  0.00     0.053 C 
BRANCH  13  14
ATOM     14  C   UNL     1      12.400 -20.047   6.138  1.00  0.00     0.041 C 
ATOM     15  O   UNL     1      12.605 -21.011   5.353  1.00  0.00    -0.550 OA
ATOM     16  O   UNL     1      11.842 -18.872   5.651  1.00  0.00    -0.550 OA
ENDBRANCH  13  14
ENDBRANCH  12  13
ENDBRANCH  11  12
ENDBRANCH  10  11
ENDBRANCH   9  10
ENDBRANCH   8   9
ENDBRANCH   7   8
ENDBRANCH   6   7
ENDBRANCH   5   6
ENDBRANCH   4   5
ENDBRANCH   3   4
ENDBRANCH   2   3
ENDBRANCH   1   2
BRANCH   1  17
ATOM     17  C   UNL     1      12.010 -10.256   4.512  1.00  0.00     0.000 C 
BRANCH  17  18
ATOM     18  C   UNL     1      12.908 -11.277   3.787  1.00  0.00     0.000 C 
BRANCH  18  19
ATOM     19  C   UNL     1      14.046 -10.664   2.946  1.00  0.00     0.000 C 
BRANCH  19  20
ATOM     20  C   UNL     1      14.585  -9.317   3.463  1.00  0.00     0.000 C 
BRANCH  20  21
ATOM     21  C   UNL     1      15.687  -8.678   2.593  1.00  0.00     0.000 C 
BRANCH  21  22
ATOM     22  C   UNL     1      15.872  -7.161   2.785  1.00  0.00    -0.000 C 
BRANCH  22  23
ATOM     23  C   UNL     1      15.437  -6.615   4.158  1.00  0.00    -0.000 C 
BRANCH  23  24
ATOM     24  C   UNL     1      16.600  -6.421   5.154  1.00  0.00    -0.000 C 
BRANCH  24  25
ATOM     25  C   UNL     1      16.120  -6.286   6.611  1.00  0.00    -0.000 C 
BRANCH  25  26
ATOM     26  C   UNL     1      15.855  -4.828   7.016  1.00  0.00    -0.000 C 
BRANCH  26  27
ATOM     27  C   UNL     1      14.995  -4.073   5.992  1.00  0.00    -0.000 C 
BRANCH  27  28
ATOM     28  C   UNL     1      14.074  -3.058   6.687  1.00  0.00    -0.000 C 
BRANCH  28  29
ATOM     29  C   UNL     1      14.472  -1.603   6.394  1.00  0.00    -0.003 C 
ATOM     30  C   UNL     1      15.776  -1.195   7.080  1.00  0.00     0.004 C 
ENDBRANCH  28  29
ENDBRANCH  27  28
ENDBRANCH  26  27
ENDBRANCH  25  26
ENDBRANCH  24  25
ENDBRANCH  23  24
ENDBRANCH  22  23
ENDBRANCH  21  22
ENDBRANCH  20  21
ENDBRANCH  19  20
ENDBRANCH  18  19
ENDBRANCH  17  18
ENDBRANCH   1  17
TORSDOF 26
ENDMDL
MODEL 6
REMARK VINA RESULT:    20.526      2.392      4.116
REMARK INTER + INTRA:          50.692
REMARK INTER:                  52.070
REMARK INTRA:                  -1.378
REMARK UNBOUND:                -1.032
REMARK SMILES CCCCCCCCCCCCCCCCCCCCCCCCCCCC(=O)[O-]
REMARK SMILES IDX 15 1 16 2 17 3 18 4 19 5 20 6 21 7 22 8 23 9 24 10 25 11
REMARK SMILES IDX 26 12 27 13 28 14 29 15 30 16 14 17 13 18 12 19 11 20 10 21
REMARK SMILES IDX 9 22 8 23 7 24 6 25 5 26 4 27 3 28 2 29 1 30
REMARK H PARENT
REMARK Flexibility Score: inf
ROOT
ATOM      1  C   UNL     1      10.059 -13.580   5.308  1.00  0.00     0.000 C 
ENDROOT
BRANCH   1   2
ATOM      2  C   UNL     1      11.600 -13.570   5.416  1.00  0.00     0.000 C 
BRANCH   2   3
ATOM      3  C   UNL     1      12.137 -12.288   6.077  1.00  0.00     0.000 C 
BRANCH   3   4
ATOM      4  C   UNL     1      11.306 -11.043   5.728  1.00  0.00     0.000 C 
BRANCH   4   5
ATOM      5  C   UNL     1      11.756 -10.380   4.417  1.00  0.00     0.000 C 
BRANCH   5   6
ATOM      6  C   UNL     1      13.288 -10.293   4.343  1.00  0.00     0.000 C 
BRANCH   6   7
ATOM      7  C   UNL     1      13.852 -10.808   3.006  1.00  0.00     0.000 C 
BRANCH   7   8
ATOM      8  C   UNL     1      15.263 -10.299   2.659  1.00  0.00     0.000 C 
BRANCH   8   9
ATOM      9  C   UNL     1      15.249  -8.935   1.953  1.00  0.00     0.000 C 
BRANCH   9  10
ATOM     10  C   UNL     1      16.028  -7.889   2.764  1.00  0.00     0.000 C 
BRANCH  10  11
ATOM     11  C   UNL     1      15.606  -7.845   4.245  1.00  0.00     0.000 C 
BRANCH  11  12
ATOM     12  C   UNL     1      15.241  -6.445   4.778  1.00  0.00     0.006 C 
BRANCH  12  13
ATOM     13  C   UNL     1      16.070  -5.988   5.990  1.00  0.00     0.053 C 
BRANCH  13  14
ATOM     14  C   UNL     1      15.519  -4.739   6.606  1.00  0.00     0.041 C 
ATOM     15  O   UNL     1      16.161  -4.141   7.510  1.00  0.00    -0.550 OA
ATOM     16  O   UNL     1      14.281  -4.254   6.208  1.00  0.00    -0.550 OA
ENDBRANCH  13  14
ENDBRANCH  12  13
ENDBRANCH  11  12
ENDBRANCH  10  11
ENDBRANCH   9  10
ENDBRANCH   8   9
ENDBRANCH   7   8
ENDBRANCH   6   7
ENDBRANCH   5   6
ENDBRANCH   4   5
ENDBRANCH   3   4
ENDBRANCH   2   3
ENDBRANCH   1   2
BRANCH   1  17
ATOM     17  C   UNL     1       9.476 -14.909   4.787  1.00  0.00     0.000 C 
BRANCH  17  18
ATOM     18  C   UNL     1      10.519 -15.977   4.410  1.00  0.00     0.000 C 
BRANCH  18  19
ATOM     19  C   UNL     1      10.194 -17.405   4.893  1.00  0.00     0.000 C 
BRANCH  19  20
ATOM     20  C   UNL     1      11.417 -18.320   5.092  1.00  0.00     0.000 C 
BRANCH  20  21
ATOM     21  C   UNL     1      11.530 -18.967   6.488  1.00  0.00     0.000 C 
BRANCH  21  22
ATOM     22  C   UNL     1      12.448 -20.201   6.563  1.00  0.00    -0.000 C 
BRANCH  22  23
ATOM     23  C   UNL     1      13.420 -20.223   7.758  1.00  0.00    -0.000 C 
BRANCH  23  24
ATOM     24  C   UNL     1      14.804 -19.609   7.454  1.00  0.00    -0.000 C 
BRANCH  24  25
ATOM     25  C   UNL     1      14.744 -18.086   7.238  1.00  0.00    -0.000 C 
BRANCH  25  26
ATOM     26  C   UNL     1      16.125 -17.418   7.331  1.00  0.00    -0.000 C 
BRANCH  26  27
ATOM     27  C   UNL     1      16.080 -15.915   7.021  1.00  0.00    -0.000 C 
BRANCH  27  28
ATOM     28  C   UNL     1      17.493 -15.311   7.013  1.00  0.00    -0.000 C 
BRANCH  28  29
ATOM     29  C   UNL     1      18.284 -15.676   5.746  1.00  0.00    -0.003 C 
ATOM     30  C   UNL     1      19.121 -16.944   5.915  1.00  0.00     0.004 C 
ENDBRANCH  28  29
ENDBRANCH  27  28
ENDBRANCH  26  27
ENDBRANCH  25  26
ENDBRANCH  24  25
ENDBRANCH  23  24
ENDBRANCH  22  23
ENDBRANCH  21  22
ENDBRANCH  20  21
ENDBRANCH  19  20
ENDBRANCH  18  19
ENDBRANCH  17  18
ENDBRANCH   1  17
TORSDOF 26
ENDMDL
MODEL 7
REMARK VINA RESULT:    20.545      4.086     10.874
REMARK INTER + INTRA:          50.741
REMARK INTER:                  46.636
REMARK INTRA:                   4.105
REMARK UNBOUND:                -1.032
REMARK SMILES CCCCCCCCCCCCCCCCCCCCCCCCCCCC(=O)[O-]
REMARK SMILES IDX 15 1 16 2 17 3 18 4 19 5 20 6 21 7 22 8 23 9 24 10 25 11
REMARK SMILES IDX 26 12 27 13 28 14 29 15 30 16 14 17 13 18 12 19 11 20 10 21
REMARK SMILES IDX 9 22 8 23 7 24 6 25 5 26 4 27 3 28 2 29 1 30
REMARK H PARENT
REMARK Flexibility Score: inf
ROOT
ATOM      1  C   UNL     1      12.890 -10.990   4.520  1.00  0.00     0.000 C 
ENDROOT
BRANCH   1   2
ATOM      2  C   UNL     1      11.798 -10.359   5.411  1.00  0.00     0.000 C 
BRANCH   2   3
ATOM      3  C   UNL     1      11.023 -11.409   6.228  1.00  0.00     0.000 C 
BRANCH   3   4
ATOM      4  C   UNL     1      10.458 -12.544   5.359  1.00  0.00     0.000 C 
BRANCH   4   5
ATOM      5  C   UNL     1      11.243 -13.856   5.516  1.00  0.00     0.000 C 
BRANCH   5   6
ATOM      6  C   UNL     1      12.428 -13.676   6.477  1.00  0.00     0.000 C 
BRANCH   6   7
ATOM      7  C   UNL     1      13.729 -14.307   5.948  1.00  0.00     0.000 C 
BRANCH   7   8
ATOM      8  C   UNL     1      14.801 -14.577   7.019  1.00  0.00     0.000 C 
BRANCH   8   9
ATOM      9  C   UNL     1      15.611 -15.854   6.745  1.00  0.00     0.000 C 
BRANCH   9  10
ATOM     10  C   UNL     1      17.116 -15.554   6.726  1.00  0.00     0.000 C 
BRANCH  10  11
ATOM     11  C   UNL     1      17.641 -15.210   5.320  1.00  0.00     0.000 C 
BRANCH  11  12
ATOM     12  C   UNL     1      18.689 -16.191   4.755  1.00  0.00     0.006 C 
BRANCH  12  13
ATOM     13  C   UNL     1      18.945 -17.426   5.634  1.00  0.00     0.053 C 
BRANCH  13  14
ATOM     14  C   UNL     1      18.412 -17.247   7.022  1.00  0.00     0.041 C 
ATOM     15  O   UNL     1      18.993 -16.475   7.830  1.00  0.00    -0.550 OA
ATOM     16  O   UNL     1      17.294 -17.959   7.436  1.00  0.00    -0.550 OA
ENDBRANCH  13  14
ENDBRANCH  12  13
ENDBRANCH  11  12
ENDBRANCH  10  11
ENDBRANCH   9  10
ENDBRANCH   8   9
ENDBRANCH   7   8
ENDBRANCH   6   7
ENDBRANCH   5   6
ENDBRANCH   4   5
ENDBRANCH   3   4
ENDBRANCH   2   3
ENDBRANCH   1   2
BRANCH   1  17
ATOM     17  C   UNL     1      13.565  -9.995   3.556  1.00  0.00     0.000 C 
BRANCH  17  18
ATOM     18  C   UNL     1      14.562 -10.621   2.563  1.00  0.00     0.000 C 
BRANCH  18  19
ATOM     19  C   UNL     1      15.833  -9.787   2.302  1.00  0.00     0.000 C 
BRANCH  19  20
ATOM     20  C   UNL     1      15.580  -8.329   1.875  1.00  0.00     0.000 C 
BRANCH  20  21
ATOM     21  C   UNL     1      16.327  -7.266   2.707  1.00  0.00     0.000 C 
BRANCH  21  22
ATOM     22  C   UNL     1      15.484  -6.586   3.803  1.00  0.00    -0.000 C 
BRANCH  22  23
ATOM     23  C   UNL     1      15.727  -7.104   5.233  1.00  0.00    -0.000 C 
BRANCH  23  24
ATOM     24  C   UNL     1      16.366  -6.064   6.178  1.00  0.00    -0.000 C 
BRANCH  24  25
ATOM     25  C   UNL     1      15.421  -4.891   6.499  1.00  0.00    -0.000 C 
BRANCH  25  26
ATOM     26  C   UNL     1      16.130  -3.740   7.230  1.00  0.00    -0.000 C 
BRANCH  26  27
ATOM     27  C   UNL     1      15.843  -2.370   6.600  1.00  0.00    -0.000 C 
BRANCH  27  28
ATOM     28  C   UNL     1      14.338  -2.058   6.620  1.00  0.00    -0.000 C 
BRANCH  28  29
ATOM     29  C   UNL     1      13.967  -0.878   5.708  1.00  0.00    -0.003 C 
ATOM     30  C   UNL     1      13.276  -1.320   4.418  1.00  0.00     0.004 C 
ENDBRANCH  28  29
ENDBRANCH  27  28
ENDBRANCH  26  27
ENDBRANCH  25  26
ENDBRANCH  24  25
ENDBRANCH  23  24
ENDBRANCH  22  23
ENDBRANCH  21  22
ENDBRANCH  20  21
ENDBRANCH  19  20
ENDBRANCH  18  19
ENDBRANCH  17  18
ENDBRANCH   1  17
TORSDOF 26
ENDMDL
MODEL 8
REMARK VINA RESULT:    20.629      4.969      9.339
REMARK INTER + INTRA:          50.953
REMARK INTER:                  52.039
REMARK INTRA:                  -1.086
REMARK UNBOUND:                -1.032
REMARK SMILES CCCCCCCCCCCCCCCCCCCCCCCCCCCC(=O)[O-]
REMARK SMILES IDX 15 1 16 2 17 3 18 4 19 5 20 6 21 7 22 8 23 9 24 10 25 11
REMARK SMILES IDX 26 12 27 13 28 14 29 15 30 16 14 17 13 18 12 19 11 20 10 21
REMARK SMILES IDX 9 22 8 23 7 24 6 25 5 26 4 27 3 28 2 29 1 30
REMARK H PARENT
REMARK Flexibility Score: inf
ROOT
ATOM      1  C   UNL     1      11.867 -10.494   4.910  1.00  0.00     0.000 C 
ENDROOT
BRANCH   1   2
ATOM      2  C   UNL     1      12.947 -11.025   3.943  1.00  0.00     0.000 C 
BRANCH   2   3
ATOM      3  C   UNL     1      14.071 -10.003   3.695  1.00  0.00     0.000 C 
BRANCH   3   4
ATOM      4  C   UNL     1      14.597 -10.032   2.251  1.00  0.00     0.000 C 
BRANCH   4   5
ATOM      5  C   UNL     1      15.993  -9.406   2.117  1.00  0.00     0.000 C 
BRANCH   5   6
ATOM      6  C   UNL     1      15.897  -7.887   1.910  1.00  0.00     0.000 C 
BRANCH   6   7
ATOM      7  C   UNL     1      17.176  -7.142   2.335  1.00  0.00     0.000 C 
BRANCH   7   8
ATOM      8  C   UNL     1      16.993  -6.148   3.496  1.00  0.00     0.000 C 
BRANCH   8   9
ATOM      9  C   UNL     1      15.924  -6.597   4.504  1.00  0.00     0.000 C 
BRANCH   9  10
ATOM     10  C   UNL     1      16.484  -6.596   5.934  1.00  0.00     0.000 C 
BRANCH  10  11
ATOM     11  C   UNL     1      15.964  -5.420   6.781  1.00  0.00     0.000 C 
BRANCH  11  12
ATOM     12  C   UNL     1      15.529  -4.178   5.978  1.00  0.00     0.006 C 
BRANCH  12  13
ATOM     13  C   UNL     1      14.338  -3.415   6.580  1.00  0.00     0.053 C 
BRANCH  13  14
ATOM     14  C   UNL     1      14.510  -1.931   6.469  1.00  0.00     0.041 C 
ATOM     15  O   UNL     1      13.603  -1.223   5.957  1.00  0.00    -0.550 OA
ATOM     16  O   UNL     1      15.688  -1.333   6.898  1.00  0.00    -0.550 OA
ENDBRANCH  13  14
ENDBRANCH  12  13
ENDBRANCH  11  12
ENDBRANCH  10  11
ENDBRANCH   9  10
ENDBRANCH   8   9
ENDBRANCH   7   8
ENDBRANCH   6   7
ENDBRANCH   5   6
ENDBRANCH   4   5
ENDBRANCH   3   4
ENDBRANCH   2   3
ENDBRANCH   1   2
BRANCH   1  17
ATOM     17  C   UNL     1      11.491 -11.480   6.033  1.00  0.00     0.000 C 
BRANCH  17  18
ATOM     18  C   UNL     1      10.987 -12.854   5.555  1.00  0.00     0.000 C 
BRANCH  18  19
ATOM     19  C   UNL     1       9.481 -12.919   5.228  1.00  0.00     0.000 C 
BRANCH  19  20
ATOM     20  C   UNL     1       8.650 -11.731   5.749  1.00  0.00     0.000 C 
BRANCH  20  21
ATOM     21  C   UNL     1       7.192 -11.683   5.245  1.00  0.00     0.000 C 
BRANCH  21  22
ATOM     22  C   UNL     1       6.284 -10.674   5.973  1.00  0.00    -0.000 C 
BRANCH  22  23
ATOM     23  C   UNL     1       5.717 -11.155   7.322  1.00  0.00    -0.000 C 
BRANCH  23  24
ATOM     24  C   UNL     1       4.520 -10.324   7.833  1.00  0.00    -0.000 C 
BRANCH  24  25
ATOM     25  C   UNL     1       3.561 -11.143   8.715  1.00  0.00    -0.000 C 
BRANCH  25  26
ATOM     26  C   UNL     1       2.951 -10.315   9.857  1.00  0.00    -0.000 C 
BRANCH  26  27
ATOM     27  C   UNL     1       3.068 -11.008  11.222  1.00  0.00    -0.000 C 
BRANCH  27  28
ATOM     28  C   UNL     1       1.738 -10.942  11.989  1.00  0.00    -0.000 C 
BRANCH  28  29
ATOM     29  C   UNL     1       1.088  -9.551  11.927  1.00  0.00    -0.003 C 
ATOM     30  C   UNL     1       1.988  -8.450  12.489  1.00  0.00     0.004 C 
ENDBRANCH  28  29
ENDBRANCH  27  28
ENDBRANCH  26  27
ENDBRANCH  25  26
ENDBRANCH  24  25
ENDBRANCH  23  24
ENDBRANCH  22  23
ENDBRANCH  21  22
ENDBRANCH  20  21
ENDBRANCH  19  20
ENDBRANCH  18  19
ENDBRANCH  17  18
ENDBRANCH   1  17
TORSDOF 26
ENDMDL
MODEL 9
REMARK VINA RESULT:    20.865      6.339      8.954
REMARK INTER + INTRA:          51.547
REMARK INTER:                  50.611
REMARK INTRA:                   0.935
REMARK UNBOUND:                -1.032
REMARK SMILES CCCCCCCCCCCCCCCCCCCCCCCCCCCC(=O)[O-]
REMARK SMILES IDX 15 1 16 2 17 3 18 4 19 5 20 6 21 7 22 8 23 9 24 10 25 11
REMARK SMILES IDX 26 12 27 13 28 14 29 15 30 16 14 17 13 18 12 19 11 20 10 21
REMARK SMILES IDX 9 22 8 23 7 24 6 25 5 26 4 27 3 28 2 29 1 30
REMARK H PARENT
REMARK Flexibility Score: inf
ROOT
ATOM      1  C   UNL     1      10.125 -14.119   5.232  1.00  0.00     0.000 C 
ENDROOT
BRANCH   1   2
ATOM      2  C   UNL     1      11.537 -13.596   5.575  1.00  0.00     0.000 C 
BRANCH   2   3
ATOM      3  C   UNL     1      11.593 -12.060   5.663  1.00  0.00     0.000 C 
BRANCH   3   4
ATOM      4  C   UNL     1      10.222 -11.428   5.950  1.00  0.00     0.000 C 
BRANCH   4   5
ATOM      5  C   UNL     1       9.061 -12.233   5.345  1.00  0.00     0.000 C 
BRANCH   5   6
ATOM      6  C   UNL     1       7.864 -11.322   5.033  1.00  0.00     0.000 C 
BRANCH   6   7
ATOM      7  C   UNL     1       6.701 -11.501   6.027  1.00  0.00     0.000 C 
BRANCH   7   8
ATOM      8  C   UNL     1       6.285 -10.222   6.776  1.00  0.00     0.000 C 
BRANCH   8   9
ATOM      9  C   UNL     1       4.784 -10.180   7.099  1.00  0.00     0.000 C 
BRANCH   9  10
ATOM     10  C   UNL     1       4.526 -10.574   8.560  1.00  0.00     0.000 C 
BRANCH  10  11
ATOM     11  C   UNL     1       3.249 -11.416   8.737  1.00  0.00     0.000 C 
BRANCH  11  12
ATOM     12  C   UNL     1       2.184 -10.801   9.668  1.00  0.00     0.006 C 
BRANCH  12  13
ATOM     13  C   UNL     1       2.754  -9.942  10.809  1.00  0.00     0.053 C 
BRANCH  13  14
ATOM     14  C   UNL     1       1.864  -9.949  12.013  1.00  0.00     0.041 C 
ATOM     15  O   UNL     1       1.512  -8.864  12.548  1.00  0.00    -0.550 OA
ATOM     16  O   UNL     1       1.452 -11.153  12.567  1.00  0.00    -0.550 OA
ENDBRANCH  13  14
ENDBRANCH  12  13
ENDBRANCH  11  12
ENDBRANCH  10  11
ENDBRANCH   9  10
ENDBRANCH   8   9
ENDBRANCH   7   8
ENDBRANCH   6   7
ENDBRANCH   5   6
ENDBRANCH   4   5
ENDBRANCH   3   4
ENDBRANCH   2   3
ENDBRANCH   1   2
BRANCH   1  17
ATOM     17  C   UNL     1      10.043 -15.650   5.080  1.00  0.00     0.000 C 
BRANCH  17  18
ATOM     18  C   UNL     1      11.391 -16.356   4.841  1.00  0.00     0.000 C 
BRANCH  18  19
ATOM     19  C   UNL     1      11.305 -17.674   4.044  1.00  0.00     0.000 C 
BRANCH  19  20
ATOM     20  C   UNL     1      12.032 -18.871   4.684  1.00  0.00     0.000 C 
BRANCH  20  21
ATOM     21  C   UNL     1      12.117 -18.837   6.224  1.00  0.00     0.000 C 
BRANCH  21  22
ATOM     22  C   UNL     1      13.375 -19.494   6.823  1.00  0.00    -0.000 C 
BRANCH  22  23
ATOM     23  C   UNL     1      14.230 -18.578   7.719  1.00  0.00    -0.000 C 
BRANCH  23  24
ATOM     24  C   UNL     1      15.436 -17.940   6.996  1.00  0.00    -0.000 C 
BRANCH  24  25
ATOM     25  C   UNL     1      15.381 -16.402   6.992  1.00  0.00    -0.000 C 
BRANCH  25  26
ATOM     26  C   UNL     1      16.776 -15.758   7.045  1.00  0.00    -0.000 C 
BRANCH  26  27
ATOM     27  C   UNL     1      17.901 -16.790   7.206  1.00  0.00    -0.000 C 
BRANCH  27  28
ATOM     28  C   UNL     1      19.124 -16.409   6.358  1.00  0.00    -0.000 C 
BRANCH  28  29
ATOM     29  C   UNL     1      19.003 -16.882   4.900  1.00  0.00    -0.003 C 
ATOM     30  C   UNL     1      17.696 -16.443   4.241  1.00  0.00     0.004 C 
ENDBRANCH  28  29
ENDBRANCH  27  28
ENDBRANCH  26  27
ENDBRANCH  25  26
ENDBRANCH  24  25
ENDBRANCH  23  24
ENDBRANCH  22  23
ENDBRANCH  21  22
ENDBRANCH  20  21
ENDBRANCH  19  20
ENDBRANCH  18  19
ENDBRANCH  17  18
ENDBRANCH   1  17
TORSDOF 26
ENDMDL
