MODEL 1
REMARK VINA RESULT:    -2.032      0.000      0.000
REMARK INTER + INTRA:          -3.616
REMARK INTER:                  -3.457
REMARK INTRA:                  -0.159
REMARK UNBOUND:                -0.159
REMARK SMILES CCCCCCCCCCCCCC(=O)[O-]
REMARK SMILES IDX 8 1 9 2 10 3 11 4 12 5 13 6 14 7 15 8 16 9 7 10 6 11 5 12
REMARK SMILES IDX 4 13 3 14 2 15 1 16
REMARK H PARENT
REMARK Flexibility Score: inf
ROOT
ATOM      1  C   UNL     1      -5.910  34.327  25.035  1.00  0.00     0.000 C 
ENDROOT
BRANCH   1   2
ATOM      2  C   UNL     1      -6.062  35.832  24.778  1.00  0.00     0.000 C 
BRANCH   2   3
ATOM      3  C   UNL     1      -5.119  36.642  25.675  1.00  0.00     0.000 C 
BRANCH   3   4
ATOM      4  C   UNL     1      -4.998  38.089  25.182  1.00  0.00     0.000 C 
BRANCH   4   5
ATOM      5  C   UNL     1      -5.147  38.164  23.655  1.00  0.00     0.006 C 
BRANCH   5   6
ATOM      6  C   UNL     1      -5.230  39.610  23.151  1.00  0.00     0.053 C 
BRANCH   6   7
ATOM      7  C   UNL     1      -5.773  39.682  21.756  1.00  0.00     0.041 C 
ATOM      8  O   UNL     1      -5.941  38.629  21.087  1.00  0.00    -0.550 OA
ATOM      9  O   UNL     1      -6.122  40.909  21.209  1.00  0.00    -0.550 OA
ENDBRANCH   6   7
ENDBRANCH   5   6
ENDBRANCH   4   5
ENDBRANCH   3   4
ENDBRANCH   2   3
ENDBRANCH   1   2
BRANCH   1  10
ATOM     10  C   UNL     1      -6.097  33.527  23.741  1.00  0.00     0.000 C 
BRANCH  10  11
ATOM     11  C   UNL     1      -5.097  33.974  22.667  1.00  0.00    -0.000 C 
BRANCH  11  12
ATOM     12  C   UNL     1      -5.616  35.203  21.909  1.00  0.00    -0.000 C 
BRANCH  12  13
ATOM     13  C   UNL     1      -4.569  35.808  20.956  1.00  0.00    -0.000 C 
BRANCH  13  14
ATOM     14  C   UNL     1      -5.082  36.114  19.537  1.00  0.00    -0.000 C 
BRANCH  14  15
ATOM     15  C   UNL     1      -4.636  35.071  18.501  1.00  0.00    -0.003 C 
ATOM     16  C   UNL     1      -5.687  33.978  18.335  1.00  0.00     0.004 C 
ENDBRANCH  14  15
ENDBRANCH  13  14
ENDBRANCH  12  13
ENDBRANCH  11  12
ENDBRANCH  10  11
ENDBRANCH   1  10
TORSDOF 12
ENDMDL
MODEL 2
REMARK VINA RESULT:    -1.644      2.072      4.137
REMARK INTER + INTRA:          -2.956
REMARK INTER:                  -2.512
REMARK INTRA:                  -0.444
REMARK UNBOUND:                -0.159
REMARK SMILES CCCCCCCCCCCCCC(=O)[O-]
REMARK SMILES IDX 8 1 9 2 10 3 11 4 12 5 13 6 14 7 15 8 16 9 7 10 6 11 5 12
REMARK SMILES IDX 4 13 3 14 2 15 1 16
REMARK H PARENT
REMARK Flexibility Score: inf
ROOT
ATOM      1  C   UNL     1      -5.389  39.770  22.395  1.00  0.00     0.000 C 
ENDROOT
BRANCH   1   2
ATOM      2  C   UNL     1      -4.741  38.604  23.151  1.00  0.00     0.000 C 
BRANCH   2   3
ATOM      3  C   UNL     1      -4.664  38.897  24.654  1.00  0.00     0.000 C 
BRANCH   3   4
ATOM      4  C   UNL     1      -5.245  37.736  25.472  1.00  0.00     0.000 C 
BRANCH   4   5
ATOM      5  C   UNL     1      -6.122  36.830  24.595  1.00  0.00     0.006 C 
BRANCH   5   6
ATOM      6  C   UNL     1      -5.945  35.345  24.936  1.00  0.00     0.053 C 
BRANCH   6   7
ATOM      7  C   UNL     1      -5.962  34.487  23.708  1.00  0.00     0.041 C 
ATOM      8  O   UNL     1      -5.964  35.016  22.565  1.00  0.00    -0.550 OA
ATOM      9  O   UNL     1      -5.945  33.104  23.826  1.00  0.00    -0.550 OA
ENDBRANCH   6   7
ENDBRANCH   5   6
ENDBRANCH   4   5
ENDBRANCH   3   4
ENDBRANCH   2   3
ENDBRANCH   1   2
BRANCH   1  10
ATOM     10  C   UNL     1      -5.771  39.356  20.969  1.00  0.00     0.000 C 
BRANCH  10  11
ATOM     11  C   UNL     1      -5.928  37.833  20.861  1.00  0.00    -0.000 C 
BRANCH  11  12
ATOM     12  C   UNL     1      -4.702  37.200  20.189  1.00  0.00    -0.000 C 
BRANCH  12  13
ATOM     13  C   UNL     1      -5.075  36.214  19.067  1.00  0.00    -0.000 C 
BRANCH  13  14
ATOM     14  C   UNL     1      -5.917  35.006  19.516  1.00  0.00    -0.000 C 
BRANCH  14  15
ATOM     15  C   UNL     1      -5.747  33.784  18.600  1.00  0.00    -0.003 C 
ATOM     16  C   UNL     1      -4.576  33.974  17.642  1.00  0.00     0.004 C 
ENDBRANCH  14  15
ENDBRANCH  13  14
ENDBRANCH  12  13
ENDBRANCH  11  12
ENDBRANCH  10  11
ENDBRANCH   1  10
TORSDOF 12
ENDMDL
MODEL 3
REMARK VINA RESULT:    -0.475      2.552      5.539
REMARK INTER + INTRA:          -0.968
REMARK INTER:                  -2.208
REMARK INTRA:                   1.240
REMARK UNBOUND:                -0.159
REMARK SMILES CCCCCCCCCCCCCC(=O)[O-]
REMARK SMILES IDX 8 1 9 2 10 3 11 4 12 5 13 6 14 7 15 8 16 9 7 10 6 11 5 12
REMARK SMILES IDX 4 13 3 14 2 15 1 16
REMARK H PARENT
REMARK Flexibility Score: inf
ROOT
ATOM      1  C   UNL     1      -5.076  37.915  22.742  1.00  0.00     0.000 C 
ENDROOT
BRANCH   1   2
ATOM      2  C   UNL     1      -5.697  39.086  21.970  1.00  0.00     0.000 C 
BRANCH   2   3
ATOM      3  C   UNL     1      -5.400  38.976  20.470  1.00  0.00     0.000 C 
BRANCH   3   4
ATOM      4  C   UNL     1      -4.562  37.728  20.165  1.00  0.00     0.000 C 
BRANCH   4   5
ATOM      5  C   UNL     1      -5.377  36.701  19.364  1.00  0.00     0.006 C 
BRANCH   5   6
ATOM      6  C   UNL     1      -4.898  35.264  19.607  1.00  0.00     0.053 C 
BRANCH   6   7
ATOM      7  C   UNL     1      -5.173  34.381  18.428  1.00  0.00     0.041 C 
ATOM      8  O   UNL     1      -6.125  33.557  18.461  1.00  0.00    -0.550 OA
ATOM      9  O   UNL     1      -4.397  34.490  17.282  1.00  0.00    -0.550 OA
ENDBRANCH   6   7
ENDBRANCH   5   6
ENDBRANCH   4   5
ENDBRANCH   3   4
ENDBRANCH   2   3
ENDBRANCH   1   2
BRANCH   1  10
ATOM     10  C   UNL     1      -6.086  36.774  22.916  1.00  0.00     0.000 C 
BRANCH  10  11
ATOM     11  C   UNL     1      -5.435  35.415  22.629  1.00  0.00    -0.000 C 
BRANCH  11  12
ATOM     12  C   UNL     1      -6.093  34.304  23.460  1.00  0.00    -0.000 C 
BRANCH  12  13
ATOM     13  C   UNL     1      -6.120  34.618  24.967  1.00  0.00    -0.000 C 
BRANCH  13  14
ATOM     14  C   UNL     1      -6.125  36.117  25.319  1.00  0.00    -0.000 C 
BRANCH  14  15
ATOM     15  C   UNL     1      -4.960  36.520  26.235  1.00  0.00    -0.003 C 
ATOM     16  C   UNL     1      -4.668  38.014  26.128  1.00  0.00     0.004 C 
ENDBRANCH  14  15
ENDBRANCH  13  14
ENDBRANCH  12  13
ENDBRANCH  11  12
ENDBRANCH  10  11
ENDBRANCH   1  10
TORSDOF 12
ENDMDL
MODEL 4
REMARK VINA RESULT:    -0.444      2.789      4.450
REMARK INTER + INTRA:          -0.916
REMARK INTER:                  -0.359
REMARK INTRA:                  -0.557
REMARK UNBOUND:                -0.159
REMARK SMILES CCCCCCCCCCCCCC(=O)[O-]
REMARK SMILES IDX 8 1 9 2 10 3 11 4 12 5 13 6 14 7 15 8 16 9 7 10 6 11 5 12
REMARK SMILES IDX 4 13 3 14 2 15 1 16
REMARK H PARENT
REMARK Flexibility Score: inf
ROOT
ATOM      1  C   UNL     1      -4.723  35.905  20.182  1.00  0.00     0.000 C 
ENDROOT
BRANCH   1   2
ATOM      2  C   UNL     1      -5.232  37.349  20.284  1.00  0.00     0.000 C 
BRANCH   2   3
ATOM      3  C   UNL     1      -4.342  38.181  21.214  1.00  0.00     0.000 C 
BRANCH   3   4
ATOM      4  C   UNL     1      -5.186  39.111  22.096  1.00  0.00     0.000 C 
BRANCH   4   5
ATOM      5  C   UNL     1      -5.241  38.596  23.543  1.00  0.00     0.006 C 
BRANCH   5   6
ATOM      6  C   UNL     1      -5.714  37.140  23.623  1.00  0.00     0.053 C 
BRANCH   6   7
ATOM      7  C   UNL     1      -5.438  36.539  24.967  1.00  0.00     0.041 C 
ATOM      8  O   UNL     1      -5.738  35.339  25.200  1.00  0.00    -0.550 OA
ATOM      9  O   UNL     1      -4.822  37.298  25.954  1.00  0.00    -0.550 OA
ENDBRANCH   6   7
ENDBRANCH   5   6
ENDBRANCH   4   5
ENDBRANCH   3   4
ENDBRANCH   2   3
ENDBRANCH   1   2
BRANCH   1  10
ATOM     10  C   UNL     1      -5.884  34.927  19.962  1.00  0.00     0.000 C 
BRANCH  10  11
ATOM     11  C   UNL     1      -5.854  34.349  18.541  1.00  0.00    -0.000 C 
BRANCH  11  12
ATOM     12  C   UNL     1      -4.516  34.654  17.851  1.00  0.00    -0.000 C 
BRANCH  12  13
ATOM     13  C   UNL     1      -4.677  35.509  16.581  1.00  0.00    -0.000 C 
BRANCH  13  14
ATOM     14  C   UNL     1      -3.467  35.492  15.629  1.00  0.00    -0.000 C 
BRANCH  14  15
ATOM     15  C   UNL     1      -3.742  36.210  14.299  1.00  0.00    -0.003 C 
ATOM     16  C   UNL     1      -3.962  37.704  14.517  1.00  0.00     0.004 C 
ENDBRANCH  14  15
ENDBRANCH  13  14
ENDBRANCH  12  13
ENDBRANCH  11  12
ENDBRANCH  10  11
ENDBRANCH   1  10
TORSDOF 12
ENDMDL
MODEL 5
REMARK VINA RESULT:     0.018      1.428      2.250
REMARK INTER + INTRA:          -0.129
REMARK INTER:                   0.521
REMARK INTRA:                  -0.649
REMARK UNBOUND:                -0.159
REMARK SMILES CCCCCCCCCCCCCC(=O)[O-]
REMARK SMILES IDX 8 1 9 2 10 3 11 4 12 5 13 6 14 7 15 8 16 9 7 10 6 11 5 12
REMARK SMILES IDX 4 13 3 14 2 15 1 16
REMARK H PARENT
REMARK Flexibility Score: inf
ROOT
ATOM      1  C   UNL     1      -4.709  36.469  25.953  1.00  0.00     0.000 C 
ENDROOT
BRANCH   1   2
ATOM      2  C   UNL     1      -4.553  37.994  25.997  1.00  0.00     0.000 C 
BRANCH   2   3
ATOM      3  C   UNL     1      -4.189  38.552  24.617  1.00  0.00     0.000 C 
BRANCH   3   4
ATOM      4  C   UNL     1      -5.385  39.273  23.981  1.00  0.00     0.000 C 
BRANCH   4   5
ATOM      5  C   UNL     1      -5.862  38.539  22.719  1.00  0.00     0.006 C 
BRANCH   5   6
ATOM      6  C   UNL     1      -5.326  39.184  21.435  1.00  0.00     0.053 C 
BRANCH   6   7
ATOM      7  C   UNL     1      -4.766  38.163  20.493  1.00  0.00     0.041 C 
ATOM      8  O   UNL     1      -3.809  37.426  20.851  1.00  0.00    -0.550 OA
ATOM      9  O   UNL     1      -5.321  38.003  19.230  1.00  0.00    -0.550 OA
ENDBRANCH   6   7
ENDBRANCH   5   6
ENDBRANCH   4   5
ENDBRANCH   3   4
ENDBRANCH   2   3
ENDBRANCH   1   2
BRANCH   1  10
ATOM     10  C   UNL     1      -6.125  36.072  25.521  1.00  0.00     0.000 C 
BRANCH  10  11
ATOM     11  C   UNL     1      -6.090  34.904  24.527  1.00  0.00    -0.000 C 
BRANCH  11  12
ATOM     12  C   UNL     1      -5.755  35.396  23.112  1.00  0.00    -0.000 C 
BRANCH  12  13
ATOM     13  C   UNL     1      -5.282  34.266  22.179  1.00  0.00    -0.000 C 
BRANCH  13  14
ATOM     14  C   UNL     1      -4.915  34.712  20.752  1.00  0.00    -0.000 C 
BRANCH  14  15
ATOM     15  C   UNL     1      -6.109  34.671  19.786  1.00  0.00    -0.003 C 
ATOM     16  C   UNL     1      -5.661  34.305  18.374  1.00  0.00     0.004 C 
ENDBRANCH  14  15
ENDBRANCH  13  14
ENDBRANCH  12  13
ENDBRANCH  11  12
ENDBRANCH  10  11
ENDBRANCH   1  10
TORSDOF 12
ENDMDL
