MODEL 1
REMARK VINA RESULT:    -4.438      0.000      0.000
REMARK INTER + INTRA:          -7.612
REMARK INTER:                  -7.033
REMARK INTRA:                  -0.579
REMARK UNBOUND:                -0.579
REMARK SMILES CCCCCCCCCCCC(=O)[O-]
REMARK SMILES IDX 7 1 8 2 9 3 10 4 11 5 12 6 13 7 14 8 6 9 5 10 4 11 3 12 2 13
REMARK SMILES IDX 1 14
REMARK H PARENT
REMARK Flexibility Score: inf
ROOT
ATOM      1  C   UNL     1     -30.530 -21.037 -21.044  1.00  0.00     0.000 C 
ENDROOT
BRANCH   1   2
ATOM      2  C   UNL     1     -29.156 -21.620 -21.435  1.00  0.00     0.000 C 
BRANCH   2   3
ATOM      3  C   UNL     1     -28.836 -23.003 -20.833  1.00  0.00     0.000 C 
BRANCH   3   4
ATOM      4  C   UNL     1     -29.071 -23.122 -19.316  1.00  0.00     0.006 C 
BRANCH   4   5
ATOM      5  C   UNL     1     -28.199 -22.158 -18.503  1.00  0.00     0.053 C 
BRANCH   5   6
ATOM      6  C   UNL     1     -27.989 -22.685 -17.119  1.00  0.00     0.041 C 
ATOM      7  O   UNL     1     -28.978 -22.983 -16.398  1.00  0.00    -0.550 OA
ATOM      8  O   UNL     1     -26.704 -22.801 -16.605  1.00  0.00    -0.550 OA
ENDBRANCH   5   6
ENDBRANCH   4   5
ENDBRANCH   3   4
ENDBRANCH   2   3
ENDBRANCH   1   2
BRANCH   1   9
ATOM      9  C   UNL     1     -31.710 -21.529 -21.900  1.00  0.00     0.000 C 
BRANCH   9  10
ATOM     10  C   UNL     1     -31.400 -21.521 -23.405  1.00  0.00    -0.000 C 
BRANCH  10  11
ATOM     11  C   UNL     1     -31.650 -20.133 -24.009  1.00  0.00    -0.000 C 
BRANCH  11  12
ATOM     12  C   UNL     1     -31.545 -20.174 -25.541  1.00  0.00    -0.000 C 
BRANCH  12  13
ATOM     13  C   UNL     1     -30.561 -21.244 -26.037  1.00  0.00    -0.003 C 
ATOM     14  C   UNL     1     -31.164 -22.152 -27.108  1.00  0.00     0.004 C 
ENDBRANCH  12  13
ENDBRANCH  11  12
ENDBRANCH  10  11
ENDBRANCH   9  10
ENDBRANCH   1   9
TORSDOF 10
ENDMDL
MODEL 2
REMARK VINA RESULT:    -4.083      4.031      7.521
REMARK INTER + INTRA:          -7.049
REMARK INTER:                  -6.407
REMARK INTRA:                  -0.642
REMARK UNBOUND:                -0.579
REMARK SMILES CCCCCCCCCCCC(=O)[O-]
REMARK SMILES IDX 7 1 8 2 9 3 10 4 11 5 12 6 13 7 14 8 6 9 5 10 4 11 3 12 2 13
REMARK SMILES IDX 1 14
REMARK H PARENT
REMARK Flexibility Score: inf
ROOT
ATOM      1  C   UNL     1     -29.759 -22.791 -21.227  1.00  0.00     0.000 C 
ENDROOT
BRANCH   1   2
ATOM      2  C   UNL     1     -31.202 -22.698 -21.761  1.00  0.00     0.000 C 
BRANCH   2   3
ATOM      3  C   UNL     1     -31.809 -21.280 -21.768  1.00  0.00     0.000 C 
BRANCH   3   4
ATOM      4  C   UNL     1     -31.902 -20.620 -23.155  1.00  0.00     0.006 C 
BRANCH   4   5
ATOM      5  C   UNL     1     -31.265 -21.469 -24.262  1.00  0.00     0.053 C 
BRANCH   5   6
ATOM      6  C   UNL     1     -31.149 -20.677 -25.526  1.00  0.00     0.041 C 
ATOM      7  O   UNL     1     -31.011 -19.426 -25.478  1.00  0.00    -0.550 OA
ATOM      8  O   UNL     1     -31.242 -21.313 -26.757  1.00  0.00    -0.550 OA
ENDBRANCH   5   6
ENDBRANCH   4   5
ENDBRANCH   3   4
ENDBRANCH   2   3
ENDBRANCH   1   2
BRANCH   1   9
ATOM      9  C   UNL     1     -29.145 -21.453 -20.779  1.00  0.00     0.000 C 
BRANCH   9  10
ATOM     10  C   UNL     1     -28.697 -21.467 -19.309  1.00  0.00    -0.000 C 
BRANCH  10  11
ATOM     11  C   UNL     1     -28.750 -22.887 -18.732  1.00  0.00    -0.000 C 
BRANCH  11  12
ATOM     12  C   UNL     1     -27.651 -23.093 -17.679  1.00  0.00    -0.000 C 
BRANCH  12  13
ATOM     13  C   UNL     1     -28.204 -23.112 -16.245  1.00  0.00    -0.003 C 
ATOM     14  C   UNL     1     -29.731 -23.125 -16.200  1.00  0.00     0.004 C 
ENDBRANCH  12  13
ENDBRANCH  11  12
ENDBRANCH  10  11
ENDBRANCH   9  10
ENDBRANCH   1   9
TORSDOF 10
ENDMDL
MODEL 3
REMARK VINA RESULT:    -3.612      1.348      2.556
REMARK INTER + INTRA:          -6.303
REMARK INTER:                  -5.449
REMARK INTRA:                  -0.853
REMARK UNBOUND:                -0.579
REMARK SMILES CCCCCCCCCCCC(=O)[O-]
REMARK SMILES IDX 7 1 8 2 9 3 10 4 11 5 12 6 13 7 14 8 6 9 5 10 4 11 3 12 2 13
REMARK SMILES IDX 1 14
REMARK H PARENT
REMARK Flexibility Score: inf
ROOT
ATOM      1  C   UNL     1     -28.883 -21.697 -22.233  1.00  0.00     0.000 C 
ENDROOT
BRANCH   1   2
ATOM      2  C   UNL     1     -29.289 -23.057 -21.631  1.00  0.00     0.000 C 
BRANCH   2   3
ATOM      3  C   UNL     1     -29.759 -23.010 -20.164  1.00  0.00     0.000 C 
BRANCH   3   4
ATOM      4  C   UNL     1     -28.838 -22.229 -19.210  1.00  0.00     0.006 C 
BRANCH   4   5
ATOM      5  C   UNL     1     -27.803 -23.124 -18.517  1.00  0.00     0.053 C 
BRANCH   5   6
ATOM      6  C   UNL     1     -27.947 -23.034 -17.031  1.00  0.00     0.041 C 
ATOM      7  O   UNL     1     -29.091 -23.041 -16.504  1.00  0.00    -0.550 OA
ATOM      8  O   UNL     1     -26.821 -22.891 -16.230  1.00  0.00    -0.550 OA
ENDBRANCH   5   6
ENDBRANCH   4   5
ENDBRANCH   3   4
ENDBRANCH   2   3
ENDBRANCH   1   2
BRANCH   1   9
ATOM      9  C   UNL     1     -28.641 -21.705 -23.753  1.00  0.00     0.000 C 
BRANCH   9  10
ATOM     10  C   UNL     1     -29.685 -20.885 -24.527  1.00  0.00    -0.000 C 
BRANCH  10  11
ATOM     11  C   UNL     1     -31.087 -21.483 -24.360  1.00  0.00    -0.000 C 
BRANCH  11  12
ATOM     12  C   UNL     1     -32.067 -20.440 -23.803  1.00  0.00    -0.000 C 
BRANCH  12  13
ATOM     13  C   UNL     1     -32.460 -20.720 -22.344  1.00  0.00    -0.003 C 
ATOM     14  C   UNL     1     -32.465 -19.459 -21.481  1.00  0.00     0.004 C 
ENDBRANCH  12  13
ENDBRANCH  11  12
ENDBRANCH  10  11
ENDBRANCH   9  10
ENDBRANCH   1   9
TORSDOF 10
ENDMDL
MODEL 4
REMARK VINA RESULT:    -3.608      3.030      6.465
REMARK INTER + INTRA:          -6.297
REMARK INTER:                  -5.485
REMARK INTRA:                  -0.812
REMARK UNBOUND:                -0.579
REMARK SMILES CCCCCCCCCCCC(=O)[O-]
REMARK SMILES IDX 7 1 8 2 9 3 10 4 11 5 12 6 13 7 14 8 6 9 5 10 4 11 3 12 2 13
REMARK SMILES IDX 1 14
REMARK H PARENT
REMARK Flexibility Score: inf
ROOT
ATOM      1  C   UNL     1     -28.417 -21.332 -23.308  1.00  0.00     0.000 C 
ENDROOT
BRANCH   1   2
ATOM      2  C   UNL     1     -29.490 -21.614 -24.379  1.00  0.00     0.000 C 
BRANCH   2   3
ATOM      3  C   UNL     1     -30.156 -20.362 -24.986  1.00  0.00     0.000 C 
BRANCH   3   4
ATOM      4  C   UNL     1     -31.669 -20.241 -24.728  1.00  0.00     0.006 C 
BRANCH   4   5
ATOM      5  C   UNL     1     -32.129 -21.043 -23.505  1.00  0.00     0.053 C 
BRANCH   5   6
ATOM      6  C   UNL     1     -32.450 -20.123 -22.370  1.00  0.00     0.041 C 
ATOM      7  O   UNL     1     -33.184 -19.116 -22.558  1.00  0.00    -0.550 OA
ATOM      8  O   UNL     1     -31.900 -20.348 -21.114  1.00  0.00    -0.550 OA
ENDBRANCH   5   6
ENDBRANCH   4   5
ENDBRANCH   3   4
ENDBRANCH   2   3
ENDBRANCH   1   2
BRANCH   1   9
ATOM      9  C   UNL     1     -28.294 -22.409 -22.215  1.00  0.00     0.000 C 
BRANCH   9  10
ATOM     10  C   UNL     1     -29.652 -23.001 -21.806  1.00  0.00    -0.000 C 
BRANCH  10  11
ATOM     11  C   UNL     1     -29.767 -23.107 -20.281  1.00  0.00    -0.000 C 
BRANCH  11  12
ATOM     12  C   UNL     1     -28.379 -23.102 -19.623  1.00  0.00    -0.000 C 
BRANCH  12  13
ATOM     13  C   UNL     1     -28.345 -22.283 -18.324  1.00  0.00    -0.003 C 
ATOM     14  C   UNL     1     -27.301 -22.792 -17.331  1.00  0.00     0.004 C 
ENDBRANCH  12  13
ENDBRANCH  11  12
ENDBRANCH  10  11
ENDBRANCH   9  10
ENDBRANCH   1   9
TORSDOF 10
ENDMDL
MODEL 5
REMARK VINA RESULT:    -3.514      4.166      7.232
REMARK INTER + INTRA:          -6.147
REMARK INTER:                  -5.462
REMARK INTRA:                  -0.686
REMARK UNBOUND:                -0.579
REMARK SMILES CCCCCCCCCCCC(=O)[O-]
REMARK SMILES IDX 7 1 8 2 9 3 10 4 11 5 12 6 13 7 14 8 6 9 5 10 4 11 3 12 2 13
REMARK SMILES IDX 1 14
REMARK H PARENT
REMARK Flexibility Score: inf
ROOT
ATOM      1  C   UNL     1     -31.063 -21.146 -21.183  1.00  0.00     0.000 C 
ENDROOT
BRANCH   1   2
ATOM      2  C   UNL     1     -32.305 -20.515 -21.846  1.00  0.00     0.000 C 
BRANCH   2   3
ATOM      3  C   UNL     1     -32.424 -20.743 -23.366  1.00  0.00     0.000 C 
BRANCH   3   4
ATOM      4  C   UNL     1     -31.162 -20.394 -24.176  1.00  0.00     0.006 C 
BRANCH   4   5
ATOM      5  C   UNL     1     -31.453 -20.182 -25.667  1.00  0.00     0.053 C 
BRANCH   5   6
ATOM      6  C   UNL     1     -31.086 -21.404 -26.449  1.00  0.00     0.041 C 
ATOM      7  O   UNL     1     -29.962 -21.482 -27.011  1.00  0.00    -0.550 OA
ATOM      8  O   UNL     1     -32.004 -22.435 -26.600  1.00  0.00    -0.550 OA
ENDBRANCH   5   6
ENDBRANCH   4   5
ENDBRANCH   3   4
ENDBRANCH   2   3
ENDBRANCH   1   2
BRANCH   1   9
ATOM      9  C   UNL     1     -30.883 -22.652 -21.444  1.00  0.00     0.000 C 
BRANCH   9  10
ATOM     10  C   UNL     1     -29.484 -23.002 -21.973  1.00  0.00    -0.000 C 
BRANCH  10  11
ATOM     11  C   UNL     1     -28.395 -22.304 -21.148  1.00  0.00    -0.000 C 
BRANCH  11  12
ATOM     12  C   UNL     1     -28.041 -23.125 -19.899  1.00  0.00    -0.000 C 
BRANCH  12  13
ATOM     13  C   UNL     1     -28.542 -22.470 -18.602  1.00  0.00    -0.003 C 
ATOM     14  C   UNL     1     -27.451 -22.355 -17.538  1.00  0.00     0.004 C 
ENDBRANCH  12  13
ENDBRANCH  11  12
ENDBRANCH  10  11
ENDBRANCH   9  10
ENDBRANCH   1   9
TORSDOF 10
ENDMDL
MODEL 6
REMARK VINA RESULT:    -3.467      4.122      7.527
REMARK INTER + INTRA:          -6.072
REMARK INTER:                  -6.216
REMARK INTRA:                   0.144
REMARK UNBOUND:                -0.579
REMARK SMILES CCCCCCCCCCCC(=O)[O-]
REMARK SMILES IDX 7 1 8 2 9 3 10 4 11 5 12 6 13 7 14 8 6 9 5 10 4 11 3 12 2 13
REMARK SMILES IDX 1 14
REMARK H PARENT
REMARK Flexibility Score: inf
ROOT
ATOM      1  C   UNL     1     -27.820 -22.371 -22.632  1.00  0.00     0.000 C 
ENDROOT
BRANCH   1   2
ATOM      2  C   UNL     1     -28.957 -21.444 -23.108  1.00  0.00     0.000 C 
BRANCH   2   3
ATOM      3  C   UNL     1     -30.383 -21.982 -22.878  1.00  0.00     0.000 C 
BRANCH   3   4
ATOM      4  C   UNL     1     -31.498 -21.191 -23.585  1.00  0.00     0.006 C 
BRANCH   4   5
ATOM      5  C   UNL     1     -31.643 -21.563 -25.066  1.00  0.00     0.053 C 
BRANCH   5   6
ATOM      6  C   UNL     1     -31.054 -20.494 -25.932  1.00  0.00     0.041 C 
ATOM      7  O   UNL     1     -30.595 -20.781 -27.069  1.00  0.00    -0.550 OA
ATOM      8  O   UNL     1     -30.965 -19.189 -25.463  1.00  0.00    -0.550 OA
ENDBRANCH   5   6
ENDBRANCH   4   5
ENDBRANCH   3   4
ENDBRANCH   2   3
ENDBRANCH   1   2
BRANCH   1   9
ATOM      9  C   UNL     1     -28.082 -23.082 -21.292  1.00  0.00     0.000 C 
BRANCH   9  10
ATOM     10  C   UNL     1     -29.027 -22.293 -20.373  1.00  0.00    -0.000 C 
BRANCH  10  11
ATOM     11  C   UNL     1     -29.061 -22.904 -18.967  1.00  0.00    -0.000 C 
BRANCH  11  12
ATOM     12  C   UNL     1     -27.651 -22.966 -18.361  1.00  0.00    -0.000 C 
BRANCH  12  13
ATOM     13  C   UNL     1     -27.667 -22.946 -16.825  1.00  0.00    -0.003 C 
ATOM     14  C   UNL     1     -29.070 -23.119 -16.246  1.00  0.00     0.004 C 
ENDBRANCH  12  13
ENDBRANCH  11  12
ENDBRANCH  10  11
ENDBRANCH   9  10
ENDBRANCH   1   9
TORSDOF 10
ENDMDL
MODEL 7
REMARK VINA RESULT:    -3.290      3.265      4.244
REMARK INTER + INTRA:          -5.792
REMARK INTER:                  -5.022
REMARK INTRA:                  -0.771
REMARK UNBOUND:                -0.579
REMARK SMILES CCCCCCCCCCCC(=O)[O-]
REMARK SMILES IDX 7 1 8 2 9 3 10 4 11 5 12 6 13 7 14 8 6 9 5 10 4 11 3 12 2 13
REMARK SMILES IDX 1 14
REMARK H PARENT
REMARK Flexibility Score: inf
ROOT
ATOM      1  C   UNL     1     -27.998 -22.725 -22.422  1.00  0.00     0.000 C 
ENDROOT
BRANCH   1   2
ATOM      2  C   UNL     1     -29.139 -22.932 -21.405  1.00  0.00     0.000 C 
BRANCH   2   3
ATOM      3  C   UNL     1     -29.298 -21.808 -20.361  1.00  0.00     0.000 C 
BRANCH   3   4
ATOM      4  C   UNL     1     -30.364 -20.751 -20.702  1.00  0.00     0.006 C 
BRANCH   4   5
ATOM      5  C   UNL     1     -31.551 -21.332 -21.480  1.00  0.00     0.053 C 
BRANCH   5   6
ATOM      6  C   UNL     1     -32.528 -20.253 -21.824  1.00  0.00     0.041 C 
ATOM      7  O   UNL     1     -33.315 -20.399 -22.797  1.00  0.00    -0.550 OA
ATOM      8  O   UNL     1     -32.536 -19.065 -21.104  1.00  0.00    -0.550 OA
ENDBRANCH   5   6
ENDBRANCH   4   5
ENDBRANCH   3   4
ENDBRANCH   2   3
ENDBRANCH   1   2
BRANCH   1   9
ATOM      9  C   UNL     1     -28.212 -21.565 -23.410  1.00  0.00     0.000 C 
BRANCH   9  10
ATOM     10  C   UNL     1     -29.537 -21.675 -24.181  1.00  0.00    -0.000 C 
BRANCH  10  11
ATOM     11  C   UNL     1     -29.891 -20.344 -24.856  1.00  0.00    -0.000 C 
BRANCH  11  12
ATOM     12  C   UNL     1     -31.229 -20.447 -25.604  1.00  0.00    -0.000 C 
BRANCH  12  13
ATOM     13  C   UNL     1     -31.066 -20.988 -27.032  1.00  0.00    -0.003 C 
ATOM     14  C   UNL     1     -31.284 -22.498 -27.121  1.00  0.00     0.004 C 
ENDBRANCH  12  13
ENDBRANCH  11  12
ENDBRANCH  10  11
ENDBRANCH   9  10
ENDBRANCH   1   9
TORSDOF 10
ENDMDL
MODEL 8
REMARK VINA RESULT:    -2.885      2.923      3.354
REMARK INTER + INTRA:          -5.152
REMARK INTER:                  -4.414
REMARK INTRA:                  -0.737
REMARK UNBOUND:                -0.579
REMARK SMILES CCCCCCCCCCCC(=O)[O-]
REMARK SMILES IDX 7 1 8 2 9 3 10 4 11 5 12 6 13 7 14 8 6 9 5 10 4 11 3 12 2 13
REMARK SMILES IDX 1 14
REMARK H PARENT
REMARK Flexibility Score: inf
ROOT
ATOM      1  C   UNL     1     -31.403 -20.613 -21.050  1.00  0.00     0.000 C 
ENDROOT
BRANCH   1   2
ATOM      2  C   UNL     1     -31.712 -22.119 -21.162  1.00  0.00     0.000 C 
BRANCH   2   3
ATOM      3  C   UNL     1     -30.482 -23.047 -21.110  1.00  0.00     0.000 C 
BRANCH   3   4
ATOM      4  C   UNL     1     -29.161 -22.354 -20.731  1.00  0.00     0.006 C 
BRANCH   4   5
ATOM      5  C   UNL     1     -27.926 -23.125 -21.213  1.00  0.00     0.053 C 
BRANCH   5   6
ATOM      6  C   UNL     1     -27.419 -22.549 -22.497  1.00  0.00     0.041 C 
ATOM      7  O   UNL     1     -26.273 -22.855 -22.920  1.00  0.00    -0.550 OA
ATOM      8  O   UNL     1     -28.192 -21.636 -23.203  1.00  0.00    -0.550 OA
ENDBRANCH   5   6
ENDBRANCH   4   5
ENDBRANCH   3   4
ENDBRANCH   2   3
ENDBRANCH   1   2
BRANCH   1   9
ATOM      9  C   UNL     1     -32.399 -19.690 -21.775  1.00  0.00     0.000 C 
BRANCH   9  10
ATOM     10  C   UNL     1     -32.765 -20.195 -23.179  1.00  0.00    -0.000 C 
BRANCH  10  11
ATOM     11  C   UNL     1     -31.650 -19.880 -24.184  1.00  0.00    -0.000 C 
BRANCH  11  12
ATOM     12  C   UNL     1     -31.106 -21.167 -24.822  1.00  0.00    -0.000 C 
BRANCH  12  13
ATOM     13  C   UNL     1     -30.945 -21.048 -26.345  1.00  0.00    -0.003 C 
ATOM     14  C   UNL     1     -31.317 -22.333 -27.082  1.00  0.00     0.004 C 
ENDBRANCH  12  13
ENDBRANCH  11  12
ENDBRANCH  10  11
ENDBRANCH   9  10
ENDBRANCH   1   9
TORSDOF 10
ENDMDL
MODEL 9
REMARK VINA RESULT:    -2.833      4.197      6.062
REMARK INTER + INTRA:          -5.068
REMARK INTER:                  -4.555
REMARK INTRA:                  -0.513
REMARK UNBOUND:                -0.579
REMARK SMILES CCCCCCCCCCCC(=O)[O-]
REMARK SMILES IDX 7 1 8 2 9 3 10 4 11 5 12 6 13 7 14 8 6 9 5 10 4 11 3 12 2 13
REMARK SMILES IDX 1 14
REMARK H PARENT
REMARK Flexibility Score: inf
ROOT
ATOM      1  C   UNL     1     -28.906 -23.083 -21.589  1.00  0.00     0.000 C 
ENDROOT
BRANCH   1   2
ATOM      2  C   UNL     1     -27.693 -22.400 -22.254  1.00  0.00     0.000 C 
BRANCH   2   3
ATOM      3  C   UNL     1     -28.013 -21.590 -23.526  1.00  0.00     0.000 C 
BRANCH   3   4
ATOM      4  C   UNL     1     -29.485 -21.640 -23.976  1.00  0.00     0.006 C 
BRANCH   4   5
ATOM      5  C   UNL     1     -29.841 -20.528 -24.969  1.00  0.00     0.053 C 
BRANCH   5   6
ATOM      6  C   UNL     1     -30.905 -20.992 -25.912  1.00  0.00     0.041 C 
ATOM      7  O   UNL     1     -31.604 -22.002 -25.632  1.00  0.00    -0.550 OA
ATOM      8  O   UNL     1     -31.093 -20.340 -27.125  1.00  0.00    -0.550 OA
ENDBRANCH   5   6
ENDBRANCH   4   5
ENDBRANCH   3   4
ENDBRANCH   2   3
ENDBRANCH   1   2
BRANCH   1   9
ATOM      9  C   UNL     1     -29.348 -22.462 -20.252  1.00  0.00     0.000 C 
BRANCH   9  10
ATOM     10  C   UNL     1     -29.502 -20.935 -20.327  1.00  0.00    -0.000 C 
BRANCH  10  11
ATOM     11  C   UNL     1     -30.962 -20.542 -20.584  1.00  0.00    -0.000 C 
BRANCH  11  12
ATOM     12  C   UNL     1     -31.551 -21.352 -21.750  1.00  0.00    -0.000 C 
BRANCH  12  13
ATOM     13  C   UNL     1     -32.726 -20.635 -22.431  1.00  0.00    -0.003 C 
ATOM     14  C   UNL     1     -32.740 -19.131 -22.160  1.00  0.00     0.004 C 
ENDBRANCH  12  13
ENDBRANCH  11  12
ENDBRANCH  10  11
ENDBRANCH   9  10
ENDBRANCH   1   9
TORSDOF 10
ENDMDL
