MODEL 1
REMARK VINA RESULT:    -3.774      0.000      0.000
REMARK INTER + INTRA:         -10.089
REMARK INTER:                  -7.304
REMARK INTRA:                  -2.785
REMARK UNBOUND:                -2.785
REMARK SMILES CCCCCCCCCCCCCCCCCC(=O)[O-]
REMARK SMILES IDX 10 1 11 2 12 3 13 4 14 5 15 6 16 7 17 8 18 9 19 10 20 11
REMARK SMILES IDX 9 12 8 13 7 14 6 15 5 16 4 17 3 18 2 19 1 20
REMARK H PARENT
REMARK Flexibility Score: inf
ROOT
ATOM      1  C   UNL     1      77.873 -74.546  -2.213  1.00  0.00     0.000 C 
ENDROOT
BRANCH   1   2
ATOM      2  C   UNL     1      77.481 -74.777  -3.681  1.00  0.00     0.000 C 
BRANCH   2   3
ATOM      3  C   UNL     1      76.259 -73.943  -4.103  1.00  0.00     0.000 C 
BRANCH   3   4
ATOM      4  C   UNL     1      76.405 -72.449  -3.759  1.00  0.00     0.000 C 
BRANCH   4   5
ATOM      5  C   UNL     1      75.090 -71.733  -3.399  1.00  0.00     0.000 C 
BRANCH   5   6
ATOM      6  C   UNL     1      73.898 -72.697  -3.280  1.00  0.00     0.000 C 
BRANCH   6   7
ATOM      7  C   UNL     1      73.353 -72.807  -1.844  1.00  0.00     0.006 C 
BRANCH   7   8
ATOM      8  C   UNL     1      74.132 -71.967  -0.816  1.00  0.00     0.053 C 
BRANCH   8   9
ATOM      9  C   UNL     1      73.255 -71.004  -0.078  1.00  0.00     0.041 C 
ATOM     10  O   UNL     1      72.041 -71.275   0.118  1.00  0.00    -0.550 OA
ATOM     11  O   UNL     1      73.768 -69.793   0.370  1.00  0.00    -0.550 OA
ENDBRANCH   8   9
ENDBRANCH   7   8
ENDBRANCH   6   7
ENDBRANCH   5   6
ENDBRANCH   4   5
ENDBRANCH   3   4
ENDBRANCH   2   3
ENDBRANCH   1   2
BRANCH   1  12
ATOM     12  C   UNL     1      78.197 -75.856  -1.472  1.00  0.00     0.000 C 
BRANCH  12  13
ATOM     13  C   UNL     1      77.151 -76.197  -0.399  1.00  0.00    -0.000 C 
BRANCH  13  14
ATOM     14  C   UNL     1      75.860 -75.376  -0.551  1.00  0.00    -0.000 C 
BRANCH  14  15
ATOM     15  C   UNL     1      74.603 -76.155  -0.132  1.00  0.00    -0.000 C 
BRANCH  15  16
ATOM     16  C   UNL     1      73.580 -76.340  -1.273  1.00  0.00    -0.000 C 
BRANCH  16  17
ATOM     17  C   UNL     1      74.258 -76.519  -2.643  1.00  0.00    -0.000 C 
BRANCH  17  18
ATOM     18  C   UNL     1      74.544 -78.001  -2.966  1.00  0.00    -0.000 C 
BRANCH  18  19
ATOM     19  C   UNL     1      76.027 -78.295  -3.247  1.00  0.00    -0.003 C 
ATOM     20  C   UNL     1      76.237 -79.531  -4.120  1.00  0.00     0.004 C 
ENDBRANCH  18  19
ENDBRANCH  17  18
ENDBRANCH  16  17
ENDBRANCH  15  16
ENDBRANCH  14  15
ENDBRANCH  13  14
ENDBRANCH  12  13
ENDBRANCH   1  12
TORSDOF 16
ENDMDL
MODEL 2
REMARK VINA RESULT:    -3.660      1.016      2.484
REMARK INTER + INTRA:          -9.868
REMARK INTER:                  -6.820
REMARK INTRA:                  -3.048
REMARK UNBOUND:                -2.785
REMARK SMILES CCCCCCCCCCCCCCCCCC(=O)[O-]
REMARK SMILES IDX 10 1 11 2 12 3 13 4 14 5 15 6 16 7 17 8 18 9 19 10 20 11
REMARK SMILES IDX 9 12 8 13 7 14 6 15 5 16 4 17 3 18 2 19 1 20
REMARK H PARENT
REMARK Flexibility Score: inf
ROOT
ATOM      1  C   UNL     1      76.839 -75.160  -1.086  1.00  0.00     0.000 C 
ENDROOT
BRANCH   1   2
ATOM      2  C   UNL     1      77.950 -74.780  -2.078  1.00  0.00     0.000 C 
BRANCH   2   3
ATOM      3  C   UNL     1      77.397 -74.363  -3.452  1.00  0.00     0.000 C 
BRANCH   3   4
ATOM      4  C   UNL     1      77.404 -72.838  -3.664  1.00  0.00     0.000 C 
BRANCH   4   5
ATOM      5  C   UNL     1      76.012 -72.189  -3.770  1.00  0.00     0.000 C 
BRANCH   5   6
ATOM      6  C   UNL     1      74.868 -73.211  -3.671  1.00  0.00     0.000 C 
BRANCH   6   7
ATOM      7  C   UNL     1      74.027 -73.052  -2.391  1.00  0.00     0.006 C 
BRANCH   7   8
ATOM      8  C   UNL     1      74.283 -71.734  -1.637  1.00  0.00     0.053 C 
BRANCH   8   9
ATOM      9  C   UNL     1      73.284 -71.491  -0.549  1.00  0.00     0.041 C 
ATOM     10  O   UNL     1      73.358 -70.452   0.159  1.00  0.00    -0.550 OA
ATOM     11  O   UNL     1      72.286 -72.424  -0.294  1.00  0.00    -0.550 OA
ENDBRANCH   8   9
ENDBRANCH   7   8
ENDBRANCH   6   7
ENDBRANCH   5   6
ENDBRANCH   4   5
ENDBRANCH   3   4
ENDBRANCH   2   3
ENDBRANCH   1   2
BRANCH   1  12
ATOM     12  C   UNL     1      77.161 -76.441  -0.297  1.00  0.00     0.000 C 
BRANCH  12  13
ATOM     13  C   UNL     1      78.080 -77.395  -1.076  1.00  0.00    -0.000 C 
BRANCH  13  14
ATOM     14  C   UNL     1      77.305 -78.524  -1.774  1.00  0.00    -0.000 C 
BRANCH  14  15
ATOM     15  C   UNL     1      77.022 -78.227  -3.256  1.00  0.00    -0.000 C 
BRANCH  15  16
ATOM     16  C   UNL     1      75.529 -78.329  -3.634  1.00  0.00    -0.000 C 
BRANCH  16  17
ATOM     17  C   UNL     1      74.880 -76.947  -3.831  1.00  0.00    -0.000 C 
BRANCH  17  18
ATOM     18  C   UNL     1      73.621 -76.761  -2.957  1.00  0.00    -0.000 C 
BRANCH  18  19
ATOM     19  C   UNL     1      73.792 -77.266  -1.516  1.00  0.00    -0.003 C 
ATOM     20  C   UNL     1      73.320 -76.259  -0.469  1.00  0.00     0.004 C 
ENDBRANCH  18  19
ENDBRANCH  17  18
ENDBRANCH  16  17
ENDBRANCH  15  16
ENDBRANCH  14  15
ENDBRANCH  13  14
ENDBRANCH  12  13
ENDBRANCH   1  12
TORSDOF 16
ENDMDL
MODEL 3
REMARK VINA RESULT:    -3.639      1.782      4.133
REMARK INTER + INTRA:          -9.829
REMARK INTER:                  -7.648
REMARK INTRA:                  -2.181
REMARK UNBOUND:                -2.785
REMARK SMILES CCCCCCCCCCCCCCCCCC(=O)[O-]
REMARK SMILES IDX 10 1 11 2 12 3 13 4 14 5 15 6 16 7 17 8 18 9 19 10 20 11
REMARK SMILES IDX 9 12 8 13 7 14 6 15 5 16 4 17 3 18 2 19 1 20
REMARK H PARENT
REMARK Flexibility Score: inf
ROOT
ATOM      1  C   UNL     1      75.115 -73.240  -4.073  1.00  0.00     0.000 C 
ENDROOT
BRANCH   1   2
ATOM      2  C   UNL     1      73.920 -72.791  -3.217  1.00  0.00     0.000 C 
BRANCH   2   3
ATOM      3  C   UNL     1      74.317 -72.495  -1.760  1.00  0.00     0.000 C 
BRANCH   3   4
ATOM      4  C   UNL     1      73.139 -72.638  -0.778  1.00  0.00     0.000 C 
BRANCH   4   5
ATOM      5  C   UNL     1      72.532 -71.309  -0.293  1.00  0.00     0.000 C 
BRANCH   5   6
ATOM      6  C   UNL     1      73.569 -70.380   0.359  1.00  0.00     0.000 C 
BRANCH   6   7
ATOM      7  C   UNL     1      72.930 -69.244   1.179  1.00  0.00     0.006 C 
BRANCH   7   8
ATOM      8  C   UNL     1      71.573 -69.615   1.805  1.00  0.00     0.053 C 
BRANCH   8   9
ATOM      9  C   UNL     1      71.713 -70.538   2.975  1.00  0.00     0.041 C 
ATOM     10  O   UNL     1      72.446 -70.220   3.949  1.00  0.00    -0.550 OA
ATOM     11  O   UNL     1      71.059 -71.764   2.981  1.00  0.00    -0.550 OA
ENDBRANCH   8   9
ENDBRANCH   7   8
ENDBRANCH   6   7
ENDBRANCH   5   6
ENDBRANCH   4   5
ENDBRANCH   3   4
ENDBRANCH   2   3
ENDBRANCH   1   2
BRANCH   1  12
ATOM     12  C   UNL     1      76.414 -72.494  -3.717  1.00  0.00     0.000 C 
BRANCH  12  13
ATOM     13  C   UNL     1      77.621 -73.438  -3.607  1.00  0.00    -0.000 C 
BRANCH  13  14
ATOM     14  C   UNL     1      77.314 -74.853  -4.125  1.00  0.00    -0.000 C 
BRANCH  14  15
ATOM     15  C   UNL     1      77.992 -75.954  -3.293  1.00  0.00    -0.000 C 
BRANCH  15  16
ATOM     16  C   UNL     1      78.421 -75.491  -1.884  1.00  0.00    -0.000 C 
BRANCH  16  17
ATOM     17  C   UNL     1      77.545 -76.102  -0.776  1.00  0.00    -0.000 C 
BRANCH  17  18
ATOM     18  C   UNL     1      76.248 -75.296  -0.543  1.00  0.00    -0.000 C 
BRANCH  18  19
ATOM     19  C   UNL     1      74.970 -76.143  -0.646  1.00  0.00    -0.003 C 
ATOM     20  C   UNL     1      74.500 -76.345  -2.085  1.00  0.00     0.004 C 
ENDBRANCH  18  19
ENDBRANCH  17  18
ENDBRANCH  16  17
ENDBRANCH  15  16
ENDBRANCH  14  15
ENDBRANCH  13  14
ENDBRANCH  12  13
ENDBRANCH   1  12
TORSDOF 16
ENDMDL
MODEL 4
REMARK VINA RESULT:    -3.634      1.089      2.428
REMARK INTER + INTRA:          -9.818
REMARK INTER:                  -7.175
REMARK INTRA:                  -2.642
REMARK UNBOUND:                -2.785
REMARK SMILES CCCCCCCCCCCCCCCCCC(=O)[O-]
REMARK SMILES IDX 10 1 11 2 12 3 13 4 14 5 15 6 16 7 17 8 18 9 19 10 20 11
REMARK SMILES IDX 9 12 8 13 7 14 6 15 5 16 4 17 3 18 2 19 1 20
REMARK H PARENT
REMARK Flexibility Score: inf
ROOT
ATOM      1  C   UNL     1      77.723 -74.343  -2.023  1.00  0.00     0.000 C 
ENDROOT
BRANCH   1   2
ATOM      2  C   UNL     1      77.495 -74.027  -3.510  1.00  0.00     0.000 C 
BRANCH   2   3
ATOM      3  C   UNL     1      76.710 -72.721  -3.722  1.00  0.00     0.000 C 
BRANCH   3   4
ATOM      4  C   UNL     1      75.187 -72.909  -3.590  1.00  0.00     0.000 C 
BRANCH   4   5
ATOM      5  C   UNL     1      74.522 -72.076  -2.479  1.00  0.00     0.000 C 
BRANCH   5   6
ATOM      6  C   UNL     1      74.486 -72.804  -1.126  1.00  0.00     0.000 C 
BRANCH   6   7
ATOM      7  C   UNL     1      73.110 -72.734  -0.440  1.00  0.00     0.006 C 
BRANCH   7   8
ATOM      8  C   UNL     1      72.469 -71.335  -0.471  1.00  0.00     0.053 C 
BRANCH   8   9
ATOM      9  C   UNL     1      73.074 -70.403   0.533  1.00  0.00     0.041 C 
ATOM     10  O   UNL     1      74.019 -69.640   0.200  1.00  0.00    -0.550 OA
ATOM     11  O   UNL     1      72.616 -70.395   1.845  1.00  0.00    -0.550 OA
ENDBRANCH   8   9
ENDBRANCH   7   8
ENDBRANCH   6   7
ENDBRANCH   5   6
ENDBRANCH   4   5
ENDBRANCH   3   4
ENDBRANCH   2   3
ENDBRANCH   1   2
BRANCH   1  12
ATOM     12  C   UNL     1      78.489 -75.660  -1.807  1.00  0.00     0.000 C 
BRANCH  12  13
ATOM     13  C   UNL     1      77.792 -76.585  -0.797  1.00  0.00    -0.000 C 
BRANCH  13  14
ATOM     14  C   UNL     1      77.752 -78.049  -1.265  1.00  0.00    -0.000 C 
BRANCH  14  15
ATOM     15  C   UNL     1      77.297 -78.197  -2.726  1.00  0.00    -0.000 C 
BRANCH  15  16
ATOM     16  C   UNL     1      75.777 -78.419  -2.882  1.00  0.00    -0.000 C 
BRANCH  16  17
ATOM     17  C   UNL     1      75.062 -77.186  -3.463  1.00  0.00    -0.000 C 
BRANCH  17  18
ATOM     18  C   UNL     1      74.506 -76.258  -2.362  1.00  0.00    -0.000 C 
BRANCH  18  19
ATOM     19  C   UNL     1      73.928 -77.013  -1.154  1.00  0.00    -0.003 C 
ATOM     20  C   UNL     1      74.173 -76.297   0.172  1.00  0.00     0.004 C 
ENDBRANCH  18  19
ENDBRANCH  17  18
ENDBRANCH  16  17
ENDBRANCH  15  16
ENDBRANCH  14  15
ENDBRANCH  13  14
ENDBRANCH  12  13
ENDBRANCH   1  12
TORSDOF 16
ENDMDL
MODEL 5
REMARK VINA RESULT:    -3.593      3.309      6.330
REMARK INTER + INTRA:          -9.738
REMARK INTER:                  -8.006
REMARK INTRA:                  -1.733
REMARK UNBOUND:                -2.785
REMARK SMILES CCCCCCCCCCCCCCCCCC(=O)[O-]
REMARK SMILES IDX 10 1 11 2 12 3 13 4 14 5 15 6 16 7 17 8 18 9 19 10 20 11
REMARK SMILES IDX 9 12 8 13 7 14 6 15 5 16 4 17 3 18 2 19 1 20
REMARK H PARENT
REMARK Flexibility Score: inf
ROOT
ATOM      1  C   UNL     1      76.737 -74.624  -1.665  1.00  0.00     0.000 C 
ENDROOT
BRANCH   1   2
ATOM      2  C   UNL     1      76.274 -75.834  -2.493  1.00  0.00     0.000 C 
BRANCH   2   3
ATOM      3  C   UNL     1      74.994 -76.477  -1.933  1.00  0.00     0.000 C 
BRANCH   3   4
ATOM      4  C   UNL     1      74.560 -75.871  -0.584  1.00  0.00     0.000 C 
BRANCH   4   5
ATOM      5  C   UNL     1      73.548 -76.716   0.212  1.00  0.00     0.000 C 
BRANCH   5   6
ATOM      6  C   UNL     1      72.959 -75.965   1.416  1.00  0.00     0.000 C 
BRANCH   6   7
ATOM      7  C   UNL     1      72.672 -76.884   2.618  1.00  0.00     0.006 C 
BRANCH   7   8
ATOM      8  C   UNL     1      72.497 -76.132   3.950  1.00  0.00     0.053 C 
BRANCH   8   9
ATOM      9  C   UNL     1      73.276 -76.754   5.067  1.00  0.00     0.041 C 
ATOM     10  O   UNL     1      74.419 -77.238   4.851  1.00  0.00    -0.550 OA
ATOM     11  O   UNL     1      72.731 -76.827   6.343  1.00  0.00    -0.550 OA
ENDBRANCH   8   9
ENDBRANCH   7   8
ENDBRANCH   6   7
ENDBRANCH   5   6
ENDBRANCH   4   5
ENDBRANCH   3   4
ENDBRANCH   2   3
ENDBRANCH   1   2
BRANCH   1  12
ATOM     12  C   UNL     1      77.556 -73.617  -2.493  1.00  0.00     0.000 C 
BRANCH  12  13
ATOM     13  C   UNL     1      76.794 -73.118  -3.731  1.00  0.00    -0.000 C 
BRANCH  13  14
ATOM     14  C   UNL     1      75.653 -72.153  -3.373  1.00  0.00    -0.000 C 
BRANCH  14  15
ATOM     15  C   UNL     1      74.261 -72.780  -3.553  1.00  0.00    -0.000 C 
BRANCH  15  16
ATOM     16  C   UNL     1      73.385 -72.718  -2.283  1.00  0.00    -0.000 C 
BRANCH  16  17
ATOM     17  C   UNL     1      74.134 -72.106  -1.085  1.00  0.00    -0.000 C 
BRANCH  17  18
ATOM     18  C   UNL     1      73.214 -71.238  -0.201  1.00  0.00    -0.000 C 
BRANCH  18  19
ATOM     19  C   UNL     1      73.863 -69.922   0.258  1.00  0.00    -0.003 C 
ATOM     20  C   UNL     1      72.936 -69.066   1.119  1.00  0.00     0.004 C 
ENDBRANCH  18  19
ENDBRANCH  17  18
ENDBRANCH  16  17
ENDBRANCH  15  16
ENDBRANCH  14  15
ENDBRANCH  13  14
ENDBRANCH  12  13
ENDBRANCH   1  12
TORSDOF 16
ENDMDL
MODEL 6
REMARK VINA RESULT:    -3.576      2.375      5.885
REMARK INTER + INTRA:          -9.706
REMARK INTER:                  -7.054
REMARK INTRA:                  -2.652
REMARK UNBOUND:                -2.785
REMARK SMILES CCCCCCCCCCCCCCCCCC(=O)[O-]
REMARK SMILES IDX 10 1 11 2 12 3 13 4 14 5 15 6 16 7 17 8 18 9 19 10 20 11
REMARK SMILES IDX 9 12 8 13 7 14 6 15 5 16 4 17 3 18 2 19 1 20
REMARK H PARENT
REMARK Flexibility Score: inf
ROOT
ATOM      1  C   UNL     1      76.665 -74.679  -1.313  1.00  0.00     0.000 C 
ENDROOT
BRANCH   1   2
ATOM      2  C   UNL     1      76.811 -75.916  -0.412  1.00  0.00     0.000 C 
BRANCH   2   3
ATOM      3  C   UNL     1      77.908 -76.877  -0.901  1.00  0.00     0.000 C 
BRANCH   3   4
ATOM      4  C   UNL     1      77.340 -78.144  -1.569  1.00  0.00     0.000 C 
BRANCH   4   5
ATOM      5  C   UNL     1      77.361 -78.133  -3.108  1.00  0.00     0.000 C 
BRANCH   5   6
ATOM      6  C   UNL     1      76.045 -77.625  -3.720  1.00  0.00     0.000 C 
BRANCH   6   7
ATOM      7  C   UNL     1      74.813 -77.953  -2.856  1.00  0.00     0.006 C 
BRANCH   7   8
ATOM      8  C   UNL     1      73.863 -76.760  -2.647  1.00  0.00     0.053 C 
BRANCH   8   9
ATOM      9  C   UNL     1      72.475 -77.038  -3.135  1.00  0.00     0.041 C 
ATOM     10  O   UNL     1      72.259 -78.004  -3.913  1.00  0.00    -0.550 OA
ATOM     11  O   UNL     1      71.423 -76.214  -2.756  1.00  0.00    -0.550 OA
ENDBRANCH   8   9
ENDBRANCH   7   8
ENDBRANCH   6   7
ENDBRANCH   5   6
ENDBRANCH   4   5
ENDBRANCH   3   4
ENDBRANCH   2   3
ENDBRANCH   1   2
BRANCH   1  12
ATOM     12  C   UNL     1      77.872 -74.481  -2.248  1.00  0.00     0.000 C 
BRANCH  12  13
ATOM     13  C   UNL     1      77.451 -74.104  -3.677  1.00  0.00    -0.000 C 
BRANCH  13  14
ATOM     14  C   UNL     1      75.934 -73.894  -3.810  1.00  0.00    -0.000 C 
BRANCH  14  15
ATOM     15  C   UNL     1      75.557 -72.436  -4.117  1.00  0.00    -0.000 C 
BRANCH  15  16
ATOM     16  C   UNL     1      74.887 -71.706  -2.932  1.00  0.00    -0.000 C 
BRANCH  16  17
ATOM     17  C   UNL     1      73.754 -72.535  -2.301  1.00  0.00    -0.000 C 
BRANCH  17  18
ATOM     18  C   UNL     1      73.749 -72.441  -0.760  1.00  0.00    -0.000 C 
BRANCH  18  19
ATOM     19  C   UNL     1      72.906 -71.277  -0.216  1.00  0.00    -0.003 C 
ATOM     20  C   UNL     1      73.752 -70.134   0.341  1.00  0.00     0.004 C 
ENDBRANCH  18  19
ENDBRANCH  17  18
ENDBRANCH  16  17
ENDBRANCH  15  16
ENDBRANCH  14  15
ENDBRANCH  13  14
ENDBRANCH  12  13
ENDBRANCH   1  12
TORSDOF 16
ENDMDL
MODEL 7
REMARK VINA RESULT:    -3.566      2.022      4.943
REMARK INTER + INTRA:          -9.686
REMARK INTER:                  -6.784
REMARK INTRA:                  -2.902
REMARK UNBOUND:                -2.785
REMARK SMILES CCCCCCCCCCCCCCCCCC(=O)[O-]
REMARK SMILES IDX 10 1 11 2 12 3 13 4 14 5 15 6 16 7 17 8 18 9 19 10 20 11
REMARK SMILES IDX 9 12 8 13 7 14 6 15 5 16 4 17 3 18 2 19 1 20
REMARK H PARENT
REMARK Flexibility Score: inf
ROOT
ATOM      1  C   UNL     1      77.889 -77.588  -1.246  1.00  0.00     0.000 C 
ENDROOT
BRANCH   1   2
ATOM      2  C   UNL     1      76.932 -78.620  -1.864  1.00  0.00     0.000 C 
BRANCH   2   3
ATOM      3  C   UNL     1      76.649 -78.346  -3.351  1.00  0.00     0.000 C 
BRANCH   3   4
ATOM      4  C   UNL     1      75.337 -77.572  -3.579  1.00  0.00     0.000 C 
BRANCH   4   5
ATOM      5  C   UNL     1      74.288 -77.727  -2.462  1.00  0.00     0.000 C 
BRANCH   5   6
ATOM      6  C   UNL     1      73.398 -76.485  -2.301  1.00  0.00     0.000 C 
BRANCH   6   7
ATOM      7  C   UNL     1      73.482 -75.862  -0.895  1.00  0.00     0.006 C 
BRANCH   7   8
ATOM      8  C   UNL     1      73.532 -76.898   0.243  1.00  0.00     0.053 C 
BRANCH   8   9
ATOM      9  C   UNL     1      73.049 -76.343   1.547  1.00  0.00     0.041 C 
ATOM     10  O   UNL     1      72.300 -75.330   1.566  1.00  0.00    -0.550 OA
ATOM     11  O   UNL     1      73.446 -76.924   2.745  1.00  0.00    -0.550 OA
ENDBRANCH   8   9
ENDBRANCH   7   8
ENDBRANCH   6   7
ENDBRANCH   5   6
ENDBRANCH   4   5
ENDBRANCH   3   4
ENDBRANCH   2   3
ENDBRANCH   1   2
BRANCH   1  12
ATOM     12  C   UNL     1      77.161 -76.553  -0.371  1.00  0.00     0.000 C 
BRANCH  12  13
ATOM     13  C   UNL     1      77.030 -75.188  -1.063  1.00  0.00    -0.000 C 
BRANCH  13  14
ATOM     14  C   UNL     1      78.031 -75.012  -2.216  1.00  0.00    -0.000 C 
BRANCH  14  15
ATOM     15  C   UNL     1      77.377 -74.473  -3.499  1.00  0.00    -0.000 C 
BRANCH  15  16
ATOM     16  C   UNL     1      77.456 -72.936  -3.636  1.00  0.00    -0.000 C 
BRANCH  16  17
ATOM     17  C   UNL     1      76.086 -72.306  -3.946  1.00  0.00    -0.000 C 
BRANCH  17  18
ATOM     18  C   UNL     1      74.921 -73.098  -3.316  1.00  0.00    -0.000 C 
BRANCH  18  19
ATOM     19  C   UNL     1      74.060 -72.266  -2.352  1.00  0.00    -0.003 C 
ATOM     20  C   UNL     1      74.404 -72.506  -0.884  1.00  0.00     0.004 C 
ENDBRANCH  18  19
ENDBRANCH  17  18
ENDBRANCH  16  17
ENDBRANCH  15  16
ENDBRANCH  14  15
ENDBRANCH  13  14
ENDBRANCH  12  13
ENDBRANCH   1  12
TORSDOF 16
ENDMDL
MODEL 8
REMARK VINA RESULT:    -3.554      1.661      3.578
REMARK INTER + INTRA:          -9.664
REMARK INTER:                  -7.413
REMARK INTRA:                  -2.252
REMARK UNBOUND:                -2.785
REMARK SMILES CCCCCCCCCCCCCCCCCC(=O)[O-]
REMARK SMILES IDX 10 1 11 2 12 3 13 4 14 5 15 6 16 7 17 8 18 9 19 10 20 11
REMARK SMILES IDX 9 12 8 13 7 14 6 15 5 16 4 17 3 18 2 19 1 20
REMARK H PARENT
REMARK Flexibility Score: inf
ROOT
ATOM      1  C   UNL     1      76.046 -72.138  -3.734  1.00  0.00     0.000 C 
ENDROOT
BRANCH   1   2
ATOM      2  C   UNL     1      74.510 -72.094  -3.757  1.00  0.00     0.000 C 
BRANCH   2   3
ATOM      3  C   UNL     1      73.875 -73.356  -3.148  1.00  0.00     0.000 C 
BRANCH   3   4
ATOM      4  C   UNL     1      73.016 -73.055  -1.906  1.00  0.00     0.000 C 
BRANCH   4   5
ATOM      5  C   UNL     1      73.746 -72.302  -0.778  1.00  0.00     0.000 C 
BRANCH   5   6
ATOM      6  C   UNL     1      72.937 -71.115  -0.231  1.00  0.00     0.000 C 
BRANCH   6   7
ATOM      7  C   UNL     1      73.823 -70.011   0.375  1.00  0.00     0.006 C 
BRANCH   7   8
ATOM      8  C   UNL     1      73.037 -68.934   1.145  1.00  0.00     0.053 C 
BRANCH   8   9
ATOM      9  C   UNL     1      71.976 -69.517   2.027  1.00  0.00     0.041 C 
ATOM     10  O   UNL     1      70.760 -69.302   1.782  1.00  0.00    -0.550 OA
ATOM     11  O   UNL     1      72.329 -70.274   3.138  1.00  0.00    -0.550 OA
ENDBRANCH   8   9
ENDBRANCH   7   8
ENDBRANCH   6   7
ENDBRANCH   5   6
ENDBRANCH   4   5
ENDBRANCH   3   4
ENDBRANCH   2   3
ENDBRANCH   1   2
BRANCH   1  12
ATOM     12  C   UNL     1      76.600 -73.574  -3.758  1.00  0.00     0.000 C 
BRANCH  12  13
ATOM     13  C   UNL     1      77.594 -73.838  -2.617  1.00  0.00    -0.000 C 
BRANCH  13  14
ATOM     14  C   UNL     1      76.934 -74.510  -1.402  1.00  0.00    -0.000 C 
BRANCH  14  15
ATOM     15  C   UNL     1      77.521 -75.897  -1.093  1.00  0.00    -0.000 C 
BRANCH  15  16
ATOM     16  C   UNL     1      76.479 -77.036  -1.142  1.00  0.00    -0.000 C 
BRANCH  16  17
ATOM     17  C   UNL     1      75.142 -76.579  -1.755  1.00  0.00    -0.000 C 
BRANCH  17  18
ATOM     18  C   UNL     1      73.949 -76.829  -0.809  1.00  0.00    -0.000 C 
BRANCH  18  19
ATOM     19  C   UNL     1      73.877 -75.841   0.367  1.00  0.00    -0.003 C 
ATOM     20  C   UNL     1      72.452 -75.601   0.862  1.00  0.00     0.004 C 
ENDBRANCH  18  19
ENDBRANCH  17  18
ENDBRANCH  16  17
ENDBRANCH  15  16
ENDBRANCH  14  15
ENDBRANCH  13  14
ENDBRANCH  12  13
ENDBRANCH   1  12
TORSDOF 16
ENDMDL
MODEL 9
REMARK VINA RESULT:    -3.544      1.193      3.014
REMARK INTER + INTRA:          -9.644
REMARK INTER:                  -6.955
REMARK INTRA:                  -2.689
REMARK UNBOUND:                -2.785
REMARK SMILES CCCCCCCCCCCCCCCCCC(=O)[O-]
REMARK SMILES IDX 10 1 11 2 12 3 13 4 14 5 15 6 16 7 17 8 18 9 19 10 20 11
REMARK SMILES IDX 9 12 8 13 7 14 6 15 5 16 4 17 3 18 2 19 1 20
REMARK H PARENT
REMARK Flexibility Score: inf
ROOT
ATOM      1  C   UNL     1      77.419 -75.944  -0.935  1.00  0.00     0.000 C 
ENDROOT
BRANCH   1   2
ATOM      2  C   UNL     1      76.845 -74.616  -1.453  1.00  0.00     0.000 C 
BRANCH   2   3
ATOM      3  C   UNL     1      77.766 -73.937  -2.481  1.00  0.00     0.000 C 
BRANCH   3   4
ATOM      4  C   UNL     1      77.020 -72.937  -3.385  1.00  0.00     0.000 C 
BRANCH   4   5
ATOM      5  C   UNL     1      75.633 -73.404  -3.865  1.00  0.00     0.000 C 
BRANCH   5   6
ATOM      6  C   UNL     1      74.543 -72.339  -3.668  1.00  0.00     0.000 C 
BRANCH   6   7
ATOM      7  C   UNL     1      74.738 -71.506  -2.387  1.00  0.00     0.006 C 
BRANCH   7   8
ATOM      8  C   UNL     1      74.027 -72.087  -1.152  1.00  0.00     0.053 C 
BRANCH   8   9
ATOM      9  C   UNL     1      73.450 -71.024  -0.269  1.00  0.00     0.041 C 
ATOM     10  O   UNL     1      74.116 -69.988  -0.007  1.00  0.00    -0.550 OA
ATOM     11  O   UNL     1      72.188 -71.188   0.291  1.00  0.00    -0.550 OA
ENDBRANCH   8   9
ENDBRANCH   7   8
ENDBRANCH   6   7
ENDBRANCH   5   6
ENDBRANCH   4   5
ENDBRANCH   3   4
ENDBRANCH   2   3
ENDBRANCH   1   2
BRANCH   1  12
ATOM     12  C   UNL     1      76.603 -77.165  -1.397  1.00  0.00     0.000 C 
BRANCH  12  13
ATOM     13  C   UNL     1      76.653 -77.361  -2.920  1.00  0.00    -0.000 C 
BRANCH  13  14
ATOM     14  C   UNL     1      75.270 -77.227  -3.578  1.00  0.00    -0.000 C 
BRANCH  14  15
ATOM     15  C   UNL     1      74.123 -77.181  -2.556  1.00  0.00    -0.000 C 
BRANCH  15  16
ATOM     16  C   UNL     1      73.432 -75.803  -2.461  1.00  0.00    -0.000 C 
BRANCH  16  17
ATOM     17  C   UNL     1      72.652 -75.630  -1.145  1.00  0.00    -0.000 C 
BRANCH  17  18
ATOM     18  C   UNL     1      73.585 -75.408   0.064  1.00  0.00    -0.000 C 
BRANCH  18  19
ATOM     19  C   UNL     1      73.575 -76.569   1.071  1.00  0.00    -0.003 C 
ATOM     20  C   UNL     1      72.730 -76.280   2.310  1.00  0.00     0.004 C 
ENDBRANCH  18  19
ENDBRANCH  17  18
ENDBRANCH  16  17
ENDBRANCH  15  16
ENDBRANCH  14  15
ENDBRANCH  13  14
ENDBRANCH  12  13
ENDBRANCH   1  12
TORSDOF 16
ENDMDL
