MODEL 1
REMARK VINA RESULT:    -4.689      0.000      0.000
REMARK INTER + INTRA:         -13.830
REMARK INTER:                 -10.172
REMARK INTRA:                  -3.658
REMARK UNBOUND:                -3.658
REMARK SMILES CCCCCCCCCCCCCCCCCCCCCC(=O)[O-]
REMARK SMILES IDX 12 1 11 2 10 3 9 4 8 5 7 6 6 7 5 8 4 9 3 10 2 11 1 12 13 13
REMARK SMILES IDX 14 14 15 15 16 16 17 17 18 18 19 19 20 20 21 21 22 22 23 23
REMARK SMILES IDX 24 24
REMARK H PARENT
REMARK Flexibility Score: inf
ROOT
ATOM      1  C   UNL     1      17.529 -32.170  20.508  1.00  0.00     0.000 C 
ENDROOT
BRANCH   1   2
ATOM      2  C   UNL     1      18.866 -32.047  21.260  1.00  0.00     0.000 C 
BRANCH   2   3
ATOM      3  C   UNL     1      18.835 -32.717  22.642  1.00  0.00     0.000 C 
BRANCH   3   4
ATOM      4  C   UNL     1      18.031 -31.876  23.646  1.00  0.00    -0.000 C 
BRANCH   4   5
ATOM      5  C   UNL     1      17.107 -32.734  24.530  1.00  0.00    -0.000 C 
BRANCH   5   6
ATOM      6  C   UNL     1      16.391 -33.890  23.801  1.00  0.00    -0.000 C 
BRANCH   6   7
ATOM      7  C   UNL     1      14.945 -33.594  23.359  1.00  0.00    -0.000 C 
BRANCH   7   8
ATOM      8  C   UNL     1      14.209 -32.653  24.328  1.00  0.00    -0.000 C 
BRANCH   8   9
ATOM      9  C   UNL     1      13.571 -31.441  23.624  1.00  0.00    -0.000 C 
BRANCH   9  10
ATOM     10  C   UNL     1      14.565 -30.420  23.040  1.00  0.00    -0.000 C 
BRANCH  10  11
ATOM     11  C   UNL     1      14.611 -30.437  21.505  1.00  0.00    -0.003 C 
ATOM     12  C   UNL     1      13.522 -31.338  20.931  1.00  0.00     0.004 C 
ENDBRANCH  10  11
ENDBRANCH   9  10
ENDBRANCH   8   9
ENDBRANCH   7   8
ENDBRANCH   6   7
ENDBRANCH   5   6
ENDBRANCH   4   5
ENDBRANCH   3   4
ENDBRANCH   2   3
ENDBRANCH   1   2
BRANCH   1  13
ATOM     13  C   UNL     1      17.340 -33.489  19.734  1.00  0.00     0.000 C 
BRANCH  13  14
ATOM     14  C   UNL     1      15.880 -33.967  19.719  1.00  0.00     0.000 C 
BRANCH  14  15
ATOM     15  C   UNL     1      15.785 -35.454  20.094  1.00  0.00     0.000 C 
BRANCH  15  16
ATOM     16  C   UNL     1      16.926 -36.294  19.490  1.00  0.00     0.000 C 
BRANCH  16  17
ATOM     17  C   UNL     1      17.792 -37.049  20.520  1.00  0.00     0.000 C 
BRANCH  17  18
ATOM     18  C   UNL     1      18.087 -36.279  21.823  1.00  0.00     0.000 C 
BRANCH  18  19
ATOM     19  C   UNL     1      19.435 -36.619  22.487  1.00  0.00     0.000 C 
BRANCH  19  20
ATOM     20  C   UNL     1      19.469 -36.249  23.977  1.00  0.00     0.006 C 
BRANCH  20  21
ATOM     21  C   UNL     1      18.824 -37.329  24.856  1.00  0.00     0.053 C 
BRANCH  21  22
ATOM     22  C   UNL     1      18.507 -36.802  26.222  1.00  0.00     0.041 C 
ATOM     23  O   UNL     1      17.593 -35.948  26.380  1.00  0.00    -0.550 OA
ATOM     24  O   UNL     1      19.202 -37.282  27.326  1.00  0.00    -0.550 OA
ENDBRANCH  21  22
ENDBRANCH  20  21
ENDBRANCH  19  20
ENDBRANCH  18  19
ENDBRANCH  17  18
ENDBRANCH  16  17
ENDBRANCH  15  16
ENDBRANCH  14  15
ENDBRANCH  13  14
ENDBRANCH   1  13
TORSDOF 20
ENDMDL
MODEL 2
REMARK VINA RESULT:    -4.683      2.484      5.997
REMARK INTER + INTRA:         -13.817
REMARK INTER:                 -10.318
REMARK INTRA:                  -3.499
REMARK UNBOUND:                -3.658
REMARK SMILES CCCCCCCCCCCCCCCCCCCCCC(=O)[O-]
REMARK SMILES IDX 12 1 11 2 10 3 9 4 8 5 7 6 6 7 5 8 4 9 3 10 2 11 1 12 13 13
REMARK SMILES IDX 14 14 15 15 16 16 17 17 18 18 19 19 20 20 21 21 22 22 23 23
REMARK SMILES IDX 24 24
REMARK H PARENT
REMARK Flexibility Score: inf
ROOT
ATOM      1  C   UNL     1      13.470 -31.282  23.541  1.00  0.00     0.000 C 
ENDROOT
BRANCH   1   2
ATOM      2  C   UNL     1      13.870 -32.569  24.285  1.00  0.00     0.000 C 
BRANCH   2   3
ATOM      3  C   UNL     1      14.968 -33.359  23.557  1.00  0.00     0.000 C 
BRANCH   3   4
ATOM      4  C   UNL     1      16.098 -33.752  24.521  1.00  0.00    -0.000 C 
BRANCH   4   5
ATOM      5  C   UNL     1      17.224 -32.704  24.572  1.00  0.00    -0.000 C 
BRANCH   5   6
ATOM      6  C   UNL     1      18.502 -33.150  25.312  1.00  0.00    -0.000 C 
BRANCH   6   7
ATOM      7  C   UNL     1      19.396 -34.140  24.543  1.00  0.00    -0.000 C 
BRANCH   7   8
ATOM      8  C   UNL     1      19.600 -35.466  25.296  1.00  0.00    -0.000 C 
BRANCH   8   9
ATOM      9  C   UNL     1      18.565 -36.541  24.916  1.00  0.00    -0.000 C 
BRANCH   9  10
ATOM     10  C   UNL     1      18.074 -37.423  26.080  1.00  0.00    -0.000 C 
BRANCH  10  11
ATOM     11  C   UNL     1      16.841 -36.846  26.791  1.00  0.00    -0.003 C 
ATOM     12  C   UNL     1      16.160 -37.901  27.658  1.00  0.00     0.004 C 
ENDBRANCH  10  11
ENDBRANCH   9  10
ENDBRANCH   8   9
ENDBRANCH   7   8
ENDBRANCH   6   7
ENDBRANCH   5   6
ENDBRANCH   4   5
ENDBRANCH   3   4
ENDBRANCH   2   3
ENDBRANCH   1   2
BRANCH   1  13
ATOM     13  C   UNL     1      13.506 -31.384  22.004  1.00  0.00     0.000 C 
BRANCH  13  14
ATOM     14  C   UNL     1      14.651 -30.572  21.381  1.00  0.00     0.000 C 
BRANCH  14  15
ATOM     15  C   UNL     1      15.319 -29.670  22.429  1.00  0.00     0.000 C 
BRANCH  15  16
ATOM     16  C   UNL     1      16.858 -29.710  22.355  1.00  0.00     0.000 C 
BRANCH  16  17
ATOM     17  C   UNL     1      17.430 -30.531  21.181  1.00  0.00     0.000 C 
BRANCH  17  18
ATOM     18  C   UNL     1      18.762 -31.252  21.468  1.00  0.00     0.000 C 
BRANCH  18  19
ATOM     19  C   UNL     1      18.769 -32.757  21.140  1.00  0.00     0.000 C 
BRANCH  19  20
ATOM     20  C   UNL     1      17.364 -33.304  20.848  1.00  0.00     0.006 C 
BRANCH  20  21
ATOM     21  C   UNL     1      17.269 -34.815  21.095  1.00  0.00     0.053 C 
BRANCH  21  22
ATOM     22  C   UNL     1      16.164 -35.429  20.290  1.00  0.00     0.041 C 
ATOM     23  O   UNL     1      15.051 -34.847  20.186  1.00  0.00    -0.550 OA
ATOM     24  O   UNL     1      16.380 -36.632  19.628  1.00  0.00    -0.550 OA
ENDBRANCH  21  22
ENDBRANCH  20  21
ENDBRANCH  19  20
ENDBRANCH  18  19
ENDBRANCH  17  18
ENDBRANCH  16  17
ENDBRANCH  15  16
ENDBRANCH  14  15
ENDBRANCH  13  14
ENDBRANCH   1  13
TORSDOF 20
ENDMDL
MODEL 3
REMARK VINA RESULT:    -4.683      1.629      3.830
REMARK INTER + INTRA:         -13.817
REMARK INTER:                 -10.378
REMARK INTRA:                  -3.439
REMARK UNBOUND:                -3.658
REMARK SMILES CCCCCCCCCCCCCCCCCCCCCC(=O)[O-]
REMARK SMILES IDX 12 1 11 2 10 3 9 4 8 5 7 6 6 7 5 8 4 9 3 10 2 11 1 12 13 13
REMARK SMILES IDX 14 14 15 15 16 16 17 17 18 18 19 19 20 20 21 21 22 22 23 23
REMARK SMILES IDX 24 24
REMARK H PARENT
REMARK Flexibility Score: inf
ROOT
ATOM      1  C   UNL     1      14.544 -33.013  21.858  1.00  0.00     0.000 C 
ENDROOT
BRANCH   1   2
ATOM      2  C   UNL     1      13.763 -32.143  20.856  1.00  0.00     0.000 C 
BRANCH   2   3
ATOM      3  C   UNL     1      12.864 -31.105  21.545  1.00  0.00     0.000 C 
BRANCH   3   4
ATOM      4  C   UNL     1      13.193 -30.995  23.041  1.00  0.00    -0.000 C 
BRANCH   4   5
ATOM      5  C   UNL     1      13.905 -29.676  23.395  1.00  0.00    -0.000 C 
BRANCH   5   6
ATOM      6  C   UNL     1      15.443 -29.709  23.272  1.00  0.00    -0.000 C 
BRANCH   6   7
ATOM      7  C   UNL     1      16.005 -29.234  21.919  1.00  0.00    -0.000 C 
BRANCH   7   8
ATOM      8  C   UNL     1      16.975 -30.249  21.290  1.00  0.00    -0.000 C 
BRANCH   8   9
ATOM      9  C   UNL     1      17.728 -31.092  22.336  1.00  0.00    -0.000 C 
BRANCH   9  10
ATOM     10  C   UNL     1      19.219 -30.749  22.510  1.00  0.00    -0.000 C 
BRANCH  10  11
ATOM     11  C   UNL     1      19.884 -30.283  21.206  1.00  0.00    -0.003 C 
ATOM     12  C   UNL     1      20.848 -29.129  21.460  1.00  0.00     0.004 C 
ENDBRANCH  10  11
ENDBRANCH   9  10
ENDBRANCH   8   9
ENDBRANCH   7   8
ENDBRANCH   6   7
ENDBRANCH   5   6
ENDBRANCH   4   5
ENDBRANCH   3   4
ENDBRANCH   2   3
ENDBRANCH   1   2
BRANCH   1  13
ATOM     13  C   UNL     1      15.340 -34.172  21.227  1.00  0.00     0.000 C 
BRANCH  13  14
ATOM     14  C   UNL     1      16.260 -33.710  20.087  1.00  0.00     0.000 C 
BRANCH  14  15
ATOM     15  C   UNL     1      16.679 -34.895  19.204  1.00  0.00     0.000 C 
BRANCH  15  16
ATOM     16  C   UNL     1      16.512 -36.253  19.913  1.00  0.00     0.000 C 
BRANCH  16  17
ATOM     17  C   UNL     1      17.833 -36.932  20.334  1.00  0.00     0.000 C 
BRANCH  17  18
ATOM     18  C   UNL     1      18.302 -36.626  21.771  1.00  0.00     0.000 C 
BRANCH  18  19
ATOM     19  C   UNL     1      19.066 -35.299  21.935  1.00  0.00     0.000 C 
BRANCH  19  20
ATOM     20  C   UNL     1      18.654 -34.533  23.201  1.00  0.00     0.006 C 
BRANCH  20  21
ATOM     21  C   UNL     1      17.446 -35.174  23.896  1.00  0.00     0.053 C 
BRANCH  21  22
ATOM     22  C   UNL     1      17.468 -34.917  25.372  1.00  0.00     0.041 C 
ATOM     23  O   UNL     1      16.735 -34.023  25.876  1.00  0.00    -0.550 OA
ATOM     24  O   UNL     1      18.277 -35.692  26.196  1.00  0.00    -0.550 OA
ENDBRANCH  21  22
ENDBRANCH  20  21
ENDBRANCH  19  20
ENDBRANCH  18  19
ENDBRANCH  17  18
ENDBRANCH  16  17
ENDBRANCH  15  16
ENDBRANCH  14  15
ENDBRANCH  13  14
ENDBRANCH   1  13
TORSDOF 20
ENDMDL
MODEL 4
REMARK VINA RESULT:    -4.662      1.862      5.338
REMARK INTER + INTRA:         -13.770
REMARK INTER:                 -10.692
REMARK INTRA:                  -3.078
REMARK UNBOUND:                -3.658
REMARK SMILES CCCCCCCCCCCCCCCCCCCCCC(=O)[O-]
REMARK SMILES IDX 12 1 11 2 10 3 9 4 8 5 7 6 6 7 5 8 4 9 3 10 2 11 1 12 13 13
REMARK SMILES IDX 14 14 15 15 16 16 17 17 18 18 19 19 20 20 21 21 22 22 23 23
REMARK SMILES IDX 24 24
REMARK H PARENT
REMARK Flexibility Score: inf
ROOT
ATOM      1  C   UNL     1      14.623 -33.745  19.647  1.00  0.00     0.000 C 
ENDROOT
BRANCH   1   2
ATOM      2  C   UNL     1      15.154 -35.125  20.077  1.00  0.00     0.000 C 
BRANCH   2   3
ATOM      3  C   UNL     1      16.619 -35.350  19.677  1.00  0.00     0.000 C 
BRANCH   3   4
ATOM      4  C   UNL     1      17.227 -34.078  19.067  1.00  0.00    -0.000 C 
BRANCH   4   5
ATOM      5  C   UNL     1      18.566 -33.690  19.720  1.00  0.00    -0.000 C 
BRANCH   5   6
ATOM      6  C   UNL     1      18.456 -32.716  20.912  1.00  0.00    -0.000 C 
BRANCH   6   7
ATOM      7  C   UNL     1      17.549 -31.493  20.680  1.00  0.00    -0.000 C 
BRANCH   7   8
ATOM      8  C   UNL     1      18.111 -30.209  21.312  1.00  0.00    -0.000 C 
BRANCH   8   9
ATOM      9  C   UNL     1      19.071 -30.484  22.485  1.00  0.00    -0.000 C 
BRANCH   9  10
ATOM     10  C   UNL     1      20.533 -30.058  22.253  1.00  0.00    -0.000 C 
BRANCH  10  11
ATOM     11  C   UNL     1      20.754 -29.391  20.888  1.00  0.00    -0.003 C 
ATOM     12  C   UNL     1      21.146 -27.925  21.047  1.00  0.00     0.004 C 
ENDBRANCH  10  11
ENDBRANCH   9  10
ENDBRANCH   8   9
ENDBRANCH   7   8
ENDBRANCH   6   7
ENDBRANCH   5   6
ENDBRANCH   4   5
ENDBRANCH   3   4
ENDBRANCH   2   3
ENDBRANCH   1   2
BRANCH   1  13
ATOM     13  C   UNL     1      14.242 -32.807  20.809  1.00  0.00     0.000 C 
BRANCH  13  14
ATOM     14  C   UNL     1      13.175 -31.774  20.414  1.00  0.00     0.000 C 
BRANCH  14  15
ATOM     15  C   UNL     1      12.773 -30.911  21.619  1.00  0.00     0.000 C 
BRANCH  15  16
ATOM     16  C   UNL     1      13.978 -30.221  22.286  1.00  0.00     0.000 C 
BRANCH  16  17
ATOM     17  C   UNL     1      14.170 -30.552  23.781  1.00  0.00     0.000 C 
BRANCH  17  18
ATOM     18  C   UNL     1      13.632 -31.928  24.225  1.00  0.00     0.000 C 
BRANCH  18  19
ATOM     19  C   UNL     1      14.691 -33.044  24.302  1.00  0.00     0.000 C 
BRANCH  19  20
ATOM     20  C   UNL     1      16.097 -32.549  23.932  1.00  0.00     0.006 C 
BRANCH  20  21
ATOM     21  C   UNL     1      17.196 -33.332  24.663  1.00  0.00     0.053 C 
BRANCH  21  22
ATOM     22  C   UNL     1      17.116 -34.797  24.356  1.00  0.00     0.041 C 
ATOM     23  O   UNL     1      17.231 -35.207  23.169  1.00  0.00    -0.550 OA
ATOM     24  O   UNL     1      16.949 -35.711  25.390  1.00  0.00    -0.550 OA
ENDBRANCH  21  22
ENDBRANCH  20  21
ENDBRANCH  19  20
ENDBRANCH  18  19
ENDBRANCH  17  18
ENDBRANCH  16  17
ENDBRANCH  15  16
ENDBRANCH  14  15
ENDBRANCH  13  14
ENDBRANCH   1  13
TORSDOF 20
ENDMDL
MODEL 5
REMARK VINA RESULT:    -4.645      1.338      3.256
REMARK INTER + INTRA:         -13.734
REMARK INTER:                 -10.763
REMARK INTRA:                  -2.971
REMARK UNBOUND:                -3.658
REMARK SMILES CCCCCCCCCCCCCCCCCCCCCC(=O)[O-]
REMARK SMILES IDX 12 1 11 2 10 3 9 4 8 5 7 6 6 7 5 8 4 9 3 10 2 11 1 12 13 13
REMARK SMILES IDX 14 14 15 15 16 16 17 17 18 18 19 19 20 20 21 21 22 22 23 23
REMARK SMILES IDX 24 24
REMARK H PARENT
REMARK Flexibility Score: inf
ROOT
ATOM      1  C   UNL     1      15.982 -34.052  19.717  1.00  0.00     0.000 C 
ENDROOT
BRANCH   1   2
ATOM      2  C   UNL     1      14.509 -33.624  19.843  1.00  0.00     0.000 C 
BRANCH   2   3
ATOM      3  C   UNL     1      14.269 -32.653  21.009  1.00  0.00     0.000 C 
BRANCH   3   4
ATOM      4  C   UNL     1      14.762 -33.250  22.335  1.00  0.00    -0.000 C 
BRANCH   4   5
ATOM      5  C   UNL     1      14.374 -32.390  23.552  1.00  0.00    -0.000 C 
BRANCH   5   6
ATOM      6  C   UNL     1      13.505 -31.156  23.231  1.00  0.00    -0.000 C 
BRANCH   6   7
ATOM      7  C   UNL     1      14.161 -29.794  23.525  1.00  0.00    -0.000 C 
BRANCH   7   8
ATOM      8  C   UNL     1      15.681 -29.804  23.287  1.00  0.00    -0.000 C 
BRANCH   8   9
ATOM      9  C   UNL     1      16.063 -29.532  21.819  1.00  0.00    -0.000 C 
BRANCH   9  10
ATOM     10  C   UNL     1      17.487 -29.963  21.420  1.00  0.00    -0.000 C 
BRANCH  10  11
ATOM     11  C   UNL     1      17.798 -31.421  21.786  1.00  0.00    -0.003 C 
ATOM     12  C   UNL     1      18.808 -32.030  20.818  1.00  0.00     0.004 C 
ENDBRANCH  10  11
ENDBRANCH   9  10
ENDBRANCH   8   9
ENDBRANCH   7   8
ENDBRANCH   6   7
ENDBRANCH   5   6
ENDBRANCH   4   5
ENDBRANCH   3   4
ENDBRANCH   2   3
ENDBRANCH   1   2
BRANCH   1  13
ATOM     13  C   UNL     1      16.230 -35.567  19.849  1.00  0.00     0.000 C 
BRANCH  13  14
ATOM     14  C   UNL     1      17.722 -35.918  19.962  1.00  0.00     0.000 C 
BRANCH  14  15
ATOM     15  C   UNL     1      17.939 -37.084  20.938  1.00  0.00     0.000 C 
BRANCH  15  16
ATOM     16  C   UNL     1      18.688 -36.658  22.216  1.00  0.00     0.000 C 
BRANCH  16  17
ATOM     17  C   UNL     1      18.351 -35.239  22.722  1.00  0.00     0.000 C 
BRANCH  17  18
ATOM     18  C   UNL     1      17.400 -35.180  23.935  1.00  0.00     0.000 C 
BRANCH  18  19
ATOM     19  C   UNL     1      18.097 -35.005  25.298  1.00  0.00     0.000 C 
BRANCH  19  20
ATOM     20  C   UNL     1      19.082 -36.142  25.608  1.00  0.00     0.006 C 
BRANCH  20  21
ATOM     21  C   UNL     1      18.365 -37.478  25.846  1.00  0.00     0.053 C 
BRANCH  21  22
ATOM     22  C   UNL     1      17.491 -37.417  27.061  1.00  0.00     0.041 C 
ATOM     23  O   UNL     1      16.237 -37.489  26.951  1.00  0.00    -0.550 OA
ATOM     24  O   UNL     1      18.068 -37.313  28.322  1.00  0.00    -0.550 OA
ENDBRANCH  21  22
ENDBRANCH  20  21
ENDBRANCH  19  20
ENDBRANCH  18  19
ENDBRANCH  17  18
ENDBRANCH  16  17
ENDBRANCH  15  16
ENDBRANCH  14  15
ENDBRANCH  13  14
ENDBRANCH   1  13
TORSDOF 20
ENDMDL
MODEL 6
REMARK VINA RESULT:    -4.558      4.790      7.529
REMARK INTER + INTRA:         -13.545
REMARK INTER:                 -10.516
REMARK INTRA:                  -3.029
REMARK UNBOUND:                -3.658
REMARK SMILES CCCCCCCCCCCCCCCCCCCCCC(=O)[O-]
REMARK SMILES IDX 12 1 11 2 10 3 9 4 8 5 7 6 6 7 5 8 4 9 3 10 2 11 1 12 13 13
REMARK SMILES IDX 14 14 15 15 16 16 17 17 18 18 19 19 20 20 21 21 22 22 23 23
REMARK SMILES IDX 24 24
REMARK H PARENT
REMARK Flexibility Score: inf
ROOT
ATOM      1  C   UNL     1      15.780 -29.466  22.689  1.00  0.00     0.000 C 
ENDROOT
BRANCH   1   2
ATOM      2  C   UNL     1      14.469 -29.892  23.375  1.00  0.00     0.000 C 
BRANCH   2   3
ATOM      3  C   UNL     1      13.901 -31.202  22.810  1.00  0.00     0.000 C 
BRANCH   3   4
ATOM      4  C   UNL     1      13.338 -30.997  21.396  1.00  0.00    -0.000 C 
BRANCH   4   5
ATOM      5  C   UNL     1      13.579 -32.212  20.481  1.00  0.00    -0.000 C 
BRANCH   5   6
ATOM      6  C   UNL     1      14.662 -33.196  20.970  1.00  0.00    -0.000 C 
BRANCH   6   7
ATOM      7  C   UNL     1      15.057 -34.293  19.964  1.00  0.00    -0.000 C 
BRANCH   7   8
ATOM      8  C   UNL     1      16.179 -35.204  20.489  1.00  0.00    -0.000 C 
BRANCH   8   9
ATOM      9  C   UNL     1      17.161 -34.475  21.425  1.00  0.00    -0.000 C 
BRANCH   9  10
ATOM     10  C   UNL     1      17.219 -35.012  22.868  1.00  0.00    -0.000 C 
BRANCH  10  11
ATOM     11  C   UNL     1      17.327 -33.898  23.919  1.00  0.00    -0.003 C 
ATOM     12  C   UNL     1      15.987 -33.654  24.605  1.00  0.00     0.004 C 
ENDBRANCH  10  11
ENDBRANCH   9  10
ENDBRANCH   8   9
ENDBRANCH   7   8
ENDBRANCH   6   7
ENDBRANCH   5   6
ENDBRANCH   4   5
ENDBRANCH   3   4
ENDBRANCH   2   3
ENDBRANCH   1   2
BRANCH   1  13
ATOM     13  C   UNL     1      16.827 -30.587  22.540  1.00  0.00     0.000 C 
BRANCH  13  14
ATOM     14  C   UNL     1      17.385 -30.693  21.113  1.00  0.00     0.000 C 
BRANCH  14  15
ATOM     15  C   UNL     1      18.815 -31.254  21.122  1.00  0.00     0.000 C 
BRANCH  15  16
ATOM     16  C   UNL     1      19.567 -30.943  22.430  1.00  0.00     0.000 C 
BRANCH  16  17
ATOM     17  C   UNL     1      20.754 -29.968  22.280  1.00  0.00     0.000 C 
BRANCH  17  18
ATOM     18  C   UNL     1      20.873 -29.282  20.904  1.00  0.00     0.000 C 
BRANCH  18  19
ATOM     19  C   UNL     1      20.360 -27.831  20.856  1.00  0.00     0.000 C 
BRANCH  19  20
ATOM     20  C   UNL     1      21.148 -26.896  21.785  1.00  0.00     0.006 C 
BRANCH  20  21
ATOM     21  C   UNL     1      22.661 -26.984  21.546  1.00  0.00     0.053 C 
BRANCH  21  22
ATOM     22  C   UNL     1      23.066 -26.206  20.331  1.00  0.00     0.041 C 
ATOM     23  O   UNL     1      22.964 -24.949  20.315  1.00  0.00    -0.550 OA
ATOM     24  O   UNL     1      23.590 -26.871  19.229  1.00  0.00    -0.550 OA
ENDBRANCH  21  22
ENDBRANCH  20  21
ENDBRANCH  19  20
ENDBRANCH  18  19
ENDBRANCH  17  18
ENDBRANCH  16  17
ENDBRANCH  15  16
ENDBRANCH  14  15
ENDBRANCH  13  14
ENDBRANCH   1  13
TORSDOF 20
ENDMDL
MODEL 7
REMARK VINA RESULT:    -4.524      4.280      7.273
REMARK INTER + INTRA:         -13.472
REMARK INTER:                 -10.282
REMARK INTRA:                  -3.190
REMARK UNBOUND:                -3.658
REMARK SMILES CCCCCCCCCCCCCCCCCCCCCC(=O)[O-]
REMARK SMILES IDX 12 1 11 2 10 3 9 4 8 5 7 6 6 7 5 8 4 9 3 10 2 11 1 12 13 13
REMARK SMILES IDX 14 14 15 15 16 16 17 17 18 18 19 19 20 20 21 21 22 22 23 23
REMARK SMILES IDX 24 24
REMARK H PARENT
REMARK Flexibility Score: inf
ROOT
ATOM      1  C   UNL     1      13.826 -31.580  22.855  1.00  0.00     0.000 C 
ENDROOT
BRANCH   1   2
ATOM      2  C   UNL     1      13.502 -31.289  21.379  1.00  0.00     0.000 C 
BRANCH   2   3
ATOM      3  C   UNL     1      13.797 -32.483  20.458  1.00  0.00     0.000 C 
BRANCH   3   4
ATOM      4  C   UNL     1      14.858 -33.406  21.074  1.00  0.00    -0.000 C 
BRANCH   4   5
ATOM      5  C   UNL     1      15.071 -34.692  20.254  1.00  0.00    -0.000 C 
BRANCH   5   6
ATOM      6  C   UNL     1      16.472 -34.844  19.626  1.00  0.00    -0.000 C 
BRANCH   6   7
ATOM      7  C   UNL     1      17.520 -33.820  20.100  1.00  0.00    -0.000 C 
BRANCH   7   8
ATOM      8  C   UNL     1      18.530 -34.419  21.094  1.00  0.00    -0.000 C 
BRANCH   8   9
ATOM      9  C   UNL     1      18.202 -34.086  22.562  1.00  0.00    -0.000 C 
BRANCH   9  10
ATOM     10  C   UNL     1      17.297 -35.103  23.282  1.00  0.00    -0.000 C 
BRANCH  10  11
ATOM     11  C   UNL     1      17.292 -34.927  24.807  1.00  0.00    -0.003 C 
ATOM     12  C   UNL     1      18.335 -33.905  25.248  1.00  0.00     0.004 C 
ENDBRANCH  10  11
ENDBRANCH   9  10
ENDBRANCH   8   9
ENDBRANCH   7   8
ENDBRANCH   6   7
ENDBRANCH   5   6
ENDBRANCH   4   5
ENDBRANCH   3   4
ENDBRANCH   2   3
ENDBRANCH   1   2
BRANCH   1  13
ATOM     13  C   UNL     1      14.811 -30.592  23.509  1.00  0.00     0.000 C 
BRANCH  13  14
ATOM     14  C   UNL     1      16.174 -31.229  23.819  1.00  0.00     0.000 C 
BRANCH  14  15
ATOM     15  C   UNL     1      17.307 -30.474  23.107  1.00  0.00     0.000 C 
BRANCH  15  16
ATOM     16  C   UNL     1      17.136 -30.450  21.576  1.00  0.00     0.000 C 
BRANCH  16  17
ATOM     17  C   UNL     1      18.456 -30.419  20.776  1.00  0.00     0.000 C 
BRANCH  17  18
ATOM     18  C   UNL     1      19.718 -30.811  21.571  1.00  0.00     0.000 C 
BRANCH  18  19
ATOM     19  C   UNL     1      20.668 -29.644  21.896  1.00  0.00     0.000 C 
BRANCH  19  20
ATOM     20  C   UNL     1      20.870 -28.697  20.703  1.00  0.00     0.006 C 
BRANCH  20  21
ATOM     21  C   UNL     1      20.100 -27.380  20.874  1.00  0.00     0.053 C 
BRANCH  21  22
ATOM     22  C   UNL     1      20.961 -26.201  20.537  1.00  0.00     0.041 C 
ATOM     23  O   UNL     1      20.504 -25.256  19.838  1.00  0.00    -0.550 OA
ATOM     24  O   UNL     1      22.260 -26.132  21.028  1.00  0.00    -0.550 OA
ENDBRANCH  21  22
ENDBRANCH  20  21
ENDBRANCH  19  20
ENDBRANCH  18  19
ENDBRANCH  17  18
ENDBRANCH  16  17
ENDBRANCH  15  16
ENDBRANCH  14  15
ENDBRANCH  13  14
ENDBRANCH   1  13
TORSDOF 20
ENDMDL
MODEL 8
REMARK VINA RESULT:    -4.523      3.204      5.581
REMARK INTER + INTRA:         -13.470
REMARK INTER:                 -10.826
REMARK INTRA:                  -2.644
REMARK UNBOUND:                -3.658
REMARK SMILES CCCCCCCCCCCCCCCCCCCCCC(=O)[O-]
REMARK SMILES IDX 12 1 11 2 10 3 9 4 8 5 7 6 6 7 5 8 4 9 3 10 2 11 1 12 13 13
REMARK SMILES IDX 14 14 15 15 16 16 17 17 18 18 19 19 20 20 21 21 22 22 23 23
REMARK SMILES IDX 24 24
REMARK H PARENT
REMARK Flexibility Score: inf
ROOT
ATOM      1  C   UNL     1      16.072 -29.850  22.744  1.00  0.00     0.000 C 
ENDROOT
BRANCH   1   2
ATOM      2  C   UNL     1      16.979 -30.727  23.625  1.00  0.00     0.000 C 
BRANCH   2   3
ATOM      3  C   UNL     1      17.586 -31.912  22.859  1.00  0.00     0.000 C 
BRANCH   3   4
ATOM      4  C   UNL     1      17.681 -31.609  21.356  1.00  0.00    -0.000 C 
BRANCH   4   5
ATOM      5  C   UNL     1      19.122 -31.312  20.902  1.00  0.00    -0.000 C 
BRANCH   5   6
ATOM      6  C   UNL     1      20.129 -31.058  22.043  1.00  0.00    -0.000 C 
BRANCH   6   7
ATOM      7  C   UNL     1      20.623 -29.605  22.174  1.00  0.00    -0.000 C 
BRANCH   7   8
ATOM      8  C   UNL     1      20.658 -28.866  20.825  1.00  0.00    -0.000 C 
BRANCH   8   9
ATOM      9  C   UNL     1      19.682 -27.676  20.764  1.00  0.00    -0.000 C 
BRANCH   9  10
ATOM     10  C   UNL     1      20.326 -26.311  20.458  1.00  0.00    -0.000 C 
BRANCH  10  11
ATOM     11  C   UNL     1      19.999 -25.243  21.512  1.00  0.00    -0.003 C 
ATOM     12  C   UNL     1      21.107 -25.139  22.555  1.00  0.00     0.004 C 
ENDBRANCH  10  11
ENDBRANCH   9  10
ENDBRANCH   8   9
ENDBRANCH   7   8
ENDBRANCH   6   7
ENDBRANCH   5   6
ENDBRANCH   4   5
ENDBRANCH   3   4
ENDBRANCH   2   3
ENDBRANCH   1   2
BRANCH   1  13
ATOM     13  C   UNL     1      14.574 -29.903  23.101  1.00  0.00     0.000 C 
BRANCH  13  14
ATOM     14  C   UNL     1      13.947 -31.279  22.834  1.00  0.00     0.000 C 
BRANCH  14  15
ATOM     15  C   UNL     1      13.277 -31.319  21.452  1.00  0.00     0.000 C 
BRANCH  15  16
ATOM     16  C   UNL     1      13.887 -32.388  20.526  1.00  0.00     0.000 C 
BRANCH  16  17
ATOM     17  C   UNL     1      14.665 -33.507  21.250  1.00  0.00     0.000 C 
BRANCH  17  18
ATOM     18  C   UNL     1      15.112 -34.682  20.357  1.00  0.00     0.000 C 
BRANCH  18  19
ATOM     19  C   UNL     1      16.271 -34.362  19.395  1.00  0.00     0.000 C 
BRANCH  19  20
ATOM     20  C   UNL     1      17.358 -35.447  19.400  1.00  0.00     0.006 C 
BRANCH  20  21
ATOM     21  C   UNL     1      17.263 -36.355  20.634  1.00  0.00     0.053 C 
BRANCH  21  22
ATOM     22  C   UNL     1      18.406 -36.117  21.573  1.00  0.00     0.041 C 
ATOM     23  O   UNL     1      18.952 -34.982  21.640  1.00  0.00    -0.550 OA
ATOM     24  O   UNL     1      18.846 -37.145  22.399  1.00  0.00    -0.550 OA
ENDBRANCH  21  22
ENDBRANCH  20  21
ENDBRANCH  19  20
ENDBRANCH  18  19
ENDBRANCH  17  18
ENDBRANCH  16  17
ENDBRANCH  15  16
ENDBRANCH  14  15
ENDBRANCH  13  14
ENDBRANCH   1  13
TORSDOF 20
ENDMDL
MODEL 9
REMARK VINA RESULT:    -4.515      2.108      5.677
REMARK INTER + INTRA:         -13.452
REMARK INTER:                 -10.479
REMARK INTRA:                  -2.973
REMARK UNBOUND:                -3.658
REMARK SMILES CCCCCCCCCCCCCCCCCCCCCC(=O)[O-]
REMARK SMILES IDX 12 1 11 2 10 3 9 4 8 5 7 6 6 7 5 8 4 9 3 10 2 11 1 12 13 13
REMARK SMILES IDX 14 14 15 15 16 16 17 17 18 18 19 19 20 20 21 21 22 22 23 23
REMARK SMILES IDX 24 24
REMARK H PARENT
REMARK Flexibility Score: inf
ROOT
ATOM      1  C   UNL     1      16.836 -35.254  19.626  1.00  0.00     0.000 C 
ENDROOT
BRANCH   1   2
ATOM      2  C   UNL     1      17.695 -33.994  19.840  1.00  0.00     0.000 C 
BRANCH   2   3
ATOM      3  C   UNL     1      18.349 -33.950  21.229  1.00  0.00     0.000 C 
BRANCH   3   4
ATOM      4  C   UNL     1      18.413 -35.351  21.855  1.00  0.00    -0.000 C 
BRANCH   4   5
ATOM      5  C   UNL     1      18.351 -35.315  23.393  1.00  0.00    -0.000 C 
BRANCH   5   6
ATOM      6  C   UNL     1      16.966 -34.984  23.986  1.00  0.00    -0.000 C 
BRANCH   6   7
ATOM      7  C   UNL     1      16.870 -35.069  25.520  1.00  0.00    -0.000 C 
BRANCH   7   8
ATOM      8  C   UNL     1      18.013 -35.887  26.143  1.00  0.00    -0.000 C 
BRANCH   8   9
ATOM      9  C   UNL     1      17.594 -37.322  26.517  1.00  0.00    -0.000 C 
BRANCH   9  10
ATOM     10  C   UNL     1      16.141 -37.477  27.005  1.00  0.00    -0.000 C 
BRANCH  10  11
ATOM     11  C   UNL     1      16.041 -38.125  28.394  1.00  0.00    -0.003 C 
ATOM     12  C   UNL     1      17.186 -37.675  29.296  1.00  0.00     0.004 C 
ENDBRANCH  10  11
ENDBRANCH   9  10
ENDBRANCH   8   9
ENDBRANCH   7   8
ENDBRANCH   6   7
ENDBRANCH   5   6
ENDBRANCH   4   5
ENDBRANCH   3   4
ENDBRANCH   2   3
ENDBRANCH   1   2
BRANCH   1  13
ATOM     13  C   UNL     1      15.387 -35.145  20.140  1.00  0.00     0.000 C 
BRANCH  13  14
ATOM     14  C   UNL     1      14.818 -33.723  20.018  1.00  0.00     0.000 C 
BRANCH  14  15
ATOM     15  C   UNL     1      14.552 -33.117  21.404  1.00  0.00     0.000 C 
BRANCH  15  16
ATOM     16  C   UNL     1      13.850 -31.747  21.329  1.00  0.00     0.000 C 
BRANCH  16  17
ATOM     17  C   UNL     1      14.775 -30.531  21.552  1.00  0.00     0.000 C 
BRANCH  17  18
ATOM     18  C   UNL     1      16.277 -30.796  21.326  1.00  0.00     0.000 C 
BRANCH  18  19
ATOM     19  C   UNL     1      17.185 -30.446  22.520  1.00  0.00     0.000 C 
BRANCH  19  20
ATOM     20  C   UNL     1      16.971 -31.384  23.718  1.00  0.00     0.006 C 
BRANCH  20  21
ATOM     21  C   UNL     1      17.816 -30.972  24.931  1.00  0.00     0.053 C 
BRANCH  21  22
ATOM     22  C   UNL     1      18.955 -31.921  25.147  1.00  0.00     0.041 C 
ATOM     23  O   UNL     1      19.144 -32.446  26.278  1.00  0.00    -0.550 OA
ATOM     24  O   UNL     1      19.789 -32.251  24.085  1.00  0.00    -0.550 OA
ENDBRANCH  21  22
ENDBRANCH  20  21
ENDBRANCH  19  20
ENDBRANCH  18  19
ENDBRANCH  17  18
ENDBRANCH  16  17
ENDBRANCH  15  16
ENDBRANCH  14  15
ENDBRANCH  13  14
ENDBRANCH   1  13
TORSDOF 20
ENDMDL
