MODEL 1
REMARK VINA RESULT:    -0.734      0.000      0.000
REMARK INTER + INTRA:          -2.050
REMARK INTER:                  -1.677
REMARK INTRA:                  -0.373
REMARK UNBOUND:                -0.373
REMARK SMILES CCCCCCCCCCCCCCCCCCCCCCCC(=O)[O-]
REMARK SMILES IDX 13 1 14 2 15 3 16 4 17 5 18 6 19 7 20 8 21 9 22 10 23 11
REMARK SMILES IDX 24 12 25 13 26 14 12 15 11 16 10 17 9 18 8 19 7 20 6 21 5 22
REMARK SMILES IDX 4 23 3 24 2 25 1 26
REMARK H PARENT
REMARK Flexibility Score: inf
ROOT
ATOM      1  C   UNL     1      -9.521   8.246   4.814  1.00  0.00     0.000 C 
ENDROOT
BRANCH   1   2
ATOM      2  C   UNL     1      -9.892   8.333   6.304  1.00  0.00     0.000 C 
BRANCH   2   3
ATOM      3  C   UNL     1      -9.558   7.045   7.077  1.00  0.00     0.000 C 
BRANCH   3   4
ATOM      4  C   UNL     1      -9.621   7.231   8.603  1.00  0.00     0.000 C 
BRANCH   4   5
ATOM      5  C   UNL     1      -9.382   5.947   9.417  1.00  0.00     0.000 C 
BRANCH   5   6
ATOM      6  C   UNL     1      -8.690   4.841   8.601  1.00  0.00     0.000 C 
BRANCH   6   7
ATOM      7  C   UNL     1      -7.357   5.307   7.994  1.00  0.00     0.000 C 
BRANCH   7   8
ATOM      8  C   UNL     1      -6.193   5.202   8.994  1.00  0.00     0.000 C 
BRANCH   8   9
ATOM      9  C   UNL     1      -6.032   6.465   9.857  1.00  0.00     0.000 C 
BRANCH   9  10
ATOM     10  C   UNL     1      -4.601   7.046   9.846  1.00  0.00     0.006 C 
BRANCH  10  11
ATOM     11  C   UNL     1      -4.470   8.268   8.922  1.00  0.00     0.053 C 
BRANCH  11  12
ATOM     12  C   UNL     1      -5.814   8.859   8.628  1.00  0.00     0.041 C 
ATOM     13  O   UNL     1      -6.253   8.887   7.446  1.00  0.00    -0.550 OA
ATOM     14  O   UNL     1      -6.581   9.389   9.660  1.00  0.00    -0.550 OA
ENDBRANCH  11  12
ENDBRANCH  10  11
ENDBRANCH   9  10
ENDBRANCH   8   9
ENDBRANCH   7   8
ENDBRANCH   6   7
ENDBRANCH   5   6
ENDBRANCH   4   5
ENDBRANCH   3   4
ENDBRANCH   2   3
ENDBRANCH   1   2
BRANCH   1  15
ATOM     15  C   UNL     1      -8.035   8.552   4.561  1.00  0.00     0.000 C 
BRANCH  15  16
ATOM     16  C   UNL     1      -7.804   9.984   4.048  1.00  0.00     0.000 C 
BRANCH  16  17
ATOM     17  C   UNL     1      -7.649  10.052   2.522  1.00  0.00     0.000 C 
BRANCH  17  18
ATOM     18  C   UNL     1      -8.459   8.938   1.842  1.00  0.00    -0.000 C 
BRANCH  18  19
ATOM     19  C   UNL     1      -9.554   9.477   0.906  1.00  0.00    -0.000 C 
BRANCH  19  20
ATOM     20  C   UNL     1      -9.202   9.449  -0.595  1.00  0.00    -0.000 C 
BRANCH  20  21
ATOM     21  C   UNL     1      -9.755   8.220  -1.349  1.00  0.00    -0.000 C 
BRANCH  21  22
ATOM     22  C   UNL     1      -9.754   8.420  -2.876  1.00  0.00    -0.000 C 
BRANCH  22  23
ATOM     23  C   UNL     1     -10.115   7.138  -3.649  1.00  0.00    -0.000 C 
BRANCH  23  24
ATOM     24  C   UNL     1      -9.994   5.834  -2.841  1.00  0.00    -0.000 C 
BRANCH  24  25
ATOM     25  C   UNL     1      -9.671   4.615  -3.718  1.00  0.00    -0.003 C 
ATOM     26  C   UNL     1     -10.068   4.864  -5.171  1.00  0.00     0.004 C 
ENDBRANCH  24  25
ENDBRANCH  23  24
ENDBRANCH  22  23
ENDBRANCH  21  22
ENDBRANCH  20  21
ENDBRANCH  19  20
ENDBRANCH  18  19
ENDBRANCH  17  18
ENDBRANCH  16  17
ENDBRANCH  15  16
ENDBRANCH   1  15
TORSDOF 22
ENDMDL
MODEL 2
REMARK VINA RESULT:    -0.429      2.497      9.094
REMARK INTER + INTRA:          -1.353
REMARK INTER:                  -2.331
REMARK INTRA:                   0.978
REMARK UNBOUND:                -0.373
REMARK SMILES CCCCCCCCCCCCCCCCCCCCCCCC(=O)[O-]
REMARK SMILES IDX 13 1 14 2 15 3 16 4 17 5 18 6 19 7 20 8 21 9 22 10 23 11
REMARK SMILES IDX 24 12 25 13 26 14 12 15 11 16 10 17 9 18 8 19 7 20 6 21 5 22
REMARK SMILES IDX 4 23 3 24 2 25 1 26
REMARK H PARENT
REMARK Flexibility Score: inf
ROOT
ATOM      1  C   UNL     1      -8.536   7.243   4.786  1.00  0.00     0.000 C 
ENDROOT
BRANCH   1   2
ATOM      2  C   UNL     1      -9.320   8.543   5.029  1.00  0.00     0.000 C 
BRANCH   2   3
ATOM      3  C   UNL     1     -10.124   8.993   3.797  1.00  0.00     0.000 C 
BRANCH   3   4
ATOM      4  C   UNL     1      -9.531   8.473   2.475  1.00  0.00     0.000 C 
BRANCH   4   5
ATOM      5  C   UNL     1     -10.037   9.197   1.215  1.00  0.00     0.000 C 
BRANCH   5   6
ATOM      6  C   UNL     1      -9.366   8.694  -0.075  1.00  0.00     0.000 C 
BRANCH   6   7
ATOM      7  C   UNL     1      -8.453   9.754  -0.713  1.00  0.00     0.000 C 
BRANCH   7   8
ATOM      8  C   UNL     1      -7.269  10.125   0.195  1.00  0.00     0.000 C 
BRANCH   8   9
ATOM      9  C   UNL     1      -7.295   9.384   1.543  1.00  0.00     0.000 C 
BRANCH   9  10
ATOM     10  C   UNL     1      -5.895   8.993   2.064  1.00  0.00     0.006 C 
BRANCH  10  11
ATOM     11  C   UNL     1      -5.292  10.062   2.990  1.00  0.00     0.053 C 
BRANCH  11  12
ATOM     12  C   UNL     1      -5.986  10.069   4.317  1.00  0.00     0.041 C 
ATOM     13  O   UNL     1      -7.245  10.033   4.378  1.00  0.00    -0.550 OA
ATOM     14  O   UNL     1      -5.242  10.123   5.490  1.00  0.00    -0.550 OA
ENDBRANCH  11  12
ENDBRANCH  10  11
ENDBRANCH   9  10
ENDBRANCH   8   9
ENDBRANCH   7   8
ENDBRANCH   6   7
ENDBRANCH   5   6
ENDBRANCH   4   5
ENDBRANCH   3   4
ENDBRANCH   2   3
ENDBRANCH   1   2
BRANCH   1  15
ATOM     15  C   UNL     1      -8.936   6.125   5.763  1.00  0.00     0.000 C 
BRANCH  15  16
ATOM     16  C   UNL     1     -10.111   6.523   6.672  1.00  0.00     0.000 C 
BRANCH  16  17
ATOM     17  C   UNL     1      -9.892   6.120   8.137  1.00  0.00     0.000 C 
BRANCH  17  18
ATOM     18  C   UNL     1      -8.615   5.278   8.287  1.00  0.00    -0.000 C 
BRANCH  18  19
ATOM     19  C   UNL     1      -8.416   4.736   9.712  1.00  0.00    -0.000 C 
BRANCH  19  20
ATOM     20  C   UNL     1      -7.293   3.690   9.862  1.00  0.00    -0.000 C 
BRANCH  20  21
ATOM     21  C   UNL     1      -5.892   4.299  10.088  1.00  0.00    -0.000 C 
BRANCH  21  22
ATOM     22  C   UNL     1      -5.919   5.837  10.121  1.00  0.00    -0.000 C 
BRANCH  22  23
ATOM     23  C   UNL     1      -4.875   6.477   9.187  1.00  0.00    -0.000 C 
BRANCH  23  24
ATOM     24  C   UNL     1      -5.241   7.876   8.663  1.00  0.00    -0.000 C 
BRANCH  24  25
ATOM     25  C   UNL     1      -6.615   8.358   9.152  1.00  0.00    -0.003 C 
ATOM     26  C   UNL     1      -7.176   9.440   8.232  1.00  0.00     0.004 C 
ENDBRANCH  24  25
ENDBRANCH  23  24
ENDBRANCH  22  23
ENDBRANCH  21  22
ENDBRANCH  20  21
ENDBRANCH  19  20
ENDBRANCH  18  19
ENDBRANCH  17  18
ENDBRANCH  16  17
ENDBRANCH  15  16
ENDBRANCH   1  15
TORSDOF 22
ENDMDL
MODEL 3
REMARK VINA RESULT:    -0.289      3.271      4.615
REMARK INTER + INTRA:          -1.034
REMARK INTER:                  -3.554
REMARK INTRA:                   2.520
REMARK UNBOUND:                -0.373
REMARK SMILES CCCCCCCCCCCCCCCCCCCCCCCC(=O)[O-]
REMARK SMILES IDX 13 1 14 2 15 3 16 4 17 5 18 6 19 7 20 8 21 9 22 10 23 11
REMARK SMILES IDX 24 12 25 13 26 14 12 15 11 16 10 17 9 18 8 19 7 20 6 21 5 22
REMARK SMILES IDX 4 23 3 24 2 25 1 26
REMARK H PARENT
REMARK Flexibility Score: inf
ROOT
ATOM      1  C   UNL     1      -8.712   8.374   6.504  1.00  0.00     0.000 C 
ENDROOT
BRANCH   1   2
ATOM      2  C   UNL     1      -9.591   9.619   6.707  1.00  0.00     0.000 C 
BRANCH   2   3
ATOM      3  C   UNL     1      -9.580  10.124   8.161  1.00  0.00     0.000 C 
BRANCH   3   4
ATOM      4  C   UNL     1      -9.011   9.090   9.148  1.00  0.00     0.000 C 
BRANCH   4   5
ATOM      5  C   UNL     1      -7.959   9.646  10.124  1.00  0.00     0.000 C 
BRANCH   5   6
ATOM      6  C   UNL     1      -6.517   9.310   9.706  1.00  0.00     0.000 C 
BRANCH   6   7
ATOM      7  C   UNL     1      -6.461   8.270   8.576  1.00  0.00     0.000 C 
BRANCH   7   8
ATOM      8  C   UNL     1      -5.250   7.332   8.707  1.00  0.00     0.000 C 
BRANCH   8   9
ATOM      9  C   UNL     1      -5.506   6.158   9.669  1.00  0.00     0.000 C 
BRANCH   9  10
ATOM     10  C   UNL     1      -6.977   6.038  10.124  1.00  0.00     0.006 C 
BRANCH  10  11
ATOM     11  C   UNL     1      -7.588   4.671   9.778  1.00  0.00     0.053 C 
BRANCH  11  12
ATOM     12  C   UNL     1      -9.024   4.817   9.375  1.00  0.00     0.041 C 
ATOM     13  O   UNL     1      -9.530   4.031   8.528  1.00  0.00    -0.550 OA
ATOM     14  O   UNL     1      -9.802   5.826   9.930  1.00  0.00    -0.550 OA
ENDBRANCH  11  12
ENDBRANCH  10  11
ENDBRANCH   9  10
ENDBRANCH   8   9
ENDBRANCH   7   8
ENDBRANCH   6   7
ENDBRANCH   5   6
ENDBRANCH   4   5
ENDBRANCH   3   4
ENDBRANCH   2   3
ENDBRANCH   1   2
BRANCH   1  15
ATOM     15  C   UNL     1      -7.222   8.726   6.351  1.00  0.00     0.000 C 
BRANCH  15  16
ATOM     16  C   UNL     1      -6.990   9.935   5.429  1.00  0.00     0.000 C 
BRANCH  16  17
ATOM     17  C   UNL     1      -7.739   9.819   4.095  1.00  0.00     0.000 C 
BRANCH  17  18
ATOM     18  C   UNL     1      -6.793   9.359   2.976  1.00  0.00    -0.000 C 
BRANCH  18  19
ATOM     19  C   UNL     1      -7.002  10.125   1.658  1.00  0.00    -0.000 C 
BRANCH  19  20
ATOM     20  C   UNL     1      -8.271   9.739   0.873  1.00  0.00    -0.000 C 
BRANCH  20  21
ATOM     21  C   UNL     1      -9.562   9.742   1.721  1.00  0.00    -0.000 C 
BRANCH  21  22
ATOM     22  C   UNL     1     -10.124   8.326   1.939  1.00  0.00    -0.000 C 
BRANCH  22  23
ATOM     23  C   UNL     1     -10.116   7.897   3.418  1.00  0.00    -0.000 C 
BRANCH  23  24
ATOM     24  C   UNL     1      -9.252   6.664   3.734  1.00  0.00    -0.000 C 
BRANCH  24  25
ATOM     25  C   UNL     1      -9.796   5.837   4.908  1.00  0.00    -0.003 C 
ATOM     26  C   UNL     1      -8.851   5.898   6.106  1.00  0.00     0.004 C 
ENDBRANCH  24  25
ENDBRANCH  23  24
ENDBRANCH  22  23
ENDBRANCH  21  22
ENDBRANCH  20  21
ENDBRANCH  19  20
ENDBRANCH  18  19
ENDBRANCH  17  18
ENDBRANCH  16  17
ENDBRANCH  15  16
ENDBRANCH   1  15
TORSDOF 22
ENDMDL
MODEL 4
REMARK VINA RESULT:    -0.195      1.537      2.171
REMARK INTER + INTRA:          -0.819
REMARK INTER:                  -1.317
REMARK INTRA:                   0.499
REMARK UNBOUND:                -0.373
REMARK SMILES CCCCCCCCCCCCCCCCCCCCCCCC(=O)[O-]
REMARK SMILES IDX 13 1 14 2 15 3 16 4 17 5 18 6 19 7 20 8 21 9 22 10 23 11
REMARK SMILES IDX 24 12 25 13 26 14 12 15 11 16 10 17 9 18 8 19 7 20 6 21 5 22
REMARK SMILES IDX 4 23 3 24 2 25 1 26
REMARK H PARENT
REMARK Flexibility Score: inf
ROOT
ATOM      1  C   UNL     1      -8.866   6.909   3.506  1.00  0.00     0.000 C 
ENDROOT
BRANCH   1   2
ATOM      2  C   UNL     1      -9.420   6.792   4.936  1.00  0.00     0.000 C 
BRANCH   2   3
ATOM      3  C   UNL     1      -8.645   5.775   5.792  1.00  0.00     0.000 C 
BRANCH   3   4
ATOM      4  C   UNL     1      -9.401   5.373   7.071  1.00  0.00     0.000 C 
BRANCH   4   5
ATOM      5  C   UNL     1      -8.805   5.936   8.373  1.00  0.00     0.000 C 
BRANCH   5   6
ATOM      6  C   UNL     1      -9.125   7.426   8.583  1.00  0.00     0.000 C 
BRANCH   6   7
ATOM      7  C   UNL     1      -8.712   8.289   7.380  1.00  0.00     0.000 C 
BRANCH   7   8
ATOM      8  C   UNL     1      -7.502   9.184   7.693  1.00  0.00     0.000 C 
BRANCH   8   9
ATOM      9  C   UNL     1      -6.995   9.020   9.136  1.00  0.00     0.000 C 
BRANCH   9  10
ATOM     10  C   UNL     1      -5.474   9.233   9.288  1.00  0.00     0.006 C 
BRANCH  10  11
ATOM     11  C   UNL     1      -4.807   8.130  10.125  1.00  0.00     0.053 C 
BRANCH  11  12
ATOM     12  C   UNL     1      -4.919   6.802   9.441  1.00  0.00     0.041 C 
ATOM     13  O   UNL     1      -4.526   6.663   8.251  1.00  0.00    -0.550 OA
ATOM     14  O   UNL     1      -5.466   5.717  10.116  1.00  0.00    -0.550 OA
ENDBRANCH  11  12
ENDBRANCH  10  11
ENDBRANCH   9  10
ENDBRANCH   8   9
ENDBRANCH   7   8
ENDBRANCH   6   7
ENDBRANCH   5   6
ENDBRANCH   4   5
ENDBRANCH   3   4
ENDBRANCH   2   3
ENDBRANCH   1   2
BRANCH   1  15
ATOM     15  C   UNL     1      -7.331   7.007   3.477  1.00  0.00     0.000 C 
BRANCH  15  16
ATOM     16  C   UNL     1      -6.832   8.449   3.292  1.00  0.00     0.000 C 
BRANCH  16  17
ATOM     17  C   UNL     1      -7.958   9.426   2.923  1.00  0.00     0.000 C 
BRANCH  17  18
ATOM     18  C   UNL     1      -8.917   8.792   1.904  1.00  0.00    -0.000 C 
BRANCH  18  19
ATOM     19  C   UNL     1      -9.571   9.825   0.971  1.00  0.00    -0.000 C 
BRANCH  19  20
ATOM     20  C   UNL     1      -8.877  10.004  -0.393  1.00  0.00    -0.000 C 
BRANCH  20  21
ATOM     21  C   UNL     1      -9.835   9.937  -1.602  1.00  0.00    -0.000 C 
BRANCH  21  22
ATOM     22  C   UNL     1      -9.714   8.611  -2.374  1.00  0.00    -0.000 C 
BRANCH  22  23
ATOM     23  C   UNL     1      -9.956   7.375  -1.487  1.00  0.00    -0.000 C 
BRANCH  23  24
ATOM     24  C   UNL     1     -10.123   6.049  -2.249  1.00  0.00    -0.000 C 
BRANCH  24  25
ATOM     25  C   UNL     1      -9.863   6.188  -3.757  1.00  0.00    -0.003 C 
ATOM     26  C   UNL     1     -10.115   4.868  -4.481  1.00  0.00     0.004 C 
ENDBRANCH  24  25
ENDBRANCH  23  24
ENDBRANCH  22  23
ENDBRANCH  21  22
ENDBRANCH  20  21
ENDBRANCH  19  20
ENDBRANCH  18  19
ENDBRANCH  17  18
ENDBRANCH  16  17
ENDBRANCH  15  16
ENDBRANCH   1  15
TORSDOF 22
ENDMDL
MODEL 5
REMARK VINA RESULT:    -0.163      4.446     10.767
REMARK INTER + INTRA:          -0.745
REMARK INTER:                   1.217
REMARK INTRA:                  -1.962
REMARK UNBOUND:                -0.373
REMARK SMILES CCCCCCCCCCCCCCCCCCCCCCCC(=O)[O-]
REMARK SMILES IDX 13 1 14 2 15 3 16 4 17 5 18 6 19 7 20 8 21 9 22 10 23 11
REMARK SMILES IDX 24 12 25 13 26 14 12 15 11 16 10 17 9 18 8 19 7 20 6 21 5 22
REMARK SMILES IDX 4 23 3 24 2 25 1 26
REMARK H PARENT
REMARK Flexibility Score: inf
ROOT
ATOM      1  C   UNL     1      -9.844   8.435   6.624  1.00  0.00     0.000 C 
ENDROOT
BRANCH   1   2
ATOM      2  C   UNL     1     -10.114   9.006   5.222  1.00  0.00     0.000 C 
BRANCH   2   3
ATOM      3  C   UNL     1      -9.937   7.959   4.108  1.00  0.00     0.000 C 
BRANCH   3   4
ATOM      4  C   UNL     1      -8.518   7.956   3.512  1.00  0.00     0.000 C 
BRANCH   4   5
ATOM      5  C   UNL     1      -8.452   8.279   2.009  1.00  0.00     0.000 C 
BRANCH   5   6
ATOM      6  C   UNL     1      -9.801   8.081   1.294  1.00  0.00     0.000 C 
BRANCH   6   7
ATOM      7  C   UNL     1      -9.759   8.532  -0.174  1.00  0.00     0.000 C 
BRANCH   7   8
ATOM      8  C   UNL     1     -10.069   7.382  -1.147  1.00  0.00     0.000 C 
BRANCH   8   9
ATOM      9  C   UNL     1      -9.256   7.467  -2.450  1.00  0.00     0.000 C 
BRANCH   9  10
ATOM     10  C   UNL     1     -10.099   7.244  -3.724  1.00  0.00     0.006 C 
BRANCH  10  11
ATOM     11  C   UNL     1     -10.115   5.773  -4.168  1.00  0.00     0.053 C 
BRANCH  11  12
ATOM     12  C   UNL     1      -9.724   5.647  -5.608  1.00  0.00     0.041 C 
ATOM     13  O   UNL     1      -9.025   4.671  -5.996  1.00  0.00    -0.550 OA
ATOM     14  O   UNL     1     -10.123   6.614  -6.524  1.00  0.00    -0.550 OA
ENDBRANCH  11  12
ENDBRANCH  10  11
ENDBRANCH   9  10
ENDBRANCH   8   9
ENDBRANCH   7   8
ENDBRANCH   6   7
ENDBRANCH   5   6
ENDBRANCH   4   5
ENDBRANCH   3   4
ENDBRANCH   2   3
ENDBRANCH   1   2
BRANCH   1  15
ATOM     15  C   UNL     1      -9.091   9.427   7.527  1.00  0.00     0.000 C 
BRANCH  15  16
ATOM     16  C   UNL     1      -8.535   8.766   8.799  1.00  0.00     0.000 C 
BRANCH  16  17
ATOM     17  C   UNL     1      -7.439   9.604   9.473  1.00  0.00     0.000 C 
BRANCH  17  18
ATOM     18  C   UNL     1      -6.273   9.857   8.506  1.00  0.00    -0.000 C 
BRANCH  18  19
ATOM     19  C   UNL     1      -5.121   8.852   8.676  1.00  0.00    -0.000 C 
BRANCH  19  20
ATOM     20  C   UNL     1      -5.236   7.929   9.906  1.00  0.00    -0.000 C 
BRANCH  20  21
ATOM     21  C   UNL     1      -5.075   6.427   9.585  1.00  0.00    -0.000 C 
BRANCH  21  22
ATOM     22  C   UNL     1      -5.703   6.046   8.232  1.00  0.00    -0.000 C 
BRANCH  22  23
ATOM     23  C   UNL     1      -7.157   5.557   8.361  1.00  0.00    -0.000 C 
BRANCH  23  24
ATOM     24  C   UNL     1      -7.570   5.106   9.773  1.00  0.00    -0.000 C 
BRANCH  24  25
ATOM     25  C   UNL     1      -9.082   5.212  10.017  1.00  0.00    -0.003 C 
ATOM     26  C   UNL     1      -9.828   5.513   8.719  1.00  0.00     0.004 C 
ENDBRANCH  24  25
ENDBRANCH  23  24
ENDBRANCH  22  23
ENDBRANCH  21  22
ENDBRANCH  20  21
ENDBRANCH  19  20
ENDBRANCH  18  19
ENDBRANCH  17  18
ENDBRANCH  16  17
ENDBRANCH  15  16
ENDBRANCH   1  15
TORSDOF 22
ENDMDL
MODEL 6
REMARK VINA RESULT:     0.646      4.754      6.319
REMARK INTER + INTRA:           1.104
REMARK INTER:                   2.912
REMARK INTRA:                  -1.808
REMARK UNBOUND:                -0.373
REMARK SMILES CCCCCCCCCCCCCCCCCCCCCCCC(=O)[O-]
REMARK SMILES IDX 13 1 14 2 15 3 16 4 17 5 18 6 19 7 20 8 21 9 22 10 23 11
REMARK SMILES IDX 24 12 25 13 26 14 12 15 11 16 10 17 9 18 8 19 7 20 6 21 5 22
REMARK SMILES IDX 4 23 3 24 2 25 1 26
REMARK H PARENT
REMARK Flexibility Score: inf
ROOT
ATOM      1  C   UNL     1      -9.046  10.042   3.551  1.00  0.00     0.000 C 
ENDROOT
BRANCH   1   2
ATOM      2  C   UNL     1      -8.734   9.395   4.911  1.00  0.00     0.000 C 
BRANCH   2   3
ATOM      3  C   UNL     1      -9.792   8.362   5.336  1.00  0.00     0.000 C 
BRANCH   3   4
ATOM      4  C   UNL     1      -9.311   6.910   5.165  1.00  0.00     0.000 C 
BRANCH   4   5
ATOM      5  C   UNL     1      -8.278   6.449   6.209  1.00  0.00     0.000 C 
BRANCH   5   6
ATOM      6  C   UNL     1      -8.900   5.602   7.334  1.00  0.00     0.000 C 
BRANCH   6   7
ATOM      7  C   UNL     1      -9.855   6.416   8.221  1.00  0.00     0.000 C 
BRANCH   7   8
ATOM      8  C   UNL     1      -9.221   6.790   9.571  1.00  0.00     0.000 C 
BRANCH   8   9
ATOM      9  C   UNL     1      -8.821   8.273   9.652  1.00  0.00     0.000 C 
BRANCH   9  10
ATOM     10  C   UNL     1      -7.313   8.497   9.896  1.00  0.00     0.006 C 
BRANCH  10  11
ATOM     11  C   UNL     1      -6.499   7.199   9.776  1.00  0.00     0.053 C 
BRANCH  11  12
ATOM     12  C   UNL     1      -5.396   7.352   8.774  1.00  0.00     0.041 C 
ATOM     13  O   UNL     1      -4.531   6.444   8.635  1.00  0.00    -0.550 OA
ATOM     14  O   UNL     1      -5.317   8.503   7.999  1.00  0.00    -0.550 OA
ENDBRANCH  11  12
ENDBRANCH  10  11
ENDBRANCH   9  10
ENDBRANCH   8   9
ENDBRANCH   7   8
ENDBRANCH   6   7
ENDBRANCH   5   6
ENDBRANCH   4   5
ENDBRANCH   3   4
ENDBRANCH   2   3
ENDBRANCH   1   2
BRANCH   1  15
ATOM     15  C   UNL     1      -7.989   9.707   2.485  1.00  0.00     0.000 C 
BRANCH  15  16
ATOM     16  C   UNL     1      -6.678   9.182   3.094  1.00  0.00     0.000 C 
BRANCH  16  17
ATOM     17  C   UNL     1      -6.287   7.798   2.557  1.00  0.00     0.000 C 
BRANCH  17  18
ATOM     18  C   UNL     1      -4.821   7.786   2.095  1.00  0.00    -0.000 C 
BRANCH  18  19
ATOM     19  C   UNL     1      -4.171   6.396   2.192  1.00  0.00    -0.000 C 
BRANCH  19  20
ATOM     20  C   UNL     1      -3.224   6.036   1.030  1.00  0.00    -0.000 C 
BRANCH  20  21
ATOM     21  C   UNL     1      -1.853   5.488   1.481  1.00  0.00    -0.000 C 
BRANCH  21  22
ATOM     22  C   UNL     1      -1.782   3.952   1.408  1.00  0.00    -0.000 C 
BRANCH  22  23
ATOM     23  C   UNL     1      -0.375   3.431   1.059  1.00  0.00    -0.000 C 
BRANCH  23  24
ATOM     24  C   UNL     1       0.782   4.359   1.468  1.00  0.00    -0.000 C 
BRANCH  24  25
ATOM     25  C   UNL     1       0.998   4.413   2.988  1.00  0.00    -0.003 C 
ATOM     26  C   UNL     1       1.441   5.806   3.430  1.00  0.00     0.004 C 
ENDBRANCH  24  25
ENDBRANCH  23  24
ENDBRANCH  22  23
ENDBRANCH  21  22
ENDBRANCH  20  21
ENDBRANCH  19  20
ENDBRANCH  18  19
ENDBRANCH  17  18
ENDBRANCH  16  17
ENDBRANCH  15  16
ENDBRANCH   1  15
TORSDOF 22
ENDMDL
MODEL 7
REMARK VINA RESULT:     0.741      4.676      9.355
REMARK INTER + INTRA:           1.321
REMARK INTER:                   3.259
REMARK INTRA:                  -1.939
REMARK UNBOUND:                -0.373
REMARK SMILES CCCCCCCCCCCCCCCCCCCCCCCC(=O)[O-]
REMARK SMILES IDX 13 1 14 2 15 3 16 4 17 5 18 6 19 7 20 8 21 9 22 10 23 11
REMARK SMILES IDX 24 12 25 13 26 14 12 15 11 16 10 17 9 18 8 19 7 20 6 21 5 22
REMARK SMILES IDX 4 23 3 24 2 25 1 26
REMARK H PARENT
REMARK Flexibility Score: inf
ROOT
ATOM      1  C   UNL     1      -9.344   7.389   4.819  1.00  0.00     0.000 C 
ENDROOT
BRANCH   1   2
ATOM      2  C   UNL     1      -9.768   8.809   5.226  1.00  0.00     0.000 C 
BRANCH   2   3
ATOM      3  C   UNL     1      -9.101   9.899   4.368  1.00  0.00     0.000 C 
BRANCH   3   4
ATOM      4  C   UNL     1      -7.594   9.660   4.166  1.00  0.00     0.000 C 
BRANCH   4   5
ATOM      5  C   UNL     1      -7.238   8.833   2.918  1.00  0.00     0.000 C 
BRANCH   5   6
ATOM      6  C   UNL     1      -5.720   8.689   2.709  1.00  0.00     0.000 C 
BRANCH   6   7
ATOM      7  C   UNL     1      -5.361   7.492   1.814  1.00  0.00     0.000 C 
BRANCH   7   8
ATOM      8  C   UNL     1      -4.107   6.751   2.307  1.00  0.00     0.000 C 
BRANCH   8   9
ATOM      9  C   UNL     1      -3.334   6.064   1.168  1.00  0.00     0.000 C 
BRANCH   9  10
ATOM     10  C   UNL     1      -1.866   5.741   1.520  1.00  0.00     0.006 C 
BRANCH  10  11
ATOM     11  C   UNL     1      -1.535   4.250   1.350  1.00  0.00     0.053 C 
BRANCH  11  12
ATOM     12  C   UNL     1      -0.053   4.034   1.317  1.00  0.00     0.041 C 
ATOM     13  O   UNL     1       0.443   3.133   0.586  1.00  0.00    -0.550 OA
ATOM     14  O   UNL     1       0.782   4.823   2.099  1.00  0.00    -0.550 OA
ENDBRANCH  11  12
ENDBRANCH  10  11
ENDBRANCH   9  10
ENDBRANCH   8   9
ENDBRANCH   7   8
ENDBRANCH   6   7
ENDBRANCH   5   6
ENDBRANCH   4   5
ENDBRANCH   3   4
ENDBRANCH   2   3
ENDBRANCH   1   2
BRANCH   1  15
ATOM     15  C   UNL     1      -9.168   6.458   6.031  1.00  0.00     0.000 C 
BRANCH  15  16
ATOM     16  C   UNL     1     -10.045   6.869   7.226  1.00  0.00     0.000 C 
BRANCH  16  17
ATOM     17  C   UNL     1      -9.699   6.100   8.509  1.00  0.00     0.000 C 
BRANCH  17  18
ATOM     18  C   UNL     1      -8.572   5.089   8.252  1.00  0.00    -0.000 C 
BRANCH  18  19
ATOM     19  C   UNL     1      -8.209   4.263   9.497  1.00  0.00    -0.000 C 
BRANCH  19  20
ATOM     20  C   UNL     1      -6.742   4.385   9.957  1.00  0.00    -0.000 C 
BRANCH  20  21
ATOM     21  C   UNL     1      -6.243   5.840  10.092  1.00  0.00    -0.000 C 
BRANCH  21  22
ATOM     22  C   UNL     1      -5.559   6.347   8.810  1.00  0.00    -0.000 C 
BRANCH  22  23
ATOM     23  C   UNL     1      -4.869   7.711   8.997  1.00  0.00    -0.000 C 
BRANCH  23  24
ATOM     24  C   UNL     1      -5.464   8.861   8.164  1.00  0.00    -0.000 C 
BRANCH  24  25
ATOM     25  C   UNL     1      -6.938   8.635   7.799  1.00  0.00    -0.003 C 
ATOM     26  C   UNL     1      -7.826   9.721   8.402  1.00  0.00     0.004 C 
ENDBRANCH  24  25
ENDBRANCH  23  24
ENDBRANCH  22  23
ENDBRANCH  21  22
ENDBRANCH  20  21
ENDBRANCH  19  20
ENDBRANCH  18  19
ENDBRANCH  17  18
ENDBRANCH  16  17
ENDBRANCH  15  16
ENDBRANCH   1  15
TORSDOF 22
ENDMDL
MODEL 8
REMARK VINA RESULT:     0.810      4.804      9.225
REMARK INTER + INTRA:           1.480
REMARK INTER:                   3.818
REMARK INTRA:                  -2.338
REMARK UNBOUND:                -0.373
REMARK SMILES CCCCCCCCCCCCCCCCCCCCCCCC(=O)[O-]
REMARK SMILES IDX 13 1 14 2 15 3 16 4 17 5 18 6 19 7 20 8 21 9 22 10 23 11
REMARK SMILES IDX 24 12 25 13 26 14 12 15 11 16 10 17 9 18 8 19 7 20 6 21 5 22
REMARK SMILES IDX 4 23 3 24 2 25 1 26
REMARK H PARENT
REMARK Flexibility Score: inf
ROOT
ATOM      1  C   UNL     1      -9.908   8.775   6.550  1.00  0.00     0.000 C 
ENDROOT
BRANCH   1   2
ATOM      2  C   UNL     1      -9.802   9.414   5.156  1.00  0.00     0.000 C 
BRANCH   2   3
ATOM      3  C   UNL     1      -8.725   8.752   4.278  1.00  0.00     0.000 C 
BRANCH   3   4
ATOM      4  C   UNL     1      -7.354   9.442   4.393  1.00  0.00     0.000 C 
BRANCH   4   5
ATOM      5  C   UNL     1      -6.488   9.365   3.123  1.00  0.00     0.000 C 
BRANCH   5   6
ATOM      6  C   UNL     1      -6.263   7.922   2.638  1.00  0.00     0.000 C 
BRANCH   6   7
ATOM      7  C   UNL     1      -4.991   7.781   1.786  1.00  0.00     0.000 C 
BRANCH   7   8
ATOM      8  C   UNL     1      -4.056   6.680   2.313  1.00  0.00     0.000 C 
BRANCH   8   9
ATOM      9  C   UNL     1      -3.333   5.922   1.187  1.00  0.00     0.000 C 
BRANCH   9  10
ATOM     10  C   UNL     1      -1.890   5.505   1.546  1.00  0.00     0.006 C 
BRANCH  10  11
ATOM     11  C   UNL     1      -1.599   4.036   1.198  1.00  0.00     0.053 C 
BRANCH  11  12
ATOM     12  C   UNL     1      -0.158   3.707   1.441  1.00  0.00     0.041 C 
ATOM     13  O   UNL     1       0.554   3.240   0.511  1.00  0.00    -0.550 OA
ATOM     14  O   UNL     1       0.397   3.908   2.699  1.00  0.00    -0.550 OA
ENDBRANCH  11  12
ENDBRANCH  10  11
ENDBRANCH   9  10
ENDBRANCH   8   9
ENDBRANCH   7   8
ENDBRANCH   6   7
ENDBRANCH   5   6
ENDBRANCH   4   5
ENDBRANCH   3   4
ENDBRANCH   2   3
ENDBRANCH   1   2
BRANCH   1  15
ATOM     15  C   UNL     1      -9.682   9.793   7.681  1.00  0.00     0.000 C 
BRANCH  15  16
ATOM     16  C   UNL     1      -9.120   9.146   8.958  1.00  0.00     0.000 C 
BRANCH  16  17
ATOM     17  C   UNL     1      -7.723   9.666   9.323  1.00  0.00     0.000 C 
BRANCH  17  18
ATOM     18  C   UNL     1      -6.803   9.670   8.093  1.00  0.00    -0.000 C 
BRANCH  18  19
ATOM     19  C   UNL     1      -5.357   9.262   8.421  1.00  0.00    -0.000 C 
BRANCH  19  20
ATOM     20  C   UNL     1      -5.092   8.933   9.904  1.00  0.00    -0.000 C 
BRANCH  20  21
ATOM     21  C   UNL     1      -4.237   7.666  10.125  1.00  0.00    -0.000 C 
BRANCH  21  22
ATOM     22  C   UNL     1      -4.709   6.481   9.264  1.00  0.00    -0.000 C 
BRANCH  22  23
ATOM     23  C   UNL     1      -5.805   5.642   9.947  1.00  0.00    -0.000 C 
BRANCH  23  24
ATOM     24  C   UNL     1      -7.246   6.005   9.548  1.00  0.00    -0.000 C 
BRANCH  24  25
ATOM     25  C   UNL     1      -7.780   5.147   8.391  1.00  0.00    -0.003 C 
ATOM     26  C   UNL     1      -8.075   6.005   7.163  1.00  0.00     0.004 C 
ENDBRANCH  24  25
ENDBRANCH  23  24
ENDBRANCH  22  23
ENDBRANCH  21  22
ENDBRANCH  20  21
ENDBRANCH  19  20
ENDBRANCH  18  19
ENDBRANCH  17  18
ENDBRANCH  16  17
ENDBRANCH  15  16
ENDBRANCH   1  15
TORSDOF 22
ENDMDL
