MODEL 1
REMARK VINA RESULT:    -4.824      0.000      0.000
REMARK INTER + INTRA:          -6.071
REMARK INTER:                  -5.810
REMARK INTRA:                  -0.260
REMARK UNBOUND:                -0.260
REMARK SMILES O=c1c(O)c(-c2ccc(O)c(O)c2)oc2cc(O)cc(O)c12
REMARK SMILES IDX 5 1 3 2 2 3 1 4 22 5 20 6 19 7 17 8 16 9 15 10 14 11 6 12
REMARK SMILES IDX 7 13 8 14 9 15 13 16 11 17 10 18 12 20 4 22 21 24 18 26
REMARK H PARENT 10 19 12 21 4 23 21 25 18 27
REMARK Flexibility Score: inf
ROOT
ATOM      1  C   UNL     1     143.830 110.970 139.755  1.00  0.00     0.180 A 
ATOM      2  C   UNL     1     142.521 110.774 140.230  1.00  0.00     0.208 A 
ATOM      3  C   UNL     1     141.760 111.892 140.607  1.00  0.00     0.238 A 
ATOM      4  O   UNL     1     140.609 111.706 141.084  1.00  0.00    -0.285 OA
ATOM      5  C   UNL     1     142.309 113.191 140.490  1.00  0.00     0.111 A 
ATOM      6  C   UNL     1     141.614 114.397 140.804  1.00  0.00     0.134 A 
ATOM      7  C   UNL     1     142.299 115.618 140.775  1.00  0.00     0.093 A 
ATOM      8  C   UNL     1     143.637 115.683 140.377  1.00  0.00     0.123 A 
ATOM      9  C   UNL     1     144.308 114.519 140.011  1.00  0.00     0.094 A 
ATOM     10  C   UNL     1     143.661 113.281 140.065  1.00  0.00     0.146 A 
ATOM     11  O   UNL     1     144.340 112.195 139.717  1.00  0.00    -0.452 OA
ENDROOT
BRANCH   1  12
ATOM     12  C   UNL     1     144.684 109.843 139.315  1.00  0.00     0.025 A 
ATOM     13  C   UNL     1     145.720 109.351 140.124  1.00  0.00     0.016 A 
ATOM     14  C   UNL     1     146.497 108.272 139.696  1.00  0.00     0.051 A 
ATOM     15  C   UNL     1     146.249 107.655 138.465  1.00  0.00     0.157 A 
ATOM     16  C   UNL     1     144.419 109.212 138.089  1.00  0.00     0.062 A 
ATOM     17  C   UNL     1     145.193 108.129 137.652  1.00  0.00     0.158 A 
BRANCH  15  18
ATOM     18  O   UNL     1     147.065 106.585 138.096  1.00  0.00    -0.504 OA
ATOM     19  H   UNL     1     146.736 105.768 137.601  1.00  0.00     0.293 HD
ENDBRANCH  15  18
BRANCH  17  20
ATOM     20  O   UNL     1     144.878 107.560 136.417  1.00  0.00    -0.504 OA
ATOM     21  H   UNL     1     144.902 108.062 135.541  1.00  0.00     0.293 HD
ENDBRANCH  17  20
ENDBRANCH   1  12
BRANCH   2  22
ATOM     22  O   UNL     1     142.007 109.481 140.359  1.00  0.00    -0.502 OA
ATOM     23  H   UNL     1     141.163 109.181 139.885  1.00  0.00     0.293 HD
ENDBRANCH   2  22
BRANCH   6  24
ATOM     24  O   UNL     1     140.254 114.453 141.124  1.00  0.00    -0.507 OA
ATOM     25  H   UNL     1     139.505 114.207 140.493  1.00  0.00     0.293 HD
ENDBRANCH   6  24
BRANCH   8  26
ATOM     26  O   UNL     1     144.307 116.904 140.335  1.00  0.00    -0.508 OA
ATOM     27  H   UNL     1     145.010 117.100 139.632  1.00  0.00     0.293 HD
ENDBRANCH   8  26
TORSDOF 6
ENDMDL
MODEL 2
REMARK VINA RESULT:    -4.792      3.868      7.394
REMARK INTER + INTRA:          -6.032
REMARK INTER:                  -5.761
REMARK INTRA:                  -0.271
REMARK UNBOUND:                -0.260
REMARK SMILES O=c1c(O)c(-c2ccc(O)c(O)c2)oc2cc(O)cc(O)c12
REMARK SMILES IDX 5 1 3 2 2 3 1 4 22 5 20 6 19 7 17 8 16 9 15 10 14 11 6 12
REMARK SMILES IDX 7 13 8 14 9 15 13 16 11 17 10 18 12 20 4 22 21 24 18 26
REMARK H PARENT 10 19 12 21 4 23 21 25 18 27
REMARK Flexibility Score: inf
ROOT
ATOM      1  C   UNL     1     145.710 108.662 139.191  1.00  0.00     0.180 A 
ATOM      2  C   UNL     1     146.381 109.896 139.117  1.00  0.00     0.208 A 
ATOM      3  C   UNL     1     147.781 109.904 139.021  1.00  0.00     0.238 A 
ATOM      4  O   UNL     1     148.380 111.012 139.011  1.00  0.00    -0.285 OA
ATOM      5  C   UNL     1     148.493 108.681 138.982  1.00  0.00     0.111 A 
ATOM      6  C   UNL     1     149.909 108.570 138.844  1.00  0.00     0.134 A 
ATOM      7  C   UNL     1     150.518 107.313 138.949  1.00  0.00     0.093 A 
ATOM      8  C   UNL     1     149.753 106.156 139.119  1.00  0.00     0.123 A 
ATOM      9  C   UNL     1     148.366 106.247 139.195  1.00  0.00     0.094 A 
ATOM     10  C   UNL     1     147.733 107.491 139.130  1.00  0.00     0.146 A 
ATOM     11  O   UNL     1     146.409 107.534 139.217  1.00  0.00    -0.452 OA
ENDROOT
BRANCH   1  12
ATOM     12  C   UNL     1     144.234 108.572 139.268  1.00  0.00     0.025 A 
ATOM     13  C   UNL     1     143.546 108.850 140.459  1.00  0.00     0.016 A 
ATOM     14  C   UNL     1     142.152 108.781 140.502  1.00  0.00     0.051 A 
ATOM     15  C   UNL     1     141.417 108.449 139.358  1.00  0.00     0.157 A 
ATOM     16  C   UNL     1     143.498 108.260 138.114  1.00  0.00     0.062 A 
ATOM     17  C   UNL     1     142.100 108.188 138.146  1.00  0.00     0.158 A 
BRANCH  15  18
ATOM     18  O   UNL     1     140.027 108.393 139.469  1.00  0.00    -0.504 OA
ATOM     19  H   UNL     1     139.516 107.566 139.743  1.00  0.00     0.293 HD
ENDBRANCH  15  18
BRANCH  17  20
ATOM     20  O   UNL     1     141.436 107.859 136.962  1.00  0.00    -0.504 OA
ATOM     21  H   UNL     1     140.464 108.066 136.784  1.00  0.00     0.293 HD
ENDBRANCH  17  20
ENDBRANCH   1  12
BRANCH   2  22
ATOM     22  O   UNL     1     145.660 111.092 139.180  1.00  0.00    -0.502 OA
ATOM     23  H   UNL     1     145.392 111.520 140.058  1.00  0.00     0.293 HD
ENDBRANCH   2  22
BRANCH   6  24
ATOM     24  O   UNL     1     150.754 109.652 138.579  1.00  0.00    -0.507 OA
ATOM     25  H   UNL     1     151.700 109.572 138.239  1.00  0.00     0.293 HD
ENDBRANCH   6  24
BRANCH   8  26
ATOM     26  O   UNL     1     150.366 104.908 139.207  1.00  0.00    -0.508 OA
ATOM     27  H   UNL     1     150.267 104.215 138.474  1.00  0.00     0.293 HD
ENDBRANCH   8  26
TORSDOF 6
ENDMDL
MODEL 3
REMARK VINA RESULT:    -4.695      2.812      4.742
REMARK INTER + INTRA:          -5.916
REMARK INTER:                  -5.599
REMARK INTRA:                  -0.317
REMARK UNBOUND:                -0.260
REMARK SMILES O=c1c(O)c(-c2ccc(O)c(O)c2)oc2cc(O)cc(O)c12
REMARK SMILES IDX 5 1 3 2 2 3 1 4 22 5 20 6 19 7 17 8 16 9 15 10 14 11 6 12
REMARK SMILES IDX 7 13 8 14 9 15 13 16 11 17 10 18 12 20 4 22 21 24 18 26
REMARK H PARENT 10 19 12 21 4 23 21 25 18 27
REMARK Flexibility Score: inf
ROOT
ATOM      1  C   UNL     1     145.599 109.406 139.753  1.00  0.00     0.180 A 
ATOM      2  C   UNL     1     145.180 110.548 140.459  1.00  0.00     0.208 A 
ATOM      3  C   UNL     1     143.820 110.894 140.448  1.00  0.00     0.238 A 
ATOM      4  O   UNL     1     143.460 111.948 141.036  1.00  0.00    -0.285 OA
ATOM      5  C   UNL     1     142.892 110.086 139.747  1.00  0.00     0.111 A 
ATOM      6  C   UNL     1     141.485 110.319 139.703  1.00  0.00     0.134 A 
ATOM      7  C   UNL     1     140.680 109.530 138.872  1.00  0.00     0.093 A 
ATOM      8  C   UNL     1     141.223 108.475 138.135  1.00  0.00     0.123 A 
ATOM      9  C   UNL     1     142.586 108.202 138.217  1.00  0.00     0.094 A 
ATOM     10  C   UNL     1     143.421 108.994 139.010  1.00  0.00     0.146 A 
ATOM     11  O   UNL     1     144.715 108.706 139.052  1.00  0.00    -0.452 OA
ENDROOT
BRANCH   1  12
ATOM     12  C   UNL     1     147.012 108.964 139.738  1.00  0.00     0.025 A 
ATOM     13  C   UNL     1     147.480 107.980 140.622  1.00  0.00     0.016 A 
ATOM     14  C   UNL     1     148.812 107.562 140.573  1.00  0.00     0.051 A 
ATOM     15  C   UNL     1     149.697 108.105 139.634  1.00  0.00     0.157 A 
ATOM     16  C   UNL     1     147.892 109.494 138.780  1.00  0.00     0.062 A 
ATOM     17  C   UNL     1     149.230 109.081 138.723  1.00  0.00     0.158 A 
BRANCH  15  18
ATOM     18  O   UNL     1     151.016 107.647 139.641  1.00  0.00    -0.504 OA
ATOM     19  H   UNL     1     151.620 107.654 138.832  1.00  0.00     0.293 HD
ENDBRANCH  15  18
BRANCH  17  20
ATOM     20  O   UNL     1     150.050 109.661 137.753  1.00  0.00    -0.504 OA
ATOM     21  H   UNL     1     150.185 110.656 137.650  1.00  0.00     0.293 HD
ENDBRANCH  17  20
ENDBRANCH   1  12
BRANCH   2  22
ATOM     22  O   UNL     1     146.116 111.344 141.125  1.00  0.00    -0.502 OA
ATOM     23  H   UNL     1     146.943 110.958 141.565  1.00  0.00     0.293 HD
ENDBRANCH   2  22
BRANCH   6  24
ATOM     24  O   UNL     1     140.830 111.287 140.471  1.00  0.00    -0.507 OA
ATOM     25  H   UNL     1     140.471 111.135 141.401  1.00  0.00     0.293 HD
ENDBRANCH   6  24
BRANCH   8  26
ATOM     26  O   UNL     1     140.411 107.686 137.322  1.00  0.00    -0.508 OA
ATOM     27  H   UNL     1     139.914 108.076 136.530  1.00  0.00     0.293 HD
ENDBRANCH   8  26
TORSDOF 6
ENDMDL
MODEL 4
REMARK VINA RESULT:    -4.690      3.702      7.586
REMARK INTER + INTRA:          -5.909
REMARK INTER:                  -5.576
REMARK INTRA:                  -0.333
REMARK UNBOUND:                -0.260
REMARK SMILES O=c1c(O)c(-c2ccc(O)c(O)c2)oc2cc(O)cc(O)c12
REMARK SMILES IDX 5 1 3 2 2 3 1 4 22 5 20 6 19 7 17 8 16 9 15 10 14 11 6 12
REMARK SMILES IDX 7 13 8 14 9 15 13 16 11 17 10 18 12 20 4 22 21 24 18 26
REMARK H PARENT 10 19 12 21 4 23 21 25 18 27
REMARK Flexibility Score: inf
ROOT
ATOM      1  C   UNL     1     146.508 115.328 139.182  1.00  0.00     0.180 A 
ATOM      2  C   UNL     1     145.117 115.270 139.379  1.00  0.00     0.208 A 
ATOM      3  C   UNL     1     144.488 114.016 139.419  1.00  0.00     0.238 A 
ATOM      4  O   UNL     1     143.235 113.972 139.540  1.00  0.00    -0.285 OA
ATOM      5  C   UNL     1     145.257 112.835 139.279  1.00  0.00     0.111 A 
ATOM      6  C   UNL     1     144.730 111.511 139.344  1.00  0.00     0.134 A 
ATOM      7  C   UNL     1     145.562 110.421 139.060  1.00  0.00     0.093 A 
ATOM      8  C   UNL     1     146.918 110.605 138.780  1.00  0.00     0.123 A 
ATOM      9  C   UNL     1     147.455 111.890 138.773  1.00  0.00     0.094 A 
ATOM     10  C   UNL     1     146.643 113.000 139.016  1.00  0.00     0.146 A 
ATOM     11  O   UNL     1     147.192 114.207 138.989  1.00  0.00    -0.452 OA
ENDROOT
BRANCH   1  12
ATOM     12  C   UNL     1     147.246 116.612 139.154  1.00  0.00     0.025 A 
ATOM     13  C   UNL     1     147.729 117.204 140.330  1.00  0.00     0.016 A 
ATOM     14  C   UNL     1     148.443 118.403 140.276  1.00  0.00     0.051 A 
ATOM     15  C   UNL     1     148.702 119.026 139.050  1.00  0.00     0.157 A 
ATOM     16  C   UNL     1     147.523 117.223 137.920  1.00  0.00     0.062 A 
ATOM     17  C   UNL     1     148.239 118.426 137.855  1.00  0.00     0.158 A 
BRANCH  15  18
ATOM     18  O   UNL     1     149.416 120.225 139.065  1.00  0.00    -0.504 OA
ATOM     19  H   UNL     1     149.106 121.073 138.612  1.00  0.00     0.293 HD
ENDBRANCH  15  18
BRANCH  17  20
ATOM     20  O   UNL     1     148.465 118.982 136.594  1.00  0.00    -0.504 OA
ATOM     21  H   UNL     1     149.011 119.816 136.435  1.00  0.00     0.293 HD
ENDBRANCH  17  20
ENDBRANCH   1  12
BRANCH   2  22
ATOM     22  O   UNL     1     144.374 116.448 139.493  1.00  0.00    -0.502 OA
ATOM     23  H   UNL     1     143.975 116.919 138.690  1.00  0.00     0.293 HD
ENDBRANCH   2  22
BRANCH   6  24
ATOM     24  O   UNL     1     143.412 111.213 139.705  1.00  0.00    -0.507 OA
ATOM     25  H   UNL     1     142.780 111.858 140.154  1.00  0.00     0.293 HD
ENDBRANCH   6  24
BRANCH   8  26
ATOM     26  O   UNL     1     147.742 109.514 138.515  1.00  0.00    -0.508 OA
ATOM     27  H   UNL     1     147.362 108.588 138.355  1.00  0.00     0.293 HD
ENDBRANCH   8  26
TORSDOF 6
ENDMDL
MODEL 5
REMARK VINA RESULT:    -4.689      2.347      6.245
REMARK INTER + INTRA:          -5.909
REMARK INTER:                  -5.573
REMARK INTRA:                  -0.335
REMARK UNBOUND:                -0.260
REMARK SMILES O=c1c(O)c(-c2ccc(O)c(O)c2)oc2cc(O)cc(O)c12
REMARK SMILES IDX 5 1 3 2 2 3 1 4 22 5 20 6 19 7 17 8 16 9 15 10 14 11 6 12
REMARK SMILES IDX 7 13 8 14 9 15 13 16 11 17 10 18 12 20 4 22 21 24 18 26
REMARK H PARENT 10 19 12 21 4 23 21 25 18 27
REMARK Flexibility Score: inf
ROOT
ATOM      1  C   UNL     1     144.378 114.416 139.838  1.00  0.00     0.180 A 
ATOM      2  C   UNL     1     143.050 114.835 140.033  1.00  0.00     0.208 A 
ATOM      3  C   UNL     1     142.038 113.866 140.126  1.00  0.00     0.238 A 
ATOM      4  O   UNL     1     140.844 114.249 140.244  1.00  0.00    -0.285 OA
ATOM      5  C   UNL     1     142.368 112.492 140.041  1.00  0.00     0.111 A 
ATOM      6  C   UNL     1     141.429 111.424 140.162  1.00  0.00     0.134 A 
ATOM      7  C   UNL     1     141.846 110.107 139.931  1.00  0.00     0.093 A 
ATOM      8  C   UNL     1     143.183 109.815 139.648  1.00  0.00     0.123 A 
ATOM      9  C   UNL     1     144.118 110.845 139.586  1.00  0.00     0.094 A 
ATOM     10  C   UNL     1     143.726 112.172 139.776  1.00  0.00     0.146 A 
ATOM     11  O   UNL     1     144.647 113.124 139.698  1.00  0.00    -0.452 OA
ENDROOT
BRANCH   1  12
ATOM     12  C   UNL     1     145.502 115.377 139.756  1.00  0.00     0.025 A 
ATOM     13  C   UNL     1     146.190 115.798 140.904  1.00  0.00     0.016 A 
ATOM     14  C   UNL     1     147.263 116.687 140.799  1.00  0.00     0.051 A 
ATOM     15  C   UNL     1     147.678 117.160 139.549  1.00  0.00     0.157 A 
ATOM     16  C   UNL     1     145.931 115.833 138.499  1.00  0.00     0.062 A 
ATOM     17  C   UNL     1     147.006 116.724 138.383  1.00  0.00     0.158 A 
BRANCH  15  18
ATOM     18  O   UNL     1     148.753 118.050 139.514  1.00  0.00    -0.504 OA
ATOM     19  H   UNL     1     148.884 118.805 140.172  1.00  0.00     0.293 HD
ENDBRANCH  15  18
BRANCH  17  20
ATOM     20  O   UNL     1     147.368 117.145 137.102  1.00  0.00    -0.504 OA
ATOM     21  H   UNL     1     147.037 116.713 136.251  1.00  0.00     0.293 HD
ENDBRANCH  17  20
ENDBRANCH   1  12
BRANCH   2  22
ATOM     22  O   UNL     1     142.744 116.197 140.092  1.00  0.00    -0.502 OA
ATOM     23  H   UNL     1     142.884 116.820 139.305  1.00  0.00     0.293 HD
ENDBRANCH   2  22
BRANCH   6  24
ATOM     24  O   UNL     1     140.092 111.599 140.531  1.00  0.00    -0.507 OA
ATOM     25  H   UNL     1     139.785 112.036 141.387  1.00  0.00     0.293 HD
ENDBRANCH   6  24
BRANCH   8  26
ATOM     26  O   UNL     1     143.592 108.501 139.435  1.00  0.00    -0.508 OA
ATOM     27  H   UNL     1     143.978 108.202 138.546  1.00  0.00     0.293 HD
ENDBRANCH   8  26
TORSDOF 6
ENDMDL
MODEL 6
REMARK VINA RESULT:    -4.660      2.961      5.075
REMARK INTER + INTRA:          -5.874
REMARK INTER:                  -5.882
REMARK INTRA:                   0.008
REMARK UNBOUND:                -0.260
REMARK SMILES O=c1c(O)c(-c2ccc(O)c(O)c2)oc2cc(O)cc(O)c12
REMARK SMILES IDX 5 1 3 2 2 3 1 4 22 5 20 6 19 7 17 8 16 9 15 10 14 11 6 12
REMARK SMILES IDX 7 13 8 14 9 15 13 16 11 17 10 18 12 20 4 22 21 24 18 26
REMARK H PARENT 10 19 12 21 4 23 21 25 18 27
REMARK Flexibility Score: inf
ROOT
ATOM      1  C   UNL     1     145.195 109.419 138.684  1.00  0.00     0.180 A 
ATOM      2  C   UNL     1     144.782 108.432 137.772  1.00  0.00     0.208 A 
ATOM      3  C   UNL     1     143.414 108.140 137.657  1.00  0.00     0.238 A 
ATOM      4  O   UNL     1     143.056 107.217 136.879  1.00  0.00    -0.285 OA
ATOM      5  C   UNL     1     142.473 108.850 138.442  1.00  0.00     0.111 A 
ATOM      6  C   UNL     1     141.060 108.666 138.377  1.00  0.00     0.134 A 
ATOM      7  C   UNL     1     140.233 109.329 139.293  1.00  0.00     0.093 A 
ATOM      8  C   UNL     1     140.766 110.221 140.227  1.00  0.00     0.123 A 
ATOM      9  C   UNL     1     142.138 110.453 140.259  1.00  0.00     0.094 A 
ATOM     10  C   UNL     1     142.992 109.779 139.382  1.00  0.00     0.146 A 
ATOM     11  O   UNL     1     144.295 110.021 139.453  1.00  0.00    -0.452 OA
ENDROOT
BRANCH   1  12
ATOM     12  C   UNL     1     146.617 109.799 138.844  1.00  0.00     0.025 A 
ATOM     13  C   UNL     1     147.613 108.833 139.052  1.00  0.00     0.016 A 
ATOM     14  C   UNL     1     148.951 109.214 139.176  1.00  0.00     0.051 A 
ATOM     15  C   UNL     1     149.323 110.559 139.081  1.00  0.00     0.157 A 
ATOM     16  C   UNL     1     146.990 111.147 138.726  1.00  0.00     0.062 A 
ATOM     17  C   UNL     1     148.329 111.539 138.849  1.00  0.00     0.158 A 
BRANCH  15  18
ATOM     18  O   UNL     1     150.676 110.874 139.218  1.00  0.00    -0.504 OA
ATOM     19  H   UNL     1     151.105 111.703 138.833  1.00  0.00     0.293 HD
ENDBRANCH  15  18
BRANCH  17  20
ATOM     20  O   UNL     1     148.623 112.899 138.733  1.00  0.00    -0.504 OA
ATOM     21  H   UNL     1     148.840 113.498 139.517  1.00  0.00     0.293 HD
ENDBRANCH  17  20
ENDBRANCH   1  12
BRANCH   2  22
ATOM     22  O   UNL     1     145.730 107.728 137.023  1.00  0.00    -0.502 OA
ATOM     23  H   UNL     1     145.542 106.813 136.631  1.00  0.00     0.293 HD
ENDBRANCH   2  22
BRANCH   6  24
ATOM     24  O   UNL     1     140.419 107.870 137.423  1.00  0.00    -0.507 OA
ATOM     25  H   UNL     1     139.448 107.955 137.161  1.00  0.00     0.293 HD
ENDBRANCH   6  24
BRANCH   8  26
ATOM     26  O   UNL     1     139.935 110.889 141.124  1.00  0.00    -0.508 OA
ATOM     27  H   UNL     1     139.805 111.893 141.081  1.00  0.00     0.293 HD
ENDBRANCH   8  26
TORSDOF 6
ENDMDL
MODEL 7
REMARK VINA RESULT:    -4.527      3.562      5.559
REMARK INTER + INTRA:          -5.713
REMARK INTER:                  -5.432
REMARK INTRA:                  -0.281
REMARK UNBOUND:                -0.260
REMARK SMILES O=c1c(O)c(-c2ccc(O)c(O)c2)oc2cc(O)cc(O)c12
REMARK SMILES IDX 5 1 3 2 2 3 1 4 22 5 20 6 19 7 17 8 16 9 15 10 14 11 6 12
REMARK SMILES IDX 7 13 8 14 9 15 13 16 11 17 10 18 12 20 4 22 21 24 18 26
REMARK H PARENT 10 19 12 21 4 23 21 25 18 27
REMARK Flexibility Score: inf
ROOT
ATOM      1  C   UNL     1     146.310 109.926 139.149  1.00  0.00     0.180 A 
ATOM      2  C   UNL     1     147.529 109.279 138.883  1.00  0.00     0.208 A 
ATOM      3  C   UNL     1     148.705 110.042 138.816  1.00  0.00     0.238 A 
ATOM      4  O   UNL     1     149.785 109.465 138.523  1.00  0.00    -0.285 OA
ATOM      5  C   UNL     1     148.651 111.441 139.031  1.00  0.00     0.111 A 
ATOM      6  C   UNL     1     149.785 112.306 139.026  1.00  0.00     0.134 A 
ATOM      7  C   UNL     1     149.599 113.691 139.120  1.00  0.00     0.093 A 
ATOM      8  C   UNL     1     148.322 114.235 139.286  1.00  0.00     0.123 A 
ATOM      9  C   UNL     1     147.214 113.395 139.351  1.00  0.00     0.094 A 
ATOM     10  C   UNL     1     147.365 112.012 139.224  1.00  0.00     0.146 A 
ATOM     11  O   UNL     1     146.282 111.247 139.282  1.00  0.00    -0.452 OA
ENDROOT
BRANCH   1  12
ATOM     12  C   UNL     1     145.032 109.186 139.260  1.00  0.00     0.025 A 
ATOM     13  C   UNL     1     144.448 108.918 140.508  1.00  0.00     0.016 A 
ATOM     14  C   UNL     1     143.231 108.239 140.586  1.00  0.00     0.051 A 
ATOM     15  C   UNL     1     142.566 107.826 139.426  1.00  0.00     0.157 A 
ATOM     16  C   UNL     1     144.357 108.792 138.093  1.00  0.00     0.062 A 
ATOM     17  C   UNL     1     143.135 108.110 138.162  1.00  0.00     0.158 A 
BRANCH  15  18
ATOM     18  O   UNL     1     141.356 107.147 139.574  1.00  0.00    -0.504 OA
ATOM     19  H   UNL     1     140.818 107.132 140.428  1.00  0.00     0.293 HD
ENDBRANCH  15  18
BRANCH  17  20
ATOM     20  O   UNL     1     142.528 107.738 136.961  1.00  0.00    -0.504 OA
ATOM     21  H   UNL     1     142.183 108.395 136.276  1.00  0.00     0.293 HD
ENDBRANCH  17  20
ENDBRANCH   1  12
BRANCH   2  22
ATOM     22  O   UNL     1     147.556 107.900 138.652  1.00  0.00    -0.502 OA
ATOM     23  H   UNL     1     148.418 107.369 138.635  1.00  0.00     0.293 HD
ENDBRANCH   2  22
BRANCH   6  24
ATOM     24  O   UNL     1     151.108 111.859 138.959  1.00  0.00    -0.507 OA
ATOM     25  H   UNL     1     151.604 111.417 139.719  1.00  0.00     0.293 HD
ENDBRANCH   6  24
BRANCH   8  26
ATOM     26  O   UNL     1     148.147 115.613 139.394  1.00  0.00    -0.508 OA
ATOM     27  H   UNL     1     147.295 116.012 139.770  1.00  0.00     0.293 HD
ENDBRANCH   8  26
TORSDOF 6
ENDMDL
MODEL 8
REMARK VINA RESULT:    -4.494      2.814      4.280
REMARK INTER + INTRA:          -5.674
REMARK INTER:                  -5.427
REMARK INTRA:                  -0.247
REMARK UNBOUND:                -0.260
REMARK SMILES O=c1c(O)c(-c2ccc(O)c(O)c2)oc2cc(O)cc(O)c12
REMARK SMILES IDX 5 1 3 2 2 3 1 4 22 5 20 6 19 7 17 8 16 9 15 10 14 11 6 12
REMARK SMILES IDX 7 13 8 14 9 15 13 16 11 17 10 18 12 20 4 22 21 24 18 26
REMARK H PARENT 10 19 12 21 4 23 21 25 18 27
REMARK Flexibility Score: inf
ROOT
ATOM      1  C   UNL     1     146.351 112.470 139.612  1.00  0.00     0.180 A 
ATOM      2  C   UNL     1     146.344 113.869 139.483  1.00  0.00     0.208 A 
ATOM      3  C   UNL     1     145.121 114.554 139.560  1.00  0.00     0.238 A 
ATOM      4  O   UNL     1     145.115 115.802 139.387  1.00  0.00    -0.285 OA
ATOM      5  C   UNL     1     143.923 113.834 139.782  1.00  0.00     0.111 A 
ATOM      6  C   UNL     1     142.633 114.429 139.918  1.00  0.00     0.134 A 
ATOM      7  C   UNL     1     141.500 113.611 140.005  1.00  0.00     0.093 A 
ATOM      8  C   UNL     1     141.618 112.218 140.028  1.00  0.00     0.123 A 
ATOM      9  C   UNL     1     142.877 111.629 139.956  1.00  0.00     0.094 A 
ATOM     10  C   UNL     1     144.024 112.419 139.832  1.00  0.00     0.146 A 
ATOM     11  O   UNL     1     145.203 111.817 139.756  1.00  0.00    -0.452 OA
ENDROOT
BRANCH   1  12
ATOM     12  C   UNL     1     147.603 111.680 139.568  1.00  0.00     0.025 A 
ATOM     13  C   UNL     1     148.139 111.092 140.723  1.00  0.00     0.016 A 
ATOM     14  C   UNL     1     149.309 110.332 140.651  1.00  0.00     0.051 A 
ATOM     15  C   UNL     1     149.958 110.133 139.428  1.00  0.00     0.157 A 
ATOM     16  C   UNL     1     148.240 111.464 138.335  1.00  0.00     0.062 A 
ATOM     17  C   UNL     1     149.414 110.703 138.253  1.00  0.00     0.158 A 
BRANCH  15  18
ATOM     18  O   UNL     1     151.125 109.368 139.426  1.00  0.00    -0.504 OA
ATOM     19  H   UNL     1     151.474 108.869 140.232  1.00  0.00     0.293 HD
ENDBRANCH  15  18
BRANCH  17  20
ATOM     20  O   UNL     1     149.999 110.542 136.996  1.00  0.00    -0.504 OA
ATOM     21  H   UNL     1     150.269 111.308 136.396  1.00  0.00     0.293 HD
ENDBRANCH  17  20
ENDBRANCH   1  12
BRANCH   2  22
ATOM     22  O   UNL     1     147.536 114.558 139.241  1.00  0.00    -0.502 OA
ATOM     23  H   UNL     1     147.791 115.398 139.747  1.00  0.00     0.293 HD
ENDBRANCH   2  22
BRANCH   6  24
ATOM     24  O   UNL     1     142.414 115.808 139.999  1.00  0.00    -0.507 OA
ATOM     25  H   UNL     1     142.282 116.416 139.205  1.00  0.00     0.293 HD
ENDBRANCH   6  24
BRANCH   8  26
ATOM     26  O   UNL     1     140.487 111.412 140.131  1.00  0.00    -0.508 OA
ATOM     27  H   UNL     1     140.283 110.887 140.974  1.00  0.00     0.293 HD
ENDBRANCH   8  26
TORSDOF 6
ENDMDL
MODEL 9
REMARK VINA RESULT:    -4.493      1.863      3.572
REMARK INTER + INTRA:          -5.672
REMARK INTER:                  -5.397
REMARK INTRA:                  -0.275
REMARK UNBOUND:                -0.260
REMARK SMILES O=c1c(O)c(-c2ccc(O)c(O)c2)oc2cc(O)cc(O)c12
REMARK SMILES IDX 5 1 3 2 2 3 1 4 22 5 20 6 19 7 17 8 16 9 15 10 14 11 6 12
REMARK SMILES IDX 7 13 8 14 9 15 13 16 11 17 10 18 12 20 4 22 21 24 18 26
REMARK H PARENT 10 19 12 21 4 23 21 25 18 27
REMARK Flexibility Score: inf
ROOT
ATOM      1  C   UNL     1     145.455 110.384 139.740  1.00  0.00     0.180 A 
ATOM      2  C   UNL     1     145.853 111.693 139.413  1.00  0.00     0.208 A 
ATOM      3  C   UNL     1     144.879 112.700 139.329  1.00  0.00     0.238 A 
ATOM      4  O   UNL     1     145.234 113.857 138.982  1.00  0.00    -0.285 OA
ATOM      5  C   UNL     1     143.522 112.391 139.589  1.00  0.00     0.111 A 
ATOM      6  C   UNL     1     142.457 113.341 139.573  1.00  0.00     0.134 A 
ATOM      7  C   UNL     1     141.135 112.900 139.716  1.00  0.00     0.093 A 
ATOM      8  C   UNL     1     140.847 111.551 139.942  1.00  0.00     0.123 A 
ATOM      9  C   UNL     1     141.884 110.625 140.019  1.00  0.00     0.094 A 
ATOM     10  C   UNL     1     143.210 111.029 139.844  1.00  0.00     0.146 A 
ATOM     11  O   UNL     1     144.167 110.113 139.915  1.00  0.00    -0.452 OA
ENDROOT
BRANCH   1  12
ATOM     12  C   UNL     1     146.428 109.275 139.872  1.00  0.00     0.025 A 
ATOM     13  C   UNL     1     147.274 109.173 140.987  1.00  0.00     0.016 A 
ATOM     14  C   UNL     1     148.166 108.104 141.100  1.00  0.00     0.051 A 
ATOM     15  C   UNL     1     148.222 107.112 140.115  1.00  0.00     0.157 A 
ATOM     16  C   UNL     1     146.466 108.269 138.893  1.00  0.00     0.062 A 
ATOM     17  C   UNL     1     147.357 107.193 138.998  1.00  0.00     0.158 A 
BRANCH  15  18
ATOM     18  O   UNL     1     149.139 106.074 140.286  1.00  0.00    -0.504 OA
ATOM     19  H   UNL     1     148.941 105.106 140.077  1.00  0.00     0.293 HD
ENDBRANCH  15  18
BRANCH  17  20
ATOM     20  O   UNL     1     147.348 106.238 137.980  1.00  0.00    -0.504 OA
ATOM     21  H   UNL     1     148.179 105.901 137.515  1.00  0.00     0.293 HD
ENDBRANCH  17  20
ENDBRANCH   1  12
BRANCH   2  22
ATOM     22  O   UNL     1     147.195 111.970 139.139  1.00  0.00    -0.502 OA
ATOM     23  H   UNL     1     147.493 112.831 138.696  1.00  0.00     0.293 HD
ENDBRANCH   2  22
BRANCH   6  24
ATOM     24  O   UNL     1     142.644 114.720 139.446  1.00  0.00    -0.507 OA
ATOM     25  H   UNL     1     141.943 115.416 139.655  1.00  0.00     0.293 HD
ENDBRANCH   6  24
BRANCH   8  26
ATOM     26  O   UNL     1     139.531 111.124 140.099  1.00  0.00    -0.508 OA
ATOM     27  H   UNL     1     139.091 110.502 139.429  1.00  0.00     0.293 HD
ENDBRANCH   8  26
TORSDOF 6
ENDMDL
