MODEL 1
REMARK VINA RESULT:    -5.261      0.000      0.000
REMARK INTER + INTRA:          -6.169
REMARK INTER:                  -6.030
REMARK INTRA:                  -0.138
REMARK UNBOUND:                -0.138
REMARK SMILES O=C([O-])C=Cc1ccc(O)cc1
REMARK SMILES IDX 6 1 7 2 12 3 8 4 11 5 9 6 5 7 4 8 2 9 1 10 3 11 10 12
REMARK H PARENT 10 13
REMARK Flexibility Score: inf
ROOT
ATOM      1  C   UNL     1      19.877  23.562  39.613  1.00  0.00    -0.025 A 
ATOM      2  C   UNL     1      20.501  22.406  40.113  1.00  0.00     0.012 A 
ATOM      3  C   UNL     1      19.406  23.559  38.284  1.00  0.00     0.012 A 
ATOM      4  C   UNL     1      20.630  21.265  39.315  1.00  0.00     0.047 A 
ATOM      5  C   UNL     1      19.538  22.416  37.489  1.00  0.00     0.047 A 
ATOM      6  C   UNL     1      20.146  21.267  38.001  1.00  0.00     0.115 A 
ENDROOT
BRANCH   1   7
ATOM      7  C   UNL     1      19.774  24.751  40.495  1.00  0.00     0.010 C 
ATOM      8  C   UNL     1      20.635  25.777  40.466  1.00  0.00     0.025 C 
BRANCH   8   9
ATOM      9  C   UNL     1      20.486  26.943  41.352  1.00  0.00     0.064 C 
ATOM     10  O   UNL     1      19.605  26.931  42.250  1.00  0.00    -0.545 OA
ATOM     11  O   UNL     1      21.302  28.059  41.211  1.00  0.00    -0.545 OA
ENDBRANCH   8   9
ENDBRANCH   1   7
BRANCH   6  12
ATOM     12  O   UNL     1      20.268  20.137  37.197  1.00  0.00    -0.508 OA
ATOM     13  H   UNL     1      20.913  19.389  37.427  1.00  0.00     0.293 HD
ENDBRANCH   6  12
TORSDOF 3
ENDMDL
MODEL 2
REMARK VINA RESULT:    -5.213      0.102      1.681
REMARK INTER + INTRA:          -6.113
REMARK INTER:                  -5.978
REMARK INTRA:                  -0.136
REMARK UNBOUND:                -0.138
REMARK SMILES O=C([O-])C=Cc1ccc(O)cc1
REMARK SMILES IDX 6 1 7 2 12 3 8 4 11 5 9 6 5 7 4 8 2 9 1 10 3 11 10 12
REMARK H PARENT 10 13
REMARK Flexibility Score: inf
ROOT
ATOM      1  C   UNL     1      19.961  23.575  39.649  1.00  0.00    -0.025 A 
ATOM      2  C   UNL     1      19.489  23.640  38.327  1.00  0.00     0.012 A 
ATOM      3  C   UNL     1      20.499  22.360  40.120  1.00  0.00     0.012 A 
ATOM      4  C   UNL     1      19.575  22.527  37.485  1.00  0.00     0.047 A 
ATOM      5  C   UNL     1      20.583  21.249  39.274  1.00  0.00     0.047 A 
ATOM      6  C   UNL     1      20.124  21.329  37.957  1.00  0.00     0.115 A 
ENDROOT
BRANCH   1   7
ATOM      7  C   UNL     1      19.838  24.780  40.507  1.00  0.00     0.010 C 
ATOM      8  C   UNL     1      20.714  25.793  40.499  1.00  0.00     0.025 C 
BRANCH   8   9
ATOM      9  C   UNL     1      20.545  26.975  41.359  1.00  0.00     0.064 C 
ATOM     10  O   UNL     1      21.229  28.008  41.137  1.00  0.00    -0.545 OA
ATOM     11  O   UNL     1      19.644  26.969  42.417  1.00  0.00    -0.545 OA
ENDBRANCH   8   9
ENDBRANCH   1   7
BRANCH   6  12
ATOM     12  O   UNL     1      20.216  20.214  37.127  1.00  0.00    -0.508 OA
ATOM     13  H   UNL     1      19.397  19.673  36.874  1.00  0.00     0.293 HD
ENDBRANCH   6  12
TORSDOF 3
ENDMDL
MODEL 3
REMARK VINA RESULT:    -5.182      1.303      1.610
REMARK INTER + INTRA:          -6.077
REMARK INTER:                  -5.941
REMARK INTRA:                  -0.136
REMARK UNBOUND:                -0.138
REMARK SMILES O=C([O-])C=Cc1ccc(O)cc1
REMARK SMILES IDX 6 1 7 2 12 3 8 4 11 5 9 6 5 7 4 8 2 9 1 10 3 11 10 12
REMARK H PARENT 10 13
REMARK Flexibility Score: inf
ROOT
ATOM      1  C   UNL     1      19.666  23.910  39.811  1.00  0.00    -0.025 A 
ATOM      2  C   UNL     1      20.342  22.800  40.346  1.00  0.00     0.012 A 
ATOM      3  C   UNL     1      19.290  23.886  38.452  1.00  0.00     0.012 A 
ATOM      4  C   UNL     1      20.612  21.681  39.553  1.00  0.00     0.047 A 
ATOM      5  C   UNL     1      19.564  22.765  37.662  1.00  0.00     0.047 A 
ATOM      6  C   UNL     1      20.223  21.661  38.208  1.00  0.00     0.115 A 
ENDROOT
BRANCH   1   7
ATOM      7  C   UNL     1      19.411  25.078  40.691  1.00  0.00     0.010 C 
ATOM      8  C   UNL     1      18.501  25.084  41.675  1.00  0.00     0.025 C 
BRANCH   8   9
ATOM      9  C   UNL     1      18.290  26.262  42.531  1.00  0.00     0.064 C 
ATOM     10  O   UNL     1      17.172  26.840  42.528  1.00  0.00    -0.545 OA
ATOM     11  O   UNL     1      19.308  26.751  43.341  1.00  0.00    -0.545 OA
ENDBRANCH   8   9
ENDBRANCH   1   7
BRANCH   6  12
ATOM     12  O   UNL     1      20.487  20.552  37.409  1.00  0.00    -0.508 OA
ATOM     13  H   UNL     1      20.782  19.668  37.808  1.00  0.00     0.293 HD
ENDBRANCH   6  12
TORSDOF 3
ENDMDL
MODEL 4
REMARK VINA RESULT:    -5.114     12.158     13.862
REMARK INTER + INTRA:          -5.999
REMARK INTER:                  -5.858
REMARK INTRA:                  -0.142
REMARK UNBOUND:                -0.138
REMARK SMILES O=C([O-])C=Cc1ccc(O)cc1
REMARK SMILES IDX 6 1 7 2 12 3 8 4 11 5 9 6 5 7 4 8 2 9 1 10 3 11 10 12
REMARK H PARENT 10 13
REMARK Flexibility Score: inf
ROOT
ATOM      1  C   UNL     1      27.198  23.770  50.504  1.00  0.00    -0.025 A 
ATOM      2  C   UNL     1      27.608  24.715  51.460  1.00  0.00     0.012 A 
ATOM      3  C   UNL     1      26.522  22.611  50.941  1.00  0.00     0.012 A 
ATOM      4  C   UNL     1      27.328  24.524  52.817  1.00  0.00     0.047 A 
ATOM      5  C   UNL     1      26.245  22.423  52.298  1.00  0.00     0.047 A 
ATOM      6  C   UNL     1      26.643  23.377  53.238  1.00  0.00     0.115 A 
ENDROOT
BRANCH   1   7
ATOM      7  C   UNL     1      27.528  24.013  49.078  1.00  0.00     0.010 C 
ATOM      8  C   UNL     1      28.777  24.182  48.621  1.00  0.00     0.025 C 
BRANCH   8   9
ATOM      9  C   UNL     1      29.058  24.409  47.195  1.00  0.00     0.064 C 
ATOM     10  O   UNL     1      30.206  24.784  46.840  1.00  0.00    -0.545 OA
ATOM     11  O   UNL     1      28.075  24.219  46.230  1.00  0.00    -0.545 OA
ENDBRANCH   8   9
ENDBRANCH   1   7
BRANCH   6  12
ATOM     12  O   UNL     1      26.358  23.176  54.587  1.00  0.00    -0.508 OA
ATOM     13  H   UNL     1      25.416  22.977  54.906  1.00  0.00     0.293 HD
ENDBRANCH   6  12
TORSDOF 3
ENDMDL
MODEL 5
REMARK VINA RESULT:    -4.947      1.490      5.927
REMARK INTER + INTRA:          -5.808
REMARK INTER:                  -5.670
REMARK INTRA:                  -0.138
REMARK UNBOUND:                -0.138
REMARK SMILES O=C([O-])C=Cc1ccc(O)cc1
REMARK SMILES IDX 6 1 7 2 12 3 8 4 11 5 9 6 5 7 4 8 2 9 1 10 3 11 10 12
REMARK H PARENT 10 13
REMARK Flexibility Score: inf
ROOT
ATOM      1  C   UNL     1      19.875  25.542  40.368  1.00  0.00    -0.025 A 
ATOM      2  C   UNL     1      21.027  26.336  40.498  1.00  0.00     0.012 A 
ATOM      3  C   UNL     1      18.905  25.579  41.391  1.00  0.00     0.012 A 
ATOM      4  C   UNL     1      21.196  27.169  41.609  1.00  0.00     0.047 A 
ATOM      5  C   UNL     1      19.079  26.412  42.501  1.00  0.00     0.047 A 
ATOM      6  C   UNL     1      20.221  27.209  42.612  1.00  0.00     0.115 A 
ENDROOT
BRANCH   1   7
ATOM      7  C   UNL     1      19.747  24.667  39.176  1.00  0.00     0.010 C 
ATOM      8  C   UNL     1      19.737  23.328  39.231  1.00  0.00     0.025 C 
BRANCH   8   9
ATOM      9  C   UNL     1      19.595  22.501  38.023  1.00  0.00     0.064 C 
ATOM     10  O   UNL     1      18.993  22.966  37.019  1.00  0.00    -0.545 OA
ATOM     11  O   UNL     1      20.111  21.211  37.972  1.00  0.00    -0.545 OA
ENDBRANCH   8   9
ENDBRANCH   1   7
BRANCH   6  12
ATOM     12  O   UNL     1      20.378  28.034  43.723  1.00  0.00    -0.508 OA
ATOM     13  H   UNL     1      19.581  28.358  44.260  1.00  0.00     0.293 HD
ENDBRANCH   6  12
TORSDOF 3
ENDMDL
MODEL 6
REMARK VINA RESULT:    -4.898      1.534      5.915
REMARK INTER + INTRA:          -5.752
REMARK INTER:                  -5.615
REMARK INTRA:                  -0.137
REMARK UNBOUND:                -0.138
REMARK SMILES O=C([O-])C=Cc1ccc(O)cc1
REMARK SMILES IDX 6 1 7 2 12 3 8 4 11 5 9 6 5 7 4 8 2 9 1 10 3 11 10 12
REMARK H PARENT 10 13
REMARK Flexibility Score: inf
ROOT
ATOM      1  C   UNL     1      19.951  25.584  40.333  1.00  0.00    -0.025 A 
ATOM      2  C   UNL     1      18.936  25.650  41.304  1.00  0.00     0.012 A 
ATOM      3  C   UNL     1      21.113  26.364  40.511  1.00  0.00     0.012 A 
ATOM      4  C   UNL     1      19.088  26.453  42.439  1.00  0.00     0.047 A 
ATOM      5  C   UNL     1      21.259  27.167  41.646  1.00  0.00     0.047 A 
ATOM      6  C   UNL     1      20.251  27.212  42.613  1.00  0.00     0.115 A 
ENDROOT
BRANCH   1   7
ATOM      7  C   UNL     1      19.739  24.725  39.142  1.00  0.00     0.010 C 
ATOM      8  C   UNL     1      19.762  23.385  39.176  1.00  0.00     0.025 C 
BRANCH   8   9
ATOM      9  C   UNL     1      19.534  22.573  37.970  1.00  0.00     0.064 C 
ATOM     10  O   UNL     1      20.172  21.499  37.816  1.00  0.00    -0.545 OA
ATOM     11  O   UNL     1      18.628  22.975  36.995  1.00  0.00    -0.545 OA
ENDBRANCH   8   9
ENDBRANCH   1   7
BRANCH   6  12
ATOM     12  O   UNL     1      20.413  28.016  43.739  1.00  0.00    -0.508 OA
ATOM     13  H   UNL     1      21.090  28.770  43.760  1.00  0.00     0.293 HD
ENDBRANCH   6  12
TORSDOF 3
ENDMDL
MODEL 7
REMARK VINA RESULT:    -4.847     11.790     13.340
REMARK INTER + INTRA:          -5.693
REMARK INTER:                  -5.556
REMARK INTRA:                  -0.137
REMARK UNBOUND:                -0.138
REMARK SMILES O=C([O-])C=Cc1ccc(O)cc1
REMARK SMILES IDX 6 1 7 2 12 3 8 4 11 5 9 6 5 7 4 8 2 9 1 10 3 11 10 12
REMARK H PARENT 10 13
REMARK Flexibility Score: inf
ROOT
ATOM      1  C   UNL     1      28.595  23.866  49.387  1.00  0.00    -0.025 A 
ATOM      2  C   UNL     1      29.430  22.769  49.658  1.00  0.00     0.012 A 
ATOM      3  C   UNL     1      28.038  24.580  50.470  1.00  0.00     0.012 A 
ATOM      4  C   UNL     1      29.727  22.408  50.976  1.00  0.00     0.047 A 
ATOM      5  C   UNL     1      28.336  24.214  51.786  1.00  0.00     0.047 A 
ATOM      6  C   UNL     1      29.181  23.131  52.043  1.00  0.00     0.115 A 
ENDROOT
BRANCH   1   7
ATOM      7  C   UNL     1      28.302  24.204  47.973  1.00  0.00     0.010 C 
ATOM      8  C   UNL     1      27.203  23.798  47.321  1.00  0.00     0.025 C 
BRANCH   8   9
ATOM      9  C   UNL     1      26.949  24.168  45.920  1.00  0.00     0.064 C 
ATOM     10  O   UNL     1      27.911  24.500  45.181  1.00  0.00    -0.545 OA
ATOM     11  O   UNL     1      25.660  24.161  45.399  1.00  0.00    -0.545 OA
ENDBRANCH   8   9
ENDBRANCH   1   7
BRANCH   6  12
ATOM     12  O   UNL     1      29.469  22.780  53.360  1.00  0.00    -0.508 OA
ATOM     13  H   UNL     1      29.471  21.813  53.663  1.00  0.00     0.293 HD
ENDBRANCH   6  12
TORSDOF 3
ENDMDL
MODEL 8
REMARK VINA RESULT:    -4.769     11.625     12.787
REMARK INTER + INTRA:          -5.604
REMARK INTER:                  -5.463
REMARK INTRA:                  -0.141
REMARK UNBOUND:                -0.138
REMARK SMILES O=C([O-])C=Cc1ccc(O)cc1
REMARK SMILES IDX 6 1 7 2 12 3 8 4 11 5 9 6 5 7 4 8 2 9 1 10 3 11 10 12
REMARK H PARENT 10 13
REMARK Flexibility Score: inf
ROOT
ATOM      1  C   UNL     1      28.439  24.006  48.758  1.00  0.00    -0.025 A 
ATOM      2  C   UNL     1      29.442  24.535  47.929  1.00  0.00     0.012 A 
ATOM      3  C   UNL     1      27.198  23.657  48.185  1.00  0.00     0.012 A 
ATOM      4  C   UNL     1      29.224  24.689  46.556  1.00  0.00     0.047 A 
ATOM      5  C   UNL     1      26.983  23.813  46.812  1.00  0.00     0.047 A 
ATOM      6  C   UNL     1      27.994  24.327  45.995  1.00  0.00     0.115 A 
ENDROOT
BRANCH   1   7
ATOM      7  C   UNL     1      28.715  23.871  50.210  1.00  0.00     0.010 C 
ATOM      8  C   UNL     1      27.778  23.991  51.161  1.00  0.00     0.025 C 
BRANCH   8   9
ATOM      9  C   UNL     1      28.095  23.838  52.589  1.00  0.00     0.064 C 
ATOM     10  O   UNL     1      27.161  23.719  53.424  1.00  0.00    -0.545 OA
ATOM     11  O   UNL     1      29.413  23.825  53.034  1.00  0.00    -0.545 OA
ENDBRANCH   8   9
ENDBRANCH   1   7
BRANCH   6  12
ATOM     12  O   UNL     1      27.765  24.475  44.629  1.00  0.00    -0.508 OA
ATOM     13  H   UNL     1      27.787  25.385  44.184  1.00  0.00     0.293 HD
ENDBRANCH   6  12
TORSDOF 3
ENDMDL
MODEL 9
REMARK VINA RESULT:    -4.632     11.911     13.702
REMARK INTER + INTRA:          -5.447
REMARK INTER:                  -5.305
REMARK INTRA:                  -0.142
REMARK UNBOUND:                -0.138
REMARK SMILES O=C([O-])C=Cc1ccc(O)cc1
REMARK SMILES IDX 6 1 7 2 12 3 8 4 11 5 9 6 5 7 4 8 2 9 1 10 3 11 10 12
REMARK H PARENT 10 13
REMARK Flexibility Score: inf
ROOT
ATOM      1  C   UNL     1      27.817  23.622  50.209  1.00  0.00    -0.025 A 
ATOM      2  C   UNL     1      26.856  24.392  50.887  1.00  0.00     0.012 A 
ATOM      3  C   UNL     1      28.939  23.151  50.923  1.00  0.00     0.012 A 
ATOM      4  C   UNL     1      26.996  24.664  52.251  1.00  0.00     0.047 A 
ATOM      5  C   UNL     1      29.075  23.427  52.287  1.00  0.00     0.047 A 
ATOM      6  C   UNL     1      28.106  24.181  52.955  1.00  0.00     0.115 A 
ENDROOT
BRANCH   1   7
ATOM      7  C   UNL     1      27.629  23.368  48.759  1.00  0.00     0.010 C 
ATOM      8  C   UNL     1      27.444  24.336  47.851  1.00  0.00     0.025 C 
BRANCH   8   9
ATOM      9  C   UNL     1      27.274  24.038  46.420  1.00  0.00     0.064 C 
ATOM     10  O   UNL     1      26.330  23.293  46.048  1.00  0.00    -0.545 OA
ATOM     11  O   UNL     1      28.142  24.563  45.470  1.00  0.00    -0.545 OA
ENDBRANCH   8   9
ENDBRANCH   1   7
BRANCH   6  12
ATOM     12  O   UNL     1      28.256  24.446  54.314  1.00  0.00    -0.508 OA
ATOM     13  H   UNL     1      28.715  23.789  54.935  1.00  0.00     0.293 HD
ENDBRANCH   6  12
TORSDOF 3
ENDMDL
