MODEL 1
REMARK VINA RESULT:    -3.865      0.000      0.000
REMARK INTER + INTRA:         -16.416
REMARK INTER:                 -10.192
REMARK INTRA:                  -6.224
REMARK UNBOUND:                -6.224
REMARK SMILES CCCCCCCCCCCCCCCCCCCCCCCCCCCCCC(=O)[O-]
REMARK SMILES IDX 16 1 17 2 18 3 19 4 20 5 21 6 22 7 23 8 24 9 25 10 26 11
REMARK SMILES IDX 27 12 28 13 29 14 30 15 31 16 32 17 15 18 14 19 13 20 12 21
REMARK SMILES IDX 11 22 10 23 9 24 8 25 7 26 6 27 5 28 4 29 3 30 2 31 1 32
REMARK H PARENT
REMARK Flexibility Score: inf
ROOT
ATOM      1  C   UNL     1     -25.351  -7.414  -3.128  1.00  0.00     0.000 C 
ENDROOT
BRANCH   1   2
ATOM      2  C   UNL     1     -25.355  -6.020  -3.773  1.00  0.00     0.000 C 
BRANCH   2   3
ATOM      3  C   UNL     1     -26.771  -5.527  -4.124  1.00  0.00     0.000 C 
BRANCH   3   4
ATOM      4  C   UNL     1     -26.971  -5.122  -5.595  1.00  0.00     0.000 C 
BRANCH   4   5
ATOM      5  C   UNL     1     -26.632  -6.252  -6.578  1.00  0.00     0.000 C 
BRANCH   5   6
ATOM      6  C   UNL     1     -25.752  -5.737  -7.727  1.00  0.00     0.000 C 
BRANCH   6   7
ATOM      7  C   UNL     1     -24.277  -5.568  -7.318  1.00  0.00     0.000 C 
BRANCH   7   8
ATOM      8  C   UNL     1     -23.809  -4.106  -7.171  1.00  0.00     0.000 C 
BRANCH   8   9
ATOM      9  C   UNL     1     -23.018  -3.797  -5.884  1.00  0.00     0.000 C 
BRANCH   9  10
ATOM     10  C   UNL     1     -23.724  -2.847  -4.899  1.00  0.00     0.000 C 
BRANCH  10  11
ATOM     11  C   UNL     1     -24.978  -2.192  -5.497  1.00  0.00     0.000 C 
BRANCH  11  12
ATOM     12  C   UNL     1     -25.894  -1.648  -4.392  1.00  0.00     0.000 C 
BRANCH  12  13
ATOM     13  C   UNL     1     -25.209  -1.609  -3.014  1.00  0.00     0.006 C 
BRANCH  13  14
ATOM     14  C   UNL     1     -25.793  -2.592  -1.986  1.00  0.00     0.053 C 
BRANCH  14  15
ATOM     15  C   UNL     1     -24.966  -2.658  -0.739  1.00  0.00     0.041 C 
ATOM     16  O   UNL     1     -25.396  -2.151   0.331  1.00  0.00    -0.550 OA
ATOM     17  O   UNL     1     -23.705  -3.239  -0.768  1.00  0.00    -0.550 OA
ENDBRANCH  14  15
ENDBRANCH  13  14
ENDBRANCH  12  13
ENDBRANCH  11  12
ENDBRANCH  10  11
ENDBRANCH   9  10
ENDBRANCH   8   9
ENDBRANCH   7   8
ENDBRANCH   6   7
ENDBRANCH   5   6
ENDBRANCH   4   5
ENDBRANCH   3   4
ENDBRANCH   2   3
ENDBRANCH   1   2
BRANCH   1  18
ATOM     18  C   UNL     1     -24.151  -8.239  -3.617  1.00  0.00     0.000 C 
BRANCH  18  19
ATOM     19  C   UNL     1     -24.209  -8.548  -5.124  1.00  0.00     0.000 C 
BRANCH  19  20
ATOM     20  C   UNL     1     -23.706  -9.951  -5.534  1.00  0.00     0.000 C 
BRANCH  20  21
ATOM     21  C   UNL     1     -22.737 -10.618  -4.534  1.00  0.00     0.000 C 
BRANCH  21  22
ATOM     22  C   UNL     1     -21.473 -11.218  -5.189  1.00  0.00     0.000 C 
BRANCH  22  23
ATOM     23  C   UNL     1     -21.538 -11.290  -6.727  1.00  0.00     0.000 C 
BRANCH  23  24
ATOM     24  C   UNL     1     -20.660 -10.239  -7.443  1.00  0.00    -0.000 C 
BRANCH  24  25
ATOM     25  C   UNL     1     -21.451  -9.288  -8.360  1.00  0.00    -0.000 C 
BRANCH  25  26
ATOM     26  C   UNL     1     -21.523  -7.857  -7.802  1.00  0.00    -0.000 C 
BRANCH  26  27
ATOM     27  C   UNL     1     -20.430  -7.624  -6.750  1.00  0.00    -0.000 C 
BRANCH  27  28
ATOM     28  C   UNL     1     -20.952  -6.897  -5.499  1.00  0.00    -0.000 C 
BRANCH  28  29
ATOM     29  C   UNL     1     -20.583  -7.620  -4.195  1.00  0.00    -0.000 C 
BRANCH  29  30
ATOM     30  C   UNL     1     -19.290  -8.429  -4.362  1.00  0.00    -0.000 C 
BRANCH  30  31
ATOM     31  C   UNL     1     -18.982  -9.242  -3.102  1.00  0.00    -0.003 C 
ATOM     32  C   UNL     1     -20.195  -9.306  -2.178  1.00  0.00     0.004 C 
ENDBRANCH  30  31
ENDBRANCH  29  30
ENDBRANCH  28  29
ENDBRANCH  27  28
ENDBRANCH  26  27
ENDBRANCH  25  26
ENDBRANCH  24  25
ENDBRANCH  23  24
ENDBRANCH  22  23
ENDBRANCH  21  22
ENDBRANCH  20  21
ENDBRANCH  19  20
ENDBRANCH  18  19
ENDBRANCH   1  18
TORSDOF 28
ENDMDL
MODEL 2
REMARK VINA RESULT:    -3.854      3.159      7.333
REMARK INTER + INTRA:         -16.386
REMARK INTER:                 -10.272
REMARK INTRA:                  -6.114
REMARK UNBOUND:                -6.224
REMARK SMILES CCCCCCCCCCCCCCCCCCCCCCCCCCCCCC(=O)[O-]
REMARK SMILES IDX 16 1 17 2 18 3 19 4 20 5 21 6 22 7 23 8 24 9 25 10 26 11
REMARK SMILES IDX 27 12 28 13 29 14 30 15 31 16 32 17 15 18 14 19 13 20 12 21
REMARK SMILES IDX 11 22 10 23 9 24 8 25 7 26 6 27 5 28 4 29 3 30 2 31 1 32
REMARK H PARENT
REMARK Flexibility Score: inf
ROOT
ATOM      1  C   UNL     1     -25.996  -6.947  -3.748  1.00  0.00     0.000 C 
ENDROOT
BRANCH   1   2
ATOM      2  C   UNL     1     -24.491  -6.873  -3.450  1.00  0.00     0.000 C 
BRANCH   2   3
ATOM      3  C   UNL     1     -23.664  -7.859  -4.296  1.00  0.00     0.000 C 
BRANCH   3   4
ATOM      4  C   UNL     1     -24.383  -9.173  -4.649  1.00  0.00     0.000 C 
BRANCH   4   5
ATOM      5  C   UNL     1     -24.355  -9.485  -6.153  1.00  0.00     0.000 C 
BRANCH   5   6
ATOM      6  C   UNL     1     -22.938  -9.319  -6.723  1.00  0.00     0.000 C 
BRANCH   6   7
ATOM      7  C   UNL     1     -22.307 -10.657  -7.150  1.00  0.00     0.000 C 
BRANCH   7   8
ATOM      8  C   UNL     1     -21.637 -11.451  -6.010  1.00  0.00     0.000 C 
BRANCH   8   9
ATOM      9  C   UNL     1     -20.794 -10.609  -5.031  1.00  0.00     0.000 C 
BRANCH   9  10
ATOM     10  C   UNL     1     -19.271 -10.738  -5.207  1.00  0.00     0.000 C 
BRANCH  10  11
ATOM     11  C   UNL     1     -18.686  -9.673  -6.146  1.00  0.00     0.000 C 
BRANCH  11  12
ATOM     12  C   UNL     1     -19.225  -8.278  -5.798  1.00  0.00     0.000 C 
BRANCH  12  13
ATOM     13  C   UNL     1     -19.940  -7.602  -6.983  1.00  0.00     0.006 C 
BRANCH  13  14
ATOM     14  C   UNL     1     -19.360  -7.959  -8.361  1.00  0.00     0.053 C 
BRANCH  14  15
ATOM     15  C   UNL     1     -20.250  -7.511  -9.479  1.00  0.00     0.041 C 
ATOM     16  O   UNL     1     -21.350  -8.090  -9.680  1.00  0.00    -0.550 OA
ATOM     17  O   UNL     1     -19.845  -6.487 -10.325  1.00  0.00    -0.550 OA
ENDBRANCH  14  15
ENDBRANCH  13  14
ENDBRANCH  12  13
ENDBRANCH  11  12
ENDBRANCH  10  11
ENDBRANCH   9  10
ENDBRANCH   8   9
ENDBRANCH   7   8
ENDBRANCH   6   7
ENDBRANCH   5   6
ENDBRANCH   4   5
ENDBRANCH   3   4
ENDBRANCH   2   3
ENDBRANCH   1   2
BRANCH   1  18
ATOM     18  C   UNL     1     -26.526  -5.586  -4.223  1.00  0.00     0.000 C 
BRANCH  18  19
ATOM     19  C   UNL     1     -27.175  -5.647  -5.618  1.00  0.00     0.000 C 
BRANCH  19  20
ATOM     20  C   UNL     1     -26.343  -6.363  -6.706  1.00  0.00     0.000 C 
BRANCH  20  21
ATOM     21  C   UNL     1     -25.354  -5.460  -7.474  1.00  0.00     0.000 C 
BRANCH  21  22
ATOM     22  C   UNL     1     -23.923  -6.033  -7.569  1.00  0.00     0.000 C 
BRANCH  22  23
ATOM     23  C   UNL     1     -22.852  -5.161  -6.884  1.00  0.00     0.000 C 
BRANCH  23  24
ATOM     24  C   UNL     1     -23.397  -4.282  -5.735  1.00  0.00    -0.000 C 
BRANCH  24  25
ATOM     25  C   UNL     1     -23.187  -2.773  -5.953  1.00  0.00    -0.000 C 
BRANCH  25  26
ATOM     26  C   UNL     1     -24.466  -2.063  -6.427  1.00  0.00    -0.000 C 
BRANCH  26  27
ATOM     27  C   UNL     1     -25.581  -2.185  -5.379  1.00  0.00    -0.000 C 
BRANCH  27  28
ATOM     28  C   UNL     1     -25.352  -1.281  -4.157  1.00  0.00    -0.000 C 
BRANCH  28  29
ATOM     29  C   UNL     1     -25.711  -1.971  -2.832  1.00  0.00    -0.000 C 
BRANCH  29  30
ATOM     30  C   UNL     1     -24.646  -3.006  -2.446  1.00  0.00    -0.000 C 
BRANCH  30  31
ATOM     31  C   UNL     1     -23.258  -2.365  -2.365  1.00  0.00    -0.003 C 
ATOM     32  C   UNL     1     -22.165  -3.426  -2.290  1.00  0.00     0.004 C 
ENDBRANCH  30  31
ENDBRANCH  29  30
ENDBRANCH  28  29
ENDBRANCH  27  28
ENDBRANCH  26  27
ENDBRANCH  25  26
ENDBRANCH  24  25
ENDBRANCH  23  24
ENDBRANCH  22  23
ENDBRANCH  21  22
ENDBRANCH  20  21
ENDBRANCH  19  20
ENDBRANCH  18  19
ENDBRANCH   1  18
TORSDOF 28
ENDMDL
MODEL 3
REMARK VINA RESULT:    -3.839      3.520      7.739
REMARK INTER + INTRA:         -16.347
REMARK INTER:                 -10.317
REMARK INTRA:                  -6.030
REMARK UNBOUND:                -6.224
REMARK SMILES CCCCCCCCCCCCCCCCCCCCCCCCCCCCCC(=O)[O-]
REMARK SMILES IDX 16 1 17 2 18 3 19 4 20 5 21 6 22 7 23 8 24 9 25 10 26 11
REMARK SMILES IDX 27 12 28 13 29 14 30 15 31 16 32 17 15 18 14 19 13 20 12 21
REMARK SMILES IDX 11 22 10 23 9 24 8 25 7 26 6 27 5 28 4 29 3 30 2 31 1 32
REMARK H PARENT
REMARK Flexibility Score: inf
ROOT
ATOM      1  C   UNL     1     -24.447  -9.473  -4.901  1.00  0.00     0.000 C 
ENDROOT
BRANCH   1   2
ATOM      2  C   UNL     1     -24.035  -9.450  -6.380  1.00  0.00     0.000 C 
BRANCH   2   3
ATOM      3  C   UNL     1     -22.963 -10.502  -6.719  1.00  0.00     0.000 C 
BRANCH   3   4
ATOM      4  C   UNL     1     -21.840 -10.009  -7.650  1.00  0.00     0.000 C 
BRANCH   4   5
ATOM      5  C   UNL     1     -20.457 -10.032  -6.982  1.00  0.00     0.000 C 
BRANCH   5   6
ATOM      6  C   UNL     1     -20.489 -10.845  -5.679  1.00  0.00     0.000 C 
BRANCH   6   7
ATOM      7  C   UNL     1     -19.342 -10.477  -4.720  1.00  0.00     0.000 C 
BRANCH   7   8
ATOM      8  C   UNL     1     -17.929 -10.810  -5.239  1.00  0.00     0.000 C 
BRANCH   8   9
ATOM      9  C   UNL     1     -16.980  -9.602  -5.379  1.00  0.00     0.000 C 
BRANCH   9  10
ATOM     10  C   UNL     1     -17.359  -8.376  -4.529  1.00  0.00     0.000 C 
BRANCH  10  11
ATOM     11  C   UNL     1     -17.751  -7.159  -5.379  1.00  0.00     0.000 C 
BRANCH  11  12
ATOM     12  C   UNL     1     -17.941  -7.553  -6.851  1.00  0.00     0.000 C 
BRANCH  12  13
ATOM     13  C   UNL     1     -16.945  -6.850  -7.790  1.00  0.00     0.006 C 
BRANCH  13  14
ATOM     14  C   UNL     1     -17.064  -7.263  -9.266  1.00  0.00     0.053 C 
BRANCH  14  15
ATOM     15  C   UNL     1     -18.072  -8.352  -9.465  1.00  0.00     0.041 C 
ATOM     16  O   UNL     1     -17.725  -9.559  -9.373  1.00  0.00    -0.550 OA
ATOM     17  O   UNL     1     -19.384  -8.036  -9.797  1.00  0.00    -0.550 OA
ENDBRANCH  14  15
ENDBRANCH  13  14
ENDBRANCH  12  13
ENDBRANCH  11  12
ENDBRANCH  10  11
ENDBRANCH   9  10
ENDBRANCH   8   9
ENDBRANCH   7   8
ENDBRANCH   6   7
ENDBRANCH   5   6
ENDBRANCH   4   5
ENDBRANCH   3   4
ENDBRANCH   2   3
ENDBRANCH   1   2
BRANCH   1  18
ATOM     18  C   UNL     1     -23.245  -9.176  -3.993  1.00  0.00     0.000 C 
BRANCH  18  19
ATOM     19  C   UNL     1     -22.889  -7.679  -3.938  1.00  0.00     0.000 C 
BRANCH  19  20
ATOM     20  C   UNL     1     -21.529  -7.296  -4.565  1.00  0.00     0.000 C 
BRANCH  20  21
ATOM     21  C   UNL     1     -21.611  -6.651  -5.964  1.00  0.00     0.000 C 
BRANCH  21  22
ATOM     22  C   UNL     1     -22.841  -5.738  -6.165  1.00  0.00     0.000 C 
BRANCH  22  23
ATOM     23  C   UNL     1     -23.621  -6.016  -7.465  1.00  0.00     0.000 C 
BRANCH  23  24
ATOM     24  C   UNL     1     -25.045  -5.415  -7.485  1.00  0.00    -0.000 C 
BRANCH  24  25
ATOM     25  C   UNL     1     -26.124  -6.353  -6.914  1.00  0.00    -0.000 C 
BRANCH  25  26
ATOM     26  C   UNL     1     -26.856  -5.742  -5.708  1.00  0.00    -0.000 C 
BRANCH  26  27
ATOM     27  C   UNL     1     -26.322  -6.322  -4.391  1.00  0.00    -0.000 C 
BRANCH  27  28
ATOM     28  C   UNL     1     -25.915  -5.234  -3.383  1.00  0.00    -0.000 C 
BRANCH  28  29
ATOM     29  C   UNL     1     -25.521  -3.913  -4.061  1.00  0.00    -0.000 C 
BRANCH  29  30
ATOM     30  C   UNL     1     -24.389  -3.218  -3.293  1.00  0.00    -0.000 C 
BRANCH  30  31
ATOM     31  C   UNL     1     -23.509  -4.240  -2.567  1.00  0.00    -0.003 C 
ATOM     32  C   UNL     1     -22.038  -4.050  -2.924  1.00  0.00     0.004 C 
ENDBRANCH  30  31
ENDBRANCH  29  30
ENDBRANCH  28  29
ENDBRANCH  27  28
ENDBRANCH  26  27
ENDBRANCH  25  26
ENDBRANCH  24  25
ENDBRANCH  23  24
ENDBRANCH  22  23
ENDBRANCH  21  22
ENDBRANCH  20  21
ENDBRANCH  19  20
ENDBRANCH  18  19
ENDBRANCH   1  18
TORSDOF 28
ENDMDL
MODEL 4
REMARK VINA RESULT:    -3.791      3.648      7.796
REMARK INTER + INTRA:         -16.221
REMARK INTER:                 -10.018
REMARK INTRA:                  -6.203
REMARK UNBOUND:                -6.224
REMARK SMILES CCCCCCCCCCCCCCCCCCCCCCCCCCCCCC(=O)[O-]
REMARK SMILES IDX 16 1 17 2 18 3 19 4 20 5 21 6 22 7 23 8 24 9 25 10 26 11
REMARK SMILES IDX 27 12 28 13 29 14 30 15 31 16 32 17 15 18 14 19 13 20 12 21
REMARK SMILES IDX 11 22 10 23 9 24 8 25 7 26 6 27 5 28 4 29 3 30 2 31 1 32
REMARK H PARENT
REMARK Flexibility Score: inf
ROOT
ATOM      1  C   UNL     1     -22.242 -11.001  -6.750  1.00  0.00     0.000 C 
ENDROOT
BRANCH   1   2
ATOM      2  C   UNL     1     -20.814 -10.971  -6.188  1.00  0.00     0.000 C 
BRANCH   2   3
ATOM      3  C   UNL     1     -20.731 -10.320  -4.795  1.00  0.00     0.000 C 
BRANCH   3   4
ATOM      4  C   UNL     1     -19.306 -10.160  -4.237  1.00  0.00     0.000 C 
BRANCH   4   5
ATOM      5  C   UNL     1     -18.255 -10.929  -5.050  1.00  0.00     0.000 C 
BRANCH   5   6
ATOM      6  C   UNL     1     -17.079 -10.018  -5.432  1.00  0.00     0.000 C 
BRANCH   6   7
ATOM      7  C   UNL     1     -17.155  -8.635  -4.760  1.00  0.00     0.000 C 
BRANCH   7   8
ATOM      8  C   UNL     1     -17.471  -7.466  -5.715  1.00  0.00     0.000 C 
BRANCH   8   9
ATOM      9  C   UNL     1     -18.145  -7.868  -7.042  1.00  0.00     0.000 C 
BRANCH   9  10
ATOM     10  C   UNL     1     -19.647  -7.543  -7.133  1.00  0.00     0.000 C 
BRANCH  10  11
ATOM     11  C   UNL     1     -19.976  -6.542  -8.249  1.00  0.00     0.000 C 
BRANCH  11  12
ATOM     12  C   UNL     1     -20.577  -7.255  -9.469  1.00  0.00     0.000 C 
BRANCH  12  13
ATOM     13  C   UNL     1     -21.938  -6.673  -9.890  1.00  0.00     0.006 C 
BRANCH  13  14
ATOM     14  C   UNL     1     -22.555  -7.336 -11.133  1.00  0.00     0.053 C 
BRANCH  14  15
ATOM     15  C   UNL     1     -22.571  -6.413 -12.312  1.00  0.00     0.041 C 
ATOM     16  O   UNL     1     -21.728  -5.482 -12.397  1.00  0.00    -0.550 OA
ATOM     17  O   UNL     1     -23.545  -6.553 -13.293  1.00  0.00    -0.550 OA
ENDBRANCH  14  15
ENDBRANCH  13  14
ENDBRANCH  12  13
ENDBRANCH  11  12
ENDBRANCH  10  11
ENDBRANCH   9  10
ENDBRANCH   8   9
ENDBRANCH   7   8
ENDBRANCH   6   7
ENDBRANCH   5   6
ENDBRANCH   4   5
ENDBRANCH   3   4
ENDBRANCH   2   3
ENDBRANCH   1   2
BRANCH   1  18
ATOM     18  C   UNL     1     -22.480  -9.820  -7.702  1.00  0.00     0.000 C 
BRANCH  18  19
ATOM     19  C   UNL     1     -23.606  -8.884  -7.229  1.00  0.00     0.000 C 
BRANCH  19  20
ATOM     20  C   UNL     1     -24.239  -9.242  -5.865  1.00  0.00     0.000 C 
BRANCH  20  21
ATOM     21  C   UNL     1     -24.008  -8.209  -4.743  1.00  0.00     0.000 C 
BRANCH  21  22
ATOM     22  C   UNL     1     -22.729  -7.360  -4.923  1.00  0.00     0.000 C 
BRANCH  22  23
ATOM     23  C   UNL     1     -22.858  -5.914  -4.406  1.00  0.00     0.000 C 
BRANCH  23  24
ATOM     24  C   UNL     1     -22.623  -4.836  -5.486  1.00  0.00    -0.000 C 
BRANCH  24  25
ATOM     25  C   UNL     1     -23.107  -5.244  -6.889  1.00  0.00    -0.000 C 
BRANCH  25  26
ATOM     26  C   UNL     1     -24.461  -4.611  -7.252  1.00  0.00    -0.000 C 
BRANCH  26  27
ATOM     27  C   UNL     1     -25.412  -5.657  -7.850  1.00  0.00    -0.000 C 
BRANCH  27  28
ATOM     28  C   UNL     1     -26.390  -6.235  -6.813  1.00  0.00    -0.000 C 
BRANCH  28  29
ATOM     29  C   UNL     1     -26.735  -5.234  -5.700  1.00  0.00    -0.000 C 
BRANCH  29  30
ATOM     30  C   UNL     1     -26.682  -5.907  -4.322  1.00  0.00    -0.000 C 
BRANCH  30  31
ATOM     31  C   UNL     1     -26.070  -4.971  -3.275  1.00  0.00    -0.003 C 
ATOM     32  C   UNL     1     -25.702  -3.624  -3.890  1.00  0.00     0.004 C 
ENDBRANCH  30  31
ENDBRANCH  29  30
ENDBRANCH  28  29
ENDBRANCH  27  28
ENDBRANCH  26  27
ENDBRANCH  25  26
ENDBRANCH  24  25
ENDBRANCH  23  24
ENDBRANCH  22  23
ENDBRANCH  21  22
ENDBRANCH  20  21
ENDBRANCH  19  20
ENDBRANCH  18  19
ENDBRANCH   1  18
TORSDOF 28
ENDMDL
MODEL 5
REMARK VINA RESULT:    -3.785      3.297      7.905
REMARK INTER + INTRA:         -16.205
REMARK INTER:                  -9.958
REMARK INTRA:                  -6.247
REMARK UNBOUND:                -6.224
REMARK SMILES CCCCCCCCCCCCCCCCCCCCCCCCCCCCCC(=O)[O-]
REMARK SMILES IDX 16 1 17 2 18 3 19 4 20 5 21 6 22 7 23 8 24 9 25 10 26 11
REMARK SMILES IDX 27 12 28 13 29 14 30 15 31 16 32 17 15 18 14 19 13 20 12 21
REMARK SMILES IDX 11 22 10 23 9 24 8 25 7 26 6 27 5 28 4 29 3 30 2 31 1 32
REMARK H PARENT
REMARK Flexibility Score: inf
ROOT
ATOM      1  C   UNL     1     -24.909  -8.408  -4.573  1.00  0.00     0.000 C 
ENDROOT
BRANCH   1   2
ATOM      2  C   UNL     1     -24.588  -8.898  -5.993  1.00  0.00     0.000 C 
BRANCH   2   3
ATOM      3  C   UNL     1     -23.301  -8.273  -6.564  1.00  0.00     0.000 C 
BRANCH   3   4
ATOM      4  C   UNL     1     -22.625  -9.089  -7.680  1.00  0.00     0.000 C 
BRANCH   4   5
ATOM      5  C   UNL     1     -22.563 -10.592  -7.369  1.00  0.00     0.000 C 
BRANCH   5   6
ATOM      6  C   UNL     1     -21.123 -11.033  -7.067  1.00  0.00     0.000 C 
BRANCH   6   7
ATOM      7  C   UNL     1     -20.968 -11.636  -5.659  1.00  0.00     0.000 C 
BRANCH   7   8
ATOM      8  C   UNL     1     -22.134 -11.340  -4.694  1.00  0.00     0.000 C 
BRANCH   8   9
ATOM      9  C   UNL     1     -21.862 -10.232  -3.658  1.00  0.00     0.000 C 
BRANCH   9  10
ATOM     10  C   UNL     1     -20.481  -9.562  -3.770  1.00  0.00     0.000 C 
BRANCH  10  11
ATOM     11  C   UNL     1     -20.540  -8.038  -3.588  1.00  0.00     0.000 C 
BRANCH  11  12
ATOM     12  C   UNL     1     -20.079  -7.314  -4.861  1.00  0.00     0.000 C 
BRANCH  12  13
ATOM     13  C   UNL     1     -19.271  -8.222  -5.805  1.00  0.00     0.006 C 
BRANCH  13  14
ATOM     14  C   UNL     1     -19.282  -7.778  -7.277  1.00  0.00     0.053 C 
BRANCH  14  15
ATOM     15  C   UNL     1     -18.131  -8.351  -8.045  1.00  0.00     0.041 C 
ATOM     16  O   UNL     1     -17.283  -7.585  -8.577  1.00  0.00    -0.550 OA
ATOM     17  O   UNL     1     -18.019  -9.725  -8.213  1.00  0.00    -0.550 OA
ENDBRANCH  14  15
ENDBRANCH  13  14
ENDBRANCH  12  13
ENDBRANCH  11  12
ENDBRANCH  10  11
ENDBRANCH   9  10
ENDBRANCH   8   9
ENDBRANCH   7   8
ENDBRANCH   6   7
ENDBRANCH   5   6
ENDBRANCH   4   5
ENDBRANCH   3   4
ENDBRANCH   2   3
ENDBRANCH   1   2
BRANCH   1  18
ATOM     18  C   UNL     1     -24.029  -7.207  -4.197  1.00  0.00     0.000 C 
BRANCH  18  19
ATOM     19  C   UNL     1     -24.473  -6.523  -2.891  1.00  0.00     0.000 C 
BRANCH  19  20
ATOM     20  C   UNL     1     -23.864  -5.126  -2.633  1.00  0.00     0.000 C 
BRANCH  20  21
ATOM     21  C   UNL     1     -22.498  -4.872  -3.303  1.00  0.00     0.000 C 
BRANCH  21  22
ATOM     22  C   UNL     1     -22.565  -3.947  -4.539  1.00  0.00     0.000 C 
BRANCH  22  23
ATOM     23  C   UNL     1     -22.124  -2.497  -4.260  1.00  0.00     0.000 C 
BRANCH  23  24
ATOM     24  C   UNL     1     -23.263  -1.459  -4.376  1.00  0.00    -0.000 C 
BRANCH  24  25
ATOM     25  C   UNL     1     -24.129  -1.343  -3.108  1.00  0.00    -0.000 C 
BRANCH  25  26
ATOM     26  C   UNL     1     -25.596  -1.731  -3.361  1.00  0.00    -0.000 C 
BRANCH  26  27
ATOM     27  C   UNL     1     -26.020  -1.369  -4.790  1.00  0.00    -0.000 C 
BRANCH  27  28
ATOM     28  C   UNL     1     -26.663  -2.550  -5.538  1.00  0.00    -0.000 C 
BRANCH  28  29
ATOM     29  C   UNL     1     -26.031  -3.901  -5.168  1.00  0.00    -0.000 C 
BRANCH  29  30
ATOM     30  C   UNL     1     -27.016  -5.052  -5.414  1.00  0.00    -0.000 C 
BRANCH  30  31
ATOM     31  C   UNL     1     -26.588  -5.895  -6.618  1.00  0.00    -0.003 C 
ATOM     32  C   UNL     1     -25.296  -5.363  -7.231  1.00  0.00     0.004 C 
ENDBRANCH  30  31
ENDBRANCH  29  30
ENDBRANCH  28  29
ENDBRANCH  27  28
ENDBRANCH  26  27
ENDBRANCH  25  26
ENDBRANCH  24  25
ENDBRANCH  23  24
ENDBRANCH  22  23
ENDBRANCH  21  22
ENDBRANCH  20  21
ENDBRANCH  19  20
ENDBRANCH  18  19
ENDBRANCH   1  18
TORSDOF 28
ENDMDL
MODEL 6
REMARK VINA RESULT:    -3.783      2.334      3.886
REMARK INTER + INTRA:         -16.198
REMARK INTER:                  -9.819
REMARK INTRA:                  -6.379
REMARK UNBOUND:                -6.224
REMARK SMILES CCCCCCCCCCCCCCCCCCCCCCCCCCCCCC(=O)[O-]
REMARK SMILES IDX 16 1 17 2 18 3 19 4 20 5 21 6 22 7 23 8 24 9 25 10 26 11
REMARK SMILES IDX 27 12 28 13 29 14 30 15 31 16 32 17 15 18 14 19 13 20 12 21
REMARK SMILES IDX 11 22 10 23 9 24 8 25 7 26 6 27 5 28 4 29 3 30 2 31 1 32
REMARK H PARENT
REMARK Flexibility Score: inf
ROOT
ATOM      1  C   UNL     1     -23.806  -7.238  -6.464  1.00  0.00     0.000 C 
ENDROOT
BRANCH   1   2
ATOM      2  C   UNL     1     -24.560  -5.961  -6.863  1.00  0.00     0.000 C 
BRANCH   2   3
ATOM      3  C   UNL     1     -26.083  -6.080  -6.669  1.00  0.00     0.000 C 
BRANCH   3   4
ATOM      4  C   UNL     1     -26.610  -5.551  -5.323  1.00  0.00     0.000 C 
BRANCH   4   5
ATOM      5  C   UNL     1     -26.413  -6.548  -4.171  1.00  0.00     0.000 C 
BRANCH   5   6
ATOM      6  C   UNL     1     -25.521  -5.950  -3.072  1.00  0.00     0.000 C 
BRANCH   6   7
ATOM      7  C   UNL     1     -24.771  -4.688  -3.535  1.00  0.00     0.000 C 
BRANCH   7   8
ATOM      8  C   UNL     1     -23.375  -4.495  -2.907  1.00  0.00     0.000 C 
BRANCH   8   9
ATOM      9  C   UNL     1     -22.208  -5.116  -3.699  1.00  0.00     0.000 C 
BRANCH   9  10
ATOM     10  C   UNL     1     -21.875  -6.574  -3.332  1.00  0.00     0.000 C 
BRANCH  10  11
ATOM     11  C   UNL     1     -20.831  -6.683  -2.211  1.00  0.00     0.000 C 
BRANCH  11  12
ATOM     12  C   UNL     1     -21.476  -7.165  -0.903  1.00  0.00     0.000 C 
BRANCH  12  13
ATOM     13  C   UNL     1     -22.808  -7.902  -1.131  1.00  0.00     0.006 C 
BRANCH  13  14
ATOM     14  C   UNL     1     -23.919  -7.528  -0.137  1.00  0.00     0.053 C 
BRANCH  14  15
ATOM     15  C   UNL     1     -23.621  -8.012   1.248  1.00  0.00     0.041 C 
ATOM     16  O   UNL     1     -23.568  -9.248   1.487  1.00  0.00    -0.550 OA
ATOM     17  O   UNL     1     -23.446  -7.102   2.282  1.00  0.00    -0.550 OA
ENDBRANCH  14  15
ENDBRANCH  13  14
ENDBRANCH  12  13
ENDBRANCH  11  12
ENDBRANCH  10  11
ENDBRANCH   9  10
ENDBRANCH   8   9
ENDBRANCH   7   8
ENDBRANCH   6   7
ENDBRANCH   5   6
ENDBRANCH   4   5
ENDBRANCH   3   4
ENDBRANCH   2   3
ENDBRANCH   1   2
BRANCH   1  18
ATOM     18  C   UNL     1     -24.633  -8.488  -6.798  1.00  0.00     0.000 C 
BRANCH  18  19
ATOM     19  C   UNL     1     -24.461  -9.616  -5.764  1.00  0.00     0.000 C 
BRANCH  19  20
ATOM     20  C   UNL     1     -23.748  -9.212  -4.453  1.00  0.00     0.000 C 
BRANCH  20  21
ATOM     21  C   UNL     1     -22.792 -10.276  -3.873  1.00  0.00     0.000 C 
BRANCH  21  22
ATOM     22  C   UNL     1     -21.479 -10.443  -4.669  1.00  0.00     0.000 C 
BRANCH  22  23
ATOM     23  C   UNL     1     -21.466 -11.669  -5.604  1.00  0.00     0.000 C 
BRANCH  23  24
ATOM     24  C   UNL     1     -21.441 -11.312  -7.108  1.00  0.00    -0.000 C 
BRANCH  24  25
ATOM     25  C   UNL     1     -20.429 -10.210  -7.469  1.00  0.00    -0.000 C 
BRANCH  25  26
ATOM     26  C   UNL     1     -21.100  -8.985  -8.113  1.00  0.00    -0.000 C 
BRANCH  26  27
ATOM     27  C   UNL     1     -20.263  -7.719  -7.884  1.00  0.00    -0.000 C 
BRANCH  27  28
ATOM     28  C   UNL     1     -20.104  -7.371  -6.395  1.00  0.00    -0.000 C 
BRANCH  28  29
ATOM     29  C   UNL     1     -18.642  -7.419  -5.927  1.00  0.00    -0.000 C 
BRANCH  29  30
ATOM     30  C   UNL     1     -18.450  -8.479  -4.834  1.00  0.00    -0.000 C 
BRANCH  30  31
ATOM     31  C   UNL     1     -17.235  -9.363  -5.131  1.00  0.00    -0.003 C 
ATOM     32  C   UNL     1     -17.641 -10.827  -5.268  1.00  0.00     0.004 C 
ENDBRANCH  30  31
ENDBRANCH  29  30
ENDBRANCH  28  29
ENDBRANCH  27  28
ENDBRANCH  26  27
ENDBRANCH  25  26
ENDBRANCH  24  25
ENDBRANCH  23  24
ENDBRANCH  22  23
ENDBRANCH  21  22
ENDBRANCH  20  21
ENDBRANCH  19  20
ENDBRANCH  18  19
ENDBRANCH   1  18
TORSDOF 28
ENDMDL
MODEL 7
REMARK VINA RESULT:    -3.748      3.549      7.811
REMARK INTER + INTRA:         -16.108
REMARK INTER:                 -10.548
REMARK INTRA:                  -5.560
REMARK UNBOUND:                -6.224
REMARK SMILES CCCCCCCCCCCCCCCCCCCCCCCCCCCCCC(=O)[O-]
REMARK SMILES IDX 16 1 17 2 18 3 19 4 20 5 21 6 22 7 23 8 24 9 25 10 26 11
REMARK SMILES IDX 27 12 28 13 29 14 30 15 31 16 32 17 15 18 14 19 13 20 12 21
REMARK SMILES IDX 11 22 10 23 9 24 8 25 7 26 6 27 5 28 4 29 3 30 2 31 1 32
REMARK H PARENT
REMARK Flexibility Score: inf
ROOT
ATOM      1  C   UNL     1     -22.634  -7.200  -3.718  1.00  0.00     0.000 C 
ENDROOT
BRANCH   1   2
ATOM      2  C   UNL     1     -21.245  -7.840  -3.855  1.00  0.00     0.000 C 
BRANCH   2   3
ATOM      3  C   UNL     1     -21.243  -9.343  -3.519  1.00  0.00     0.000 C 
BRANCH   3   4
ATOM      4  C   UNL     1     -20.793 -10.264  -4.668  1.00  0.00     0.000 C 
BRANCH   4   5
ATOM      5  C   UNL     1     -21.922 -11.167  -5.187  1.00  0.00     0.000 C 
BRANCH   5   6
ATOM      6  C   UNL     1     -22.572 -10.569  -6.443  1.00  0.00     0.000 C 
BRANCH   6   7
ATOM      7  C   UNL     1     -23.891  -9.836  -6.140  1.00  0.00     0.000 C 
BRANCH   7   8
ATOM      8  C   UNL     1     -24.030  -8.449  -6.802  1.00  0.00     0.000 C 
BRANCH   8   9
ATOM      9  C   UNL     1     -22.916  -8.087  -7.805  1.00  0.00     0.000 C 
BRANCH   9  10
ATOM     10  C   UNL     1     -22.107  -6.826  -7.450  1.00  0.00     0.000 C 
BRANCH  10  11
ATOM     11  C   UNL     1     -20.669  -6.870  -7.988  1.00  0.00     0.000 C 
BRANCH  11  12
ATOM     12  C   UNL     1     -19.873  -8.011  -7.338  1.00  0.00     0.000 C 
BRANCH  12  13
ATOM     13  C   UNL     1     -19.577  -9.163  -8.315  1.00  0.00     0.006 C 
BRANCH  13  14
ATOM     14  C   UNL     1     -18.082  -9.397  -8.586  1.00  0.00     0.053 C 
BRANCH  14  15
ATOM     15  C   UNL     1     -17.628  -8.733  -9.849  1.00  0.00     0.041 C 
ATOM     16  O   UNL     1     -17.523  -7.479  -9.900  1.00  0.00    -0.550 OA
ATOM     17  O   UNL     1     -17.365  -9.493 -10.981  1.00  0.00    -0.550 OA
ENDBRANCH  14  15
ENDBRANCH  13  14
ENDBRANCH  12  13
ENDBRANCH  11  12
ENDBRANCH  10  11
ENDBRANCH   9  10
ENDBRANCH   8   9
ENDBRANCH   7   8
ENDBRANCH   6   7
ENDBRANCH   5   6
ENDBRANCH   4   5
ENDBRANCH   3   4
ENDBRANCH   2   3
ENDBRANCH   1   2
BRANCH   1  18
ATOM     18  C   UNL     1     -23.556  -8.072  -2.853  1.00  0.00     0.000 C 
BRANCH  18  19
ATOM     19  C   UNL     1     -24.987  -7.516  -2.750  1.00  0.00     0.000 C 
BRANCH  19  20
ATOM     20  C   UNL     1     -25.637  -7.102  -4.090  1.00  0.00     0.000 C 
BRANCH  20  21
ATOM     21  C   UNL     1     -26.725  -6.013  -3.982  1.00  0.00     0.000 C 
BRANCH  21  22
ATOM     22  C   UNL     1     -27.009  -5.274  -5.309  1.00  0.00     0.000 C 
BRANCH  22  23
ATOM     23  C   UNL     1     -25.745  -4.965  -6.136  1.00  0.00     0.000 C 
BRANCH  23  24
ATOM     24  C   UNL     1     -25.245  -3.509  -6.002  1.00  0.00    -0.000 C 
BRANCH  24  25
ATOM     25  C   UNL     1     -26.323  -2.524  -5.516  1.00  0.00    -0.000 C 
BRANCH  25  26
ATOM     26  C   UNL     1     -25.721  -1.232  -4.937  1.00  0.00    -0.000 C 
BRANCH  26  27
ATOM     27  C   UNL     1     -24.824  -1.540  -3.730  1.00  0.00    -0.000 C 
BRANCH  27  28
ATOM     28  C   UNL     1     -25.625  -1.907  -2.470  1.00  0.00    -0.000 C 
BRANCH  28  29
ATOM     29  C   UNL     1     -25.535  -3.401  -2.124  1.00  0.00    -0.000 C 
BRANCH  29  30
ATOM     30  C   UNL     1     -24.099  -3.917  -2.289  1.00  0.00    -0.000 C 
BRANCH  30  31
ATOM     31  C   UNL     1     -23.333  -3.850  -0.965  1.00  0.00    -0.003 C 
ATOM     32  C   UNL     1     -22.772  -5.217  -0.584  1.00  0.00     0.004 C 
ENDBRANCH  30  31
ENDBRANCH  29  30
ENDBRANCH  28  29
ENDBRANCH  27  28
ENDBRANCH  26  27
ENDBRANCH  25  26
ENDBRANCH  24  25
ENDBRANCH  23  24
ENDBRANCH  22  23
ENDBRANCH  21  22
ENDBRANCH  20  21
ENDBRANCH  19  20
ENDBRANCH  18  19
ENDBRANCH   1  18
TORSDOF 28
ENDMDL
MODEL 8
REMARK VINA RESULT:    -3.717      2.682      7.149
REMARK INTER + INTRA:         -16.026
REMARK INTER:                  -9.548
REMARK INTRA:                  -6.478
REMARK UNBOUND:                -6.224
REMARK SMILES CCCCCCCCCCCCCCCCCCCCCCCCCCCCCC(=O)[O-]
REMARK SMILES IDX 16 1 17 2 18 3 19 4 20 5 21 6 22 7 23 8 24 9 25 10 26 11
REMARK SMILES IDX 27 12 28 13 29 14 30 15 31 16 32 17 15 18 14 19 13 20 12 21
REMARK SMILES IDX 11 22 10 23 9 24 8 25 7 26 6 27 5 28 4 29 3 30 2 31 1 32
REMARK H PARENT
REMARK Flexibility Score: inf
ROOT
ATOM      1  C   UNL     1     -24.168  -8.763  -6.741  1.00  0.00     0.000 C 
ENDROOT
BRANCH   1   2
ATOM      2  C   UNL     1     -22.842  -9.280  -7.317  1.00  0.00     0.000 C 
BRANCH   2   3
ATOM      3  C   UNL     1     -22.627 -10.784  -7.069  1.00  0.00     0.000 C 
BRANCH   3   4
ATOM      4  C   UNL     1     -21.279 -11.149  -6.422  1.00  0.00     0.000 C 
BRANCH   4   5
ATOM      5  C   UNL     1     -21.265 -10.925  -4.902  1.00  0.00     0.000 C 
BRANCH   5   6
ATOM      6  C   UNL     1     -19.980 -10.206  -4.464  1.00  0.00     0.000 C 
BRANCH   6   7
ATOM      7  C   UNL     1     -18.708 -10.853  -5.043  1.00  0.00     0.000 C 
BRANCH   7   8
ATOM      8  C   UNL     1     -17.498  -9.905  -5.171  1.00  0.00     0.000 C 
BRANCH   8   9
ATOM      9  C   UNL     1     -17.411  -9.130  -6.501  1.00  0.00     0.000 C 
BRANCH   9  10
ATOM     10  C   UNL     1     -18.130  -9.794  -7.689  1.00  0.00     0.000 C 
BRANCH  10  11
ATOM     11  C   UNL     1     -19.122  -8.853  -8.388  1.00  0.00     0.000 C 
BRANCH  11  12
ATOM     12  C   UNL     1     -19.671  -7.806  -7.409  1.00  0.00     0.000 C 
BRANCH  12  13
ATOM     13  C   UNL     1     -19.583  -6.371  -7.958  1.00  0.00     0.006 C 
BRANCH  13  14
ATOM     14  C   UNL     1     -18.623  -5.452  -7.185  1.00  0.00     0.053 C 
BRANCH  14  15
ATOM     15  C   UNL     1     -19.032  -4.014  -7.268  1.00  0.00     0.041 C 
ATOM     16  O   UNL     1     -18.347  -3.129  -6.689  1.00  0.00    -0.550 OA
ATOM     17  O   UNL     1     -20.191  -3.657  -7.945  1.00  0.00    -0.550 OA
ENDBRANCH  14  15
ENDBRANCH  13  14
ENDBRANCH  12  13
ENDBRANCH  11  12
ENDBRANCH  10  11
ENDBRANCH   9  10
ENDBRANCH   8   9
ENDBRANCH   7   8
ENDBRANCH   6   7
ENDBRANCH   5   6
ENDBRANCH   4   5
ENDBRANCH   3   4
ENDBRANCH   2   3
ENDBRANCH   1   2
BRANCH   1  18
ATOM     18  C   UNL     1     -24.512  -9.484  -5.429  1.00  0.00     0.000 C 
BRANCH  18  19
ATOM     19  C   UNL     1     -24.589  -8.532  -4.222  1.00  0.00     0.000 C 
BRANCH  19  20
ATOM     20  C   UNL     1     -23.260  -8.314  -3.463  1.00  0.00     0.000 C 
BRANCH  20  21
ATOM     21  C   UNL     1     -22.681  -6.886  -3.551  1.00  0.00     0.000 C 
BRANCH  21  22
ATOM     22  C   UNL     1     -21.906  -6.602  -4.857  1.00  0.00     0.000 C 
BRANCH  22  23
ATOM     23  C   UNL     1     -22.304  -5.283  -5.548  1.00  0.00     0.000 C 
BRANCH  23  24
ATOM     24  C   UNL     1     -23.052  -5.475  -6.886  1.00  0.00    -0.000 C 
BRANCH  24  25
ATOM     25  C   UNL     1     -24.336  -4.635  -7.007  1.00  0.00    -0.000 C 
BRANCH  25  26
ATOM     26  C   UNL     1     -25.481  -5.404  -7.688  1.00  0.00    -0.000 C 
BRANCH  26  27
ATOM     27  C   UNL     1     -26.378  -6.086  -6.646  1.00  0.00    -0.000 C 
BRANCH  27  28
ATOM     28  C   UNL     1     -26.866  -5.118  -5.555  1.00  0.00    -0.000 C 
BRANCH  28  29
ATOM     29  C   UNL     1     -26.681  -5.679  -4.137  1.00  0.00    -0.000 C 
BRANCH  29  30
ATOM     30  C   UNL     1     -25.618  -4.886  -3.367  1.00  0.00    -0.000 C 
BRANCH  30  31
ATOM     31  C   UNL     1     -25.584  -3.424  -3.823  1.00  0.00    -0.003 C 
ATOM     32  C   UNL     1     -24.189  -2.829  -3.662  1.00  0.00     0.004 C 
ENDBRANCH  30  31
ENDBRANCH  29  30
ENDBRANCH  28  29
ENDBRANCH  27  28
ENDBRANCH  26  27
ENDBRANCH  25  26
ENDBRANCH  24  25
ENDBRANCH  23  24
ENDBRANCH  22  23
ENDBRANCH  21  22
ENDBRANCH  20  21
ENDBRANCH  19  20
ENDBRANCH  18  19
ENDBRANCH   1  18
TORSDOF 28
ENDMDL
MODEL 9
REMARK VINA RESULT:    -3.712      1.695      2.838
REMARK INTER + INTRA:         -16.012
REMARK INTER:                  -9.743
REMARK INTRA:                  -6.269
REMARK UNBOUND:                -6.224
REMARK SMILES CCCCCCCCCCCCCCCCCCCCCCCCCCCCCC(=O)[O-]
REMARK SMILES IDX 16 1 17 2 18 3 19 4 20 5 21 6 22 7 23 8 24 9 25 10 26 11
REMARK SMILES IDX 27 12 28 13 29 14 30 15 31 16 32 17 15 18 14 19 13 20 12 21
REMARK SMILES IDX 11 22 10 23 9 24 8 25 7 26 6 27 5 28 4 29 3 30 2 31 1 32
REMARK H PARENT
REMARK Flexibility Score: inf
ROOT
ATOM      1  C   UNL     1     -25.072  -7.608  -3.081  1.00  0.00     0.000 C 
ENDROOT
BRANCH   1   2
ATOM      2  C   UNL     1     -25.364  -6.190  -3.592  1.00  0.00     0.000 C 
BRANCH   2   3
ATOM      3  C   UNL     1     -26.719  -6.081  -4.314  1.00  0.00     0.000 C 
BRANCH   3   4
ATOM      4  C   UNL     1     -26.694  -5.273  -5.624  1.00  0.00     0.000 C 
BRANCH   4   5
ATOM      5  C   UNL     1     -26.433  -6.147  -6.860  1.00  0.00     0.000 C 
BRANCH   5   6
ATOM      6  C   UNL     1     -25.384  -5.503  -7.778  1.00  0.00     0.000 C 
BRANCH   6   7
ATOM      7  C   UNL     1     -24.654  -4.322  -7.113  1.00  0.00     0.000 C 
BRANCH   7   8
ATOM      8  C   UNL     1     -23.168  -4.176  -7.500  1.00  0.00     0.000 C 
BRANCH   8   9
ATOM      9  C   UNL     1     -22.191  -5.052  -6.691  1.00  0.00     0.000 C 
BRANCH   9  10
ATOM     10  C   UNL     1     -22.438  -5.069  -5.172  1.00  0.00     0.000 C 
BRANCH  10  11
ATOM     11  C   UNL     1     -21.389  -4.266  -4.388  1.00  0.00     0.000 C 
BRANCH  11  12
ATOM     12  C   UNL     1     -21.998  -2.979  -3.814  1.00  0.00     0.000 C 
BRANCH  12  13
ATOM     13  C   UNL     1     -23.537  -2.986  -3.834  1.00  0.00     0.006 C 
BRANCH  13  14
ATOM     14  C   UNL     1     -24.169  -1.755  -4.504  1.00  0.00     0.053 C 
BRANCH  14  15
ATOM     15  C   UNL     1     -25.633  -1.643  -4.209  1.00  0.00     0.041 C 
ATOM     16  O   UNL     1     -26.033  -1.569  -3.017  1.00  0.00    -0.550 OA
ATOM     17  O   UNL     1     -26.557  -1.668  -5.246  1.00  0.00    -0.550 OA
ENDBRANCH  14  15
ENDBRANCH  13  14
ENDBRANCH  12  13
ENDBRANCH  11  12
ENDBRANCH  10  11
ENDBRANCH   9  10
ENDBRANCH   8   9
ENDBRANCH   7   8
ENDBRANCH   6   7
ENDBRANCH   5   6
ENDBRANCH   4   5
ENDBRANCH   3   4
ENDBRANCH   2   3
ENDBRANCH   1   2
BRANCH   1  18
ATOM     18  C   UNL     1     -23.866  -8.216  -3.814  1.00  0.00     0.000 C 
BRANCH  18  19
ATOM     19  C   UNL     1     -24.237  -9.442  -4.668  1.00  0.00     0.000 C 
BRANCH  19  20
ATOM     20  C   UNL     1     -24.474  -9.158  -6.169  1.00  0.00     0.000 C 
BRANCH  20  21
ATOM     21  C   UNL     1     -23.326  -8.417  -6.886  1.00  0.00     0.000 C 
BRANCH  21  22
ATOM     22  C   UNL     1     -22.628  -9.251  -7.983  1.00  0.00     0.000 C 
BRANCH  22  23
ATOM     23  C   UNL     1     -21.384 -10.016  -7.492  1.00  0.00     0.000 C 
BRANCH  23  24
ATOM     24  C   UNL     1     -21.709 -11.305  -6.703  1.00  0.00    -0.000 C 
BRANCH  24  25
ATOM     25  C   UNL     1     -20.794 -11.536  -5.487  1.00  0.00    -0.000 C 
BRANCH  25  26
ATOM     26  C   UNL     1     -19.426 -10.851  -5.641  1.00  0.00    -0.000 C 
BRANCH  26  27
ATOM     27  C   UNL     1     -18.990 -10.195  -4.324  1.00  0.00    -0.000 C 
BRANCH  27  28
ATOM     28  C   UNL     1     -20.058  -9.254  -3.744  1.00  0.00    -0.000 C 
BRANCH  28  29
ATOM     29  C   UNL     1     -20.371  -8.068  -4.670  1.00  0.00    -0.000 C 
BRANCH  29  30
ATOM     30  C   UNL     1     -19.091  -7.305  -5.035  1.00  0.00    -0.000 C 
BRANCH  30  31
ATOM     31  C   UNL     1     -18.983  -7.103  -6.549  1.00  0.00    -0.003 C 
ATOM     32  C   UNL     1     -17.808  -7.885  -7.126  1.00  0.00     0.004 C 
ENDBRANCH  30  31
ENDBRANCH  29  30
ENDBRANCH  28  29
ENDBRANCH  27  28
ENDBRANCH  26  27
ENDBRANCH  25  26
ENDBRANCH  24  25
ENDBRANCH  23  24
ENDBRANCH  22  23
ENDBRANCH  21  22
ENDBRANCH  20  21
ENDBRANCH  19  20
ENDBRANCH  18  19
ENDBRANCH   1  18
TORSDOF 28
ENDMDL
