MODEL 1
REMARK VINA RESULT:    -4.638      0.000      0.000
REMARK INTER + INTRA:          -4.773
REMARK INTER:                  -4.773
REMARK INTRA:                   0.000
REMARK UNBOUND:                 0.000
REMARK SMILES O=c1ccc2ccc(O)cc2o1
REMARK SMILES IDX 6 1 7 2 8 3 10 4 11 5 5 6 4 7 3 8 2 9 1 10 12 11 9 12
REMARK H PARENT 9 13
REMARK Flexibility Score: inf
ROOT
ATOM      1  C   UNL     1       4.246  -7.119   4.879  1.00  0.00     0.016 A 
ATOM      2  C   UNL     1       5.176  -8.011   4.336  1.00  0.00     0.047 A 
ATOM      3  C   UNL     1       4.746  -9.164   3.668  1.00  0.00     0.119 A 
ATOM      4  C   UNL     1       3.374  -9.426   3.541  1.00  0.00     0.094 A 
ATOM      5  C   UNL     1       2.436  -8.540   4.081  1.00  0.00     0.142 A 
ATOM      6  C   UNL     1       2.874  -7.378   4.754  1.00  0.00     0.018 A 
ATOM      7  C   UNL     1       1.913  -6.511   5.282  1.00  0.00     0.019 A 
ATOM      8  C   UNL     1       0.560  -6.815   5.131  1.00  0.00     0.094 A 
ATOM      9  C   UNL     1       0.200  -7.983   4.451  1.00  0.00     0.336 A 
ATOM     10  O   UNL     1      -1.016  -8.276   4.305  1.00  0.00    -0.246 OA
ATOM     11  O   UNL     1       1.134  -8.792   3.958  1.00  0.00    -0.423 OA
ENDROOT
BRANCH   3  12
ATOM     12  O   UNL     1       5.688 -10.040   3.134  1.00  0.00    -0.508 OA
ATOM     13  H   UNL     1       6.640  -9.745   2.949  1.00  0.00     0.293 HD
ENDBRANCH   3  12
TORSDOF 1
ENDMDL
MODEL 2
REMARK VINA RESULT:    -4.635     18.341     19.743
REMARK INTER + INTRA:          -4.771
REMARK INTER:                  -4.771
REMARK INTRA:                   0.000
REMARK UNBOUND:                 0.000
REMARK SMILES O=c1ccc2ccc(O)cc2o1
REMARK SMILES IDX 6 1 7 2 8 3 10 4 11 5 5 6 4 7 3 8 2 9 1 10 12 11 9 12
REMARK H PARENT 9 13
REMARK Flexibility Score: inf
ROOT
ATOM      1  C   UNL     1      -5.177   8.458  -4.771  1.00  0.00     0.016 A 
ATOM      2  C   UNL     1      -4.161   7.499  -4.704  1.00  0.00     0.047 A 
ATOM      3  C   UNL     1      -4.348   6.318  -3.976  1.00  0.00     0.119 A 
ATOM      4  C   UNL     1      -5.561   6.093  -3.308  1.00  0.00     0.094 A 
ATOM      5  C   UNL     1      -6.583   7.047  -3.368  1.00  0.00     0.142 A 
ATOM      6  C   UNL     1      -6.391   8.237  -4.104  1.00  0.00     0.018 A 
ATOM      7  C   UNL     1      -7.431   9.170  -4.146  1.00  0.00     0.019 A 
ATOM      8  C   UNL     1      -8.619   8.903  -3.466  1.00  0.00     0.094 A 
ATOM      9  C   UNL     1      -8.738   7.702  -2.757  1.00  0.00     0.336 A 
ATOM     10  O   UNL     1      -9.802   7.442  -2.136  1.00  0.00    -0.246 OA
ATOM     11  O   UNL     1      -7.733   6.830  -2.733  1.00  0.00    -0.423 OA
ENDROOT
BRANCH   3  12
ATOM     12  O   UNL     1      -3.324   5.376  -3.922  1.00  0.00    -0.508 OA
ATOM     13  H   UNL     1      -3.518   4.389  -3.807  1.00  0.00     0.293 HD
ENDBRANCH   3  12
TORSDOF 1
ENDMDL
MODEL 3
REMARK VINA RESULT:    -4.624      1.452      2.220
REMARK INTER + INTRA:          -4.760
REMARK INTER:                  -4.760
REMARK INTRA:                   0.000
REMARK UNBOUND:                 0.000
REMARK SMILES O=c1ccc2ccc(O)cc2o1
REMARK SMILES IDX 6 1 7 2 8 3 10 4 11 5 5 6 4 7 3 8 2 9 1 10 12 11 9 12
REMARK H PARENT 9 13
REMARK Flexibility Score: inf
ROOT
ATOM      1  C   UNL     1       3.565  -9.534   3.422  1.00  0.00     0.016 A 
ATOM      2  C   UNL     1       4.934  -9.253   3.469  1.00  0.00     0.047 A 
ATOM      3  C   UNL     1       5.398  -8.091   4.097  1.00  0.00     0.119 A 
ATOM      4  C   UNL     1       4.485  -7.202   4.684  1.00  0.00     0.094 A 
ATOM      5  C   UNL     1       3.113  -7.475   4.642  1.00  0.00     0.142 A 
ATOM      6  C   UNL     1       2.649  -8.648   4.008  1.00  0.00     0.018 A 
ATOM      7  C   UNL     1       1.274  -8.893   3.982  1.00  0.00     0.019 A 
ATOM      8  C   UNL     1       0.404  -7.980   4.579  1.00  0.00     0.094 A 
ATOM      9  C   UNL     1       0.935  -6.839   5.190  1.00  0.00     0.336 A 
ATOM     10  O   UNL     1       0.167  -6.003   5.734  1.00  0.00    -0.246 OA
ATOM     11  O   UNL     1       2.250  -6.629   5.201  1.00  0.00    -0.423 OA
ENDROOT
BRANCH   3  12
ATOM     12  O   UNL     1       6.765  -7.829   4.133  1.00  0.00    -0.508 OA
ATOM     13  H   UNL     1       7.207  -7.432   4.954  1.00  0.00     0.293 HD
ENDBRANCH   3  12
TORSDOF 1
ENDMDL
MODEL 4
REMARK VINA RESULT:    -4.607      0.841      4.226
REMARK INTER + INTRA:          -4.742
REMARK INTER:                  -4.742
REMARK INTRA:                   0.000
REMARK UNBOUND:                 0.000
REMARK SMILES O=c1ccc2ccc(O)cc2o1
REMARK SMILES IDX 6 1 7 2 8 3 10 4 11 5 5 6 4 7 3 8 2 9 1 10 12 11 9 12
REMARK H PARENT 9 13
REMARK Flexibility Score: inf
ROOT
ATOM      1  C   UNL     1       1.749  -6.707   5.229  1.00  0.00     0.016 A 
ATOM      2  C   UNL     1       0.410  -7.085   5.085  1.00  0.00     0.047 A 
ATOM      3  C   UNL     1       0.075  -8.270   4.419  1.00  0.00     0.119 A 
ATOM      4  C   UNL     1       1.088  -9.084   3.891  1.00  0.00     0.094 A 
ATOM      5  C   UNL     1       2.430  -8.714   4.029  1.00  0.00     0.142 A 
ATOM      6  C   UNL     1       2.763  -7.519   4.702  1.00  0.00     0.018 A 
ATOM      7  C   UNL     1       4.113  -7.176   4.825  1.00  0.00     0.019 A 
ATOM      8  C   UNL     1       5.085  -8.018   4.283  1.00  0.00     0.094 A 
ATOM      9  C   UNL     1       4.681  -9.187   3.630  1.00  0.00     0.336 A 
ATOM     10  O   UNL     1       5.542  -9.959   3.134  1.00  0.00    -0.246 OA
ATOM     11  O   UNL     1       3.389  -9.490   3.527  1.00  0.00    -0.423 OA
ENDROOT
BRANCH   3  12
ATOM     12  O   UNL     1      -1.264  -8.628   4.286  1.00  0.00    -0.508 OA
ATOM     13  H   UNL     1      -1.691  -8.753   3.376  1.00  0.00     0.293 HD
ENDBRANCH   3  12
TORSDOF 1
ENDMDL
MODEL 5
REMARK VINA RESULT:    -4.575      1.602      4.768
REMARK INTER + INTRA:          -4.709
REMARK INTER:                  -4.709
REMARK INTRA:                   0.000
REMARK UNBOUND:                 0.000
REMARK SMILES O=c1ccc2ccc(O)cc2o1
REMARK SMILES IDX 6 1 7 2 8 3 10 4 11 5 5 6 4 7 3 8 2 9 1 10 12 11 9 12
REMARK H PARENT 9 13
REMARK Flexibility Score: inf
ROOT
ATOM      1  C   UNL     1       1.293  -8.943   3.963  1.00  0.00     0.016 A 
ATOM      2  C   UNL     1       0.338  -8.076   4.505  1.00  0.00     0.047 A 
ATOM      3  C   UNL     1       0.732  -6.880   5.117  1.00  0.00     0.119 A 
ATOM      4  C   UNL     1       2.093  -6.548   5.189  1.00  0.00     0.094 A 
ATOM      5  C   UNL     1       3.056  -7.409   4.650  1.00  0.00     0.142 A 
ATOM      6  C   UNL     1       2.654  -8.613   4.033  1.00  0.00     0.018 A 
ATOM      7  C   UNL     1       3.638  -9.453   3.503  1.00  0.00     0.019 A 
ATOM      8  C   UNL     1       4.979  -9.080   3.599  1.00  0.00     0.094 A 
ATOM      9  C   UNL     1       5.304  -7.871   4.224  1.00  0.00     0.336 A 
ATOM     10  O   UNL     1       6.508  -7.517   4.320  1.00  0.00    -0.246 OA
ATOM     11  O   UNL     1       4.347  -7.090   4.720  1.00  0.00    -0.423 OA
ENDROOT
BRANCH   3  12
ATOM     12  O   UNL     1      -0.234  -6.031   5.650  1.00  0.00    -0.508 OA
ATOM     13  H   UNL     1      -1.201  -6.320   5.740  1.00  0.00     0.293 HD
ENDBRANCH   3  12
TORSDOF 1
ENDMDL
MODEL 6
REMARK VINA RESULT:    -4.476     11.754     12.553
REMARK INTER + INTRA:          -4.607
REMARK INTER:                  -4.607
REMARK INTRA:                   0.000
REMARK UNBOUND:                 0.000
REMARK SMILES O=c1ccc2ccc(O)cc2o1
REMARK SMILES IDX 6 1 7 2 8 3 10 4 11 5 5 6 4 7 3 8 2 9 1 10 12 11 9 12
REMARK H PARENT 9 13
REMARK Flexibility Score: inf
ROOT
ATOM      1  C   UNL     1       7.255   5.345   5.845  1.00  0.00     0.016 A 
ATOM      2  C   UNL     1       8.364   4.528   6.085  1.00  0.00     0.047 A 
ATOM      3  C   UNL     1       8.256   3.136   5.975  1.00  0.00     0.119 A 
ATOM      4  C   UNL     1       7.028   2.557   5.623  1.00  0.00     0.094 A 
ATOM      5  C   UNL     1       5.912   3.366   5.382  1.00  0.00     0.142 A 
ATOM      6  C   UNL     1       6.026   4.769   5.493  1.00  0.00     0.018 A 
ATOM      7  C   UNL     1       4.894   5.551   5.246  1.00  0.00     0.019 A 
ATOM      8  C   UNL     1       3.695   4.929   4.899  1.00  0.00     0.094 A 
ATOM      9  C   UNL     1       3.657   3.534   4.808  1.00  0.00     0.336 A 
ATOM     10  O   UNL     1       2.583   2.953   4.497  1.00  0.00    -0.246 OA
ATOM     11  O   UNL     1       4.749   2.812   5.048  1.00  0.00    -0.423 OA
ENDROOT
BRANCH   3  12
ATOM     12  O   UNL     1       9.373   2.340   6.218  1.00  0.00    -0.508 OA
ATOM     13  H   UNL     1      10.231   2.731   6.587  1.00  0.00     0.293 HD
ENDBRANCH   3  12
TORSDOF 1
ENDMDL
MODEL 7
REMARK VINA RESULT:    -4.456      2.057      4.384
REMARK INTER + INTRA:          -4.587
REMARK INTER:                  -4.587
REMARK INTRA:                   0.000
REMARK UNBOUND:                 0.000
REMARK SMILES O=c1ccc2ccc(O)cc2o1
REMARK SMILES IDX 6 1 7 2 8 3 10 4 11 5 5 6 4 7 3 8 2 9 1 10 12 11 9 12
REMARK H PARENT 9 13
REMARK Flexibility Score: inf
ROOT
ATOM      1  C   UNL     1       3.222  -9.760   3.421  1.00  0.00     0.016 A 
ATOM      2  C   UNL     1       1.828  -9.833   3.509  1.00  0.00     0.047 A 
ATOM      3  C   UNL     1       1.101  -8.805   4.121  1.00  0.00     0.119 A 
ATOM      4  C   UNL     1       1.773  -7.694   4.650  1.00  0.00     0.094 A 
ATOM      5  C   UNL     1       3.168  -7.611   4.568  1.00  0.00     0.142 A 
ATOM      6  C   UNL     1       3.897  -8.650   3.949  1.00  0.00     0.018 A 
ATOM      7  C   UNL     1       5.289  -8.540   3.881  1.00  0.00     0.019 A 
ATOM      8  C   UNL     1       5.913  -7.416   4.422  1.00  0.00     0.094 A 
ATOM      9  C   UNL     1       5.126  -6.425   5.020  1.00  0.00     0.336 A 
ATOM     10  O   UNL     1       5.671  -5.403   5.514  1.00  0.00    -0.246 OA
ATOM     11  O   UNL     1       3.803  -6.555   5.071  1.00  0.00    -0.423 OA
ENDROOT
BRANCH   3  12
ATOM     12  O   UNL     1      -0.286  -8.898   4.198  1.00  0.00    -0.508 OA
ATOM     13  H   UNL     1      -0.806  -8.453   4.946  1.00  0.00     0.293 HD
ENDBRANCH   3  12
TORSDOF 1
ENDMDL
MODEL 8
REMARK VINA RESULT:    -4.337      2.148      3.383
REMARK INTER + INTRA:          -4.463
REMARK INTER:                  -4.463
REMARK INTRA:                   0.000
REMARK UNBOUND:                 0.000
REMARK SMILES O=c1ccc2ccc(O)cc2o1
REMARK SMILES IDX 6 1 7 2 8 3 10 4 11 5 5 6 4 7 3 8 2 9 1 10 12 11 9 12
REMARK H PARENT 9 13
REMARK Flexibility Score: inf
ROOT
ATOM      1  C   UNL     1       2.052  -6.866   5.156  1.00  0.00     0.016 A 
ATOM      2  C   UNL     1       2.175  -8.070   4.455  1.00  0.00     0.047 A 
ATOM      3  C   UNL     1       1.039  -8.823   4.134  1.00  0.00     0.119 A 
ATOM      4  C   UNL     1      -0.231  -8.368   4.517  1.00  0.00     0.094 A 
ATOM      5  C   UNL     1      -0.365  -7.165   5.219  1.00  0.00     0.142 A 
ATOM      6  C   UNL     1       0.783  -6.408   5.541  1.00  0.00     0.018 A 
ATOM      7  C   UNL     1       0.619  -5.211   6.242  1.00  0.00     0.019 A 
ATOM      8  C   UNL     1      -0.665  -4.799   6.602  1.00  0.00     0.094 A 
ATOM      9  C   UNL     1      -1.757  -5.600   6.248  1.00  0.00     0.336 A 
ATOM     10  O   UNL     1      -2.923  -5.246   6.564  1.00  0.00    -0.246 OA
ATOM     11  O   UNL     1      -1.572  -6.736   5.580  1.00  0.00    -0.423 OA
ENDROOT
BRANCH   3  12
ATOM     12  O   UNL     1       1.184 -10.019   3.435  1.00  0.00    -0.508 OA
ATOM     13  H   UNL     1       1.960 -10.172   2.803  1.00  0.00     0.293 HD
ENDBRANCH   3  12
TORSDOF 1
ENDMDL
MODEL 9
REMARK VINA RESULT:    -4.304     13.848     15.029
REMARK INTER + INTRA:          -4.430
REMARK INTER:                  -4.430
REMARK INTRA:                   0.000
REMARK UNBOUND:                 0.000
REMARK SMILES O=c1ccc2ccc(O)cc2o1
REMARK SMILES IDX 6 1 7 2 8 3 10 4 11 5 5 6 4 7 3 8 2 9 1 10 12 11 9 12
REMARK H PARENT 9 13
REMARK Flexibility Score: inf
ROOT
ATOM      1  C   UNL     1       6.397   7.069   6.434  1.00  0.00     0.016 A 
ATOM      2  C   UNL     1       5.812   8.253   6.896  1.00  0.00     0.047 A 
ATOM      3  C   UNL     1       4.425   8.432   6.830  1.00  0.00     0.119 A 
ATOM      4  C   UNL     1       3.615   7.418   6.297  1.00  0.00     0.094 A 
ATOM      5  C   UNL     1       4.190   6.230   5.832  1.00  0.00     0.142 A 
ATOM      6  C   UNL     1       5.589   6.054   5.901  1.00  0.00     0.018 A 
ATOM      7  C   UNL     1       6.135   4.857   5.429  1.00  0.00     0.019 A 
ATOM      8  C   UNL     1       5.289   3.878   4.908  1.00  0.00     0.094 A 
ATOM      9  C   UNL     1       3.912   4.121   4.872  1.00  0.00     0.336 A 
ATOM     10  O   UNL     1       3.131   3.251   4.405  1.00  0.00    -0.246 OA
ATOM     11  O   UNL     1       3.418   5.270   5.328  1.00  0.00    -0.423 OA
ENDROOT
BRANCH   3  12
ATOM     12  O   UNL     1       3.863   9.618   7.295  1.00  0.00    -0.508 OA
ATOM     13  H   UNL     1       4.334  10.507   7.180  1.00  0.00     0.293 HD
ENDBRANCH   3  12
TORSDOF 1
ENDMDL
