MODEL 1
REMARK VINA RESULT:    -7.076      0.000      0.000
REMARK INTER + INTRA:          -7.741
REMARK INTER:                  -7.696
REMARK INTRA:                  -0.045
REMARK UNBOUND:                -0.045
REMARK SMILES COc1cc2ccc(=O)oc2cc1O
REMARK SMILES IDX 3 1 13 2 12 3 11 4 5 5 4 6 6 7 7 8 8 9 9 10 10 11 2 12 1 13
REMARK SMILES IDX 14 14
REMARK H PARENT 14 15
REMARK Flexibility Score: inf
ROOT
ATOM      1  C   UNL     1       2.843  44.213  -2.731  1.00  0.00     0.161 A 
ATOM      2  C   UNL     1       1.886  44.470  -3.732  1.00  0.00     0.161 A 
ATOM      3  C   UNL     1       0.566  44.775  -3.384  1.00  0.00     0.098 A 
ATOM      4  C   UNL     1       0.182  44.828  -2.042  1.00  0.00     0.142 A 
ATOM      5  C   UNL     1       1.132  44.573  -1.032  1.00  0.00     0.022 A 
ATOM      6  C   UNL     1       2.457  44.267  -1.376  1.00  0.00     0.062 A 
ATOM      7  C   UNL     1       0.718  44.634   0.303  1.00  0.00     0.019 A 
ATOM      8  C   UNL     1      -0.610  44.942   0.595  1.00  0.00     0.094 A 
ATOM      9  C   UNL     1      -1.497  45.183  -0.461  1.00  0.00     0.336 A 
ATOM     10  O   UNL     1      -2.700  45.463  -0.219  1.00  0.00    -0.246 OA
ATOM     11  O   UNL     1      -1.076  45.119  -1.721  1.00  0.00    -0.423 OA
ENDROOT
BRANCH   1  12
ATOM     12  O   UNL     1       4.159  43.911  -3.115  1.00  0.00    -0.493 OA
ATOM     13  C   UNL     1       5.091  43.193  -2.311  1.00  0.00     0.278 C 
ENDBRANCH   1  12
BRANCH   2  14
ATOM     14  O   UNL     1       2.231  44.426  -5.084  1.00  0.00    -0.504 OA
ATOM     15  H   UNL     1       2.836  43.708  -5.464  1.00  0.00     0.293 HD
ENDBRANCH   2  14
TORSDOF 2
ENDMDL
MODEL 2
REMARK VINA RESULT:    -6.896      1.423      2.031
REMARK INTER + INTRA:          -7.545
REMARK INTER:                  -7.480
REMARK INTRA:                  -0.065
REMARK UNBOUND:                -0.045
REMARK SMILES COc1cc2ccc(=O)oc2cc1O
REMARK SMILES IDX 3 1 13 2 12 3 11 4 5 5 4 6 6 7 7 8 8 9 9 10 10 11 2 12 1 13
REMARK SMILES IDX 14 14
REMARK H PARENT 14 15
REMARK Flexibility Score: inf
ROOT
ATOM      1  C   UNL     1       1.308  44.752  -1.555  1.00  0.00     0.161 A 
ATOM      2  C   UNL     1       0.354  45.159  -2.508  1.00  0.00     0.161 A 
ATOM      3  C   UNL     1      -0.998  45.245  -2.162  1.00  0.00     0.098 A 
ATOM      4  C   UNL     1      -1.419  44.926  -0.869  1.00  0.00     0.142 A 
ATOM      5  C   UNL     1      -0.473  44.518   0.094  1.00  0.00     0.022 A 
ATOM      6  C   UNL     1       0.883  44.431  -0.248  1.00  0.00     0.062 A 
ATOM      7  C   UNL     1      -0.925  44.205   1.381  1.00  0.00     0.019 A 
ATOM      8  C   UNL     1      -2.285  44.307   1.674  1.00  0.00     0.094 A 
ATOM      9  C   UNL     1      -3.164  44.720   0.666  1.00  0.00     0.336 A 
ATOM     10  O   UNL     1      -4.395  44.818   0.910  1.00  0.00    -0.246 OA
ATOM     11  O   UNL     1      -2.708  45.011  -0.548  1.00  0.00    -0.423 OA
ENDROOT
BRANCH   1  12
ATOM     12  O   UNL     1       2.656  44.678  -1.935  1.00  0.00    -0.493 OA
ATOM     13  C   UNL     1       3.337  43.471  -2.270  1.00  0.00     0.278 C 
ENDBRANCH   1  12
BRANCH   2  14
ATOM     14  O   UNL     1       0.735  45.486  -3.810  1.00  0.00    -0.504 OA
ATOM     15  H   UNL     1       0.626  46.420  -4.187  1.00  0.00     0.293 HD
ENDBRANCH   2  14
TORSDOF 2
ENDMDL
MODEL 3
REMARK VINA RESULT:    -6.601      2.413      4.623
REMARK INTER + INTRA:          -7.225
REMARK INTER:                  -7.165
REMARK INTRA:                  -0.060
REMARK UNBOUND:                -0.045
REMARK SMILES COc1cc2ccc(=O)oc2cc1O
REMARK SMILES IDX 3 1 13 2 12 3 11 4 5 5 4 6 6 7 7 8 8 9 9 10 10 11 2 12 1 13
REMARK SMILES IDX 14 14
REMARK H PARENT 14 15
REMARK Flexibility Score: inf
ROOT
ATOM      1  C   UNL     1       1.963  44.896   1.589  1.00  0.00     0.161 A 
ATOM      2  C   UNL     1       0.574  44.984   1.372  1.00  0.00     0.161 A 
ATOM      3  C   UNL     1       0.050  44.830   0.083  1.00  0.00     0.098 A 
ATOM      4  C   UNL     1       0.897  44.591  -1.001  1.00  0.00     0.142 A 
ATOM      5  C   UNL     1       2.289  44.501  -0.795  1.00  0.00     0.022 A 
ATOM      6  C   UNL     1       2.819  44.653   0.494  1.00  0.00     0.062 A 
ATOM      7  C   UNL     1       3.112  44.259  -1.900  1.00  0.00     0.019 A 
ATOM      8  C   UNL     1       2.538  44.115  -3.163  1.00  0.00     0.094 A 
ATOM      9  C   UNL     1       1.148  44.216  -3.290  1.00  0.00     0.336 A 
ATOM     10  O   UNL     1       0.610  44.089  -4.421  1.00  0.00    -0.246 OA
ATOM     11  O   UNL     1       0.389  44.446  -2.222  1.00  0.00    -0.423 OA
ENDROOT
BRANCH   1  12
ATOM     12  O   UNL     1       2.455  45.054   2.894  1.00  0.00    -0.493 OA
ATOM     13  C   UNL     1       3.290  46.127   3.319  1.00  0.00     0.278 C 
ENDBRANCH   1  12
BRANCH   2  14
ATOM     14  O   UNL     1      -0.305  45.222   2.429  1.00  0.00    -0.504 OA
ATOM     15  H   UNL     1      -0.584  44.493   3.075  1.00  0.00     0.293 HD
ENDBRANCH   2  14
TORSDOF 2
ENDMDL
MODEL 4
REMARK VINA RESULT:    -6.587      1.158      4.838
REMARK INTER + INTRA:          -7.209
REMARK INTER:                  -7.149
REMARK INTRA:                  -0.060
REMARK UNBOUND:                -0.045
REMARK SMILES COc1cc2ccc(=O)oc2cc1O
REMARK SMILES IDX 3 1 13 2 12 3 11 4 5 5 4 6 6 7 7 8 8 9 9 10 10 11 2 12 1 13
REMARK SMILES IDX 14 14
REMARK H PARENT 14 15
REMARK Flexibility Score: inf
ROOT
ATOM      1  C   UNL     1      -0.587  44.880  -1.384  1.00  0.00     0.161 A 
ATOM      2  C   UNL     1      -0.648  44.951  -2.789  1.00  0.00     0.161 A 
ATOM      3  C   UNL     1       0.512  44.795  -3.555  1.00  0.00     0.098 A 
ATOM      4  C   UNL     1       1.744  44.570  -2.936  1.00  0.00     0.142 A 
ATOM      5  C   UNL     1       1.817  44.497  -1.529  1.00  0.00     0.022 A 
ATOM      6  C   UNL     1       0.657  44.652  -0.758  1.00  0.00     0.062 A 
ATOM      7  C   UNL     1       3.064  44.270  -0.938  1.00  0.00     0.019 A 
ATOM      8  C   UNL     1       4.190  44.122  -1.748  1.00  0.00     0.094 A 
ATOM      9  C   UNL     1       4.040  44.207  -3.137  1.00  0.00     0.336 A 
ATOM     10  O   UNL     1       5.043  44.076  -3.886  1.00  0.00    -0.246 OA
ATOM     11  O   UNL     1       2.842  44.423  -3.672  1.00  0.00    -0.423 OA
ENDROOT
BRANCH   1  12
ATOM     12  O   UNL     1      -1.770  45.040  -0.646  1.00  0.00    -0.493 OA
ATOM     13  C   UNL     1      -2.022  46.113   0.256  1.00  0.00     0.278 C 
ENDBRANCH   1  12
BRANCH   2  14
ATOM     14  O   UNL     1      -1.859  45.175  -3.445  1.00  0.00    -0.504 OA
ATOM     15  H   UNL     1      -2.658  45.590  -2.979  1.00  0.00     0.293 HD
ENDBRANCH   2  14
TORSDOF 2
ENDMDL
MODEL 5
REMARK VINA RESULT:    -6.580      1.288      5.489
REMARK INTER + INTRA:          -7.202
REMARK INTER:                  -7.198
REMARK INTRA:                  -0.004
REMARK UNBOUND:                -0.045
REMARK SMILES COc1cc2ccc(=O)oc2cc1O
REMARK SMILES IDX 3 1 13 2 12 3 11 4 5 5 4 6 6 7 7 8 8 9 9 10 10 11 2 12 1 13
REMARK SMILES IDX 14 14
REMARK H PARENT 14 15
REMARK Flexibility Score: inf
ROOT
ATOM      1  C   UNL     1      -1.411  45.253  -0.346  1.00  0.00     0.161 A 
ATOM      2  C   UNL     1      -0.490  44.969   0.681  1.00  0.00     0.161 A 
ATOM      3  C   UNL     1       0.832  44.632   0.370  1.00  0.00     0.098 A 
ATOM      4  C   UNL     1       1.252  44.570  -0.961  1.00  0.00     0.142 A 
ATOM      5  C   UNL     1       0.338  44.852  -1.997  1.00  0.00     0.022 A 
ATOM      6  C   UNL     1      -0.987  45.191  -1.690  1.00  0.00     0.062 A 
ATOM      7  C   UNL     1       0.788  44.782  -3.320  1.00  0.00     0.019 A 
ATOM      8  C   UNL     1       2.116  44.440  -3.575  1.00  0.00     0.094 A 
ATOM      9  C   UNL     1       2.965  44.174  -2.495  1.00  0.00     0.336 A 
ATOM     10  O   UNL     1       4.167  43.863  -2.703  1.00  0.00    -0.246 OA
ATOM     11  O   UNL     1       2.511  44.247  -1.247  1.00  0.00    -0.423 OA
ENDROOT
BRANCH   1  12
ATOM     12  O   UNL     1      -2.728  45.589   0.001  1.00  0.00    -0.493 OA
ATOM     13  C   UNL     1      -3.742  44.646   0.340  1.00  0.00     0.278 C 
ENDBRANCH   1  12
BRANCH   2  14
ATOM     14  O   UNL     1      -0.871  45.020   2.022  1.00  0.00    -0.504 OA
ATOM     15  H   UNL     1      -0.630  44.289   2.681  1.00  0.00     0.293 HD
ENDBRANCH   2  14
TORSDOF 2
ENDMDL
MODEL 6
REMARK VINA RESULT:    -6.577      1.549      5.251
REMARK INTER + INTRA:          -7.199
REMARK INTER:                  -7.134
REMARK INTRA:                  -0.065
REMARK UNBOUND:                -0.045
REMARK SMILES COc1cc2ccc(=O)oc2cc1O
REMARK SMILES IDX 3 1 13 2 12 3 11 4 5 5 4 6 6 7 7 8 8 9 9 10 10 11 2 12 1 13
REMARK SMILES IDX 14 14
REMARK H PARENT 14 15
REMARK Flexibility Score: inf
ROOT
ATOM      1  C   UNL     1      -1.254  45.137   1.331  1.00  0.00     0.161 A 
ATOM      2  C   UNL     1      -1.920  45.236   0.094  1.00  0.00     0.161 A 
ATOM      3  C   UNL     1      -1.212  45.082  -1.103  1.00  0.00     0.098 A 
ATOM      4  C   UNL     1       0.162  44.832  -1.085  1.00  0.00     0.142 A 
ATOM      5  C   UNL     1       0.839  44.731   0.148  1.00  0.00     0.022 A 
ATOM      6  C   UNL     1       0.133  44.883   1.350  1.00  0.00     0.062 A 
ATOM      7  C   UNL     1       2.215  44.479   0.134  1.00  0.00     0.019 A 
ATOM      8  C   UNL     1       2.873  44.335  -1.087  1.00  0.00     0.094 A 
ATOM      9  C   UNL     1       2.135  44.448  -2.271  1.00  0.00     0.336 A 
ATOM     10  O   UNL     1       2.710  44.322  -3.383  1.00  0.00    -0.246 OA
ATOM     11  O   UNL     1       0.827  44.688  -2.228  1.00  0.00    -0.423 OA
ENDROOT
BRANCH   1  12
ATOM     12  O   UNL     1      -1.995  45.295   2.512  1.00  0.00    -0.493 OA
ATOM     13  C   UNL     1      -2.421  44.223   3.349  1.00  0.00     0.278 C 
ENDBRANCH   1  12
BRANCH   2  14
ATOM     14  O   UNL     1      -3.292  45.485   0.034  1.00  0.00    -0.504 OA
ATOM     15  H   UNL     1      -3.666  46.412  -0.137  1.00  0.00     0.293 HD
ENDBRANCH   2  14
TORSDOF 2
ENDMDL
MODEL 7
REMARK VINA RESULT:    -6.574      5.933      9.090
REMARK INTER + INTRA:          -7.195
REMARK INTER:                  -7.151
REMARK INTRA:                  -0.044
REMARK UNBOUND:                -0.045
REMARK SMILES COc1cc2ccc(=O)oc2cc1O
REMARK SMILES IDX 3 1 13 2 12 3 11 4 5 5 4 6 6 7 7 8 8 9 9 10 10 11 2 12 1 13
REMARK SMILES IDX 14 14
REMARK H PARENT 14 15
REMARK Flexibility Score: inf
ROOT
ATOM      1  C   UNL     1      -1.092  46.630   7.245  1.00  0.00     0.161 A 
ATOM      2  C   UNL     1      -2.316  45.960   7.439  1.00  0.00     0.161 A 
ATOM      3  C   UNL     1      -2.951  45.327   6.365  1.00  0.00     0.098 A 
ATOM      4  C   UNL     1      -2.381  45.353   5.090  1.00  0.00     0.142 A 
ATOM      5  C   UNL     1      -1.156  46.021   4.885  1.00  0.00     0.022 A 
ATOM      6  C   UNL     1      -0.515  46.656   5.958  1.00  0.00     0.062 A 
ATOM      7  C   UNL     1      -0.610  46.029   3.597  1.00  0.00     0.019 A 
ATOM      8  C   UNL     1      -1.285  45.383   2.562  1.00  0.00     0.094 A 
ATOM      9  C   UNL     1      -2.496  44.740   2.842  1.00  0.00     0.336 A 
ATOM     10  O   UNL     1      -3.121  44.151   1.922  1.00  0.00    -0.246 OA
ATOM     11  O   UNL     1      -2.993  44.748   4.075  1.00  0.00    -0.423 OA
ENDROOT
BRANCH   1  12
ATOM     12  O   UNL     1      -0.481  47.255   8.343  1.00  0.00    -0.493 OA
ATOM     13  C   UNL     1       0.552  48.231   8.247  1.00  0.00     0.278 C 
ENDBRANCH   1  12
BRANCH   2  14
ATOM     14  O   UNL     1      -2.917  45.912   8.697  1.00  0.00    -0.504 OA
ATOM     15  H   UNL     1      -2.547  46.420   9.492  1.00  0.00     0.293 HD
ENDBRANCH   2  14
TORSDOF 2
ENDMDL
MODEL 8
REMARK VINA RESULT:    -6.565      1.996      3.274
REMARK INTER + INTRA:          -7.185
REMARK INTER:                  -7.141
REMARK INTRA:                  -0.045
REMARK UNBOUND:                -0.045
REMARK SMILES COc1cc2ccc(=O)oc2cc1O
REMARK SMILES IDX 3 1 13 2 12 3 11 4 5 5 4 6 6 7 7 8 8 9 9 10 10 11 2 12 1 13
REMARK SMILES IDX 14 14
REMARK H PARENT 14 15
REMARK Flexibility Score: inf
ROOT
ATOM      1  C   UNL     1       1.218  44.611  -1.687  1.00  0.00     0.161 A 
ATOM      2  C   UNL     1       2.044  44.430  -0.561  1.00  0.00     0.161 A 
ATOM      3  C   UNL     1       1.514  44.542   0.729  1.00  0.00     0.098 A 
ATOM      4  C   UNL     1       0.162  44.837   0.915  1.00  0.00     0.142 A 
ATOM      5  C   UNL     1      -0.675  45.020  -0.206  1.00  0.00     0.022 A 
ATOM      6  C   UNL     1      -0.148  44.908  -1.500  1.00  0.00     0.062 A 
ATOM      7  C   UNL     1      -2.025  45.314   0.012  1.00  0.00     0.019 A 
ATOM      8  C   UNL     1      -2.503  45.416   1.319  1.00  0.00     0.094 A 
ATOM      9  C   UNL     1      -1.612  45.220   2.381  1.00  0.00     0.336 A 
ATOM     10  O   UNL     1      -2.023  45.308   3.568  1.00  0.00    -0.246 OA
ATOM     11  O   UNL     1      -0.333  44.942   2.145  1.00  0.00    -0.423 OA
ENDROOT
BRANCH   1  12
ATOM     12  O   UNL     1       1.782  44.490  -2.966  1.00  0.00    -0.493 OA
ATOM     13  C   UNL     1       1.049  44.173  -4.147  1.00  0.00     0.278 C 
ENDBRANCH   1  12
BRANCH   2  14
ATOM     14  O   UNL     1       3.401  44.134  -0.705  1.00  0.00    -0.504 OA
ATOM     15  H   UNL     1       3.958  43.769   0.058  1.00  0.00     0.293 HD
ENDBRANCH   2  14
TORSDOF 2
ENDMDL
MODEL 9
REMARK VINA RESULT:    -6.535      2.281      5.903
REMARK INTER + INTRA:          -7.153
REMARK INTER:                  -7.106
REMARK INTRA:                  -0.047
REMARK UNBOUND:                -0.045
REMARK SMILES COc1cc2ccc(=O)oc2cc1O
REMARK SMILES IDX 3 1 13 2 12 3 11 4 5 5 4 6 6 7 7 8 8 9 9 10 10 11 2 12 1 13
REMARK SMILES IDX 14 14
REMARK H PARENT 14 15
REMARK Flexibility Score: inf
ROOT
ATOM      1  C   UNL     1      -2.382  44.351   2.151  1.00  0.00     0.161 A 
ATOM      2  C   UNL     1      -3.340  44.944   1.306  1.00  0.00     0.161 A 
ATOM      3  C   UNL     1      -2.993  45.329   0.006  1.00  0.00     0.098 A 
ATOM      4  C   UNL     1      -1.694  45.132  -0.467  1.00  0.00     0.142 A 
ATOM      5  C   UNL     1      -0.727  44.539   0.370  1.00  0.00     0.022 A 
ATOM      6  C   UNL     1      -1.070  44.151   1.673  1.00  0.00     0.062 A 
ATOM      7  C   UNL     1       0.566  44.354  -0.132  1.00  0.00     0.019 A 
ATOM      8  C   UNL     1       0.859  44.756  -1.435  1.00  0.00     0.094 A 
ATOM      9  C   UNL     1      -0.153  45.338  -2.207  1.00  0.00     0.336 A 
ATOM     10  O   UNL     1       0.091  45.708  -3.385  1.00  0.00    -0.246 OA
ATOM     11  O   UNL     1      -1.373  45.502  -1.705  1.00  0.00    -0.423 OA
ENDROOT
BRANCH   1  12
ATOM     12  O   UNL     1      -2.764  43.976   3.448  1.00  0.00    -0.493 OA
ATOM     13  C   UNL     1      -2.705  44.830   4.587  1.00  0.00     0.278 C 
ENDBRANCH   1  12
BRANCH   2  14
ATOM     14  O   UNL     1      -4.648  45.158   1.742  1.00  0.00    -0.504 OA
ATOM     15  H   UNL     1      -5.068  44.608   2.482  1.00  0.00     0.293 HD
ENDBRANCH   2  14
TORSDOF 2
ENDMDL
