MODEL 1
REMARK VINA RESULT:    -3.470      0.000      0.000
REMARK INTER + INTRA:         -10.044
REMARK INTER:                  -6.715
REMARK INTRA:                  -3.328
REMARK UNBOUND:                -3.328
REMARK SMILES CCCCCCCCCCCCCCCCCC(=O)[O-]
REMARK SMILES IDX 10 1 11 2 12 3 13 4 14 5 15 6 16 7 17 8 18 9 19 10 20 11
REMARK SMILES IDX 9 12 8 13 7 14 6 15 5 16 4 17 3 18 2 19 1 20
REMARK H PARENT
REMARK Flexibility Score: inf
ROOT
ATOM      1  C   UNL     1       0.799   6.221  39.240  1.00  0.00     0.000 C 
ENDROOT
BRANCH   1   2
ATOM      2  C   UNL     1       0.702   6.787  40.668  1.00  0.00     0.000 C 
BRANCH   2   3
ATOM      3  C   UNL     1       0.848   8.316  40.706  1.00  0.00     0.000 C 
BRANCH   3   4
ATOM      4  C   UNL     1      -0.509   9.037  40.760  1.00  0.00     0.000 C 
BRANCH   4   5
ATOM      5  C   UNL     1      -0.990   9.506  39.375  1.00  0.00     0.000 C 
BRANCH   5   6
ATOM      6  C   UNL     1      -2.119   8.634  38.786  1.00  0.00     0.000 C 
BRANCH   6   7
ATOM      7  C   UNL     1      -2.955   7.947  39.880  1.00  0.00     0.006 C 
BRANCH   7   8
ATOM      8  C   UNL     1      -3.006   6.423  39.701  1.00  0.00     0.053 C 
BRANCH   8   9
ATOM      9  C   UNL     1      -2.870   5.705  41.008  1.00  0.00     0.041 C 
ATOM     10  O   UNL     1      -3.095   4.467  41.077  1.00  0.00    -0.550 OA
ATOM     11  O   UNL     1      -2.464   6.394  42.144  1.00  0.00    -0.550 OA
ENDBRANCH   8   9
ENDBRANCH   7   8
ENDBRANCH   6   7
ENDBRANCH   5   6
ENDBRANCH   4   5
ENDBRANCH   3   4
ENDBRANCH   2   3
ENDBRANCH   1   2
BRANCH   1  12
ATOM     12  C   UNL     1       2.108   6.613  38.539  1.00  0.00     0.000 C 
BRANCH  12  13
ATOM     13  C   UNL     1       1.890   7.032  37.074  1.00  0.00    -0.000 C 
BRANCH  13  14
ATOM     14  C   UNL     1       1.538   8.522  36.929  1.00  0.00    -0.000 C 
BRANCH  14  15
ATOM     15  C   UNL     1       0.367   8.760  35.963  1.00  0.00    -0.000 C 
BRANCH  15  16
ATOM     16  C   UNL     1      -0.039   7.490  35.194  1.00  0.00    -0.000 C 
BRANCH  16  17
ATOM     17  C   UNL     1      -1.503   7.062  35.437  1.00  0.00    -0.000 C 
BRANCH  17  18
ATOM     18  C   UNL     1      -1.603   5.851  36.377  1.00  0.00    -0.000 C 
BRANCH  18  19
ATOM     19  C   UNL     1      -0.884   4.633  35.787  1.00  0.00    -0.003 C 
ATOM     20  C   UNL     1      -0.478   3.649  36.881  1.00  0.00     0.004 C 
ENDBRANCH  18  19
ENDBRANCH  17  18
ENDBRANCH  16  17
ENDBRANCH  15  16
ENDBRANCH  14  15
ENDBRANCH  13  14
ENDBRANCH  12  13
ENDBRANCH   1  12
TORSDOF 16
ENDMDL
MODEL 2
REMARK VINA RESULT:    -3.453      2.107      4.925
REMARK INTER + INTRA:         -10.012
REMARK INTER:                  -7.042
REMARK INTRA:                  -2.970
REMARK UNBOUND:                -3.328
REMARK SMILES CCCCCCCCCCCCCCCCCC(=O)[O-]
REMARK SMILES IDX 10 1 11 2 12 3 13 4 14 5 15 6 16 7 17 8 18 9 19 10 20 11
REMARK SMILES IDX 9 12 8 13 7 14 6 15 5 16 4 17 3 18 2 19 1 20
REMARK H PARENT
REMARK Flexibility Score: inf
ROOT
ATOM      1  C   UNL     1      -2.690   6.416  40.564  1.00  0.00     0.000 C 
ENDROOT
BRANCH   1   2
ATOM      2  C   UNL     1      -2.484   7.161  39.233  1.00  0.00     0.000 C 
BRANCH   2   3
ATOM      3  C   UNL     1      -2.781   8.664  39.348  1.00  0.00     0.000 C 
BRANCH   3   4
ATOM      4  C   UNL     1      -1.762   9.527  38.586  1.00  0.00     0.000 C 
BRANCH   4   5
ATOM      5  C   UNL     1      -1.815   9.307  37.063  1.00  0.00     0.000 C 
BRANCH   5   6
ATOM      6  C   UNL     1      -0.422   9.222  36.404  1.00  0.00     0.000 C 
BRANCH   6   7
ATOM      7  C   UNL     1      -0.140   7.828  35.817  1.00  0.00     0.006 C 
BRANCH   7   8
ATOM      8  C   UNL     1      -1.427   7.030  35.567  1.00  0.00     0.053 C 
BRANCH   8   9
ATOM      9  C   UNL     1      -1.280   5.595  35.969  1.00  0.00     0.041 C 
ATOM     10  O   UNL     1      -0.151   5.037  35.923  1.00  0.00    -0.550 OA
ATOM     11  O   UNL     1      -2.381   4.882  36.423  1.00  0.00    -0.550 OA
ENDBRANCH   8   9
ENDBRANCH   7   8
ENDBRANCH   6   7
ENDBRANCH   5   6
ENDBRANCH   4   5
ENDBRANCH   3   4
ENDBRANCH   2   3
ENDBRANCH   1   2
BRANCH   1  12
ATOM     12  C   UNL     1      -2.821   7.371  41.760  1.00  0.00     0.000 C 
BRANCH  12  13
ATOM     13  C   UNL     1      -1.610   7.301  42.707  1.00  0.00    -0.000 C 
BRANCH  13  14
ATOM     14  C   UNL     1      -0.990   8.680  42.982  1.00  0.00    -0.000 C 
BRANCH  14  15
ATOM     15  C   UNL     1      -0.011   9.118  41.880  1.00  0.00    -0.000 C 
BRANCH  15  16
ATOM     16  C   UNL     1       0.861   7.960  41.365  1.00  0.00    -0.000 C 
BRANCH  16  17
ATOM     17  C   UNL     1       1.131   8.019  39.846  1.00  0.00    -0.000 C 
BRANCH  17  18
ATOM     18  C   UNL     1       1.110   6.624  39.200  1.00  0.00    -0.000 C 
BRANCH  18  19
ATOM     19  C   UNL     1       2.289   6.443  38.239  1.00  0.00    -0.003 C 
ATOM     20  C   UNL     1       3.223   5.334  38.715  1.00  0.00     0.004 C 
ENDBRANCH  18  19
ENDBRANCH  17  18
ENDBRANCH  16  17
ENDBRANCH  15  16
ENDBRANCH  14  15
ENDBRANCH  13  14
ENDBRANCH  12  13
ENDBRANCH   1  12
TORSDOF 16
ENDMDL
MODEL 3
REMARK VINA RESULT:    -3.432      2.714      4.888
REMARK INTER + INTRA:          -9.970
REMARK INTER:                  -6.945
REMARK INTRA:                  -3.025
REMARK UNBOUND:                -3.328
REMARK SMILES CCCCCCCCCCCCCCCCCC(=O)[O-]
REMARK SMILES IDX 10 1 11 2 12 3 13 4 14 5 15 6 16 7 17 8 18 9 19 10 20 11
REMARK SMILES IDX 9 12 8 13 7 14 6 15 5 16 4 17 3 18 2 19 1 20
REMARK H PARENT
REMARK Flexibility Score: inf
ROOT
ATOM      1  C   UNL     1       0.888   7.133  40.937  1.00  0.00     0.000 C 
ENDROOT
BRANCH   1   2
ATOM      2  C   UNL     1       0.809   7.789  39.547  1.00  0.00     0.000 C 
BRANCH   2   3
ATOM      3  C   UNL     1       0.996   9.313  39.604  1.00  0.00     0.000 C 
BRANCH   3   4
ATOM      4  C   UNL     1       0.353  10.031  38.406  1.00  0.00     0.000 C 
BRANCH   4   5
ATOM      5  C   UNL     1      -1.179  10.125  38.518  1.00  0.00     0.000 C 
BRANCH   5   6
ATOM      6  C   UNL     1      -1.918   9.719  37.226  1.00  0.00     0.000 C 
BRANCH   6   7
ATOM      7  C   UNL     1      -0.956   9.197  36.144  1.00  0.00     0.006 C 
BRANCH   7   8
ATOM      8  C   UNL     1      -1.186   7.713  35.828  1.00  0.00     0.053 C 
BRANCH   8   9
ATOM      9  C   UNL     1       0.105   6.969  35.680  1.00  0.00     0.041 C 
ATOM     10  O   UNL     1       0.282   5.879  36.289  1.00  0.00    -0.550 OA
ATOM     11  O   UNL     1       1.102   7.461  34.848  1.00  0.00    -0.550 OA
ENDBRANCH   8   9
ENDBRANCH   7   8
ENDBRANCH   6   7
ENDBRANCH   5   6
ENDBRANCH   4   5
ENDBRANCH   3   4
ENDBRANCH   2   3
ENDBRANCH   1   2
BRANCH   1  12
ATOM     12  C   UNL     1       0.648   8.136  42.076  1.00  0.00     0.000 C 
BRANCH  12  13
ATOM     13  C   UNL     1      -0.385   7.630  43.099  1.00  0.00    -0.000 C 
BRANCH  13  14
ATOM     14  C   UNL     1      -1.012   6.286  42.695  1.00  0.00    -0.000 C 
BRANCH  14  15
ATOM     15  C   UNL     1      -2.535   6.379  42.504  1.00  0.00    -0.000 C 
BRANCH  15  16
ATOM     16  C   UNL     1      -2.977   7.719  41.891  1.00  0.00    -0.000 C 
BRANCH  16  17
ATOM     17  C   UNL     1      -2.982   7.721  40.347  1.00  0.00    -0.000 C 
BRANCH  17  18
ATOM     18  C   UNL     1      -3.341   6.343  39.768  1.00  0.00    -0.000 C 
BRANCH  18  19
ATOM     19  C   UNL     1      -2.287   5.876  38.759  1.00  0.00    -0.003 C 
ATOM     20  C   UNL     1      -1.474   4.709  39.311  1.00  0.00     0.004 C 
ENDBRANCH  18  19
ENDBRANCH  17  18
ENDBRANCH  16  17
ENDBRANCH  15  16
ENDBRANCH  14  15
ENDBRANCH  13  14
ENDBRANCH  12  13
ENDBRANCH   1  12
TORSDOF 16
ENDMDL
MODEL 4
REMARK VINA RESULT:    -3.376      2.389      5.716
REMARK INTER + INTRA:          -9.862
REMARK INTER:                  -6.757
REMARK INTRA:                  -3.105
REMARK UNBOUND:                -3.328
REMARK SMILES CCCCCCCCCCCCCCCCCC(=O)[O-]
REMARK SMILES IDX 10 1 11 2 12 3 13 4 14 5 15 6 16 7 17 8 18 9 19 10 20 11
REMARK SMILES IDX 9 12 8 13 7 14 6 15 5 16 4 17 3 18 2 19 1 20
REMARK H PARENT
REMARK Flexibility Score: inf
ROOT
ATOM      1  C   UNL     1      -2.287   8.972  38.788  1.00  0.00     0.000 C 
ENDROOT
BRANCH   1   2
ATOM      2  C   UNL     1      -1.750  10.121  37.917  1.00  0.00     0.000 C 
BRANCH   2   3
ATOM      3  C   UNL     1      -1.521   9.698  36.458  1.00  0.00     0.000 C 
BRANCH   3   4
ATOM      4  C   UNL     1      -0.083   9.969  35.985  1.00  0.00     0.000 C 
BRANCH   4   5
ATOM      5  C   UNL     1       0.910  10.123  37.150  1.00  0.00     0.000 C 
BRANCH   5   6
ATOM      6  C   UNL     1       1.934   8.972  37.244  1.00  0.00     0.000 C 
BRANCH   6   7
ATOM      7  C   UNL     1       1.491   7.732  36.449  1.00  0.00     0.006 C 
BRANCH   7   8
ATOM      8  C   UNL     1       1.650   6.436  37.256  1.00  0.00     0.053 C 
BRANCH   8   9
ATOM      9  C   UNL     1       1.003   5.271  36.573  1.00  0.00     0.041 C 
ATOM     10  O   UNL     1       1.378   4.925  35.420  1.00  0.00    -0.550 OA
ATOM     11  O   UNL     1       0.009   4.548  37.218  1.00  0.00    -0.550 OA
ENDBRANCH   8   9
ENDBRANCH   7   8
ENDBRANCH   6   7
ENDBRANCH   5   6
ENDBRANCH   4   5
ENDBRANCH   3   4
ENDBRANCH   2   3
ENDBRANCH   1   2
BRANCH   1  12
ATOM     12  C   UNL     1      -1.806   7.594  38.307  1.00  0.00     0.000 C 
BRANCH  12  13
ATOM     13  C   UNL     1      -2.157   6.468  39.296  1.00  0.00    -0.000 C 
BRANCH  13  14
ATOM     14  C   UNL     1      -3.089   6.939  40.424  1.00  0.00    -0.000 C 
BRANCH  14  15
ATOM     15  C   UNL     1      -2.534   6.616  41.821  1.00  0.00    -0.000 C 
BRANCH  15  16
ATOM     16  C   UNL     1      -2.090   7.873  42.590  1.00  0.00    -0.000 C 
BRANCH  16  17
ATOM     17  C   UNL     1      -0.557   8.019  42.701  1.00  0.00    -0.000 C 
BRANCH  17  18
ATOM     18  C   UNL     1      -0.030   9.220  41.899  1.00  0.00    -0.000 C 
BRANCH  18  19
ATOM     19  C   UNL     1       0.804   8.759  40.699  1.00  0.00    -0.003 C 
ATOM     20  C   UNL     1       1.102   7.265  40.776  1.00  0.00     0.004 C 
ENDBRANCH  18  19
ENDBRANCH  17  18
ENDBRANCH  16  17
ENDBRANCH  15  16
ENDBRANCH  14  15
ENDBRANCH  13  14
ENDBRANCH  12  13
ENDBRANCH   1  12
TORSDOF 16
ENDMDL
MODEL 5
REMARK VINA RESULT:    -3.373      2.906      5.030
REMARK INTER + INTRA:          -9.856
REMARK INTER:                  -7.034
REMARK INTRA:                  -2.823
REMARK UNBOUND:                -3.328
REMARK SMILES CCCCCCCCCCCCCCCCCC(=O)[O-]
REMARK SMILES IDX 10 1 11 2 12 3 13 4 14 5 15 6 16 7 17 8 18 9 19 10 20 11
REMARK SMILES IDX 9 12 8 13 7 14 6 15 5 16 4 17 3 18 2 19 1 20
REMARK H PARENT
REMARK Flexibility Score: inf
ROOT
ATOM      1  C   UNL     1      -2.229   6.508  42.419  1.00  0.00     0.000 C 
ENDROOT
BRANCH   1   2
ATOM      2  C   UNL     1      -2.681   6.367  40.954  1.00  0.00     0.000 C 
BRANCH   2   3
ATOM      3  C   UNL     1      -3.065   7.714  40.323  1.00  0.00     0.000 C 
BRANCH   3   4
ATOM      4  C   UNL     1      -2.397   7.938  38.957  1.00  0.00     0.000 C 
BRANCH   4   5
ATOM      5  C   UNL     1      -2.323   9.424  38.564  1.00  0.00     0.000 C 
BRANCH   5   6
ATOM      6  C   UNL     1      -1.666   9.667  37.189  1.00  0.00     0.000 C 
BRANCH   6   7
ATOM      7  C   UNL     1      -1.501   8.366  36.385  1.00  0.00     0.006 C 
BRANCH   7   8
ATOM      8  C   UNL     1      -0.063   7.832  36.431  1.00  0.00     0.053 C 
BRANCH   8   9
ATOM      9  C   UNL     1       0.920   8.834  35.909  1.00  0.00     0.041 C 
ATOM     10  O   UNL     1       1.746   9.378  36.689  1.00  0.00    -0.550 OA
ATOM     11  O   UNL     1       0.945   9.146  34.556  1.00  0.00    -0.550 OA
ENDBRANCH   8   9
ENDBRANCH   7   8
ENDBRANCH   6   7
ENDBRANCH   5   6
ENDBRANCH   4   5
ENDBRANCH   3   4
ENDBRANCH   2   3
ENDBRANCH   1   2
BRANCH   1  12
ATOM     12  C   UNL     1      -1.886   7.959  42.791  1.00  0.00     0.000 C 
BRANCH  12  13
ATOM     13  C   UNL     1      -0.369   8.217  42.821  1.00  0.00    -0.000 C 
BRANCH  13  14
ATOM     14  C   UNL     1       0.060   9.347  41.872  1.00  0.00    -0.000 C 
BRANCH  14  15
ATOM     15  C   UNL     1       0.741   8.821  40.598  1.00  0.00    -0.000 C 
BRANCH  15  16
ATOM     16  C   UNL     1       1.031   7.312  40.657  1.00  0.00    -0.000 C 
BRANCH  16  17
ATOM     17  C   UNL     1       1.448   6.708  39.299  1.00  0.00    -0.000 C 
BRANCH  17  18
ATOM     18  C   UNL     1       1.451   5.172  39.324  1.00  0.00    -0.000 C 
BRANCH  18  19
ATOM     19  C   UNL     1       0.036   4.621  39.530  1.00  0.00    -0.003 C 
ATOM     20  C   UNL     1      -0.751   4.619  38.222  1.00  0.00     0.004 C 
ENDBRANCH  18  19
ENDBRANCH  17  18
ENDBRANCH  16  17
ENDBRANCH  15  16
ENDBRANCH  14  15
ENDBRANCH  13  14
ENDBRANCH  12  13
ENDBRANCH   1  12
TORSDOF 16
ENDMDL
MODEL 6
REMARK VINA RESULT:    -3.365      3.276      5.419
REMARK INTER + INTRA:          -9.842
REMARK INTER:                  -6.826
REMARK INTRA:                  -3.016
REMARK UNBOUND:                -3.328
REMARK SMILES CCCCCCCCCCCCCCCCCC(=O)[O-]
REMARK SMILES IDX 10 1 11 2 12 3 13 4 14 5 15 6 16 7 17 8 18 9 19 10 20 11
REMARK SMILES IDX 9 12 8 13 7 14 6 15 5 16 4 17 3 18 2 19 1 20
REMARK H PARENT
REMARK Flexibility Score: inf
ROOT
ATOM      1  C   UNL     1      -1.718   9.630  38.648  1.00  0.00     0.000 C 
ENDROOT
BRANCH   1   2
ATOM      2  C   UNL     1      -0.393   9.673  39.429  1.00  0.00     0.000 C 
BRANCH   2   3
ATOM      3  C   UNL     1       0.800  10.068  38.545  1.00  0.00     0.000 C 
BRANCH   3   4
ATOM      4  C   UNL     1       1.820   8.929  38.388  1.00  0.00     0.000 C 
BRANCH   4   5
ATOM      5  C   UNL     1       1.326   7.598  38.983  1.00  0.00     0.000 C 
BRANCH   5   6
ATOM      6  C   UNL     1       2.117   6.370  38.488  1.00  0.00     0.000 C 
BRANCH   6   7
ATOM      7  C   UNL     1       2.324   6.386  36.963  1.00  0.00     0.006 C 
BRANCH   7   8
ATOM      8  C   UNL     1       2.445   4.972  36.378  1.00  0.00     0.053 C 
BRANCH   8   9
ATOM      9  C   UNL     1       3.751   4.771  35.674  1.00  0.00     0.041 C 
ATOM     10  O   UNL     1       4.787   4.481  36.330  1.00  0.00    -0.550 OA
ATOM     11  O   UNL     1       3.820   4.873  34.290  1.00  0.00    -0.550 OA
ENDBRANCH   8   9
ENDBRANCH   7   8
ENDBRANCH   6   7
ENDBRANCH   5   6
ENDBRANCH   4   5
ENDBRANCH   3   4
ENDBRANCH   2   3
ENDBRANCH   1   2
BRANCH   1  12
ATOM     12  C   UNL     1      -2.633   8.482  39.104  1.00  0.00     0.000 C 
BRANCH  12  13
ATOM     13  C   UNL     1      -2.161   7.840  40.421  1.00  0.00    -0.000 C 
BRANCH  13  14
ATOM     14  C   UNL     1      -1.852   6.342  40.273  1.00  0.00    -0.000 C 
BRANCH  14  15
ATOM     15  C   UNL     1      -2.532   5.717  39.044  1.00  0.00    -0.000 C 
BRANCH  15  16
ATOM     16  C   UNL     1      -1.523   5.146  38.032  1.00  0.00    -0.000 C 
BRANCH  16  17
ATOM     17  C   UNL     1      -2.024   5.184  36.571  1.00  0.00    -0.000 C 
BRANCH  17  18
ATOM     18  C   UNL     1      -1.089   5.994  35.660  1.00  0.00    -0.000 C 
BRANCH  18  19
ATOM     19  C   UNL     1      -1.393   7.493  35.750  1.00  0.00    -0.003 C 
ATOM     20  C   UNL     1      -0.207   8.326  35.273  1.00  0.00     0.004 C 
ENDBRANCH  18  19
ENDBRANCH  17  18
ENDBRANCH  16  17
ENDBRANCH  15  16
ENDBRANCH  14  15
ENDBRANCH  13  14
ENDBRANCH  12  13
ENDBRANCH   1  12
TORSDOF 16
ENDMDL
MODEL 7
REMARK VINA RESULT:    -3.342      2.831      4.925
REMARK INTER + INTRA:          -9.797
REMARK INTER:                  -6.629
REMARK INTRA:                  -3.167
REMARK UNBOUND:                -3.328
REMARK SMILES CCCCCCCCCCCCCCCCCC(=O)[O-]
REMARK SMILES IDX 10 1 11 2 12 3 13 4 14 5 15 6 16 7 17 8 18 9 19 10 20 11
REMARK SMILES IDX 9 12 8 13 7 14 6 15 5 16 4 17 3 18 2 19 1 20
REMARK H PARENT
REMARK Flexibility Score: inf
ROOT
ATOM      1  C   UNL     1       0.245   7.662  41.588  1.00  0.00     0.000 C 
ENDROOT
BRANCH   1   2
ATOM      2  C   UNL     1       0.671   8.283  40.246  1.00  0.00     0.000 C 
BRANCH   2   3
ATOM      3  C   UNL     1       0.324   9.777  40.152  1.00  0.00     0.000 C 
BRANCH   3   4
ATOM      4  C   UNL     1      -0.441  10.125  38.864  1.00  0.00     0.000 C 
BRANCH   4   5
ATOM      5  C   UNL     1      -1.023   8.885  38.162  1.00  0.00     0.000 C 
BRANCH   5   6
ATOM      6  C   UNL     1      -0.719   8.834  36.650  1.00  0.00     0.000 C 
BRANCH   6   7
ATOM      7  C   UNL     1       0.786   8.689  36.363  1.00  0.00     0.006 C 
BRANCH   7   8
ATOM      8  C   UNL     1       1.325   7.311  36.771  1.00  0.00     0.053 C 
BRANCH   8   9
ATOM      9  C   UNL     1       1.598   6.445  35.580  1.00  0.00     0.041 C 
ATOM     10  O   UNL     1       2.498   5.564  35.629  1.00  0.00    -0.550 OA
ATOM     11  O   UNL     1       0.840   6.589  34.425  1.00  0.00    -0.550 OA
ENDBRANCH   8   9
ENDBRANCH   7   8
ENDBRANCH   6   7
ENDBRANCH   5   6
ENDBRANCH   4   5
ENDBRANCH   3   4
ENDBRANCH   2   3
ENDBRANCH   1   2
BRANCH   1  12
ATOM     12  C   UNL     1      -0.976   8.365  42.201  1.00  0.00     0.000 C 
BRANCH  12  13
ATOM     13  C   UNL     1      -2.250   7.504  42.127  1.00  0.00    -0.000 C 
BRANCH  13  14
ATOM     14  C   UNL     1      -3.132   7.852  40.917  1.00  0.00    -0.000 C 
BRANCH  14  15
ATOM     15  C   UNL     1      -3.164   6.730  39.867  1.00  0.00    -0.000 C 
BRANCH  15  16
ATOM     16  C   UNL     1      -3.000   5.331  40.486  1.00  0.00    -0.000 C 
BRANCH  16  17
ATOM     17  C   UNL     1      -1.763   4.566  39.968  1.00  0.00    -0.000 C 
BRANCH  17  18
ATOM     18  C   UNL     1      -1.080   5.296  38.800  1.00  0.00    -0.000 C 
BRANCH  18  19
ATOM     19  C   UNL     1      -1.119   4.450  37.523  1.00  0.00    -0.003 C 
ATOM     20  C   UNL     1      -1.874   5.170  36.408  1.00  0.00     0.004 C 
ENDBRANCH  18  19
ENDBRANCH  17  18
ENDBRANCH  16  17
ENDBRANCH  15  16
ENDBRANCH  14  15
ENDBRANCH  13  14
ENDBRANCH  12  13
ENDBRANCH   1  12
TORSDOF 16
ENDMDL
MODEL 8
REMARK VINA RESULT:    -3.338      2.832      4.758
REMARK INTER + INTRA:          -9.789
REMARK INTER:                  -6.791
REMARK INTRA:                  -2.999
REMARK UNBOUND:                -3.328
REMARK SMILES CCCCCCCCCCCCCCCCCC(=O)[O-]
REMARK SMILES IDX 10 1 11 2 12 3 13 4 14 5 15 6 16 7 17 8 18 9 19 10 20 11
REMARK SMILES IDX 9 12 8 13 7 14 6 15 5 16 4 17 3 18 2 19 1 20
REMARK H PARENT
REMARK Flexibility Score: inf
ROOT
ATOM      1  C   UNL     1      -0.906   7.598  42.250  1.00  0.00     0.000 C 
ENDROOT
BRANCH   1   2
ATOM      2  C   UNL     1      -0.462   8.779  41.370  1.00  0.00     0.000 C 
BRANCH   2   3
ATOM      3  C   UNL     1       0.635   8.388  40.368  1.00  0.00     0.000 C 
BRANCH   3   4
ATOM      4  C   UNL     1       0.389   8.970  38.966  1.00  0.00     0.000 C 
BRANCH   4   5
ATOM      5  C   UNL     1      -0.662  10.095  38.963  1.00  0.00     0.000 C 
BRANCH   5   6
ATOM      6  C   UNL     1      -1.844   9.832  38.007  1.00  0.00     0.000 C 
BRANCH   6   7
ATOM      7  C   UNL     1      -1.387   9.665  36.548  1.00  0.00     0.006 C 
BRANCH   7   8
ATOM      8  C   UNL     1      -1.667   8.255  36.009  1.00  0.00     0.053 C 
BRANCH   8   9
ATOM      9  C   UNL     1      -0.492   7.701  35.263  1.00  0.00     0.041 C 
ATOM     10  O   UNL     1       0.636   8.254  35.356  1.00  0.00    -0.550 OA
ATOM     11  O   UNL     1      -0.635   6.556  34.490  1.00  0.00    -0.550 OA
ENDBRANCH   8   9
ENDBRANCH   7   8
ENDBRANCH   6   7
ENDBRANCH   5   6
ENDBRANCH   4   5
ENDBRANCH   3   4
ENDBRANCH   2   3
ENDBRANCH   1   2
BRANCH   1  12
ATOM     12  C   UNL     1      -2.401   7.280  42.099  1.00  0.00     0.000 C 
BRANCH  12  13
ATOM     13  C   UNL     1      -3.000   7.861  40.805  1.00  0.00    -0.000 C 
BRANCH  13  14
ATOM     14  C   UNL     1      -3.307   6.780  39.756  1.00  0.00    -0.000 C 
BRANCH  14  15
ATOM     15  C   UNL     1      -3.006   5.361  40.265  1.00  0.00    -0.000 C 
BRANCH  15  16
ATOM     16  C   UNL     1      -1.756   4.747  39.610  1.00  0.00    -0.000 C 
BRANCH  16  17
ATOM     17  C   UNL     1      -1.309   5.478  38.326  1.00  0.00    -0.000 C 
BRANCH  17  18
ATOM     18  C   UNL     1       0.211   5.394  38.111  1.00  0.00    -0.000 C 
BRANCH  18  19
ATOM     19  C   UNL     1       0.837   4.323  39.010  1.00  0.00    -0.003 C 
ATOM     20  C   UNL     1       1.924   4.917  39.902  1.00  0.00     0.004 C 
ENDBRANCH  18  19
ENDBRANCH  17  18
ENDBRANCH  16  17
ENDBRANCH  15  16
ENDBRANCH  14  15
ENDBRANCH  13  14
ENDBRANCH  12  13
ENDBRANCH   1  12
TORSDOF 16
ENDMDL
MODEL 9
REMARK VINA RESULT:    -3.310      2.712      5.096
REMARK INTER + INTRA:          -9.734
REMARK INTER:                  -6.678
REMARK INTRA:                  -3.055
REMARK UNBOUND:                -3.328
REMARK SMILES CCCCCCCCCCCCCCCCCC(=O)[O-]
REMARK SMILES IDX 10 1 11 2 12 3 13 4 14 5 15 6 16 7 17 8 18 9 19 10 20 11
REMARK SMILES IDX 9 12 8 13 7 14 6 15 5 16 4 17 3 18 2 19 1 20
REMARK H PARENT
REMARK Flexibility Score: inf
ROOT
ATOM      1  C   UNL     1      -0.282   9.634  39.369  1.00  0.00     0.000 C 
ENDROOT
BRANCH   1   2
ATOM      2  C   UNL     1      -1.761   9.420  39.001  1.00  0.00     0.000 C 
BRANCH   2   3
ATOM      3  C   UNL     1      -2.117  10.007  37.627  1.00  0.00     0.000 C 
BRANCH   3   4
ATOM      4  C   UNL     1      -1.524   9.192  36.466  1.00  0.00     0.000 C 
BRANCH   4   5
ATOM      5  C   UNL     1      -0.510   9.993  35.630  1.00  0.00     0.000 C 
BRANCH   5   6
ATOM      6  C   UNL     1       0.748   9.186  35.246  1.00  0.00     0.000 C 
BRANCH   6   7
ATOM      7  C   UNL     1       0.790   7.811  35.934  1.00  0.00     0.006 C 
BRANCH   7   8
ATOM      8  C   UNL     1       1.161   6.684  34.960  1.00  0.00     0.053 C 
BRANCH   8   9
ATOM      9  C   UNL     1      -0.047   6.105  34.291  1.00  0.00     0.041 C 
ATOM     10  O   UNL     1       0.049   5.587  33.147  1.00  0.00    -0.550 OA
ATOM     11  O   UNL     1      -1.273   6.109  34.943  1.00  0.00    -0.550 OA
ENDBRANCH   8   9
ENDBRANCH   7   8
ENDBRANCH   6   7
ENDBRANCH   5   6
ENDBRANCH   4   5
ENDBRANCH   3   4
ENDBRANCH   2   3
ENDBRANCH   1   2
BRANCH   1  12
ATOM     12  C   UNL     1       0.038   9.191  40.805  1.00  0.00     0.000 C 
BRANCH  12  13
ATOM     13  C   UNL     1       0.857   7.889  40.853  1.00  0.00    -0.000 C 
BRANCH  13  14
ATOM     14  C   UNL     1       1.447   7.510  39.485  1.00  0.00    -0.000 C 
BRANCH  14  15
ATOM     15  C   UNL     1       1.371   5.999  39.208  1.00  0.00    -0.000 C 
BRANCH  15  16
ATOM     16  C   UNL     1      -0.017   5.408  39.511  1.00  0.00    -0.000 C 
BRANCH  16  17
ATOM     17  C   UNL     1      -1.092   5.790  38.469  1.00  0.00    -0.000 C 
BRANCH  17  18
ATOM     18  C   UNL     1      -2.490   5.908  39.097  1.00  0.00    -0.000 C 
BRANCH  18  19
ATOM     19  C   UNL     1      -2.435   5.685  40.612  1.00  0.00    -0.003 C 
ATOM     20  C   UNL     1      -2.847   6.944  41.370  1.00  0.00     0.004 C 
ENDBRANCH  18  19
ENDBRANCH  17  18
ENDBRANCH  16  17
ENDBRANCH  15  16
ENDBRANCH  14  15
ENDBRANCH  13  14
ENDBRANCH  12  13
ENDBRANCH   1  12
TORSDOF 16
ENDMDL
