MODEL 1
REMARK VINA RESULT:    -4.969      0.000      0.000
REMARK INTER + INTRA:          -9.272
REMARK INTER:                  -8.455
REMARK INTRA:                  -0.817
REMARK UNBOUND:                -0.817
REMARK SMILES CCCCCCCCCCCCCC(=O)[O-]
REMARK SMILES IDX 8 1 9 2 10 3 11 4 12 5 13 6 14 7 15 8 16 9 7 10 6 11 5 12
REMARK SMILES IDX 4 13 3 14 2 15 1 16
REMARK H PARENT
REMARK Flexibility Score: inf
ROOT
ATOM      1  C   UNL     1     -18.427 -25.746  13.943  1.00  0.00     0.000 C 
ENDROOT
BRANCH   1   2
ATOM      2  C   UNL     1     -16.892 -25.679  13.990  1.00  0.00     0.000 C 
BRANCH   2   3
ATOM      3  C   UNL     1     -16.256 -25.630  12.589  1.00  0.00     0.000 C 
BRANCH   3   4
ATOM      4  C   UNL     1     -17.024 -26.475  11.561  1.00  0.00     0.000 C 
BRANCH   4   5
ATOM      5  C   UNL     1     -16.672 -26.101  10.110  1.00  0.00     0.006 C 
BRANCH   5   6
ATOM      6  C   UNL     1     -15.736 -27.128   9.459  1.00  0.00     0.053 C 
BRANCH   6   7
ATOM      7  C   UNL     1     -15.495 -26.822   8.012  1.00  0.00     0.041 C 
ATOM      8  O   UNL     1     -15.864 -27.631   7.121  1.00  0.00    -0.550 OA
ATOM      9  O   UNL     1     -14.886 -25.627   7.648  1.00  0.00    -0.550 OA
ENDBRANCH   6   7
ENDBRANCH   5   6
ENDBRANCH   4   5
ENDBRANCH   3   4
ENDBRANCH   2   3
ENDBRANCH   1   2
BRANCH   1  10
ATOM     10  C   UNL     1     -19.091 -24.525  14.603  1.00  0.00     0.000 C 
BRANCH  10  11
ATOM     11  C   UNL     1     -20.038 -23.770  13.651  1.00  0.00    -0.000 C 
BRANCH  11  12
ATOM     12  C   UNL     1     -19.366 -23.180  12.398  1.00  0.00    -0.000 C 
BRANCH  12  13
ATOM     13  C   UNL     1     -19.656 -21.681  12.213  1.00  0.00    -0.000 C 
BRANCH  13  14
ATOM     14  C   UNL     1     -18.946 -21.090  10.985  1.00  0.00    -0.000 C 
BRANCH  14  15
ATOM     15  C   UNL     1     -19.929 -20.632   9.898  1.00  0.00    -0.003 C 
ATOM     16  C   UNL     1     -20.306 -21.789   8.976  1.00  0.00     0.004 C 
ENDBRANCH  14  15
ENDBRANCH  13  14
ENDBRANCH  12  13
ENDBRANCH  11  12
ENDBRANCH  10  11
ENDBRANCH   1  10
TORSDOF 12
ENDMDL
MODEL 2
REMARK VINA RESULT:    -4.873      9.140     10.575
REMARK INTER + INTRA:          -9.108
REMARK INTER:                  -7.713
REMARK INTRA:                  -1.395
REMARK UNBOUND:                -0.817
REMARK SMILES CCCCCCCCCCCCCC(=O)[O-]
REMARK SMILES IDX 8 1 9 2 10 3 11 4 12 5 13 6 14 7 15 8 16 9 7 10 6 11 5 12
REMARK SMILES IDX 4 13 3 14 2 15 1 16
REMARK H PARENT
REMARK Flexibility Score: inf
ROOT
ATOM      1  C   UNL     1     -22.511 -31.468   3.993  1.00  0.00     0.000 C 
ENDROOT
BRANCH   1   2
ATOM      2  C   UNL     1     -22.691 -31.755   5.493  1.00  0.00     0.000 C 
BRANCH   2   3
ATOM      3  C   UNL     1     -22.008 -30.703   6.385  1.00  0.00     0.000 C 
BRANCH   3   4
ATOM      4  C   UNL     1     -22.014 -31.094   7.871  1.00  0.00     0.000 C 
BRANCH   4   5
ATOM      5  C   UNL     1     -22.417 -32.563   8.094  1.00  0.00     0.006 C 
BRANCH   5   6
ATOM      6  C   UNL     1     -21.551 -33.246   9.160  1.00  0.00     0.053 C 
BRANCH   6   7
ATOM      7  C   UNL     1     -22.070 -32.993  10.543  1.00  0.00     0.041 C 
ATOM      8  O   UNL     1     -21.456 -32.215  11.320  1.00  0.00    -0.550 OA
ATOM      9  O   UNL     1     -23.249 -33.596  10.962  1.00  0.00    -0.550 OA
ENDBRANCH   6   7
ENDBRANCH   5   6
ENDBRANCH   4   5
ENDBRANCH   3   4
ENDBRANCH   2   3
ENDBRANCH   1   2
BRANCH   1  10
ATOM     10  C   UNL     1     -22.590 -29.967   3.666  1.00  0.00     0.000 C 
BRANCH  10  11
ATOM     11  C   UNL     1     -24.037 -29.459   3.528  1.00  0.00    -0.000 C 
BRANCH  11  12
ATOM     12  C   UNL     1     -24.427 -28.334   4.503  1.00  0.00    -0.000 C 
BRANCH  12  13
ATOM     13  C   UNL     1     -25.742 -28.618   5.250  1.00  0.00    -0.000 C 
BRANCH  13  14
ATOM     14  C   UNL     1     -25.579 -29.680   6.349  1.00  0.00    -0.000 C 
BRANCH  14  15
ATOM     15  C   UNL     1     -25.117 -29.080   7.684  1.00  0.00    -0.003 C 
ATOM     16  C   UNL     1     -26.300 -28.848   8.621  1.00  0.00     0.004 C 
ENDBRANCH  14  15
ENDBRANCH  13  14
ENDBRANCH  12  13
ENDBRANCH  11  12
ENDBRANCH  10  11
ENDBRANCH   1  10
TORSDOF 12
ENDMDL
MODEL 3
REMARK VINA RESULT:    -4.861      9.065     10.590
REMARK INTER + INTRA:          -9.089
REMARK INTER:                  -7.822
REMARK INTRA:                  -1.267
REMARK UNBOUND:                -0.817
REMARK SMILES CCCCCCCCCCCCCC(=O)[O-]
REMARK SMILES IDX 8 1 9 2 10 3 11 4 12 5 13 6 14 7 15 8 16 9 7 10 6 11 5 12
REMARK SMILES IDX 4 13 3 14 2 15 1 16
REMARK H PARENT
REMARK Flexibility Score: inf
ROOT
ATOM      1  C   UNL     1     -24.242 -29.378   3.628  1.00  0.00     0.000 C 
ENDROOT
BRANCH   1   2
ATOM      2  C   UNL     1     -22.835 -29.872   3.259  1.00  0.00     0.000 C 
BRANCH   2   3
ATOM      3  C   UNL     1     -22.101 -30.519   4.448  1.00  0.00     0.000 C 
BRANCH   3   4
ATOM      4  C   UNL     1     -22.551 -31.965   4.705  1.00  0.00     0.000 C 
BRANCH   4   5
ATOM      5  C   UNL     1     -23.154 -32.154   6.109  1.00  0.00     0.006 C 
BRANCH   5   6
ATOM      6  C   UNL     1     -22.566 -31.169   7.128  1.00  0.00     0.053 C 
BRANCH   6   7
ATOM      7  C   UNL     1     -22.345 -31.815   8.461  1.00  0.00     0.041 C 
ATOM      8  O   UNL     1     -21.705 -32.896   8.545  1.00  0.00    -0.550 OA
ATOM      9  O   UNL     1     -22.823 -31.207   9.615  1.00  0.00    -0.550 OA
ENDBRANCH   6   7
ENDBRANCH   5   6
ENDBRANCH   4   5
ENDBRANCH   3   4
ENDBRANCH   2   3
ENDBRANCH   1   2
BRANCH   1  10
ATOM     10  C   UNL     1     -24.221 -28.016   4.343  1.00  0.00     0.000 C 
BRANCH  10  11
ATOM     11  C   UNL     1     -25.252 -27.921   5.484  1.00  0.00    -0.000 C 
BRANCH  11  12
ATOM     12  C   UNL     1     -25.556 -29.249   6.199  1.00  0.00    -0.000 C 
BRANCH  12  13
ATOM     13  C   UNL     1     -27.063 -29.496   6.390  1.00  0.00    -0.000 C 
BRANCH  13  14
ATOM     14  C   UNL     1     -27.608 -28.855   7.675  1.00  0.00    -0.000 C 
BRANCH  14  15
ATOM     15  C   UNL     1     -26.521 -28.654   8.740  1.00  0.00    -0.003 C 
ATOM     16  C   UNL     1     -26.623 -27.269   9.376  1.00  0.00     0.004 C 
ENDBRANCH  14  15
ENDBRANCH  13  14
ENDBRANCH  12  13
ENDBRANCH  11  12
ENDBRANCH  10  11
ENDBRANCH   1  10
TORSDOF 12
ENDMDL
MODEL 4
REMARK VINA RESULT:    -4.857     10.198     13.211
REMARK INTER + INTRA:          -9.080
REMARK INTER:                  -8.400
REMARK INTRA:                  -0.681
REMARK UNBOUND:                -0.817
REMARK SMILES CCCCCCCCCCCCCC(=O)[O-]
REMARK SMILES IDX 8 1 9 2 10 3 11 4 12 5 13 6 14 7 15 8 16 9 7 10 6 11 5 12
REMARK SMILES IDX 4 13 3 14 2 15 1 16
REMARK H PARENT
REMARK Flexibility Score: inf
ROOT
ATOM      1  C   UNL     1     -27.475 -25.373  15.064  1.00  0.00     0.000 C 
ENDROOT
BRANCH   1   2
ATOM      2  C   UNL     1     -28.704 -24.466  15.237  1.00  0.00     0.000 C 
BRANCH   2   3
ATOM      3  C   UNL     1     -28.546 -23.468  16.399  1.00  0.00     0.000 C 
BRANCH   3   4
ATOM      4  C   UNL     1     -29.412 -23.833  17.614  1.00  0.00     0.000 C 
BRANCH   4   5
ATOM      5  C   UNL     1     -30.510 -22.790  17.892  1.00  0.00     0.006 C 
BRANCH   5   6
ATOM      6  C   UNL     1     -29.988 -21.610  18.723  1.00  0.00     0.053 C 
BRANCH   6   7
ATOM      7  C   UNL     1     -29.969 -20.338  17.931  1.00  0.00     0.041 C 
ATOM      8  O   UNL     1     -29.379 -19.320  18.379  1.00  0.00    -0.550 OA
ATOM      9  O   UNL     1     -30.580 -20.288  16.684  1.00  0.00    -0.550 OA
ENDBRANCH   6   7
ENDBRANCH   5   6
ENDBRANCH   4   5
ENDBRANCH   3   4
ENDBRANCH   2   3
ENDBRANCH   1   2
BRANCH   1  10
ATOM     10  C   UNL     1     -26.152 -24.591  15.113  1.00  0.00     0.000 C 
BRANCH  10  11
ATOM     11  C   UNL     1     -25.145 -25.177  16.119  1.00  0.00    -0.000 C 
BRANCH  11  12
ATOM     12  C   UNL     1     -23.748 -25.473  15.545  1.00  0.00    -0.000 C 
BRANCH  12  13
ATOM     13  C   UNL     1     -22.938 -26.453  16.412  1.00  0.00    -0.000 C 
BRANCH  13  14
ATOM     14  C   UNL     1     -23.781 -27.087  17.529  1.00  0.00    -0.000 C 
BRANCH  14  15
ATOM     15  C   UNL     1     -23.164 -28.384  18.070  1.00  0.00    -0.003 C 
ATOM     16  C   UNL     1     -22.473 -29.169  16.958  1.00  0.00     0.004 C 
ENDBRANCH  14  15
ENDBRANCH  13  14
ENDBRANCH  12  13
ENDBRANCH  11  12
ENDBRANCH  10  11
ENDBRANCH   1  10
TORSDOF 12
ENDMDL
MODEL 5
REMARK VINA RESULT:    -4.849      3.040      5.380
REMARK INTER + INTRA:          -9.068
REMARK INTER:                  -7.450
REMARK INTRA:                  -1.617
REMARK UNBOUND:                -0.817
REMARK SMILES CCCCCCCCCCCCCC(=O)[O-]
REMARK SMILES IDX 8 1 9 2 10 3 11 4 12 5 13 6 14 7 15 8 16 9 7 10 6 11 5 12
REMARK SMILES IDX 4 13 3 14 2 15 1 16
REMARK H PARENT
REMARK Flexibility Score: inf
ROOT
ATOM      1  C   UNL     1     -20.518 -24.356  13.927  1.00  0.00     0.000 C 
ENDROOT
BRANCH   1   2
ATOM      2  C   UNL     1     -20.657 -23.488  12.666  1.00  0.00     0.000 C 
BRANCH   2   3
ATOM      3  C   UNL     1     -19.337 -22.803  12.267  1.00  0.00     0.000 C 
BRANCH   3   4
ATOM      4  C   UNL     1     -19.500 -21.292  12.040  1.00  0.00     0.000 C 
BRANCH   4   5
ATOM      5  C   UNL     1     -19.199 -20.878  10.588  1.00  0.00     0.006 C 
BRANCH   5   6
ATOM      6  C   UNL     1     -19.564 -21.981   9.585  1.00  0.00     0.053 C 
BRANCH   6   7
ATOM      7  C   UNL     1     -20.961 -21.820   9.067  1.00  0.00     0.041 C 
ATOM      8  O   UNL     1     -21.753 -22.798   9.064  1.00  0.00    -0.550 OA
ATOM      9  O   UNL     1     -21.395 -20.580   8.615  1.00  0.00    -0.550 OA
ENDBRANCH   6   7
ENDBRANCH   5   6
ENDBRANCH   4   5
ENDBRANCH   3   4
ENDBRANCH   2   3
ENDBRANCH   1   2
BRANCH   1  10
ATOM     10  C   UNL     1     -19.110 -24.283  14.541  1.00  0.00     0.000 C 
BRANCH  10  11
ATOM     11  C   UNL     1     -18.587 -25.655  15.007  1.00  0.00    -0.000 C 
BRANCH  11  12
ATOM     12  C   UNL     1     -17.650 -26.366  14.015  1.00  0.00    -0.000 C 
BRANCH  12  13
ATOM     13  C   UNL     1     -16.869 -25.387  13.121  1.00  0.00    -0.000 C 
BRANCH  13  14
ATOM     14  C   UNL     1     -16.857 -25.815  11.646  1.00  0.00    -0.000 C 
BRANCH  14  15
ATOM     15  C   UNL     1     -18.270 -26.014  11.079  1.00  0.00    -0.003 C 
ATOM     16  C   UNL     1     -18.370 -25.478   9.653  1.00  0.00     0.004 C 
ENDBRANCH  14  15
ENDBRANCH  13  14
ENDBRANCH  12  13
ENDBRANCH  11  12
ENDBRANCH  10  11
ENDBRANCH   1  10
TORSDOF 12
ENDMDL
MODEL 6
REMARK VINA RESULT:    -4.847      4.706      7.236
REMARK INTER + INTRA:          -9.063
REMARK INTER:                  -7.154
REMARK INTRA:                  -1.909
REMARK UNBOUND:                -0.817
REMARK SMILES CCCCCCCCCCCCCC(=O)[O-]
REMARK SMILES IDX 8 1 9 2 10 3 11 4 12 5 13 6 14 7 15 8 16 9 7 10 6 11 5 12
REMARK SMILES IDX 4 13 3 14 2 15 1 16
REMARK H PARENT
REMARK Flexibility Score: inf
ROOT
ATOM      1  C   UNL     1     -19.069 -23.320  12.437  1.00  0.00     0.000 C 
ENDROOT
BRANCH   1   2
ATOM      2  C   UNL     1     -20.214 -23.669  13.401  1.00  0.00     0.000 C 
BRANCH   2   3
ATOM      3  C   UNL     1     -19.713 -24.277  14.724  1.00  0.00     0.000 C 
BRANCH   3   4
ATOM      4  C   UNL     1     -20.644 -25.375  15.262  1.00  0.00     0.000 C 
BRANCH   4   5
ATOM      5  C   UNL     1     -19.901 -26.405  16.132  1.00  0.00     0.006 C 
BRANCH   5   6
ATOM      6  C   UNL     1     -20.137 -27.844  15.653  1.00  0.00     0.053 C 
BRANCH   6   7
ATOM      7  C   UNL     1     -21.106 -28.570  16.534  1.00  0.00     0.041 C 
ATOM      8  O   UNL     1     -22.329 -28.271  16.515  1.00  0.00    -0.550 OA
ATOM      9  O   UNL     1     -20.661 -29.599  17.355  1.00  0.00    -0.550 OA
ENDBRANCH   6   7
ENDBRANCH   5   6
ENDBRANCH   4   5
ENDBRANCH   3   4
ENDBRANCH   2   3
ENDBRANCH   1   2
BRANCH   1  10
ATOM     10  C   UNL     1     -18.888 -24.371  11.329  1.00  0.00     0.000 C 
BRANCH  10  11
ATOM     11  C   UNL     1     -17.755 -25.370  11.629  1.00  0.00    -0.000 C 
BRANCH  11  12
ATOM     12  C   UNL     1     -18.201 -26.674  12.315  1.00  0.00    -0.000 C 
BRANCH  12  13
ATOM     13  C   UNL     1     -17.327 -27.043  13.526  1.00  0.00    -0.000 C 
BRANCH  13  14
ATOM     14  C   UNL     1     -16.494 -25.857  14.037  1.00  0.00    -0.000 C 
BRANCH  14  15
ATOM     15  C   UNL     1     -16.313 -25.877  15.561  1.00  0.00    -0.003 C 
ATOM     16  C   UNL     1     -16.054 -27.295  16.065  1.00  0.00     0.004 C 
ENDBRANCH  14  15
ENDBRANCH  13  14
ENDBRANCH  12  13
ENDBRANCH  11  12
ENDBRANCH  10  11
ENDBRANCH   1  10
TORSDOF 12
ENDMDL
MODEL 7
REMARK VINA RESULT:    -4.845      5.827      8.071
REMARK INTER + INTRA:          -9.060
REMARK INTER:                  -7.726
REMARK INTRA:                  -1.334
REMARK UNBOUND:                -0.817
REMARK SMILES CCCCCCCCCCCCCC(=O)[O-]
REMARK SMILES IDX 8 1 9 2 10 3 11 4 12 5 13 6 14 7 15 8 16 9 7 10 6 11 5 12
REMARK SMILES IDX 4 13 3 14 2 15 1 16
REMARK H PARENT
REMARK Flexibility Score: inf
ROOT
ATOM      1  C   UNL     1     -23.453 -25.393  15.488  1.00  0.00     0.000 C 
ENDROOT
BRANCH   1   2
ATOM      2  C   UNL     1     -24.100 -25.390  16.882  1.00  0.00     0.000 C 
BRANCH   2   3
ATOM      3  C   UNL     1     -24.421 -26.806  17.392  1.00  0.00     0.000 C 
BRANCH   3   4
ATOM      4  C   UNL     1     -23.729 -27.126  18.726  1.00  0.00     0.000 C 
BRANCH   4   5
ATOM      5  C   UNL     1     -22.735 -28.295  18.609  1.00  0.00     0.006 C 
BRANCH   5   6
ATOM      6  C   UNL     1     -22.990 -29.149  17.359  1.00  0.00     0.053 C 
BRANCH   6   7
ATOM      7  C   UNL     1     -21.748 -29.854  16.906  1.00  0.00     0.041 C 
ATOM      8  O   UNL     1     -20.622 -29.503  17.345  1.00  0.00    -0.550 OA
ATOM      9  O   UNL     1     -21.840 -30.918  16.017  1.00  0.00    -0.550 OA
ENDBRANCH   6   7
ENDBRANCH   5   6
ENDBRANCH   4   5
ENDBRANCH   3   4
ENDBRANCH   2   3
ENDBRANCH   1   2
BRANCH   1  10
ATOM     10  C   UNL     1     -22.245 -26.341  15.401  1.00  0.00     0.000 C 
BRANCH  10  11
ATOM     11  C   UNL     1     -21.033 -25.846  16.211  1.00  0.00    -0.000 C 
BRANCH  11  12
ATOM     12  C   UNL     1     -19.672 -26.399  15.753  1.00  0.00    -0.000 C 
BRANCH  12  13
ATOM     13  C   UNL     1     -18.983 -25.505  14.707  1.00  0.00    -0.000 C 
BRANCH  13  14
ATOM     14  C   UNL     1     -19.499 -24.058  14.737  1.00  0.00    -0.000 C 
BRANCH  14  15
ATOM     15  C   UNL     1     -20.301 -23.692  13.480  1.00  0.00    -0.003 C 
ATOM     16  C   UNL     1     -19.494 -22.780  12.559  1.00  0.00     0.004 C 
ENDBRANCH  14  15
ENDBRANCH  13  14
ENDBRANCH  12  13
ENDBRANCH  11  12
ENDBRANCH  10  11
ENDBRANCH   1  10
TORSDOF 12
ENDMDL
MODEL 8
REMARK VINA RESULT:    -4.828      9.448     11.556
REMARK INTER + INTRA:          -9.032
REMARK INTER:                  -7.685
REMARK INTRA:                  -1.347
REMARK UNBOUND:                -0.817
REMARK SMILES CCCCCCCCCCCCCC(=O)[O-]
REMARK SMILES IDX 8 1 9 2 10 3 11 4 12 5 13 6 14 7 15 8 16 9 7 10 6 11 5 12
REMARK SMILES IDX 4 13 3 14 2 15 1 16
REMARK H PARENT
REMARK Flexibility Score: inf
ROOT
ATOM      1  C   UNL     1     -28.567 -25.178  13.926  1.00  0.00     0.000 C 
ENDROOT
BRANCH   1   2
ATOM      2  C   UNL     1     -28.092 -26.196  14.976  1.00  0.00     0.000 C 
BRANCH   2   3
ATOM      3  C   UNL     1     -27.037 -25.614  15.934  1.00  0.00     0.000 C 
BRANCH   3   4
ATOM      4  C   UNL     1     -26.457 -24.280  15.436  1.00  0.00     0.000 C 
BRANCH   4   5
ATOM      5  C   UNL     1     -25.019 -24.042  15.929  1.00  0.00     0.006 C 
BRANCH   5   6
ATOM      6  C   UNL     1     -24.058 -25.144  15.464  1.00  0.00     0.053 C 
BRANCH   6   7
ATOM      7  C   UNL     1     -23.396 -25.830  16.620  1.00  0.00     0.041 C 
ATOM      8  O   UNL     1     -22.185 -26.167  16.551  1.00  0.00    -0.550 OA
ATOM      9  O   UNL     1     -24.113 -26.071  17.786  1.00  0.00    -0.550 OA
ENDBRANCH   6   7
ENDBRANCH   5   6
ENDBRANCH   4   5
ENDBRANCH   3   4
ENDBRANCH   2   3
ENDBRANCH   1   2
BRANCH   1  10
ATOM     10  C   UNL     1     -30.024 -24.737  14.148  1.00  0.00     0.000 C 
BRANCH  10  11
ATOM     11  C   UNL     1     -30.147 -23.522  15.086  1.00  0.00    -0.000 C 
BRANCH  11  12
ATOM     12  C   UNL     1     -30.592 -23.851  16.522  1.00  0.00    -0.000 C 
BRANCH  12  13
ATOM     13  C   UNL     1     -29.489 -23.595  17.565  1.00  0.00    -0.000 C 
BRANCH  13  14
ATOM     14  C   UNL     1     -29.051 -22.123  17.611  1.00  0.00    -0.000 C 
BRANCH  14  15
ATOM     15  C   UNL     1     -30.022 -21.245  18.414  1.00  0.00    -0.003 C 
ATOM     16  C   UNL     1     -29.642 -19.770  18.310  1.00  0.00     0.004 C 
ENDBRANCH  14  15
ENDBRANCH  13  14
ENDBRANCH  12  13
ENDBRANCH  11  12
ENDBRANCH  10  11
ENDBRANCH   1  10
TORSDOF 12
ENDMDL
MODEL 9
REMARK VINA RESULT:    -4.772      4.339      6.964
REMARK INTER + INTRA:          -8.937
REMARK INTER:                  -8.287
REMARK INTRA:                  -0.649
REMARK UNBOUND:                -0.817
REMARK SMILES CCCCCCCCCCCCCC(=O)[O-]
REMARK SMILES IDX 8 1 9 2 10 3 11 4 12 5 13 6 14 7 15 8 16 9 7 10 6 11 5 12
REMARK SMILES IDX 4 13 3 14 2 15 1 16
REMARK H PARENT
REMARK Flexibility Score: inf
ROOT
ATOM      1  C   UNL     1     -19.348 -22.670  12.044  1.00  0.00     0.000 C 
ENDROOT
BRANCH   1   2
ATOM      2  C   UNL     1     -19.235 -21.206  11.590  1.00  0.00     0.000 C 
BRANCH   2   3
ATOM      3  C   UNL     1     -19.562 -21.019  10.097  1.00  0.00     0.000 C 
BRANCH   3   4
ATOM      4  C   UNL     1     -19.992 -22.329   9.417  1.00  0.00     0.000 C 
BRANCH   4   5
ATOM      5  C   UNL     1     -21.485 -22.338   9.045  1.00  0.00     0.006 C 
BRANCH   5   6
ATOM      6  C   UNL     1     -21.808 -21.341   7.925  1.00  0.00     0.053 C 
BRANCH   6   7
ATOM      7  C   UNL     1     -23.284 -21.127   7.779  1.00  0.00     0.041 C 
ATOM      8  O   UNL     1     -24.046 -22.100   7.537  1.00  0.00    -0.550 OA
ATOM      9  O   UNL     1     -23.820 -19.855   7.940  1.00  0.00    -0.550 OA
ENDBRANCH   6   7
ENDBRANCH   5   6
ENDBRANCH   4   5
ENDBRANCH   3   4
ENDBRANCH   2   3
ENDBRANCH   1   2
BRANCH   1  10
ATOM     10  C   UNL     1     -20.582 -22.919  12.928  1.00  0.00     0.000 C 
BRANCH  10  11
ATOM     11  C   UNL     1     -20.449 -24.181  13.801  1.00  0.00    -0.000 C 
BRANCH  11  12
ATOM     12  C   UNL     1     -19.179 -24.241  14.669  1.00  0.00    -0.000 C 
BRANCH  12  13
ATOM     13  C   UNL     1     -18.591 -25.659  14.772  1.00  0.00    -0.000 C 
BRANCH  13  14
ATOM     14  C   UNL     1     -17.091 -25.701  14.439  1.00  0.00    -0.000 C 
BRANCH  14  15
ATOM     15  C   UNL     1     -16.285 -26.526  15.452  1.00  0.00    -0.003 C 
ATOM     16  C   UNL     1     -15.615 -25.626  16.486  1.00  0.00     0.004 C 
ENDBRANCH  14  15
ENDBRANCH  13  14
ENDBRANCH  12  13
ENDBRANCH  11  12
ENDBRANCH  10  11
ENDBRANCH   1  10
TORSDOF 12
ENDMDL
