MODEL 1
REMARK VINA RESULT:    -4.539      0.000      0.000
REMARK INTER + INTRA:         -13.396
REMARK INTER:                 -10.378
REMARK INTRA:                  -3.019
REMARK UNBOUND:                -3.019
REMARK SMILES CCCCCCCCCCCCCCCCCCCCCCCC(=O)[O-]
REMARK SMILES IDX 13 1 14 2 15 3 16 4 17 5 18 6 19 7 20 8 21 9 22 10 23 11
REMARK SMILES IDX 24 12 25 13 26 14 12 15 11 16 10 17 9 18 8 19 7 20 6 21 5 22
REMARK SMILES IDX 4 23 3 24 2 25 1 26
REMARK H PARENT
REMARK Flexibility Score: inf
ROOT
ATOM      1  C   UNL     1     101.533 315.271 187.968  1.00  0.00     0.000 C 
ENDROOT
BRANCH   1   2
ATOM      2  C   UNL     1     101.120 314.005 187.197  1.00  0.00     0.000 C 
BRANCH   2   3
ATOM      3  C   UNL     1     102.298 313.045 186.966  1.00  0.00     0.000 C 
BRANCH   3   4
ATOM      4  C   UNL     1     103.645 313.656 187.382  1.00  0.00     0.000 C 
BRANCH   4   5
ATOM      5  C   UNL     1     104.570 312.590 187.982  1.00  0.00     0.000 C 
BRANCH   5   6
ATOM      6  C   UNL     1     104.482 312.583 189.513  1.00  0.00     0.000 C 
BRANCH   6   7
ATOM      7  C   UNL     1     104.292 314.005 190.060  1.00  0.00     0.000 C 
BRANCH   7   8
ATOM      8  C   UNL     1     103.160 314.104 191.099  1.00  0.00     0.000 C 
BRANCH   8   9
ATOM      9  C   UNL     1     102.041 313.059 190.946  1.00  0.00     0.000 C 
BRANCH   9  10
ATOM     10  C   UNL     1     100.817 313.356 191.832  1.00  0.00     0.006 C 
BRANCH  10  11
ATOM     11  C   UNL     1     100.948 314.695 192.569  1.00  0.00     0.053 C 
BRANCH  11  12
ATOM     12  C   UNL     1     100.901 314.520 194.056  1.00  0.00     0.041 C 
ATOM     13  O   UNL     1     101.727 315.121 194.792  1.00  0.00    -0.550 OA
ATOM     14  O   UNL     1      99.957 313.675 194.627  1.00  0.00    -0.550 OA
ENDBRANCH  11  12
ENDBRANCH  10  11
ENDBRANCH   9  10
ENDBRANCH   8   9
ENDBRANCH   7   8
ENDBRANCH   6   7
ENDBRANCH   5   6
ENDBRANCH   4   5
ENDBRANCH   3   4
ENDBRANCH   2   3
ENDBRANCH   1   2
BRANCH   1  15
ATOM     15  C   UNL     1     100.432 315.762 188.922  1.00  0.00     0.000 C 
BRANCH  15  16
ATOM     16  C   UNL     1     100.669 317.204 189.400  1.00  0.00     0.000 C 
BRANCH  16  17
ATOM     17  C   UNL     1     100.207 318.258 188.377  1.00  0.00     0.000 C 
BRANCH  17  18
ATOM     18  C   UNL     1      98.707 318.601 188.433  1.00  0.00    -0.000 C 
BRANCH  18  19
ATOM     19  C   UNL     1      97.862 317.749 187.468  1.00  0.00    -0.000 C 
BRANCH  19  20
ATOM     20  C   UNL     1      96.548 317.252 188.108  1.00  0.00    -0.000 C 
BRANCH  20  21
ATOM     21  C   UNL     1      96.563 317.255 189.648  1.00  0.00    -0.000 C 
BRANCH  21  22
ATOM     22  C   UNL     1      95.366 316.553 190.318  1.00  0.00    -0.000 C 
BRANCH  22  23
ATOM     23  C   UNL     1      93.987 316.914 189.736  1.00  0.00    -0.000 C 
BRANCH  23  24
ATOM     24  C   UNL     1      93.072 317.613 190.757  1.00  0.00    -0.000 C 
BRANCH  24  25
ATOM     25  C   UNL     1      93.523 319.050 191.063  1.00  0.00    -0.003 C 
ATOM     26  C   UNL     1      94.010 319.226 192.502  1.00  0.00     0.004 C 
ENDBRANCH  24  25
ENDBRANCH  23  24
ENDBRANCH  22  23
ENDBRANCH  21  22
ENDBRANCH  20  21
ENDBRANCH  19  20
ENDBRANCH  18  19
ENDBRANCH  17  18
ENDBRANCH  16  17
ENDBRANCH  15  16
ENDBRANCH   1  15
TORSDOF 22
ENDMDL
MODEL 2
REMARK VINA RESULT:    -4.404      4.761      6.332
REMARK INTER + INTRA:         -13.086
REMARK INTER:                 -10.375
REMARK INTRA:                  -2.711
REMARK UNBOUND:                -3.019
REMARK SMILES CCCCCCCCCCCCCCCCCCCCCCCC(=O)[O-]
REMARK SMILES IDX 13 1 14 2 15 3 16 4 17 5 18 6 19 7 20 8 21 9 22 10 23 11
REMARK SMILES IDX 24 12 25 13 26 14 12 15 11 16 10 17 9 18 8 19 7 20 6 21 5 22
REMARK SMILES IDX 4 23 3 24 2 25 1 26
REMARK H PARENT
REMARK Flexibility Score: inf
ROOT
ATOM      1  C   UNL     1     101.819 314.867 187.475  1.00  0.00     0.000 C 
ENDROOT
BRANCH   1   2
ATOM      2  C   UNL     1     103.061 314.125 186.952  1.00  0.00     0.000 C 
BRANCH   2   3
ATOM      3  C   UNL     1     104.367 314.654 187.568  1.00  0.00     0.000 C 
BRANCH   3   4
ATOM      4  C   UNL     1     104.339 314.644 189.103  1.00  0.00     0.000 C 
BRANCH   4   5
ATOM      5  C   UNL     1     104.401 313.210 189.644  1.00  0.00     0.000 C 
BRANCH   5   6
ATOM      6  C   UNL     1     103.281 312.956 190.660  1.00  0.00     0.000 C 
BRANCH   6   7
ATOM      7  C   UNL     1     102.870 314.259 191.363  1.00  0.00     0.000 C 
BRANCH   7   8
ATOM      8  C   UNL     1     101.393 314.267 191.798  1.00  0.00     0.000 C 
BRANCH   8   9
ATOM      9  C   UNL     1     100.455 315.102 190.907  1.00  0.00     0.000 C 
BRANCH   9  10
ATOM     10  C   UNL     1      98.970 314.735 191.090  1.00  0.00     0.006 C 
BRANCH  10  11
ATOM     11  C   UNL     1      98.735 313.221 191.009  1.00  0.00     0.053 C 
BRANCH  11  12
ATOM     12  C   UNL     1      97.351 312.849 191.443  1.00  0.00     0.041 C 
ATOM     13  O   UNL     1      96.707 313.599 192.222  1.00  0.00    -0.550 OA
ATOM     14  O   UNL     1      96.780 311.661 191.002  1.00  0.00    -0.550 OA
ENDBRANCH  11  12
ENDBRANCH  10  11
ENDBRANCH   9  10
ENDBRANCH   8   9
ENDBRANCH   7   8
ENDBRANCH   6   7
ENDBRANCH   5   6
ENDBRANCH   4   5
ENDBRANCH   3   4
ENDBRANCH   2   3
ENDBRANCH   1   2
BRANCH   1  15
ATOM     15  C   UNL     1     100.547 314.008 187.402  1.00  0.00     0.000 C 
BRANCH  15  16
ATOM     16  C   UNL     1     100.789 312.561 187.863  1.00  0.00     0.000 C 
BRANCH  16  17
ATOM     17  C   UNL     1      99.854 311.548 187.176  1.00  0.00     0.000 C 
BRANCH  17  18
ATOM     18  C   UNL     1      98.617 311.147 188.000  1.00  0.00    -0.000 C 
BRANCH  18  19
ATOM     19  C   UNL     1      98.343 309.632 187.970  1.00  0.00    -0.000 C 
BRANCH  19  20
ATOM     20  C   UNL     1      96.837 309.301 187.899  1.00  0.00    -0.000 C 
BRANCH  20  21
ATOM     21  C   UNL     1      96.429 308.069 188.729  1.00  0.00    -0.000 C 
BRANCH  21  22
ATOM     22  C   UNL     1      95.734 308.380 190.068  1.00  0.00    -0.000 C 
BRANCH  22  23
ATOM     23  C   UNL     1      94.719 307.322 190.540  1.00  0.00    -0.000 C 
BRANCH  23  24
ATOM     24  C   UNL     1      95.003 306.815 191.964  1.00  0.00    -0.000 C 
BRANCH  24  25
ATOM     25  C   UNL     1      94.625 307.845 193.041  1.00  0.00    -0.003 C 
ATOM     26  C   UNL     1      94.429 307.218 194.422  1.00  0.00     0.004 C 
ENDBRANCH  24  25
ENDBRANCH  23  24
ENDBRANCH  22  23
ENDBRANCH  21  22
ENDBRANCH  20  21
ENDBRANCH  19  20
ENDBRANCH  18  19
ENDBRANCH  17  18
ENDBRANCH  16  17
ENDBRANCH  15  16
ENDBRANCH   1  15
TORSDOF 22
ENDMDL
MODEL 3
REMARK VINA RESULT:    -4.376      4.767     10.463
REMARK INTER + INTRA:         -13.022
REMARK INTER:                 -11.785
REMARK INTRA:                  -1.237
REMARK UNBOUND:                -3.019
REMARK SMILES CCCCCCCCCCCCCCCCCCCCCCCC(=O)[O-]
REMARK SMILES IDX 13 1 14 2 15 3 16 4 17 5 18 6 19 7 20 8 21 9 22 10 23 11
REMARK SMILES IDX 24 12 25 13 26 14 12 15 11 16 10 17 9 18 8 19 7 20 6 21 5 22
REMARK SMILES IDX 4 23 3 24 2 25 1 26
REMARK H PARENT
REMARK Flexibility Score: inf
ROOT
ATOM      1  C   UNL     1      97.586 317.712 190.418  1.00  0.00     0.000 C 
ENDROOT
BRANCH   1   2
ATOM      2  C   UNL     1      96.157 318.253 190.596  1.00  0.00     0.000 C 
BRANCH   2   3
ATOM      3  C   UNL     1      95.511 317.791 191.912  1.00  0.00     0.000 C 
BRANCH   3   4
ATOM      4  C   UNL     1      94.274 318.622 192.283  1.00  0.00     0.000 C 
BRANCH   4   5
ATOM      5  C   UNL     1      93.487 319.026 191.030  1.00  0.00     0.000 C 
BRANCH   5   6
ATOM      6  C   UNL     1      92.690 317.839 190.474  1.00  0.00     0.000 C 
BRANCH   6   7
ATOM      7  C   UNL     1      91.688 318.301 189.406  1.00  0.00     0.000 C 
BRANCH   7   8
ATOM      8  C   UNL     1      91.430 317.238 188.323  1.00  0.00     0.000 C 
BRANCH   8   9
ATOM      9  C   UNL     1      90.622 316.014 188.790  1.00  0.00     0.000 C 
BRANCH   9  10
ATOM     10  C   UNL     1      89.172 316.020 188.273  1.00  0.00     0.006 C 
BRANCH  10  11
ATOM     11  C   UNL     1      88.838 314.754 187.473  1.00  0.00     0.053 C 
BRANCH  11  12
ATOM     12  C   UNL     1      87.475 314.230 187.802  1.00  0.00     0.041 C 
ATOM     13  O   UNL     1      86.448 314.880 187.473  1.00  0.00    -0.550 OA
ATOM     14  O   UNL     1      87.339 313.031 188.491  1.00  0.00    -0.550 OA
ENDBRANCH  11  12
ENDBRANCH  10  11
ENDBRANCH   9  10
ENDBRANCH   8   9
ENDBRANCH   7   8
ENDBRANCH   6   7
ENDBRANCH   5   6
ENDBRANCH   4   5
ENDBRANCH   3   4
ENDBRANCH   2   3
ENDBRANCH   1   2
BRANCH   1  15
ATOM     15  C   UNL     1      98.367 318.462 189.327  1.00  0.00     0.000 C 
BRANCH  15  16
ATOM     16  C   UNL     1      99.886 318.430 189.563  1.00  0.00     0.000 C 
BRANCH  16  17
ATOM     17  C   UNL     1     100.671 317.908 188.346  1.00  0.00     0.000 C 
BRANCH  17  18
ATOM     18  C   UNL     1      99.864 317.010 187.392  1.00  0.00    -0.000 C 
BRANCH  18  19
ATOM     19  C   UNL     1     100.563 315.671 187.095  1.00  0.00    -0.000 C 
BRANCH  19  20
ATOM     20  C   UNL     1     101.737 315.386 188.058  1.00  0.00    -0.000 C 
BRANCH  20  21
ATOM     21  C   UNL     1     102.829 314.479 187.459  1.00  0.00    -0.000 C 
BRANCH  21  22
ATOM     22  C   UNL     1     102.974 313.098 188.127  1.00  0.00    -0.000 C 
BRANCH  22  23
ATOM     23  C   UNL     1     104.345 312.824 188.772  1.00  0.00    -0.000 C 
BRANCH  23  24
ATOM     24  C   UNL     1     104.292 312.823 190.309  1.00  0.00    -0.000 C 
BRANCH  24  25
ATOM     25  C   UNL     1     102.877 313.086 190.849  1.00  0.00    -0.003 C 
ATOM     26  C   UNL     1     102.765 314.410 191.606  1.00  0.00     0.004 C 
ENDBRANCH  24  25
ENDBRANCH  23  24
ENDBRANCH  22  23
ENDBRANCH  21  22
ENDBRANCH  20  21
ENDBRANCH  19  20
ENDBRANCH  18  19
ENDBRANCH  17  18
ENDBRANCH  16  17
ENDBRANCH  15  16
ENDBRANCH   1  15
TORSDOF 22
ENDMDL
MODEL 4
REMARK VINA RESULT:    -4.367     12.771     15.496
REMARK INTER + INTRA:         -13.002
REMARK INTER:                  -8.742
REMARK INTRA:                  -4.260
REMARK UNBOUND:                -3.019
REMARK SMILES CCCCCCCCCCCCCCCCCCCCCCCC(=O)[O-]
REMARK SMILES IDX 13 1 14 2 15 3 16 4 17 5 18 6 19 7 20 8 21 9 22 10 23 11
REMARK SMILES IDX 24 12 25 13 26 14 12 15 11 16 10 17 9 18 8 19 7 20 6 21 5 22
REMARK SMILES IDX 4 23 3 24 2 25 1 26
REMARK H PARENT
REMARK Flexibility Score: inf
ROOT
ATOM      1  C   UNL     1     104.093 307.147 203.237  1.00  0.00     0.000 C 
ENDROOT
BRANCH   1   2
ATOM      2  C   UNL     1     103.828 307.782 201.861  1.00  0.00     0.000 C 
BRANCH   2   3
ATOM      3  C   UNL     1     105.125 308.111 201.104  1.00  0.00     0.000 C 
BRANCH   3   4
ATOM      4  C   UNL     1     105.038 309.439 200.337  1.00  0.00     0.000 C 
BRANCH   4   5
ATOM      5  C   UNL     1     103.840 310.271 200.814  1.00  0.00     0.000 C 
BRANCH   5   6
ATOM      6  C   UNL     1     104.296 311.429 201.709  1.00  0.00     0.000 C 
BRANCH   6   7
ATOM      7  C   UNL     1     103.234 312.537 201.759  1.00  0.00     0.000 C 
BRANCH   7   8
ATOM      8  C   UNL     1     103.603 313.683 202.719  1.00  0.00     0.000 C 
BRANCH   8   9
ATOM      9  C   UNL     1     102.429 314.256 203.534  1.00  0.00     0.000 C 
BRANCH   9  10
ATOM     10  C   UNL     1     102.843 314.706 204.947  1.00  0.00     0.006 C 
BRANCH  10  11
ATOM     11  C   UNL     1     104.283 315.233 204.988  1.00  0.00     0.053 C 
BRANCH  11  12
ATOM     12  C   UNL     1     104.339 316.716 204.787  1.00  0.00     0.041 C 
ATOM     13  O   UNL     1     104.676 317.193 203.672  1.00  0.00    -0.550 OA
ATOM     14  O   UNL     1     104.040 317.572 205.840  1.00  0.00    -0.550 OA
ENDBRANCH  11  12
ENDBRANCH  10  11
ENDBRANCH   9  10
ENDBRANCH   8   9
ENDBRANCH   7   8
ENDBRANCH   6   7
ENDBRANCH   5   6
ENDBRANCH   4   5
ENDBRANCH   3   4
ENDBRANCH   2   3
ENDBRANCH   1   2
BRANCH   1  15
ATOM     15  C   UNL     1     105.057 307.984 204.093  1.00  0.00     0.000 C 
BRANCH  15  16
ATOM     16  C   UNL     1     104.326 309.035 204.945  1.00  0.00     0.000 C 
BRANCH  16  17
ATOM     17  C   UNL     1     104.896 310.454 204.766  1.00  0.00     0.000 C 
BRANCH  17  18
ATOM     18  C   UNL     1     104.434 311.475 205.822  1.00  0.00    -0.000 C 
BRANCH  18  19
ATOM     19  C   UNL     1     103.415 310.888 206.816  1.00  0.00    -0.000 C 
BRANCH  19  20
ATOM     20  C   UNL     1     102.033 311.570 206.723  1.00  0.00    -0.000 C 
BRANCH  20  21
ATOM     21  C   UNL     1     100.964 310.719 206.010  1.00  0.00    -0.000 C 
BRANCH  21  22
ATOM     22  C   UNL     1     100.907 310.884 204.480  1.00  0.00    -0.000 C 
BRANCH  22  23
ATOM     23  C   UNL     1     101.311 309.637 203.672  1.00  0.00    -0.000 C 
BRANCH  23  24
ATOM     24  C   UNL     1     100.541 309.509 202.346  1.00  0.00    -0.000 C 
BRANCH  24  25
ATOM     25  C   UNL     1     100.090 310.871 201.794  1.00  0.00    -0.003 C 
ATOM     26  C   UNL     1      98.670 310.843 201.230  1.00  0.00     0.004 C 
ENDBRANCH  24  25
ENDBRANCH  23  24
ENDBRANCH  22  23
ENDBRANCH  21  22
ENDBRANCH  20  21
ENDBRANCH  19  20
ENDBRANCH  18  19
ENDBRANCH  17  18
ENDBRANCH  16  17
ENDBRANCH  15  16
ENDBRANCH   1  15
TORSDOF 22
ENDMDL
MODEL 5
REMARK VINA RESULT:    -4.357     12.385     15.467
REMARK INTER + INTRA:         -12.980
REMARK INTER:                  -9.350
REMARK INTRA:                  -3.629
REMARK UNBOUND:                -3.019
REMARK SMILES CCCCCCCCCCCCCCCCCCCCCCCC(=O)[O-]
REMARK SMILES IDX 13 1 14 2 15 3 16 4 17 5 18 6 19 7 20 8 21 9 22 10 23 11
REMARK SMILES IDX 24 12 25 13 26 14 12 15 11 16 10 17 9 18 8 19 7 20 6 21 5 22
REMARK SMILES IDX 4 23 3 24 2 25 1 26
REMARK H PARENT
REMARK Flexibility Score: inf
ROOT
ATOM      1  C   UNL     1     104.351 309.558 204.340  1.00  0.00     0.000 C 
ENDROOT
BRANCH   1   2
ATOM      2  C   UNL     1     103.211 309.825 205.338  1.00  0.00     0.000 C 
BRANCH   2   3
ATOM      3  C   UNL     1     103.538 310.965 206.315  1.00  0.00     0.000 C 
BRANCH   3   4
ATOM      4  C   UNL     1     104.906 311.605 206.035  1.00  0.00     0.000 C 
BRANCH   4   5
ATOM      5  C   UNL     1     104.754 313.083 205.653  1.00  0.00     0.000 C 
BRANCH   5   6
ATOM      6  C   UNL     1     104.974 313.288 204.150  1.00  0.00     0.000 C 
BRANCH   6   7
ATOM      7  C   UNL     1     103.641 313.254 203.388  1.00  0.00     0.000 C 
BRANCH   7   8
ATOM      8  C   UNL     1     103.448 314.467 202.459  1.00  0.00     0.000 C 
BRANCH   8   9
ATOM      9  C   UNL     1     104.368 315.665 202.751  1.00  0.00     0.000 C 
BRANCH   9  10
ATOM     10  C   UNL     1     103.648 316.810 203.487  1.00  0.00     0.006 C 
BRANCH  10  11
ATOM     11  C   UNL     1     104.082 316.917 204.954  1.00  0.00     0.053 C 
BRANCH  11  12
ATOM     12  C   UNL     1     103.067 316.324 205.881  1.00  0.00     0.041 C 
ATOM     13  O   UNL     1     103.276 316.305 207.123  1.00  0.00    -0.550 OA
ATOM     14  O   UNL     1     101.897 315.774 205.372  1.00  0.00    -0.550 OA
ENDBRANCH  11  12
ENDBRANCH  10  11
ENDBRANCH   9  10
ENDBRANCH   8   9
ENDBRANCH   7   8
ENDBRANCH   6   7
ENDBRANCH   5   6
ENDBRANCH   4   5
ENDBRANCH   3   4
ENDBRANCH   2   3
ENDBRANCH   1   2
BRANCH   1  15
ATOM     15  C   UNL     1     104.813 308.092 204.355  1.00  0.00     0.000 C 
BRANCH  15  16
ATOM     16  C   UNL     1     104.060 307.227 203.330  1.00  0.00     0.000 C 
BRANCH  16  17
ATOM     17  C   UNL     1     103.739 307.984 202.028  1.00  0.00     0.000 C 
BRANCH  17  18
ATOM     18  C   UNL     1     104.881 308.009 200.997  1.00  0.00    -0.000 C 
BRANCH  18  19
ATOM     19  C   UNL     1     104.986 309.352 200.252  1.00  0.00    -0.000 C 
BRANCH  19  20
ATOM     20  C   UNL     1     104.106 310.453 200.884  1.00  0.00    -0.000 C 
BRANCH  20  21
ATOM     21  C   UNL     1     103.031 311.013 199.933  1.00  0.00    -0.000 C 
BRANCH  21  22
ATOM     22  C   UNL     1     101.605 311.070 200.515  1.00  0.00    -0.000 C 
BRANCH  22  23
ATOM     23  C   UNL     1     101.499 310.752 202.018  1.00  0.00    -0.000 C 
BRANCH  23  24
ATOM     24  C   UNL     1     100.505 309.617 202.319  1.00  0.00    -0.000 C 
BRANCH  24  25
ATOM     25  C   UNL     1      99.139 309.838 201.649  1.00  0.00    -0.003 C 
ATOM     26  C   UNL     1      98.163 308.687 201.897  1.00  0.00     0.004 C 
ENDBRANCH  24  25
ENDBRANCH  23  24
ENDBRANCH  22  23
ENDBRANCH  21  22
ENDBRANCH  20  21
ENDBRANCH  19  20
ENDBRANCH  18  19
ENDBRANCH  17  18
ENDBRANCH  16  17
ENDBRANCH  15  16
ENDBRANCH   1  15
TORSDOF 22
ENDMDL
MODEL 6
REMARK VINA RESULT:    -4.352      2.250      2.726
REMARK INTER + INTRA:         -12.967
REMARK INTER:                 -10.080
REMARK INTRA:                  -2.887
REMARK UNBOUND:                -3.019
REMARK SMILES CCCCCCCCCCCCCCCCCCCCCCCC(=O)[O-]
REMARK SMILES IDX 13 1 14 2 15 3 16 4 17 5 18 6 19 7 20 8 21 9 22 10 23 11
REMARK SMILES IDX 24 12 25 13 26 14 12 15 11 16 10 17 9 18 8 19 7 20 6 21 5 22
REMARK SMILES IDX 4 23 3 24 2 25 1 26
REMARK H PARENT
REMARK Flexibility Score: inf
ROOT
ATOM      1  C   UNL     1     100.709 315.146 187.322  1.00  0.00     0.000 C 
ENDROOT
BRANCH   1   2
ATOM      2  C   UNL     1     101.851 314.120 187.216  1.00  0.00     0.000 C 
BRANCH   2   3
ATOM      3  C   UNL     1     103.235 314.754 187.425  1.00  0.00     0.000 C 
BRANCH   3   4
ATOM      4  C   UNL     1     104.321 313.711 187.729  1.00  0.00     0.000 C 
BRANCH   4   5
ATOM      5  C   UNL     1     104.147 313.131 189.138  1.00  0.00     0.000 C 
BRANCH   5   6
ATOM      6  C   UNL     1     104.225 314.233 190.201  1.00  0.00     0.000 C 
BRANCH   6   7
ATOM      7  C   UNL     1     103.059 314.124 191.194  1.00  0.00     0.000 C 
BRANCH   7   8
ATOM      8  C   UNL     1     101.974 313.131 190.741  1.00  0.00     0.000 C 
BRANCH   8   9
ATOM      9  C   UNL     1     101.145 312.506 191.878  1.00  0.00     0.000 C 
BRANCH   9  10
ATOM     10  C   UNL     1      99.637 312.792 191.749  1.00  0.00     0.006 C 
BRANCH  10  11
ATOM     11  C   UNL     1      99.324 313.718 190.566  1.00  0.00     0.053 C 
BRANCH  11  12
ATOM     12  C   UNL     1      98.557 313.010 189.492  1.00  0.00     0.041 C 
ATOM     13  O   UNL     1      99.007 311.948 188.986  1.00  0.00    -0.550 OA
ATOM     14  O   UNL     1      97.355 313.534 189.035  1.00  0.00    -0.550 OA
ENDBRANCH  11  12
ENDBRANCH  10  11
ENDBRANCH   9  10
ENDBRANCH   8   9
ENDBRANCH   7   8
ENDBRANCH   6   7
ENDBRANCH   5   6
ENDBRANCH   4   5
ENDBRANCH   3   4
ENDBRANCH   2   3
ENDBRANCH   1   2
BRANCH   1  15
ATOM     15  C   UNL     1     101.035 316.287 188.300  1.00  0.00     0.000 C 
BRANCH  15  16
ATOM     16  C   UNL     1     100.654 317.667 187.739  1.00  0.00     0.000 C 
BRANCH  16  17
ATOM     17  C   UNL     1     100.320 318.691 188.839  1.00  0.00     0.000 C 
BRANCH  17  18
ATOM     18  C   UNL     1      99.860 318.077 190.174  1.00  0.00    -0.000 C 
BRANCH  18  19
ATOM     19  C   UNL     1      98.342 318.199 190.398  1.00  0.00    -0.000 C 
BRANCH  19  20
ATOM     20  C   UNL     1      97.541 317.113 189.648  1.00  0.00    -0.000 C 
BRANCH  20  21
ATOM     21  C   UNL     1      96.079 316.981 190.116  1.00  0.00    -0.000 C 
BRANCH  21  22
ATOM     22  C   UNL     1      95.676 317.905 191.280  1.00  0.00    -0.000 C 
BRANCH  22  23
ATOM     23  C   UNL     1      94.447 317.445 192.086  1.00  0.00    -0.000 C 
BRANCH  23  24
ATOM     24  C   UNL     1      93.184 317.305 191.220  1.00  0.00    -0.000 C 
BRANCH  24  25
ATOM     25  C   UNL     1      92.860 318.590 190.441  1.00  0.00    -0.003 C 
ATOM     26  C   UNL     1      91.684 318.421 189.478  1.00  0.00     0.004 C 
ENDBRANCH  24  25
ENDBRANCH  23  24
ENDBRANCH  22  23
ENDBRANCH  21  22
ENDBRANCH  20  21
ENDBRANCH  19  20
ENDBRANCH  18  19
ENDBRANCH  17  18
ENDBRANCH  16  17
ENDBRANCH  15  16
ENDBRANCH   1  15
TORSDOF 22
ENDMDL
MODEL 7
REMARK VINA RESULT:    -4.343      3.025      6.930
REMARK INTER + INTRA:         -12.947
REMARK INTER:                  -9.282
REMARK INTRA:                  -3.665
REMARK UNBOUND:                -3.019
REMARK SMILES CCCCCCCCCCCCCCCCCCCCCCCC(=O)[O-]
REMARK SMILES IDX 13 1 14 2 15 3 16 4 17 5 18 6 19 7 20 8 21 9 22 10 23 11
REMARK SMILES IDX 24 12 25 13 26 14 12 15 11 16 10 17 9 18 8 19 7 20 6 21 5 22
REMARK SMILES IDX 4 23 3 24 2 25 1 26
REMARK H PARENT
REMARK Flexibility Score: inf
ROOT
ATOM      1  C   UNL     1     100.714 315.335 187.815  1.00  0.00     0.000 C 
ENDROOT
BRANCH   1   2
ATOM      2  C   UNL     1      99.772 316.149 186.911  1.00  0.00     0.000 C 
BRANCH   2   3
ATOM      3  C   UNL     1      99.864 317.661 187.172  1.00  0.00     0.000 C 
BRANCH   3   4
ATOM      4  C   UNL     1     100.798 317.999 188.343  1.00  0.00     0.000 C 
BRANCH   4   5
ATOM      5  C   UNL     1     100.009 318.560 189.532  1.00  0.00     0.000 C 
BRANCH   5   6
ATOM      6  C   UNL     1     100.061 317.603 190.729  1.00  0.00     0.000 C 
BRANCH   6   7
ATOM      7  C   UNL     1      98.750 316.814 190.860  1.00  0.00     0.000 C 
BRANCH   7   8
ATOM      8  C   UNL     1      97.570 317.482 190.132  1.00  0.00     0.000 C 
BRANCH   8   9
ATOM      9  C   UNL     1      96.757 316.550 189.215  1.00  0.00     0.000 C 
BRANCH   9  10
ATOM     10  C   UNL     1      95.237 316.762 189.339  1.00  0.00     0.006 C 
BRANCH  10  11
ATOM     11  C   UNL     1      94.863 317.537 190.608  1.00  0.00     0.053 C 
BRANCH  11  12
ATOM     12  C   UNL     1      93.420 317.935 190.614  1.00  0.00     0.041 C 
ATOM     13  O   UNL     1      92.530 317.100 190.304  1.00  0.00    -0.550 OA
ATOM     14  O   UNL     1      93.058 319.236 190.940  1.00  0.00    -0.550 OA
ENDBRANCH  11  12
ENDBRANCH  10  11
ENDBRANCH   9  10
ENDBRANCH   8   9
ENDBRANCH   7   8
ENDBRANCH   6   7
ENDBRANCH   5   6
ENDBRANCH   4   5
ENDBRANCH   3   4
ENDBRANCH   2   3
ENDBRANCH   1   2
BRANCH   1  15
ATOM     15  C   UNL     1     100.685 313.833 187.492  1.00  0.00     0.000 C 
BRANCH  15  16
ATOM     16  C   UNL     1     102.046 313.310 187.004  1.00  0.00     0.000 C 
BRANCH  16  17
ATOM     17  C   UNL     1     103.104 314.421 186.875  1.00  0.00     0.000 C 
BRANCH  17  18
ATOM     18  C   UNL     1     104.401 314.174 187.667  1.00  0.00    -0.000 C 
BRANCH  18  19
ATOM     19  C   UNL     1     104.429 314.913 189.017  1.00  0.00    -0.000 C 
BRANCH  19  20
ATOM     20  C   UNL     1     104.190 313.970 190.216  1.00  0.00    -0.000 C 
BRANCH  20  21
ATOM     21  C   UNL     1     102.898 314.272 191.000  1.00  0.00    -0.000 C 
BRANCH  21  22
ATOM     22  C   UNL     1     101.927 313.086 191.147  1.00  0.00    -0.000 C 
BRANCH  22  23
ATOM     23  C   UNL     1     100.432 313.453 191.100  1.00  0.00    -0.000 C 
BRANCH  23  24
ATOM     24  C   UNL     1      99.542 312.279 190.658  1.00  0.00    -0.000 C 
BRANCH  24  25
ATOM     25  C   UNL     1      98.059 312.506 190.994  1.00  0.00    -0.003 C 
ATOM     26  C   UNL     1      97.854 313.495 192.141  1.00  0.00     0.004 C 
ENDBRANCH  24  25
ENDBRANCH  23  24
ENDBRANCH  22  23
ENDBRANCH  21  22
ENDBRANCH  20  21
ENDBRANCH  19  20
ENDBRANCH  18  19
ENDBRANCH  17  18
ENDBRANCH  16  17
ENDBRANCH  15  16
ENDBRANCH   1  15
TORSDOF 22
ENDMDL
MODEL 8
REMARK VINA RESULT:    -4.296      9.927     13.903
REMARK INTER + INTRA:         -12.839
REMARK INTER:                  -8.613
REMARK INTRA:                  -4.226
REMARK UNBOUND:                -3.019
REMARK SMILES CCCCCCCCCCCCCCCCCCCCCCCC(=O)[O-]
REMARK SMILES IDX 13 1 14 2 15 3 16 4 17 5 18 6 19 7 20 8 21 9 22 10 23 11
REMARK SMILES IDX 24 12 25 13 26 14 12 15 11 16 10 17 9 18 8 19 7 20 6 21 5 22
REMARK SMILES IDX 4 23 3 24 2 25 1 26
REMARK H PARENT
REMARK Flexibility Score: inf
ROOT
ATOM      1  C   UNL     1      90.613 310.873 190.874  1.00  0.00     0.000 C 
ENDROOT
BRANCH   1   2
ATOM      2  C   UNL     1      91.022 310.179 189.563  1.00  0.00     0.000 C 
BRANCH   2   3
ATOM      3  C   UNL     1      91.715 308.827 189.803  1.00  0.00     0.000 C 
BRANCH   3   4
ATOM      4  C   UNL     1      90.734 307.736 190.257  1.00  0.00     0.000 C 
BRANCH   4   5
ATOM      5  C   UNL     1      89.761 307.369 189.129  1.00  0.00     0.000 C 
BRANCH   5   6
ATOM      6  C   UNL     1      88.318 307.311 189.643  1.00  0.00     0.000 C 
BRANCH   6   7
ATOM      7  C   UNL     1      87.422 308.298 188.880  1.00  0.00     0.000 C 
BRANCH   7   8
ATOM      8  C   UNL     1      88.124 308.931 187.664  1.00  0.00     0.000 C 
BRANCH   8   9
ATOM      9  C   UNL     1      87.762 310.403 187.395  1.00  0.00     0.000 C 
BRANCH   9  10
ATOM     10  C   UNL     1      86.692 310.944 188.362  1.00  0.00     0.006 C 
BRANCH  10  11
ATOM     11  C   UNL     1      85.726 311.914 187.670  1.00  0.00     0.053 C 
BRANCH  11  12
ATOM     12  C   UNL     1      85.457 313.125 188.509  1.00  0.00     0.041 C 
ATOM     13  O   UNL     1      85.520 313.054 189.764  1.00  0.00    -0.550 OA
ATOM     14  O   UNL     1      85.116 314.328 187.903  1.00  0.00    -0.550 OA
ENDBRANCH  11  12
ENDBRANCH  10  11
ENDBRANCH   9  10
ENDBRANCH   8   9
ENDBRANCH   7   8
ENDBRANCH   6   7
ENDBRANCH   5   6
ENDBRANCH   4   5
ENDBRANCH   3   4
ENDBRANCH   2   3
ENDBRANCH   1   2
BRANCH   1  15
ATOM     15  C   UNL     1      89.259 311.592 190.760  1.00  0.00     0.000 C 
BRANCH  15  16
ATOM     16  C   UNL     1      88.301 311.225 191.904  1.00  0.00     0.000 C 
BRANCH  16  17
ATOM     17  C   UNL     1      88.236 309.709 192.169  1.00  0.00     0.000 C 
BRANCH  17  18
ATOM     18  C   UNL     1      88.548 309.292 193.618  1.00  0.00    -0.000 C 
BRANCH  18  19
ATOM     19  C   UNL     1      89.743 308.327 193.719  1.00  0.00    -0.000 C 
BRANCH  19  20
ATOM     20  C   UNL     1      90.986 308.984 194.358  1.00  0.00    -0.000 C 
BRANCH  20  21
ATOM     21  C   UNL     1      92.240 308.948 193.463  1.00  0.00    -0.000 C 
BRANCH  21  22
ATOM     22  C   UNL     1      93.003 307.610 193.455  1.00  0.00    -0.000 C 
BRANCH  22  23
ATOM     23  C   UNL     1      94.508 307.717 193.150  1.00  0.00    -0.000 C 
BRANCH  23  24
ATOM     24  C   UNL     1      94.869 308.988 192.364  1.00  0.00    -0.000 C 
BRANCH  24  25
ATOM     25  C   UNL     1      95.203 308.696 190.892  1.00  0.00    -0.003 C 
ATOM     26  C   UNL     1      95.303 307.200 190.591  1.00  0.00     0.004 C 
ENDBRANCH  24  25
ENDBRANCH  23  24
ENDBRANCH  22  23
ENDBRANCH  21  22
ENDBRANCH  20  21
ENDBRANCH  19  20
ENDBRANCH  18  19
ENDBRANCH  17  18
ENDBRANCH  16  17
ENDBRANCH  15  16
ENDBRANCH   1  15
TORSDOF 22
ENDMDL
MODEL 9
REMARK VINA RESULT:    -4.280     11.706     14.244
REMARK INTER + INTRA:         -12.804
REMARK INTER:                  -9.036
REMARK INTRA:                  -3.768
REMARK UNBOUND:                -3.019
REMARK SMILES CCCCCCCCCCCCCCCCCCCCCCCC(=O)[O-]
REMARK SMILES IDX 13 1 14 2 15 3 16 4 17 5 18 6 19 7 20 8 21 9 22 10 23 11
REMARK SMILES IDX 24 12 25 13 26 14 12 15 11 16 10 17 9 18 8 19 7 20 6 21 5 22
REMARK SMILES IDX 4 23 3 24 2 25 1 26
REMARK H PARENT
REMARK Flexibility Score: inf
ROOT
ATOM      1  C   UNL     1      93.451 308.638 194.515  1.00  0.00     0.000 C 
ENDROOT
BRANCH   1   2
ATOM      2  C   UNL     1      93.754 307.146 194.291  1.00  0.00     0.000 C 
BRANCH   2   3
ATOM      3  C   UNL     1      94.653 306.556 195.390  1.00  0.00     0.000 C 
BRANCH   3   4
ATOM      4  C   UNL     1      94.382 307.178 196.768  1.00  0.00     0.000 C 
BRANCH   4   5
ATOM      5  C   UNL     1      93.481 306.269 197.613  1.00  0.00     0.000 C 
BRANCH   5   6
ATOM      6  C   UNL     1      92.001 306.607 197.396  1.00  0.00     0.000 C 
BRANCH   6   7
ATOM      7  C   UNL     1      91.142 305.334 197.387  1.00  0.00     0.000 C 
BRANCH   7   8
ATOM      8  C   UNL     1      90.643 304.955 195.980  1.00  0.00     0.000 C 
BRANCH   8   9
ATOM      9  C   UNL     1      90.049 303.540 195.858  1.00  0.00     0.000 C 
BRANCH   9  10
ATOM     10  C   UNL     1      88.518 303.516 196.020  1.00  0.00     0.006 C 
BRANCH  10  11
ATOM     11  C   UNL     1      87.804 304.228 194.864  1.00  0.00     0.053 C 
BRANCH  11  12
ATOM     12  C   UNL     1      86.684 305.096 195.350  1.00  0.00     0.041 C 
ATOM     13  O   UNL     1      85.488 304.731 195.203  1.00  0.00    -0.550 OA
ATOM     14  O   UNL     1      86.961 306.319 195.947  1.00  0.00    -0.550 OA
ENDBRANCH  11  12
ENDBRANCH  10  11
ENDBRANCH   9  10
ENDBRANCH   8   9
ENDBRANCH   7   8
ENDBRANCH   6   7
ENDBRANCH   5   6
ENDBRANCH   4   5
ENDBRANCH   3   4
ENDBRANCH   2   3
ENDBRANCH   1   2
BRANCH   1  15
ATOM     15  C   UNL     1      92.009 309.008 194.130  1.00  0.00     0.000 C 
BRANCH  15  16
ATOM     16  C   UNL     1      91.142 307.771 193.844  1.00  0.00     0.000 C 
BRANCH  16  17
ATOM     17  C   UNL     1      89.648 308.006 194.135  1.00  0.00     0.000 C 
BRANCH  17  18
ATOM     18  C   UNL     1      88.694 307.587 193.002  1.00  0.00    -0.000 C 
BRANCH  18  19
ATOM     19  C   UNL     1      88.617 308.628 191.870  1.00  0.00    -0.000 C 
BRANCH  19  20
ATOM     20  C   UNL     1      88.678 307.987 190.466  1.00  0.00    -0.000 C 
BRANCH  20  21
ATOM     21  C   UNL     1      90.089 307.528 190.051  1.00  0.00    -0.000 C 
BRANCH  21  22
ATOM     22  C   UNL     1      91.195 308.591 190.198  1.00  0.00    -0.000 C 
BRANCH  22  23
ATOM     23  C   UNL     1      92.586 308.041 190.563  1.00  0.00    -0.000 C 
BRANCH  23  24
ATOM     24  C   UNL     1      93.699 309.093 190.421  1.00  0.00    -0.000 C 
BRANCH  24  25
ATOM     25  C   UNL     1      94.998 308.674 191.129  1.00  0.00    -0.003 C 
ATOM     26  C   UNL     1      95.335 307.196 190.928  1.00  0.00     0.004 C 
ENDBRANCH  24  25
ENDBRANCH  23  24
ENDBRANCH  22  23
ENDBRANCH  21  22
ENDBRANCH  20  21
ENDBRANCH  19  20
ENDBRANCH  18  19
ENDBRANCH  17  18
ENDBRANCH  16  17
ENDBRANCH  15  16
ENDBRANCH   1  15
TORSDOF 22
ENDMDL
