MODEL 1
REMARK VINA RESULT:    -6.033      0.000      0.000
REMARK INTER + INTRA:          -6.603
REMARK INTER:                  -6.562
REMARK INTRA:                  -0.041
REMARK UNBOUND:                -0.041
REMARK SMILES C[C@H]1[C@H]2C3=CC[C@@H]4[C@]5(C)CC[C@H](O)C(C)(C)[C@@H]5CC[C@@]4(C)[C@@]3(C)CC[C@@]2(C(=O)[O-])CC[C@@H]1C
REMARK SMILES IDX 26 1 30 2 25 3 3 4 31 5 24 6 4 7 2 8 32 9 22 10 5 11 1 12
REMARK SMILES IDX 33 13 23 14 20 15 6 16 7 17 19 18 21 19 8 20 18 21 17 22
REMARK SMILES IDX 10 23 9 24 14 25 11 26 12 27 15 28 16 29 27 30 28 31 29 32
REMARK SMILES IDX 13 33
REMARK H PARENT 13 34
REMARK Flexibility Score: inf
ROOT
ATOM      1  C   UNL     1      38.778  39.267  -8.416  1.00  0.00     0.017 C 
ATOM      2  C   UNL     1      38.683  37.816  -8.979  1.00  0.00     0.014 C 
ATOM      3  C   UNL     1      40.239  39.486  -7.885  1.00  0.00     0.014 C 
ATOM      4  C   UNL     1      37.713  39.513  -7.265  1.00  0.00     0.030 C 
ATOM      5  C   UNL     1      38.367  36.785  -7.889  1.00  0.00     0.004 C 
ATOM      6  C   UNL     1      40.441  40.795  -7.082  1.00  0.00     0.013 C 
ATOM      7  C   UNL     1      38.422  39.825  -5.934  1.00  0.00    -0.063 C 
ATOM      8  C   UNL     1      36.527  38.486  -7.270  1.00  0.00    -0.003 C 
ATOM      9  C   UNL     1      36.945  36.980  -7.316  1.00  0.00    -0.011 C 
ATOM     10  C   UNL     1      39.351  41.068  -5.961  1.00  0.00    -0.006 C 
ATOM     11  C   UNL     1      38.584  38.853  -5.000  1.00  0.00    -0.027 C 
ATOM     12  C   UNL     1      35.489  38.776  -6.169  1.00  0.00     0.008 C 
ATOM     13  C   UNL     1      35.927  36.148  -8.118  1.00  0.00     0.008 C 
ATOM     14  C   UNL     1      38.523  42.313  -6.423  1.00  0.00     0.017 C 
ATOM     15  C   UNL     1      39.973  41.342  -4.497  1.00  0.00    -0.020 C 
ATOM     16  C   UNL     1      39.460  38.969  -3.783  1.00  0.00     0.032 C 
ATOM     17  C   UNL     1      40.602  39.992  -3.983  1.00  0.00     0.006 C 
ATOM     18  C   UNL     1      41.069  42.442  -4.521  1.00  0.00     0.008 C 
ATOM     19  C   UNL     1      38.821  41.853  -3.560  1.00  0.00     0.012 C 
ATOM     20  C   UNL     1      41.689  39.997  -2.800  1.00  0.00    -0.025 C 
ATOM     21  C   UNL     1      41.796  42.565  -3.186  1.00  0.00     0.005 C 
ATOM     22  C   UNL     1      42.615  41.293  -2.846  1.00  0.00     0.003 C 
ATOM     23  C   UNL     1      41.008  39.868  -1.397  1.00  0.00     0.010 C 
ATOM     24  C   UNL     1      42.576  38.718  -3.030  1.00  0.00     0.012 C 
ATOM     25  C   UNL     1      43.548  41.507  -1.564  1.00  0.00    -0.006 C 
ATOM     26  C   UNL     1      41.963  40.004  -0.203  1.00  0.00     0.033 C 
ATOM     27  C   UNL     1      42.750  41.320  -0.236  1.00  0.00     0.120 C 
ATOM     28  C   UNL     1      44.760  40.530  -1.592  1.00  0.00     0.014 C 
ATOM     29  C   UNL     1      44.200  42.922  -1.546  1.00  0.00     0.014 C 
ENDROOT
BRANCH   1  30
ATOM     30  C   UNL     1      38.515  40.213  -9.585  1.00  0.00     0.048 C 
ATOM     31  O   UNL     1      37.377  40.248 -10.125  1.00  0.00    -0.550 OA
ATOM     32  O   UNL     1      39.533  40.993 -10.125  1.00  0.00    -0.550 OA
ENDBRANCH   1  30
BRANCH  27  33
ATOM     33  O   UNL     1      41.864  42.394  -0.034  1.00  0.00    -0.393 OA
ATOM     34  H   UNL     1      42.311  43.031   0.587  1.00  0.00     0.210 HD
ENDBRANCH  27  33
TORSDOF 2
ENDMDL
MODEL 2
REMARK VINA RESULT:    -5.684      2.944      8.508
REMARK INTER + INTRA:          -6.223
REMARK INTER:                  -5.998
REMARK INTRA:                  -0.225
REMARK UNBOUND:                -0.041
REMARK SMILES C[C@H]1[C@H]2C3=CC[C@@H]4[C@]5(C)CC[C@H](O)C(C)(C)[C@@H]5CC[C@@]4(C)[C@@]3(C)CC[C@@]2(C(=O)[O-])CC[C@@H]1C
REMARK SMILES IDX 26 1 30 2 25 3 3 4 31 5 24 6 4 7 2 8 32 9 22 10 5 11 1 12
REMARK SMILES IDX 33 13 23 14 20 15 6 16 7 17 19 18 21 19 8 20 18 21 17 22
REMARK SMILES IDX 10 23 9 24 14 25 11 26 12 27 15 28 16 29 27 30 28 31 29 32
REMARK SMILES IDX 13 33
REMARK H PARENT 13 34
REMARK Flexibility Score: inf
ROOT
ATOM      1  C   UNL     1      39.528  40.877  -8.221  1.00  0.00     0.017 C 
ATOM      2  C   UNL     1      39.550  42.345  -7.696  1.00  0.00     0.014 C 
ATOM      3  C   UNL     1      38.199  40.672  -9.031  1.00  0.00     0.014 C 
ATOM      4  C   UNL     1      39.634  39.833  -7.030  1.00  0.00     0.030 C 
ATOM      5  C   UNL     1      38.799  42.502  -6.369  1.00  0.00     0.004 C 
ATOM      6  C   UNL     1      37.908  39.203  -9.426  1.00  0.00     0.013 C 
ATOM      7  C   UNL     1      38.365  38.964  -6.963  1.00  0.00    -0.063 C 
ATOM      8  C   UNL     1      40.206  40.444  -5.703  1.00  0.00    -0.003 C 
ATOM      9  C   UNL     1      39.515  41.759  -5.218  1.00  0.00    -0.011 C 
ATOM     10  C   UNL     1      38.058  38.150  -8.249  1.00  0.00    -0.006 C 
ATOM     11  C   UNL     1      37.384  39.250  -6.068  1.00  0.00    -0.027 C 
ATOM     12  C   UNL     1      40.336  39.398  -4.579  1.00  0.00     0.008 C 
ATOM     13  C   UNL     1      40.527  42.693  -4.527  1.00  0.00     0.008 C 
ATOM     14  C   UNL     1      39.294  37.254  -8.592  1.00  0.00     0.017 C 
ATOM     15  C   UNL     1      36.756  37.219  -8.033  1.00  0.00    -0.020 C 
ATOM     16  C   UNL     1      36.012  38.634  -6.070  1.00  0.00     0.032 C 
ATOM     17  C   UNL     1      35.601  38.134  -7.474  1.00  0.00     0.006 C 
ATOM     18  C   UNL     1      36.288  36.551  -9.353  1.00  0.00     0.008 C 
ATOM     19  C   UNL     1      37.134  36.067  -7.035  1.00  0.00     0.012 C 
ATOM     20  C   UNL     1      34.068  37.664  -7.577  1.00  0.00    -0.025 C 
ATOM     21  C   UNL     1      34.951  35.834  -9.197  1.00  0.00     0.005 C 
ATOM     22  C   UNL     1      33.791  36.818  -8.899  1.00  0.00     0.003 C 
ATOM     23  C   UNL     1      33.632  36.853  -6.313  1.00  0.00     0.010 C 
ATOM     24  C   UNL     1      33.219  38.988  -7.622  1.00  0.00     0.012 C 
ATOM     25  C   UNL     1      32.364  36.097  -8.956  1.00  0.00    -0.006 C 
ATOM     26  C   UNL     1      32.224  36.247  -6.390  1.00  0.00     0.033 C 
ATOM     27  C   UNL     1      32.044  35.351  -7.622  1.00  0.00     0.120 C 
ATOM     28  C   UNL     1      31.236  37.124  -9.268  1.00  0.00     0.014 C 
ATOM     29  C   UNL     1      32.276  35.068 -10.122  1.00  0.00     0.014 C 
ENDROOT
BRANCH   1  30
ATOM     30  C   UNL     1      40.723  40.724  -9.159  1.00  0.00     0.048 C 
ATOM     31  O   UNL     1      41.507  39.746  -9.029  1.00  0.00    -0.550 OA
ATOM     32  O   UNL     1      41.016  41.691 -10.117  1.00  0.00    -0.550 OA
ENDBRANCH   1  30
BRANCH  27  33
ATOM     33  O   UNL     1      32.853  34.208  -7.486  1.00  0.00    -0.393 OA
ATOM     34  H   UNL     1      32.826  33.724  -8.355  1.00  0.00     0.210 HD
ENDBRANCH  27  33
TORSDOF 2
ENDMDL
MODEL 3
REMARK VINA RESULT:    -5.483      3.676      7.046
REMARK INTER + INTRA:          -6.005
REMARK INTER:                  -5.761
REMARK INTRA:                  -0.244
REMARK UNBOUND:                -0.041
REMARK SMILES C[C@H]1[C@H]2C3=CC[C@@H]4[C@]5(C)CC[C@H](O)C(C)(C)[C@@H]5CC[C@@]4(C)[C@@]3(C)CC[C@@]2(C(=O)[O-])CC[C@@H]1C
REMARK SMILES IDX 26 1 30 2 25 3 3 4 31 5 24 6 4 7 2 8 32 9 22 10 5 11 1 12
REMARK SMILES IDX 33 13 23 14 20 15 6 16 7 17 19 18 21 19 8 20 18 21 17 22
REMARK SMILES IDX 10 23 9 24 14 25 11 26 12 27 15 28 16 29 27 30 28 31 29 32
REMARK SMILES IDX 13 33
REMARK H PARENT 13 34
REMARK Flexibility Score: inf
ROOT
ATOM      1  C   UNL     1      43.588  41.091  -2.180  1.00  0.00     0.017 C 
ATOM      2  C   UNL     1      44.471  40.109  -1.351  1.00  0.00     0.014 C 
ATOM      3  C   UNL     1      42.525  41.721  -1.213  1.00  0.00     0.014 C 
ATOM      4  C   UNL     1      42.882  40.351  -3.395  1.00  0.00     0.030 C 
ATOM      5  C   UNL     1      43.847  38.713  -1.240  1.00  0.00     0.004 C 
ATOM      6  C   UNL     1      41.421  42.545  -1.921  1.00  0.00     0.013 C 
ATOM      7  C   UNL     1      41.352  40.400  -3.237  1.00  0.00    -0.063 C 
ATOM      8  C   UNL     1      43.561  38.993  -3.790  1.00  0.00    -0.003 C 
ATOM      9  C   UNL     1      43.804  37.998  -2.609  1.00  0.00    -0.011 C 
ATOM     10  C   UNL     1      40.744  41.828  -3.164  1.00  0.00    -0.006 C 
ATOM     11  C   UNL     1      40.679  39.330  -2.741  1.00  0.00    -0.027 C 
ATOM     12  C   UNL     1      42.880  38.321  -4.997  1.00  0.00     0.008 C 
ATOM     13  C   UNL     1      45.094  37.185  -2.828  1.00  0.00     0.008 C 
ATOM     14  C   UNL     1      41.170  42.628  -4.440  1.00  0.00     0.017 C 
ATOM     15  C   UNL     1      39.134  41.755  -3.081  1.00  0.00    -0.020 C 
ATOM     16  C   UNL     1      39.236  39.343  -2.318  1.00  0.00     0.032 C 
ATOM     17  C   UNL     1      38.759  40.759  -1.919  1.00  0.00     0.006 C 
ATOM     18  C   UNL     1      38.497  43.141  -2.794  1.00  0.00     0.008 C 
ATOM     19  C   UNL     1      38.590  41.271  -4.473  1.00  0.00     0.012 C 
ATOM     20  C   UNL     1      37.295  40.793  -1.257  1.00  0.00    -0.025 C 
ATOM     21  C   UNL     1      37.001  43.046  -2.519  1.00  0.00     0.005 C 
ATOM     22  C   UNL     1      36.694  42.268  -1.213  1.00  0.00     0.003 C 
ATOM     23  C   UNL     1      36.310  39.829  -1.998  1.00  0.00     0.010 C 
ATOM     24  C   UNL     1      37.480  40.264   0.213  1.00  0.00     0.012 C 
ATOM     25  C   UNL     1      35.149  42.360  -0.810  1.00  0.00    -0.006 C 
ATOM     26  C   UNL     1      34.854  39.903  -1.519  1.00  0.00     0.033 C 
ATOM     27  C   UNL     1      34.287  41.326  -1.601  1.00  0.00     0.120 C 
ATOM     28  C   UNL     1      34.961  42.140   0.720  1.00  0.00     0.014 C 
ATOM     29  C   UNL     1      34.562  43.780  -1.066  1.00  0.00     0.014 C 
ENDROOT
BRANCH   1  30
ATOM     30  C   UNL     1      44.515  42.187  -2.701  1.00  0.00     0.048 C 
ATOM     31  O   UNL     1      45.210  42.861  -1.895  1.00  0.00    -0.550 OA
ATOM     32  O   UNL     1      44.555  42.515  -4.053  1.00  0.00    -0.550 OA
ENDBRANCH   1  30
BRANCH  27  33
ATOM     33  O   UNL     1      34.176  41.703  -2.952  1.00  0.00    -0.393 OA
ATOM     34  H   UNL     1      34.646  42.574  -3.053  1.00  0.00     0.210 HD
ENDBRANCH  27  33
TORSDOF 2
ENDMDL
MODEL 4
REMARK VINA RESULT:    -5.474      4.938      8.936
REMARK INTER + INTRA:          -5.995
REMARK INTER:                  -5.731
REMARK INTRA:                  -0.264
REMARK UNBOUND:                -0.041
REMARK SMILES C[C@H]1[C@H]2C3=CC[C@@H]4[C@]5(C)CC[C@H](O)C(C)(C)[C@@H]5CC[C@@]4(C)[C@@]3(C)CC[C@@]2(C(=O)[O-])CC[C@@H]1C
REMARK SMILES IDX 26 1 30 2 25 3 3 4 31 5 24 6 4 7 2 8 32 9 22 10 5 11 1 12
REMARK SMILES IDX 33 13 23 14 20 15 6 16 7 17 19 18 21 19 8 20 18 21 17 22
REMARK SMILES IDX 10 23 9 24 14 25 11 26 12 27 15 28 16 29 27 30 28 31 29 32
REMARK SMILES IDX 13 33
REMARK H PARENT 13 34
REMARK Flexibility Score: inf
ROOT
ATOM      1  C   UNL     1      40.496  41.589   2.514  1.00  0.00     0.017 C 
ATOM      2  C   UNL     1      40.787  41.269   4.012  1.00  0.00     0.014 C 
ATOM      3  C   UNL     1      40.708  40.272   1.687  1.00  0.00     0.014 C 
ATOM      4  C   UNL     1      41.432  42.753   1.977  1.00  0.00     0.030 C 
ATOM      5  C   UNL     1      42.278  41.377   4.354  1.00  0.00     0.004 C 
ATOM      6  C   UNL     1      40.686  40.467   0.150  1.00  0.00     0.013 C 
ATOM      7  C   UNL     1      42.337  42.237   0.844  1.00  0.00    -0.063 C 
ATOM      8  C   UNL     1      42.065  43.631   3.114  1.00  0.00    -0.003 C 
ATOM      9  C   UNL     1      42.780  42.835   4.254  1.00  0.00    -0.011 C 
ATOM     10  C   UNL     1      41.584  41.661  -0.386  1.00  0.00    -0.006 C 
ATOM     11  C   UNL     1      43.625  41.889   1.099  1.00  0.00    -0.027 C 
ATOM     12  C   UNL     1      42.934  44.777   2.561  1.00  0.00     0.008 C 
ATOM     13  C   UNL     1      42.622  43.550   5.609  1.00  0.00     0.008 C 
ATOM     14  C   UNL     1      40.610  42.751  -0.944  1.00  0.00     0.017 C 
ATOM     15  C   UNL     1      42.629  41.226  -1.537  1.00  0.00    -0.020 C 
ATOM     16  C   UNL     1      44.521  41.153   0.143  1.00  0.00     0.032 C 
ATOM     17  C   UNL     1      43.720  40.305  -0.871  1.00  0.00     0.006 C 
ATOM     18  C   UNL     1      41.940  40.453  -2.694  1.00  0.00     0.008 C 
ATOM     19  C   UNL     1      43.253  42.530  -2.154  1.00  0.00     0.012 C 
ATOM     20  C   UNL     1      44.628  39.334  -1.774  1.00  0.00    -0.025 C 
ATOM     21  C   UNL     1      42.946  39.871  -3.681  1.00  0.00     0.005 C 
ATOM     22  C   UNL     1      43.832  38.774  -3.035  1.00  0.00     0.003 C 
ATOM     23  C   UNL     1      45.942  40.047  -2.235  1.00  0.00     0.010 C 
ATOM     24  C   UNL     1      45.028  38.134  -0.839  1.00  0.00     0.012 C 
ATOM     25  C   UNL     1      44.728  38.013  -4.120  1.00  0.00    -0.006 C 
ATOM     26  C   UNL     1      46.802  39.239  -3.216  1.00  0.00     0.033 C 
ATOM     27  C   UNL     1      46.018  38.819  -4.466  1.00  0.00     0.120 C 
ATOM     28  C   UNL     1      45.115  36.590  -3.619  1.00  0.00     0.014 C 
ATOM     29  C   UNL     1      43.947  37.752  -5.443  1.00  0.00     0.014 C 
ENDROOT
BRANCH   1  30
ATOM     30  C   UNL     1      39.031  42.012   2.428  1.00  0.00     0.048 C 
ATOM     31  O   UNL     1      38.731  43.166   2.020  1.00  0.00    -0.550 OA
ATOM     32  O   UNL     1      38.011  41.174   2.868  1.00  0.00    -0.550 OA
ENDBRANCH   1  30
BRANCH  27  33
ATOM     33  O   UNL     1      45.701  39.964  -5.221  1.00  0.00    -0.393 OA
ATOM     34  H   UNL     1      44.717  39.957  -5.365  1.00  0.00     0.210 HD
ENDBRANCH  27  33
TORSDOF 2
ENDMDL
MODEL 5
REMARK VINA RESULT:    -5.460      8.717     10.835
REMARK INTER + INTRA:          -5.979
REMARK INTER:                  -5.718
REMARK INTRA:                  -0.262
REMARK UNBOUND:                -0.041
REMARK SMILES C[C@H]1[C@H]2C3=CC[C@@H]4[C@]5(C)CC[C@H](O)C(C)(C)[C@@H]5CC[C@@]4(C)[C@@]3(C)CC[C@@]2(C(=O)[O-])CC[C@@H]1C
REMARK SMILES IDX 26 1 30 2 25 3 3 4 31 5 24 6 4 7 2 8 32 9 22 10 5 11 1 12
REMARK SMILES IDX 33 13 23 14 20 15 6 16 7 17 19 18 21 19 8 20 18 21 17 22
REMARK SMILES IDX 10 23 9 24 14 25 11 26 12 27 15 28 16 29 27 30 28 31 29 32
REMARK SMILES IDX 13 33
REMARK H PARENT 13 34
REMARK Flexibility Score: inf
ROOT
ATOM      1  C   UNL     1      29.698  41.658   1.793  1.00  0.00     0.017 C 
ATOM      2  C   UNL     1      28.695  42.145   2.883  1.00  0.00     0.014 C 
ATOM      3  C   UNL     1      30.974  41.104   2.521  1.00  0.00     0.014 C 
ATOM      4  C   UNL     1      30.080  42.829   0.792  1.00  0.00     0.030 C 
ATOM      5  C   UNL     1      28.977  43.583   3.336  1.00  0.00     0.004 C 
ATOM      6  C   UNL     1      32.165  40.792   1.581  1.00  0.00     0.013 C 
ATOM      7  C   UNL     1      31.586  43.138   0.875  1.00  0.00    -0.063 C 
ATOM      8  C   UNL     1      29.060  44.021   0.794  1.00  0.00    -0.003 C 
ATOM      9  C   UNL     1      28.708  44.599   2.203  1.00  0.00    -0.011 C 
ATOM     10  C   UNL     1      32.521  41.942   0.547  1.00  0.00    -0.006 C 
ATOM     11  C   UNL     1      32.031  44.189   1.612  1.00  0.00    -0.027 C 
ATOM     12  C   UNL     1      29.435  45.122  -0.217  1.00  0.00     0.008 C 
ATOM     13  C   UNL     1      27.246  45.081   2.253  1.00  0.00     0.008 C 
ATOM     14  C   UNL     1      32.171  41.399  -0.878  1.00  0.00     0.017 C 
ATOM     15  C   UNL     1      34.067  42.403   0.588  1.00  0.00    -0.020 C 
ATOM     16  C   UNL     1      33.471  44.443   1.963  1.00  0.00     0.032 C 
ATOM     17  C   UNL     1      34.310  43.145   1.957  1.00  0.00     0.006 C 
ATOM     18  C   UNL     1      35.042  41.200   0.476  1.00  0.00     0.008 C 
ATOM     19  C   UNL     1      34.335  43.338  -0.646  1.00  0.00     0.012 C 
ATOM     20  C   UNL     1      35.799  43.326   2.533  1.00  0.00    -0.025 C 
ATOM     21  C   UNL     1      36.493  41.606   0.712  1.00  0.00     0.005 C 
ATOM     22  C   UNL     1      36.735  42.091   2.165  1.00  0.00     0.003 C 
ATOM     23  C   UNL     1      36.444  44.662   2.037  1.00  0.00     0.010 C 
ATOM     24  C   UNL     1      35.644  43.411   4.096  1.00  0.00     0.012 C 
ATOM     25  C   UNL     1      38.291  42.303   2.473  1.00  0.00    -0.006 C 
ATOM     26  C   UNL     1      37.917  44.849   2.427  1.00  0.00     0.033 C 
ATOM     27  C   UNL     1      38.796  43.685   1.952  1.00  0.00     0.120 C 
ATOM     28  C   UNL     1      38.576  42.180   3.999  1.00  0.00     0.014 C 
ATOM     29  C   UNL     1      39.171  41.189   1.830  1.00  0.00     0.014 C 
ENDROOT
BRANCH   1  30
ATOM     30  C   UNL     1      29.012  40.524   1.035  1.00  0.00     0.048 C 
ATOM     31  O   UNL     1      28.723  39.451   1.631  1.00  0.00    -0.550 OA
ATOM     32  O   UNL     1      28.763  40.616  -0.331  1.00  0.00    -0.550 OA
ENDBRANCH   1  30
BRANCH  27  33
ATOM     33  O   UNL     1      38.856  43.694   0.546  1.00  0.00    -0.393 OA
ATOM     34  H   UNL     1      38.828  42.746   0.245  1.00  0.00     0.210 HD
ENDBRANCH  27  33
TORSDOF 2
ENDMDL
MODEL 6
REMARK VINA RESULT:    -5.380      2.146      8.172
REMARK INTER + INTRA:          -5.892
REMARK INTER:                  -5.636
REMARK INTRA:                  -0.256
REMARK UNBOUND:                -0.041
REMARK SMILES C[C@H]1[C@H]2C3=CC[C@@H]4[C@]5(C)CC[C@H](O)C(C)(C)[C@@H]5CC[C@@]4(C)[C@@]3(C)CC[C@@]2(C(=O)[O-])CC[C@@H]1C
REMARK SMILES IDX 26 1 30 2 25 3 3 4 31 5 24 6 4 7 2 8 32 9 22 10 5 11 1 12
REMARK SMILES IDX 33 13 23 14 20 15 6 16 7 17 19 18 21 19 8 20 18 21 17 22
REMARK SMILES IDX 10 23 9 24 14 25 11 26 12 27 15 28 16 29 27 30 28 31 29 32
REMARK SMILES IDX 13 33
REMARK H PARENT 13 34
REMARK Flexibility Score: inf
ROOT
ATOM      1  C   UNL     1      44.868  40.344  -2.211  1.00  0.00     0.017 C 
ATOM      2  C   UNL     1      45.269  41.794  -1.800  1.00  0.00     0.014 C 
ATOM      3  C   UNL     1      44.641  40.325  -3.764  1.00  0.00     0.014 C 
ATOM      4  C   UNL     1      43.567  39.862  -1.441  1.00  0.00     0.030 C 
ATOM      5  C   UNL     1      44.048  42.692  -1.563  1.00  0.00     0.004 C 
ATOM      6  C   UNL     1      44.013  39.017  -4.305  1.00  0.00     0.013 C 
ATOM      7  C   UNL     1      42.426  39.583  -2.436  1.00  0.00    -0.063 C 
ATOM      8  C   UNL     1      43.257  40.688  -0.143  1.00  0.00    -0.003 C 
ATOM      9  C   UNL     1      43.242  42.240  -0.325  1.00  0.00    -0.011 C 
ATOM     10  C   UNL     1      42.739  38.506  -3.509  1.00  0.00    -0.006 C 
ATOM     11  C   UNL     1      41.452  40.509  -2.640  1.00  0.00    -0.027 C 
ATOM     12  C   UNL     1      42.013  40.169   0.604  1.00  0.00     0.008 C 
ATOM     13  C   UNL     1      43.760  42.950   0.940  1.00  0.00     0.008 C 
ATOM     14  C   UNL     1      43.151  37.177  -2.793  1.00  0.00     0.017 C 
ATOM     15  C   UNL     1      41.448  38.242  -4.442  1.00  0.00    -0.020 C 
ATOM     16  C   UNL     1      40.436  40.456  -3.747  1.00  0.00     0.032 C 
ATOM     17  C   UNL     1      40.938  39.640  -4.960  1.00  0.00     0.006 C 
ATOM     18  C   UNL     1      41.776  37.333  -5.656  1.00  0.00     0.008 C 
ATOM     19  C   UNL     1      40.363  37.499  -3.582  1.00  0.00     0.012 C 
ATOM     20  C   UNL     1      39.984  39.733  -6.249  1.00  0.00    -0.025 C 
ATOM     21  C   UNL     1      40.617  37.243  -6.643  1.00  0.00     0.005 C 
ATOM     22  C   UNL     1      40.320  38.604  -7.323  1.00  0.00     0.003 C 
ATOM     23  C   UNL     1      38.473  39.665  -5.848  1.00  0.00     0.010 C 
ATOM     24  C   UNL     1      40.257  41.147  -6.882  1.00  0.00     0.012 C 
ATOM     25  C   UNL     1      39.260  38.461  -8.512  1.00  0.00    -0.006 C 
ATOM     26  C   UNL     1      37.495  39.607  -7.030  1.00  0.00     0.033 C 
ATOM     27  C   UNL     1      37.795  38.436  -7.974  1.00  0.00     0.120 C 
ATOM     28  C   UNL     1      39.423  39.616  -9.543  1.00  0.00     0.014 C 
ATOM     29  C   UNL     1      39.493  37.168  -9.350  1.00  0.00     0.014 C 
ENDROOT
BRANCH   1  30
ATOM     30  C   UNL     1      46.049  39.443  -1.859  1.00  0.00     0.048 C 
ATOM     31  O   UNL     1      47.125  39.529  -2.510  1.00  0.00    -0.550 OA
ATOM     32  O   UNL     1      45.942  38.464  -0.876  1.00  0.00    -0.550 OA
ENDBRANCH   1  30
BRANCH  27  33
ATOM     33  O   UNL     1      37.530  37.225  -7.309  1.00  0.00    -0.393 OA
ATOM     34  H   UNL     1      38.409  36.826  -7.066  1.00  0.00     0.210 HD
ENDBRANCH  27  33
TORSDOF 2
ENDMDL
MODEL 7
REMARK VINA RESULT:    -5.355      3.549      6.074
REMARK INTER + INTRA:          -5.866
REMARK INTER:                  -5.606
REMARK INTRA:                  -0.260
REMARK UNBOUND:                -0.041
REMARK SMILES C[C@H]1[C@H]2C3=CC[C@@H]4[C@]5(C)CC[C@H](O)C(C)(C)[C@@H]5CC[C@@]4(C)[C@@]3(C)CC[C@@]2(C(=O)[O-])CC[C@@H]1C
REMARK SMILES IDX 26 1 30 2 25 3 3 4 31 5 24 6 4 7 2 8 32 9 22 10 5 11 1 12
REMARK SMILES IDX 33 13 23 14 20 15 6 16 7 17 19 18 21 19 8 20 18 21 17 22
REMARK SMILES IDX 10 23 9 24 14 25 11 26 12 27 15 28 16 29 27 30 28 31 29 32
REMARK SMILES IDX 13 33
REMARK H PARENT 13 34
REMARK Flexibility Score: inf
ROOT
ATOM      1  C   UNL     1      35.866  40.873  -1.236  1.00  0.00     0.017 C 
ATOM      2  C   UNL     1      35.215  41.335   0.103  1.00  0.00     0.014 C 
ATOM      3  C   UNL     1      37.097  39.964  -0.889  1.00  0.00     0.014 C 
ATOM      4  C   UNL     1      36.308  42.113  -2.123  1.00  0.00     0.030 C 
ATOM      5  C   UNL     1      35.888  42.586   0.680  1.00  0.00     0.004 C 
ATOM      6  C   UNL     1      37.996  39.609  -2.100  1.00  0.00     0.013 C 
ATOM      7  C   UNL     1      37.834  42.110  -2.328  1.00  0.00    -0.063 C 
ATOM      8  C   UNL     1      35.598  43.456  -1.732  1.00  0.00    -0.003 C 
ATOM      9  C   UNL     1      35.649  43.824  -0.214  1.00  0.00    -0.011 C 
ATOM     10  C   UNL     1      38.402  40.839  -3.016  1.00  0.00    -0.006 C 
ATOM     11  C   UNL     1      38.630  42.906  -1.567  1.00  0.00    -0.027 C 
ATOM     12  C   UNL     1      36.016  44.631  -2.637  1.00  0.00     0.008 C 
ATOM     13  C   UNL     1      34.366  44.557   0.221  1.00  0.00     0.008 C 
ATOM     14  C   UNL     1      37.684  40.641  -4.392  1.00  0.00     0.017 C 
ATOM     15  C   UNL     1      39.993  40.984  -3.249  1.00  0.00    -0.020 C 
ATOM     16  C   UNL     1      40.130  42.815  -1.506  1.00  0.00     0.032 C 
ATOM     17  C   UNL     1      40.642  41.404  -1.877  1.00  0.00     0.006 C 
ATOM     18  C   UNL     1      40.638  39.659  -3.738  1.00  0.00     0.008 C 
ATOM     19  C   UNL     1      40.231  42.060  -4.369  1.00  0.00     0.012 C 
ATOM     20  C   UNL     1      42.214  41.192  -1.620  1.00  0.00    -0.025 C 
ATOM     21  C   UNL     1      42.160  39.733  -3.769  1.00  0.00     0.005 C 
ATOM     22  C   UNL     1      42.768  39.890  -2.352  1.00  0.00     0.003 C 
ATOM     23  C   UNL     1      43.039  42.449  -2.053  1.00  0.00     0.010 C 
ATOM     24  C   UNL     1      42.372  41.019  -0.064  1.00  0.00     0.012 C 
ATOM     25  C   UNL     1      44.361  39.744  -2.364  1.00  0.00    -0.006 C 
ATOM     26  C   UNL     1      44.562  42.279  -1.971  1.00  0.00     0.033 C 
ATOM     27  C   UNL     1      45.056  41.076  -2.784  1.00  0.00     0.120 C 
ATOM     28  C   UNL     1      44.887  39.293  -0.969  1.00  0.00     0.014 C 
ATOM     29  C   UNL     1      44.837  38.619  -3.332  1.00  0.00     0.014 C 
ENDROOT
BRANCH   1  30
ATOM     30  C   UNL     1      34.817  40.047  -1.977  1.00  0.00     0.048 C 
ATOM     31  O   UNL     1      34.364  40.447  -3.083  1.00  0.00    -0.550 OA
ATOM     32  O   UNL     1      34.286  38.888  -1.418  1.00  0.00    -0.550 OA
ENDBRANCH   1  30
BRANCH  27  33
ATOM     33  O   UNL     1      44.857  41.329  -4.154  1.00  0.00    -0.393 OA
ATOM     34  H   UNL     1      45.739  41.588  -4.536  1.00  0.00     0.210 HD
ENDBRANCH  27  33
TORSDOF 2
ENDMDL
MODEL 8
REMARK VINA RESULT:    -5.326      4.656      8.332
REMARK INTER + INTRA:          -5.834
REMARK INTER:                  -5.575
REMARK INTRA:                  -0.259
REMARK UNBOUND:                -0.041
REMARK SMILES C[C@H]1[C@H]2C3=CC[C@@H]4[C@]5(C)CC[C@H](O)C(C)(C)[C@@H]5CC[C@@]4(C)[C@@]3(C)CC[C@@]2(C(=O)[O-])CC[C@@H]1C
REMARK SMILES IDX 26 1 30 2 25 3 3 4 31 5 24 6 4 7 2 8 32 9 22 10 5 11 1 12
REMARK SMILES IDX 33 13 23 14 20 15 6 16 7 17 19 18 21 19 8 20 18 21 17 22
REMARK SMILES IDX 10 23 9 24 14 25 11 26 12 27 15 28 16 29 27 30 28 31 29 32
REMARK SMILES IDX 13 33
REMARK H PARENT 13 34
REMARK Flexibility Score: inf
ROOT
ATOM      1  C   UNL     1      35.024  42.189   1.539  1.00  0.00     0.017 C 
ATOM      2  C   UNL     1      34.286  41.082   2.353  1.00  0.00     0.014 C 
ATOM      3  C   UNL     1      34.774  41.916   0.014  1.00  0.00     0.014 C 
ATOM      4  C   UNL     1      36.577  42.210   1.865  1.00  0.00     0.030 C 
ATOM      5  C   UNL     1      35.131  39.813   2.513  1.00  0.00     0.004 C 
ATOM      6  C   UNL     1      35.626  42.787  -0.943  1.00  0.00     0.013 C 
ATOM      7  C   UNL     1      37.396  41.883   0.602  1.00  0.00    -0.063 C 
ATOM      8  C   UNL     1      36.950  41.503   3.215  1.00  0.00    -0.003 C 
ATOM      9  C   UNL     1      36.372  40.063   3.399  1.00  0.00    -0.011 C 
ATOM     10  C   UNL     1      37.173  42.849  -0.593  1.00  0.00    -0.006 C 
ATOM     11  C   UNL     1      37.881  40.629   0.406  1.00  0.00    -0.027 C 
ATOM     12  C   UNL     1      38.458  41.577   3.524  1.00  0.00     0.008 C 
ATOM     13  C   UNL     1      36.038  39.786   4.877  1.00  0.00     0.008 C 
ATOM     14  C   UNL     1      37.479  44.312  -0.130  1.00  0.00     0.017 C 
ATOM     15  C   UNL     1      38.138  42.456  -1.826  1.00  0.00    -0.020 C 
ATOM     16  C   UNL     1      38.477  40.132  -0.882  1.00  0.00     0.032 C 
ATOM     17  C   UNL     1      37.954  40.917  -2.107  1.00  0.00     0.006 C 
ATOM     18  C   UNL     1      37.802  43.257  -3.112  1.00  0.00     0.008 C 
ATOM     19  C   UNL     1      39.615  42.812  -1.427  1.00  0.00     0.012 C 
ATOM     20  C   UNL     1      38.391  40.289  -3.520  1.00  0.00    -0.025 C 
ATOM     21  C   UNL     1      38.574  42.752  -4.327  1.00  0.00     0.005 C 
ATOM     22  C   UNL     1      38.165  41.310  -4.722  1.00  0.00     0.003 C 
ATOM     23  C   UNL     1      39.878  39.802  -3.495  1.00  0.00     0.010 C 
ATOM     24  C   UNL     1      37.470  39.030  -3.730  1.00  0.00     0.012 C 
ATOM     25  C   UNL     1      38.808  40.867  -6.119  1.00  0.00    -0.006 C 
ATOM     26  C   UNL     1      40.419  39.316  -4.846  1.00  0.00     0.033 C 
ATOM     27  C   UNL     1      40.279  40.378  -5.944  1.00  0.00     0.120 C 
ATOM     28  C   UNL     1      37.957  39.749  -6.790  1.00  0.00     0.014 C 
ATOM     29  C   UNL     1      38.801  42.028  -7.159  1.00  0.00     0.014 C 
ENDROOT
BRANCH   1  30
ATOM     30  C   UNL     1      34.389  43.522   1.928  1.00  0.00     0.048 C 
ATOM     31  O   UNL     1      33.200  43.776   1.594  1.00  0.00    -0.550 OA
ATOM     32  O   UNL     1      35.122  44.506   2.584  1.00  0.00    -0.550 OA
ENDBRANCH   1  30
BRANCH  27  33
ATOM     33  O   UNL     1      41.131  41.459  -5.653  1.00  0.00    -0.393 OA
ATOM     34  H   UNL     1      42.013  41.077  -5.395  1.00  0.00     0.210 HD
ENDBRANCH  27  33
TORSDOF 2
ENDMDL
MODEL 9
REMARK VINA RESULT:    -5.234      3.314      7.440
REMARK INTER + INTRA:          -5.733
REMARK INTER:                  -5.472
REMARK INTRA:                  -0.261
REMARK UNBOUND:                -0.041
REMARK SMILES C[C@H]1[C@H]2C3=CC[C@@H]4[C@]5(C)CC[C@H](O)C(C)(C)[C@@H]5CC[C@@]4(C)[C@@]3(C)CC[C@@]2(C(=O)[O-])CC[C@@H]1C
REMARK SMILES IDX 26 1 30 2 25 3 3 4 31 5 24 6 4 7 2 8 32 9 22 10 5 11 1 12
REMARK SMILES IDX 33 13 23 14 20 15 6 16 7 17 19 18 21 19 8 20 18 21 17 22
REMARK SMILES IDX 10 23 9 24 14 25 11 26 12 27 15 28 16 29 27 30 28 31 29 32
REMARK SMILES IDX 13 33
REMARK H PARENT 13 34
REMARK Flexibility Score: inf
ROOT
ATOM      1  C   UNL     1      36.432  42.656  -0.373  1.00  0.00     0.017 C 
ATOM      2  C   UNL     1      35.062  42.188   0.205  1.00  0.00     0.014 C 
ATOM      3  C   UNL     1      36.260  42.863  -1.920  1.00  0.00     0.014 C 
ATOM      4  C   UNL     1      37.581  41.604  -0.066  1.00  0.00     0.030 C 
ATOM      5  C   UNL     1      34.867  40.671   0.094  1.00  0.00     0.004 C 
ATOM      6  C   UNL     1      37.584  43.104  -2.687  1.00  0.00     0.013 C 
ATOM      7  C   UNL     1      38.149  41.031  -1.377  1.00  0.00    -0.063 C 
ATOM      8  C   UNL     1      37.240  40.621   1.108  1.00  0.00    -0.003 C 
ATOM      9  C   UNL     1      35.855  39.903   1.000  1.00  0.00    -0.011 C 
ATOM     10  C   UNL     1      38.750  42.083  -2.347  1.00  0.00    -0.006 C 
ATOM     11  C   UNL     1      37.738  39.818  -1.830  1.00  0.00    -0.027 C 
ATOM     12  C   UNL     1      38.390  39.641   1.410  1.00  0.00     0.008 C 
ATOM     13  C   UNL     1      35.239  39.679   2.394  1.00  0.00     0.008 C 
ATOM     14  C   UNL     1      39.862  42.891  -1.599  1.00  0.00     0.017 C 
ATOM     15  C   UNL     1      39.385  41.360  -3.644  1.00  0.00    -0.020 C 
ATOM     16  C   UNL     1      38.032  39.268  -3.198  1.00  0.00     0.032 C 
ATOM     17  C   UNL     1      38.294  40.387  -4.232  1.00  0.00     0.006 C 
ATOM     18  C   UNL     1      39.805  42.379  -4.737  1.00  0.00     0.008 C 
ATOM     19  C   UNL     1      40.681  40.594  -3.196  1.00  0.00     0.012 C 
ATOM     20  C   UNL     1      38.400  39.864  -5.747  1.00  0.00    -0.025 C 
ATOM     21  C   UNL     1      40.219  41.697  -6.036  1.00  0.00     0.005 C 
ATOM     22  C   UNL     1      39.035  40.961  -6.713  1.00  0.00     0.003 C 
ATOM     23  C   UNL     1      39.210  38.529  -5.836  1.00  0.00     0.010 C 
ATOM     24  C   UNL     1      36.922  39.568  -6.200  1.00  0.00     0.012 C 
ATOM     25  C   UNL     1      39.413  40.438  -8.177  1.00  0.00    -0.006 C 
ATOM     26  C   UNL     1      39.478  38.032  -7.264  1.00  0.00     0.033 C 
ATOM     27  C   UNL     1      40.191  39.086  -8.120  1.00  0.00     0.120 C 
ATOM     28  C   UNL     1      38.137  40.274  -9.054  1.00  0.00     0.014 C 
ATOM     29  C   UNL     1      40.283  41.468  -8.959  1.00  0.00     0.014 C 
ENDROOT
BRANCH   1  30
ATOM     30  C   UNL     1      36.757  43.995   0.286  1.00  0.00     0.048 C 
ATOM     31  O   UNL     1      37.821  44.131   0.947  1.00  0.00    -0.550 OA
ATOM     32  O   UNL     1      35.861  45.058   0.238  1.00  0.00    -0.550 OA
ENDBRANCH   1  30
BRANCH  27  33
ATOM     33  O   UNL     1      41.493  39.283  -7.624  1.00  0.00    -0.393 OA
ATOM     34  H   UNL     1      41.540  40.217  -7.285  1.00  0.00     0.210 HD
ENDBRANCH  27  33
TORSDOF 2
ENDMDL
