MODEL 1
REMARK VINA RESULT:    -5.216      0.000      0.000
REMARK INTER + INTRA:          -9.137
REMARK INTER:                  -8.265
REMARK INTRA:                  -0.872
REMARK UNBOUND:                -0.872
REMARK SMILES CCCCCCCCCCCC(=O)[O-]
REMARK SMILES IDX 7 1 8 2 9 3 10 4 11 5 12 6 13 7 14 8 6 9 5 10 4 11 3 12 2 13
REMARK SMILES IDX 1 14
REMARK H PARENT
REMARK Flexibility Score: inf
ROOT
ATOM      1  C   UNL     1       9.666  21.789  -7.735  1.00  0.00     0.000 C 
ENDROOT
BRANCH   1   2
ATOM      2  C   UNL     1       9.365  22.256  -9.168  1.00  0.00     0.000 C 
BRANCH   2   3
ATOM      3  C   UNL     1       7.943  22.815  -9.320  1.00  0.00     0.000 C 
BRANCH   3   4
ATOM      4  C   UNL     1       7.712  24.000  -8.370  1.00  0.00     0.006 C 
BRANCH   4   5
ATOM      5  C   UNL     1       6.486  23.795  -7.471  1.00  0.00     0.053 C 
BRANCH   5   6
ATOM      6  C   UNL     1       6.815  24.001  -6.025  1.00  0.00     0.041 C 
ATOM      7  O   UNL     1       7.296  23.058  -5.344  1.00  0.00    -0.550 OA
ATOM      8  O   UNL     1       6.623  25.245  -5.437  1.00  0.00    -0.550 OA
ENDBRANCH   5   6
ENDBRANCH   4   5
ENDBRANCH   3   4
ENDBRANCH   2   3
ENDBRANCH   1   2
BRANCH   1   9
ATOM      9  C   UNL     1      10.618  20.580  -7.695  1.00  0.00     0.000 C 
BRANCH   9  10
ATOM     10  C   UNL     1      12.090  20.987  -7.869  1.00  0.00    -0.000 C 
BRANCH  10  11
ATOM     11  C   UNL     1      12.504  22.126  -6.921  1.00  0.00    -0.000 C 
BRANCH  11  12
ATOM     12  C   UNL     1      13.633  23.000  -7.495  1.00  0.00    -0.000 C 
BRANCH  12  13
ATOM     13  C   UNL     1      13.201  24.417  -7.913  1.00  0.00    -0.003 C 
ATOM     14  C   UNL     1      12.229  24.422  -9.092  1.00  0.00     0.004 C 
ENDBRANCH  12  13
ENDBRANCH  11  12
ENDBRANCH  10  11
ENDBRANCH   9  10
ENDBRANCH   1   9
TORSDOF 10
ENDMDL
MODEL 2
REMARK VINA RESULT:    -5.190      0.948      2.570
REMARK INTER + INTRA:          -9.096
REMARK INTER:                  -8.055
REMARK INTRA:                  -1.041
REMARK UNBOUND:                -0.872
REMARK SMILES CCCCCCCCCCCC(=O)[O-]
REMARK SMILES IDX 7 1 8 2 9 3 10 4 11 5 12 6 13 7 14 8 6 9 5 10 4 11 3 12 2 13
REMARK SMILES IDX 1 14
REMARK H PARENT
REMARK Flexibility Score: inf
ROOT
ATOM      1  C   UNL     1       9.430  23.542  -9.221  1.00  0.00     0.000 C 
ENDROOT
BRANCH   1   2
ATOM      2  C   UNL     1       8.429  22.509  -9.764  1.00  0.00     0.000 C 
BRANCH   2   3
ATOM      3  C   UNL     1       6.969  22.944  -9.571  1.00  0.00     0.000 C 
BRANCH   3   4
ATOM      4  C   UNL     1       6.853  24.008  -8.469  1.00  0.00     0.006 C 
BRANCH   4   5
ATOM      5  C   UNL     1       6.122  23.482  -7.227  1.00  0.00     0.053 C 
BRANCH   5   6
ATOM      6  C   UNL     1       6.710  24.028  -5.962  1.00  0.00     0.041 C 
ATOM      7  O   UNL     1       6.647  25.260  -5.714  1.00  0.00    -0.550 OA
ATOM      8  O   UNL     1       7.296  23.170  -5.039  1.00  0.00    -0.550 OA
ENDBRANCH   5   6
ENDBRANCH   4   5
ENDBRANCH   3   4
ENDBRANCH   2   3
ENDBRANCH   1   2
BRANCH   1   9
ATOM      9  C   UNL     1      10.880  23.230  -9.628  1.00  0.00     0.000 C 
BRANCH   9  10
ATOM     10  C   UNL     1      11.889  23.579  -8.522  1.00  0.00    -0.000 C 
BRANCH  10  11
ATOM     11  C   UNL     1      12.064  22.440  -7.502  1.00  0.00    -0.000 C 
BRANCH  11  12
ATOM     12  C   UNL     1      11.759  21.054  -8.097  1.00  0.00    -0.000 C 
BRANCH  12  13
ATOM     13  C   UNL     1      10.611  20.296  -7.407  1.00  0.00    -0.003 C 
ATOM     14  C   UNL     1       9.750  21.193  -6.521  1.00  0.00     0.004 C 
ENDBRANCH  12  13
ENDBRANCH  11  12
ENDBRANCH  10  11
ENDBRANCH   9  10
ENDBRANCH   1   9
TORSDOF 10
ENDMDL
MODEL 3
REMARK VINA RESULT:    -5.169      2.711      5.738
REMARK INTER + INTRA:          -9.064
REMARK INTER:                  -8.080
REMARK INTRA:                  -0.984
REMARK UNBOUND:                -0.872
REMARK SMILES CCCCCCCCCCCC(=O)[O-]
REMARK SMILES IDX 7 1 8 2 9 3 10 4 11 5 12 6 13 7 14 8 6 9 5 10 4 11 3 12 2 13
REMARK SMILES IDX 1 14
REMARK H PARENT
REMARK Flexibility Score: inf
ROOT
ATOM      1  C   UNL     1       7.852  22.277 -10.125  1.00  0.00     0.000 C 
ENDROOT
BRANCH   1   2
ATOM      2  C   UNL     1       8.609  22.975  -8.984  1.00  0.00     0.000 C 
BRANCH   2   3
ATOM      3  C   UNL     1      10.058  23.318  -9.359  1.00  0.00     0.000 C 
BRANCH   3   4
ATOM      4  C   UNL     1      11.039  22.791  -8.301  1.00  0.00     0.006 C 
BRANCH   4   5
ATOM      5  C   UNL     1      10.355  21.871  -7.280  1.00  0.00     0.053 C 
BRANCH   5   6
ATOM      6  C   UNL     1      10.751  20.439  -7.469  1.00  0.00     0.041 C 
ATOM      7  O   UNL     1       9.960  19.515  -7.146  1.00  0.00    -0.550 OA
ATOM      8  O   UNL     1      11.980  20.124  -8.035  1.00  0.00    -0.550 OA
ENDBRANCH   5   6
ENDBRANCH   4   5
ENDBRANCH   3   4
ENDBRANCH   2   3
ENDBRANCH   1   2
BRANCH   1   9
ATOM      9  C   UNL     1       6.328  22.455 -10.020  1.00  0.00     0.000 C 
BRANCH   9  10
ATOM     10  C   UNL     1       5.924  23.408  -8.883  1.00  0.00    -0.000 C 
BRANCH  10  11
ATOM     11  C   UNL     1       4.789  22.840  -8.013  1.00  0.00    -0.000 C 
BRANCH  11  12
ATOM     12  C   UNL     1       5.036  23.038  -6.507  1.00  0.00    -0.000 C 
BRANCH  12  13
ATOM     13  C   UNL     1       6.368  23.723  -6.157  1.00  0.00    -0.003 C 
ATOM     14  C   UNL     1       7.288  22.844  -5.311  1.00  0.00     0.004 C 
ENDBRANCH  12  13
ENDBRANCH  11  12
ENDBRANCH  10  11
ENDBRANCH   9  10
ENDBRANCH   1   9
TORSDOF 10
ENDMDL
MODEL 4
REMARK VINA RESULT:    -5.142      2.964      6.028
REMARK INTER + INTRA:          -9.020
REMARK INTER:                  -8.129
REMARK INTRA:                  -0.890
REMARK UNBOUND:                -0.872
REMARK SMILES CCCCCCCCCCCC(=O)[O-]
REMARK SMILES IDX 7 1 8 2 9 3 10 4 11 5 12 6 13 7 14 8 6 9 5 10 4 11 3 12 2 13
REMARK SMILES IDX 1 14
REMARK H PARENT
REMARK Flexibility Score: inf
ROOT
ATOM      1  C   UNL     1       7.196  22.108 -10.114  1.00  0.00     0.000 C 
ENDROOT
BRANCH   1   2
ATOM      2  C   UNL     1       8.238  22.881  -9.290  1.00  0.00     0.000 C 
BRANCH   2   3
ATOM      3  C   UNL     1       9.231  21.953  -8.574  1.00  0.00     0.000 C 
BRANCH   3   4
ATOM      4  C   UNL     1      10.677  22.422  -8.793  1.00  0.00     0.006 C 
BRANCH   4   5
ATOM      5  C   UNL     1      10.815  23.326 -10.025  1.00  0.00     0.053 C 
BRANCH   5   6
ATOM      6  C   UNL     1      11.837  24.401  -9.816  1.00  0.00     0.041 C 
ATOM      7  O   UNL     1      12.100  25.214 -10.740  1.00  0.00    -0.550 OA
ATOM      8  O   UNL     1      12.473  24.528  -8.587  1.00  0.00    -0.550 OA
ENDBRANCH   5   6
ENDBRANCH   4   5
ENDBRANCH   3   4
ENDBRANCH   2   3
ENDBRANCH   1   2
BRANCH   1   9
ATOM      9  C   UNL     1       5.818  22.793 -10.117  1.00  0.00     0.000 C 
BRANCH   9  10
ATOM     10  C   UNL     1       5.549  23.577  -8.823  1.00  0.00    -0.000 C 
BRANCH  10  11
ATOM     11  C   UNL     1       4.715  22.775  -7.809  1.00  0.00    -0.000 C 
BRANCH  11  12
ATOM     12  C   UNL     1       5.163  23.002  -6.354  1.00  0.00    -0.000 C 
BRANCH  12  13
ATOM     13  C   UNL     1       6.528  23.695  -6.202  1.00  0.00    -0.003 C 
ATOM     14  C   UNL     1       6.436  25.049  -5.499  1.00  0.00     0.004 C 
ENDBRANCH  12  13
ENDBRANCH  11  12
ENDBRANCH  10  11
ENDBRANCH   9  10
ENDBRANCH   1   9
TORSDOF 10
ENDMDL
MODEL 5
REMARK VINA RESULT:    -5.132      2.811      5.960
REMARK INTER + INTRA:          -9.004
REMARK INTER:                  -8.026
REMARK INTRA:                  -0.978
REMARK UNBOUND:                -0.872
REMARK SMILES CCCCCCCCCCCC(=O)[O-]
REMARK SMILES IDX 7 1 8 2 9 3 10 4 11 5 12 6 13 7 14 8 6 9 5 10 4 11 3 12 2 13
REMARK SMILES IDX 1 14
REMARK H PARENT
REMARK Flexibility Score: inf
ROOT
ATOM      1  C   UNL     1       7.959  22.430  -9.958  1.00  0.00     0.000 C 
ENDROOT
BRANCH   1   2
ATOM      2  C   UNL     1       8.590  23.260  -8.829  1.00  0.00     0.000 C 
BRANCH   2   3
ATOM      3  C   UNL     1       9.506  22.424  -7.923  1.00  0.00     0.000 C 
BRANCH   3   4
ATOM      4  C   UNL     1      10.880  22.212  -8.576  1.00  0.00     0.006 C 
BRANCH   4   5
ATOM      5  C   UNL     1      12.028  22.722  -7.696  1.00  0.00     0.053 C 
BRANCH   5   6
ATOM      6  C   UNL     1      12.608  23.999  -8.222  1.00  0.00     0.041 C 
ATOM      7  O   UNL     1      13.661  24.471  -7.719  1.00  0.00    -0.550 OA
ATOM      8  O   UNL     1      12.006  24.650  -9.291  1.00  0.00    -0.550 OA
ENDBRANCH   5   6
ENDBRANCH   4   5
ENDBRANCH   3   4
ENDBRANCH   2   3
ENDBRANCH   1   2
BRANCH   1   9
ATOM      9  C   UNL     1       6.429  22.580 -10.018  1.00  0.00     0.000 C 
BRANCH   9  10
ATOM     10  C   UNL     1       5.884  23.493  -8.909  1.00  0.00    -0.000 C 
BRANCH  10  11
ATOM     11  C   UNL     1       4.738  22.840  -8.117  1.00  0.00    -0.000 C 
BRANCH  11  12
ATOM     12  C   UNL     1       4.960  22.888  -6.595  1.00  0.00    -0.000 C 
BRANCH  12  13
ATOM     13  C   UNL     1       6.202  23.680  -6.150  1.00  0.00    -0.003 C 
ATOM     14  C   UNL     1       7.134  22.873  -5.247  1.00  0.00     0.004 C 
ENDBRANCH  12  13
ENDBRANCH  11  12
ENDBRANCH  10  11
ENDBRANCH   9  10
ENDBRANCH   1   9
TORSDOF 10
ENDMDL
MODEL 6
REMARK VINA RESULT:    -5.091      2.723      5.852
REMARK INTER + INTRA:          -8.939
REMARK INTER:                  -7.896
REMARK INTRA:                  -1.043
REMARK UNBOUND:                -0.872
REMARK SMILES CCCCCCCCCCCC(=O)[O-]
REMARK SMILES IDX 7 1 8 2 9 3 10 4 11 5 12 6 13 7 14 8 6 9 5 10 4 11 3 12 2 13
REMARK SMILES IDX 1 14
REMARK H PARENT
REMARK Flexibility Score: inf
ROOT
ATOM      1  C   UNL     1       9.091  23.211  -8.514  1.00  0.00     0.000 C 
ENDROOT
BRANCH   1   2
ATOM      2  C   UNL     1       9.600  22.349  -7.348  1.00  0.00     0.000 C 
BRANCH   2   3
ATOM      3  C   UNL     1      10.391  21.121  -7.822  1.00  0.00     0.000 C 
BRANCH   3   4
ATOM      4  C   UNL     1      11.869  21.472  -8.047  1.00  0.00     0.006 C 
BRANCH   4   5
ATOM      5  C   UNL     1      12.378  22.515  -7.043  1.00  0.00     0.053 C 
BRANCH   5   6
ATOM      6  C   UNL     1      13.083  23.647  -7.724  1.00  0.00     0.041 C 
ATOM      7  O   UNL     1      14.274  23.924  -7.425  1.00  0.00    -0.550 OA
ATOM      8  O   UNL     1      12.437  24.374  -8.717  1.00  0.00    -0.550 OA
ENDBRANCH   5   6
ENDBRANCH   4   5
ENDBRANCH   3   4
ENDBRANCH   2   3
ENDBRANCH   1   2
BRANCH   1   9
ATOM      9  C   UNL     1       8.356  22.384  -9.583  1.00  0.00     0.000 C 
BRANCH   9  10
ATOM     10  C   UNL     1       6.889  22.812  -9.751  1.00  0.00    -0.000 C 
BRANCH  10  11
ATOM     11  C   UNL     1       6.414  23.743  -8.621  1.00  0.00    -0.000 C 
BRANCH  11  12
ATOM     12  C   UNL     1       5.344  23.095  -7.725  1.00  0.00    -0.000 C 
BRANCH  12  13
ATOM     13  C   UNL     1       5.583  23.263  -6.213  1.00  0.00    -0.003 C 
ATOM     14  C   UNL     1       6.697  24.257  -5.891  1.00  0.00     0.004 C 
ENDBRANCH  12  13
ENDBRANCH  11  12
ENDBRANCH  10  11
ENDBRANCH   9  10
ENDBRANCH   1   9
TORSDOF 10
ENDMDL
MODEL 7
REMARK VINA RESULT:    -5.061      1.206      2.086
REMARK INTER + INTRA:          -8.891
REMARK INTER:                  -8.218
REMARK INTRA:                  -0.674
REMARK UNBOUND:                -0.872
REMARK SMILES CCCCCCCCCCCC(=O)[O-]
REMARK SMILES IDX 7 1 8 2 9 3 10 4 11 5 12 6 13 7 14 8 6 9 5 10 4 11 3 12 2 13
REMARK SMILES IDX 1 14
REMARK H PARENT
REMARK Flexibility Score: inf
ROOT
ATOM      1  C   UNL     1       9.100  22.148  -8.854  1.00  0.00     0.000 C 
ENDROOT
BRANCH   1   2
ATOM      2  C   UNL     1       8.181  22.530 -10.025  1.00  0.00     0.000 C 
BRANCH   2   3
ATOM      3  C   UNL     1       6.791  22.989  -9.559  1.00  0.00     0.000 C 
BRANCH   3   4
ATOM      4  C   UNL     1       6.903  24.010  -8.418  1.00  0.00     0.006 C 
BRANCH   4   5
ATOM      5  C   UNL     1       6.058  23.616  -7.199  1.00  0.00     0.053 C 
BRANCH   5   6
ATOM      6  C   UNL     1       6.806  23.813  -5.916  1.00  0.00     0.041 C 
ATOM      7  O   UNL     1       6.769  24.924  -5.326  1.00  0.00    -0.550 OA
ATOM      8  O   UNL     1       7.515  22.759  -5.353  1.00  0.00    -0.550 OA
ENDBRANCH   5   6
ENDBRANCH   4   5
ENDBRANCH   3   4
ENDBRANCH   2   3
ENDBRANCH   1   2
BRANCH   1   9
ATOM      9  C   UNL     1      10.591  22.222  -9.225  1.00  0.00     0.000 C 
BRANCH   9  10
ATOM     10  C   UNL     1      10.942  23.505  -9.994  1.00  0.00    -0.000 C 
BRANCH  10  11
ATOM     11  C   UNL     1      11.923  24.406  -9.224  1.00  0.00    -0.000 C 
BRANCH  11  12
ATOM     12  C   UNL     1      12.506  23.723  -7.975  1.00  0.00    -0.000 C 
BRANCH  12  13
ATOM     13  C   UNL     1      13.931  24.169  -7.603  1.00  0.00    -0.003 C 
ATOM     14  C   UNL     1      14.691  23.125  -6.786  1.00  0.00     0.004 C 
ENDBRANCH  12  13
ENDBRANCH  11  12
ENDBRANCH  10  11
ENDBRANCH   9  10
ENDBRANCH   1   9
TORSDOF 10
ENDMDL
MODEL 8
REMARK VINA RESULT:    -5.059      2.389      3.469
REMARK INTER + INTRA:          -8.889
REMARK INTER:                  -7.825
REMARK INTRA:                  -1.064
REMARK UNBOUND:                -0.872
REMARK SMILES CCCCCCCCCCCC(=O)[O-]
REMARK SMILES IDX 7 1 8 2 9 3 10 4 11 5 12 6 13 7 14 8 6 9 5 10 4 11 3 12 2 13
REMARK SMILES IDX 1 14
REMARK H PARENT
REMARK Flexibility Score: inf
ROOT
ATOM      1  C   UNL     1      10.698  23.052 -10.082  1.00  0.00     0.000 C 
ENDROOT
BRANCH   1   2
ATOM      2  C   UNL     1       9.189  22.848  -9.878  1.00  0.00     0.000 C 
BRANCH   2   3
ATOM      3  C   UNL     1       8.680  23.476  -8.572  1.00  0.00     0.000 C 
BRANCH   3   4
ATOM      4  C   UNL     1       7.152  23.626  -8.593  1.00  0.00     0.006 C 
BRANCH   4   5
ATOM      5  C   UNL     1       6.518  22.948  -9.815  1.00  0.00     0.053 C 
BRANCH   5   6
ATOM      6  C   UNL     1       5.059  23.264  -9.933  1.00  0.00     0.041 C 
ATOM      7  O   UNL     1       4.226  22.708  -9.170  1.00  0.00    -0.550 OA
ATOM      8  O   UNL     1       4.621  24.201 -10.861  1.00  0.00    -0.550 OA
ENDBRANCH   5   6
ENDBRANCH   4   5
ENDBRANCH   3   4
ENDBRANCH   2   3
ENDBRANCH   1   2
BRANCH   1   9
ATOM      9  C   UNL     1      11.268  24.176  -9.200  1.00  0.00     0.000 C 
BRANCH   9  10
ATOM     10  C   UNL     1      12.406  23.689  -8.289  1.00  0.00    -0.000 C 
BRANCH  10  11
ATOM     11  C   UNL     1      11.968  22.543  -7.360  1.00  0.00    -0.000 C 
BRANCH  11  12
ATOM     12  C   UNL     1      12.627  21.199  -7.718  1.00  0.00    -0.000 C 
BRANCH  12  13
ATOM     13  C   UNL     1      11.643  20.034  -7.925  1.00  0.00    -0.003 C 
ATOM     14  C   UNL     1      10.252  20.319  -7.361  1.00  0.00     0.004 C 
ENDBRANCH  12  13
ENDBRANCH  11  12
ENDBRANCH  10  11
ENDBRANCH   9  10
ENDBRANCH   1   9
TORSDOF 10
ENDMDL
MODEL 9
REMARK VINA RESULT:    -4.996      3.115      6.008
REMARK INTER + INTRA:          -8.788
REMARK INTER:                  -8.173
REMARK INTRA:                  -0.616
REMARK UNBOUND:                -0.872
REMARK SMILES CCCCCCCCCCCC(=O)[O-]
REMARK SMILES IDX 7 1 8 2 9 3 10 4 11 5 12 6 13 7 14 8 6 9 5 10 4 11 3 12 2 13
REMARK SMILES IDX 1 14
REMARK H PARENT
REMARK Flexibility Score: inf
ROOT
ATOM      1  C   UNL     1      10.590  22.281  -9.528  1.00  0.00     0.000 C 
ENDROOT
BRANCH   1   2
ATOM      2  C   UNL     1      11.019  23.631 -10.125  1.00  0.00     0.000 C 
BRANCH   2   3
ATOM      3  C   UNL     1      11.932  24.429  -9.183  1.00  0.00     0.000 C 
BRANCH   3   4
ATOM      4  C   UNL     1      12.432  23.551  -8.026  1.00  0.00     0.006 C 
BRANCH   4   5
ATOM      5  C   UNL     1      13.826  23.968  -7.539  1.00  0.00     0.053 C 
BRANCH   5   6
ATOM      6  C   UNL     1      14.534  22.844  -6.847  1.00  0.00     0.041 C 
ATOM      7  O   UNL     1      15.421  22.187  -7.451  1.00  0.00    -0.550 OA
ATOM      8  O   UNL     1      14.238  22.545  -5.523  1.00  0.00    -0.550 OA
ENDBRANCH   5   6
ENDBRANCH   4   5
ENDBRANCH   3   4
ENDBRANCH   2   3
ENDBRANCH   1   2
BRANCH   1   9
ATOM      9  C   UNL     1       9.229  22.356  -8.813  1.00  0.00     0.000 C 
BRANCH   9  10
ATOM     10  C   UNL     1       8.063  22.568  -9.791  1.00  0.00    -0.000 C 
BRANCH  10  11
ATOM     11  C   UNL     1       6.854  23.252  -9.129  1.00  0.00    -0.000 C 
BRANCH  11  12
ATOM     12  C   UNL     1       7.257  24.431  -8.225  1.00  0.00    -0.000 C 
BRANCH  12  13
ATOM     13  C   UNL     1       6.833  24.287  -6.752  1.00  0.00    -0.003 C 
ATOM     14  C   UNL     1       5.702  23.281  -6.551  1.00  0.00     0.004 C 
ENDBRANCH  12  13
ENDBRANCH  11  12
ENDBRANCH  10  11
ENDBRANCH   9  10
ENDBRANCH   1   9
TORSDOF 10
ENDMDL
