MODEL 1
REMARK VINA RESULT:    -7.747      0.000      0.000
REMARK INTER + INTRA:          -8.637
REMARK INTER:                  -8.426
REMARK INTRA:                  -0.211
REMARK UNBOUND:                -0.211
REMARK SMILES C[C@@H]1[C@H](C)CC[C@]2(C(=O)[O-])CC[C@]3(C)C(=CC[C@H]4[C@@]5(C)CC[C@@H](O)C(C)(C)[C@H]5CC[C@]43C)[C@H]12
REMARK SMILES IDX 7 1 6 2 11 3 33 4 5 5 12 6 15 7 2 8 3 9 13 10 16 11 1 12
REMARK SMILES IDX 4 13 14 14 31 15 17 16 18 17 30 18 32 19 19 20 29 21 28 22
REMARK SMILES IDX 21 23 20 24 25 25 22 26 23 27 26 28 27 29 8 30 9 31 10 32
REMARK SMILES IDX 24 33
REMARK H PARENT 24 34
REMARK Flexibility Score: inf
ROOT
ATOM      1  C   UNL     1     -12.038  10.868 -26.048  1.00  0.00     0.017 C 
ATOM      2  C   UNL     1     -10.571  10.361 -25.923  1.00  0.00     0.014 C 
ATOM      3  C   UNL     1     -12.195  11.743 -27.320  1.00  0.00     0.014 C 
ATOM      4  C   UNL     1     -12.495  11.694 -24.783  1.00  0.00     0.030 C 
ATOM      5  C   UNL     1     -10.299   9.635 -24.600  1.00  0.00     0.004 C 
ATOM      6  C   UNL     1     -11.494  13.124 -27.288  1.00  0.00     0.013 C 
ATOM      7  C   UNL     1     -12.598  13.226 -25.030  1.00  0.00    -0.063 C 
ATOM      8  C   UNL     1     -11.941  11.200 -23.398  1.00  0.00    -0.003 C 
ATOM      9  C   UNL     1     -10.531  10.529 -23.372  1.00  0.00    -0.011 C 
ATOM     10  C   UNL     1     -11.594  13.958 -25.944  1.00  0.00    -0.006 C 
ATOM     11  C   UNL     1     -13.781  13.793 -24.716  1.00  0.00    -0.027 C 
ATOM     12  C   UNL     1     -12.174  12.194 -22.247  1.00  0.00     0.008 C 
ATOM     13  C   UNL     1      -9.316  11.435 -23.089  1.00  0.00     0.008 C 
ATOM     14  C   UNL     1     -10.202  13.953 -25.235  1.00  0.00     0.017 C 
ATOM     15  C   UNL     1     -11.995  15.510 -26.222  1.00  0.00    -0.020 C 
ATOM     16  C   UNL     1     -14.331  15.039 -25.323  1.00  0.00     0.032 C 
ATOM     17  C   UNL     1     -13.532  15.634 -26.521  1.00  0.00     0.006 C 
ATOM     18  C   UNL     1     -11.703  16.429 -24.977  1.00  0.00     0.008 C 
ATOM     19  C   UNL     1     -11.119  16.017 -27.426  1.00  0.00     0.012 C 
ATOM     20  C   UNL     1     -14.026  17.121 -26.924  1.00  0.00    -0.025 C 
ATOM     21  C   UNL     1     -12.570  17.710 -24.830  1.00  0.00     0.005 C 
ATOM     22  C   UNL     1     -13.192  18.247 -26.152  1.00  0.00     0.003 C 
ATOM     23  C   UNL     1     -15.571  17.268 -26.666  1.00  0.00     0.010 C 
ATOM     24  C   UNL     1     -13.827  17.290 -28.471  1.00  0.00     0.012 C 
ATOM     25  C   UNL     1     -13.871  19.696 -26.046  1.00  0.00    -0.006 C 
ATOM     26  C   UNL     1     -16.125  18.687 -26.790  1.00  0.00     0.033 C 
ATOM     27  C   UNL     1     -15.421  19.647 -25.831  1.00  0.00     0.120 C 
ATOM     28  C   UNL     1     -13.585  20.498 -27.351  1.00  0.00     0.014 C 
ATOM     29  C   UNL     1     -13.254  20.561 -24.911  1.00  0.00     0.014 C 
ENDROOT
BRANCH   1  30
ATOM     30  C   UNL     1     -12.971   9.661 -26.260  1.00  0.00     0.048 C 
ATOM     31  O   UNL     1     -12.732   8.787 -27.137  1.00  0.00    -0.550 OA
ATOM     32  O   UNL     1     -14.160   9.561 -25.541  1.00  0.00    -0.550 OA
ENDBRANCH   1  30
BRANCH  27  33
ATOM     33  O   UNL     1     -15.791  19.379 -24.497  1.00  0.00    -0.393 OA
ATOM     34  H   UNL     1     -15.352  18.541 -24.212  1.00  0.00     0.210 HD
ENDBRANCH  27  33
TORSDOF 2
ENDMDL
MODEL 2
REMARK VINA RESULT:    -7.726      1.831      3.763
REMARK INTER + INTRA:          -8.615
REMARK INTER:                  -8.841
REMARK INTRA:                   0.226
REMARK UNBOUND:                -0.211
REMARK SMILES C[C@@H]1[C@H](C)CC[C@]2(C(=O)[O-])CC[C@]3(C)C(=CC[C@H]4[C@@]5(C)CC[C@@H](O)C(C)(C)[C@H]5CC[C@]43C)[C@H]12
REMARK SMILES IDX 7 1 6 2 11 3 33 4 5 5 12 6 15 7 2 8 3 9 13 10 16 11 1 12
REMARK SMILES IDX 4 13 14 14 31 15 17 16 18 17 30 18 32 19 19 20 29 21 28 22
REMARK SMILES IDX 21 23 20 24 25 25 22 26 23 27 26 28 27 29 8 30 9 31 10 32
REMARK SMILES IDX 24 33
REMARK H PARENT 24 34
REMARK Flexibility Score: inf
ROOT
ATOM      1  C   UNL     1     -12.885  10.693 -25.550  1.00  0.00     0.017 C 
ATOM      2  C   UNL     1     -13.809   9.625 -26.206  1.00  0.00     0.014 C 
ATOM      3  C   UNL     1     -13.705  11.586 -24.580  1.00  0.00     0.014 C 
ATOM      4  C   UNL     1     -12.168  11.603 -26.621  1.00  0.00     0.030 C 
ATOM      5  C   UNL     1     -13.106   8.820 -27.306  1.00  0.00     0.004 C 
ATOM      6  C   UNL     1     -14.718  12.556 -25.239  1.00  0.00     0.013 C 
ATOM      7  C   UNL     1     -12.738  13.047 -26.710  1.00  0.00    -0.063 C 
ATOM      8  C   UNL     1     -11.736  10.891 -27.955  1.00  0.00    -0.003 C 
ATOM      9  C   UNL     1     -12.609   9.700 -28.463  1.00  0.00    -0.011 C 
ATOM     10  C   UNL     1     -14.245  13.324 -26.542  1.00  0.00    -0.006 C 
ATOM     11  C   UNL     1     -11.837  14.043 -26.574  1.00  0.00    -0.027 C 
ATOM     12  C   UNL     1     -11.312  11.865 -29.067  1.00  0.00     0.008 C 
ATOM     13  C   UNL     1     -13.739  10.019 -29.462  1.00  0.00     0.008 C 
ATOM     14  C   UNL     1     -14.987  12.730 -27.782  1.00  0.00     0.017 C 
ATOM     15  C   UNL     1     -14.602  14.910 -26.474  1.00  0.00    -0.020 C 
ATOM     16  C   UNL     1     -12.136  15.419 -26.085  1.00  0.00     0.032 C 
ATOM     17  C   UNL     1     -13.579  15.662 -25.549  1.00  0.00     0.006 C 
ATOM     18  C   UNL     1     -14.519  15.597 -27.888  1.00  0.00     0.008 C 
ATOM     19  C   UNL     1     -16.078  15.041 -25.946  1.00  0.00     0.012 C 
ATOM     20  C   UNL     1     -13.903  17.230 -25.315  1.00  0.00    -0.025 C 
ATOM     21  C   UNL     1     -14.198  17.118 -27.913  1.00  0.00     0.005 C 
ATOM     22  C   UNL     1     -14.559  17.894 -26.614  1.00  0.00     0.003 C 
ATOM     23  C   UNL     1     -12.599  17.993 -24.872  1.00  0.00     0.010 C 
ATOM     24  C   UNL     1     -14.900  17.339 -24.109  1.00  0.00     0.012 C 
ATOM     25  C   UNL     1     -14.466  19.491 -26.726  1.00  0.00    -0.006 C 
ATOM     26  C   UNL     1     -12.711  19.516 -24.836  1.00  0.00     0.033 C 
ATOM     27  C   UNL     1     -13.114  20.078 -26.200  1.00  0.00     0.120 C 
ATOM     28  C   UNL     1     -15.627  20.137 -25.912  1.00  0.00     0.014 C 
ATOM     29  C   UNL     1     -14.677  19.999 -28.181  1.00  0.00     0.014 C 
ENDROOT
BRANCH   1  30
ATOM     30  C   UNL     1     -11.839   9.982 -24.671  1.00  0.00     0.048 C 
ATOM     31  O   UNL     1     -11.166  10.608 -23.807  1.00  0.00    -0.550 OA
ATOM     32  O   UNL     1     -11.548   8.636 -24.879  1.00  0.00    -0.550 OA
ENDBRANCH   1  30
BRANCH  27  33
ATOM     33  O   UNL     1     -12.054  19.954 -27.122  1.00  0.00    -0.393 OA
ATOM     34  H   UNL     1     -12.421  19.631 -27.980  1.00  0.00     0.210 HD
ENDBRANCH  27  33
TORSDOF 2
ENDMDL
MODEL 3
REMARK VINA RESULT:    -7.254      1.961      3.540
REMARK INTER + INTRA:          -8.101
REMARK INTER:                  -7.887
REMARK INTRA:                  -0.214
REMARK UNBOUND:                -0.211
REMARK SMILES C[C@@H]1[C@H](C)CC[C@]2(C(=O)[O-])CC[C@]3(C)C(=CC[C@H]4[C@@]5(C)CC[C@@H](O)C(C)(C)[C@H]5CC[C@]43C)[C@H]12
REMARK SMILES IDX 7 1 6 2 11 3 33 4 5 5 12 6 15 7 2 8 3 9 13 10 16 11 1 12
REMARK SMILES IDX 4 13 14 14 31 15 17 16 18 17 30 18 32 19 19 20 29 21 28 22
REMARK SMILES IDX 21 23 20 24 25 25 22 26 23 27 26 28 27 29 8 30 9 31 10 32
REMARK SMILES IDX 24 33
REMARK H PARENT 24 34
REMARK Flexibility Score: inf
ROOT
ATOM      1  C   UNL     1     -10.392  11.623 -24.922  1.00  0.00     0.017 C 
ATOM      2  C   UNL     1     -11.081  10.481 -24.117  1.00  0.00     0.014 C 
ATOM      3  C   UNL     1     -10.221  12.880 -24.029  1.00  0.00     0.014 C 
ATOM      4  C   UNL     1     -11.200  12.010 -26.222  1.00  0.00     0.030 C 
ATOM      5  C   UNL     1     -11.441   9.269 -24.985  1.00  0.00     0.004 C 
ATOM      6  C   UNL     1     -11.522  13.635 -23.658  1.00  0.00     0.013 C 
ATOM      7  C   UNL     1     -11.948  13.369 -26.123  1.00  0.00    -0.063 C 
ATOM      8  C   UNL     1     -11.910  10.825 -26.973  1.00  0.00    -0.003 C 
ATOM      9  C   UNL     1     -12.416   9.618 -26.120  1.00  0.00    -0.011 C 
ATOM     10  C   UNL     1     -12.600  13.829 -24.803  1.00  0.00    -0.006 C 
ATOM     11  C   UNL     1     -11.684  14.257 -27.104  1.00  0.00    -0.027 C 
ATOM     12  C   UNL     1     -12.909  11.283 -28.049  1.00  0.00     0.008 C 
ATOM     13  C   UNL     1     -13.875   9.657 -25.625  1.00  0.00     0.008 C 
ATOM     14  C   UNL     1     -13.821  12.897 -24.518  1.00  0.00     0.017 C 
ATOM     15  C   UNL     1     -13.155  15.357 -24.861  1.00  0.00    -0.020 C 
ATOM     16  C   UNL     1     -11.802  15.738 -26.986  1.00  0.00     0.032 C 
ATOM     17  C   UNL     1     -12.107  16.294 -25.562  1.00  0.00     0.006 C 
ATOM     18  C   UNL     1     -14.488  15.472 -25.691  1.00  0.00     0.008 C 
ATOM     19  C   UNL     1     -13.452  15.810 -23.384  1.00  0.00     0.012 C 
ATOM     20  C   UNL     1     -12.503  17.863 -25.576  1.00  0.00    -0.025 C 
ATOM     21  C   UNL     1     -14.781  16.843 -26.364  1.00  0.00     0.005 C 
ATOM     22  C   UNL     1     -14.084  18.069 -25.706  1.00  0.00     0.003 C 
ATOM     23  C   UNL     1     -11.728  18.608 -26.725  1.00  0.00     0.010 C 
ATOM     24  C   UNL     1     -12.000  18.497 -24.232  1.00  0.00     0.012 C 
ATOM     25  C   UNL     1     -14.580  19.499 -26.235  1.00  0.00    -0.006 C 
ATOM     26  C   UNL     1     -12.176  20.044 -26.994  1.00  0.00     0.033 C 
ATOM     27  C   UNL     1     -13.662  20.107 -27.348  1.00  0.00     0.120 C 
ATOM     28  C   UNL     1     -14.631  20.502 -25.043  1.00  0.00     0.014 C 
ATOM     29  C   UNL     1     -16.036  19.460 -26.779  1.00  0.00     0.014 C 
ENDROOT
BRANCH   1  30
ATOM     30  C   UNL     1      -8.964  11.185 -25.296  1.00  0.00     0.048 C 
ATOM     31  O   UNL     1      -8.193  10.653 -24.450  1.00  0.00    -0.550 OA
ATOM     32  O   UNL     1      -8.457  11.455 -26.565  1.00  0.00    -0.550 OA
ENDBRANCH   1  30
BRANCH  27  33
ATOM     33  O   UNL     1     -13.894  19.557 -28.625  1.00  0.00    -0.393 OA
ATOM     34  H   UNL     1     -14.810  19.794 -28.908  1.00  0.00     0.210 HD
ENDBRANCH  27  33
TORSDOF 2
ENDMDL
MODEL 4
REMARK VINA RESULT:    -7.100      2.210      8.127
REMARK INTER + INTRA:          -7.934
REMARK INTER:                  -8.076
REMARK INTRA:                   0.142
REMARK UNBOUND:                -0.211
REMARK SMILES C[C@@H]1[C@H](C)CC[C@]2(C(=O)[O-])CC[C@]3(C)C(=CC[C@H]4[C@@]5(C)CC[C@@H](O)C(C)(C)[C@H]5CC[C@]43C)[C@H]12
REMARK SMILES IDX 7 1 6 2 11 3 33 4 5 5 12 6 15 7 2 8 3 9 13 10 16 11 1 12
REMARK SMILES IDX 4 13 14 14 31 15 17 16 18 17 30 18 32 19 19 20 29 21 28 22
REMARK SMILES IDX 21 23 20 24 25 25 22 26 23 27 26 28 27 29 8 30 9 31 10 32
REMARK SMILES IDX 24 33
REMARK H PARENT 24 34
REMARK Flexibility Score: inf
ROOT
ATOM      1  C   UNL     1     -13.911  15.216 -23.982  1.00  0.00     0.017 C 
ATOM      2  C   UNL     1     -13.101  16.529 -24.201  1.00  0.00     0.014 C 
ATOM      3  C   UNL     1     -13.001  14.124 -23.358  1.00  0.00     0.014 C 
ATOM      4  C   UNL     1     -14.540  14.671 -25.322  1.00  0.00     0.030 C 
ATOM      5  C   UNL     1     -13.887  17.595 -24.974  1.00  0.00     0.004 C 
ATOM      6  C   UNL     1     -11.901  13.545 -24.281  1.00  0.00     0.013 C 
ATOM      7  C   UNL     1     -13.830  13.409 -25.888  1.00  0.00    -0.063 C 
ATOM      8  C   UNL     1     -15.048  15.757 -26.339  1.00  0.00    -0.003 C 
ATOM      9  C   UNL     1     -14.302  17.128 -26.378  1.00  0.00    -0.011 C 
ATOM     10  C   UNL     1     -12.302  13.235 -25.783  1.00  0.00    -0.006 C 
ATOM     11  C   UNL     1     -14.627  12.347 -26.132  1.00  0.00    -0.027 C 
ATOM     12  C   UNL     1     -15.380  15.195 -27.732  1.00  0.00     0.008 C 
ATOM     13  C   UNL     1     -13.151  17.285 -27.393  1.00  0.00     0.008 C 
ATOM     14  C   UNL     1     -11.630  14.292 -26.718  1.00  0.00     0.017 C 
ATOM     15  C   UNL     1     -11.789  11.766 -26.257  1.00  0.00    -0.020 C 
ATOM     16  C   UNL     1     -14.189  10.922 -26.141  1.00  0.00     0.032 C 
ATOM     17  C   UNL     1     -12.726  10.647 -25.679  1.00  0.00     0.006 C 
ATOM     18  C   UNL     1     -11.811  11.609 -27.823  1.00  0.00     0.008 C 
ATOM     19  C   UNL     1     -10.304  11.601 -25.765  1.00  0.00     0.012 C 
ATOM     20  C   UNL     1     -12.247   9.133 -25.994  1.00  0.00    -0.025 C 
ATOM     21  C   UNL     1     -11.979  10.168 -28.382  1.00  0.00     0.005 C 
ATOM     22  C   UNL     1     -11.536   9.027 -27.422  1.00  0.00     0.003 C 
ATOM     23  C   UNL     1     -13.465   8.144 -25.880  1.00  0.00     0.010 C 
ATOM     24  C   UNL     1     -11.237   8.707 -24.871  1.00  0.00     0.012 C 
ATOM     25  C   UNL     1     -11.470   7.567 -28.083  1.00  0.00    -0.006 C 
ATOM     26  C   UNL     1     -13.202   6.721 -26.370  1.00  0.00     0.033 C 
ATOM     27  C   UNL     1     -12.754   6.708 -27.832  1.00  0.00     0.120 C 
ATOM     28  C   UNL     1     -10.245   6.793 -27.509  1.00  0.00     0.014 C 
ATOM     29  C   UNL     1     -11.218   7.619 -29.617  1.00  0.00     0.014 C 
ENDROOT
BRANCH   1  30
ATOM     30  C   UNL     1     -15.017  15.475 -22.942  1.00  0.00     0.048 C 
ATOM     31  O   UNL     1     -15.092  14.804 -21.876  1.00  0.00    -0.550 OA
ATOM     32  O   UNL     1     -16.022  16.404 -23.204  1.00  0.00    -0.550 OA
ENDBRANCH   1  30
BRANCH  27  33
ATOM     33  O   UNL     1     -13.826   7.043 -28.684  1.00  0.00    -0.393 OA
ATOM     34  H   UNL     1     -14.647   6.616 -28.339  1.00  0.00     0.210 HD
ENDBRANCH  27  33
TORSDOF 2
ENDMDL
MODEL 5
REMARK VINA RESULT:    -7.087      2.376      4.363
REMARK INTER + INTRA:          -7.919
REMARK INTER:                  -7.771
REMARK INTRA:                  -0.148
REMARK UNBOUND:                -0.211
REMARK SMILES C[C@@H]1[C@H](C)CC[C@]2(C(=O)[O-])CC[C@]3(C)C(=CC[C@H]4[C@@]5(C)CC[C@@H](O)C(C)(C)[C@H]5CC[C@]43C)[C@H]12
REMARK SMILES IDX 7 1 6 2 11 3 33 4 5 5 12 6 15 7 2 8 3 9 13 10 16 11 1 12
REMARK SMILES IDX 4 13 14 14 31 15 17 16 18 17 30 18 32 19 19 20 29 21 28 22
REMARK SMILES IDX 21 23 20 24 25 25 22 26 23 27 26 28 27 29 8 30 9 31 10 32
REMARK SMILES IDX 24 33
REMARK H PARENT 24 34
REMARK Flexibility Score: inf
ROOT
ATOM      1  C   UNL     1     -12.390   7.354 -25.793  1.00  0.00     0.017 C 
ATOM      2  C   UNL     1     -12.111   6.601 -27.128  1.00  0.00     0.014 C 
ATOM      3  C   UNL     1     -13.778   8.047 -25.849  1.00  0.00     0.014 C 
ATOM      4  C   UNL     1     -11.280   8.428 -25.468  1.00  0.00     0.030 C 
ATOM      5  C   UNL     1     -10.687   6.039 -27.212  1.00  0.00     0.004 C 
ATOM      6  C   UNL     1     -13.895   9.259 -26.806  1.00  0.00     0.013 C 
ATOM      7  C   UNL     1     -11.741   9.898 -25.676  1.00  0.00    -0.063 C 
ATOM      8  C   UNL     1      -9.810   8.046 -25.873  1.00  0.00    -0.003 C 
ATOM      9  C   UNL     1      -9.609   7.131 -27.123  1.00  0.00    -0.011 C 
ATOM     10  C   UNL     1     -12.687  10.285 -26.830  1.00  0.00    -0.006 C 
ATOM     11  C   UNL     1     -11.577  10.719 -24.617  1.00  0.00    -0.027 C 
ATOM     12  C   UNL     1      -8.823   9.223 -25.804  1.00  0.00     0.008 C 
ATOM     13  C   UNL     1      -9.384   7.821 -28.482  1.00  0.00     0.008 C 
ATOM     14  C   UNL     1     -11.904  10.119 -28.172  1.00  0.00     0.017 C 
ATOM     15  C   UNL     1     -13.199  11.827 -26.750  1.00  0.00    -0.020 C 
ATOM     16  C   UNL     1     -12.381  11.944 -24.341  1.00  0.00     0.032 C 
ATOM     17  C   UNL     1     -13.601  12.195 -25.277  1.00  0.00     0.006 C 
ATOM     18  C   UNL     1     -12.077  12.846 -27.179  1.00  0.00     0.008 C 
ATOM     19  C   UNL     1     -14.408  11.977 -27.744  1.00  0.00     0.012 C 
ATOM     20  C   UNL     1     -14.233  13.673 -25.096  1.00  0.00    -0.025 C 
ATOM     21  C   UNL     1     -12.159  14.276 -26.575  1.00  0.00     0.005 C 
ATOM     22  C   UNL     1     -13.576  14.721 -26.111  1.00  0.00     0.003 C 
ATOM     23  C   UNL     1     -14.088  14.147 -23.603  1.00  0.00     0.010 C 
ATOM     24  C   UNL     1     -15.774  13.572 -25.371  1.00  0.00     0.012 C 
ATOM     25  C   UNL     1     -13.711  16.272 -25.726  1.00  0.00    -0.006 C 
ATOM     26  C   UNL     1     -14.439  15.610 -23.342  1.00  0.00     0.033 C 
ATOM     27  C   UNL     1     -13.582  16.550 -24.191  1.00  0.00     0.120 C 
ATOM     28  C   UNL     1     -15.095  16.806 -26.203  1.00  0.00     0.014 C 
ATOM     29  C   UNL     1     -12.671  17.161 -26.465  1.00  0.00     0.014 C 
ENDROOT
BRANCH   1  30
ATOM     30  C   UNL     1     -12.488   6.328 -24.648  1.00  0.00     0.048 C 
ATOM     31  O   UNL     1     -11.606   6.255 -23.749  1.00  0.00    -0.550 OA
ATOM     32  O   UNL     1     -13.516   5.389 -24.635  1.00  0.00    -0.550 OA
ENDBRANCH   1  30
BRANCH  27  33
ATOM     33  O   UNL     1     -12.247  16.555 -23.735  1.00  0.00    -0.393 OA
ATOM     34  H   UNL     1     -11.987  15.628 -23.514  1.00  0.00     0.210 HD
ENDBRANCH  27  33
TORSDOF 2
ENDMDL
MODEL 6
REMARK VINA RESULT:    -7.063      2.017      4.119
REMARK INTER + INTRA:          -7.894
REMARK INTER:                  -7.679
REMARK INTRA:                  -0.214
REMARK UNBOUND:                -0.211
REMARK SMILES C[C@@H]1[C@H](C)CC[C@]2(C(=O)[O-])CC[C@]3(C)C(=CC[C@H]4[C@@]5(C)CC[C@@H](O)C(C)(C)[C@H]5CC[C@]43C)[C@H]12
REMARK SMILES IDX 7 1 6 2 11 3 33 4 5 5 12 6 15 7 2 8 3 9 13 10 16 11 1 12
REMARK SMILES IDX 4 13 14 14 31 15 17 16 18 17 30 18 32 19 19 20 29 21 28 22
REMARK SMILES IDX 21 23 20 24 25 25 22 26 23 27 26 28 27 29 8 30 9 31 10 32
REMARK SMILES IDX 24 33
REMARK H PARENT 24 34
REMARK Flexibility Score: inf
ROOT
ATOM      1  C   UNL     1     -10.518   9.417 -25.177  1.00  0.00     0.017 C 
ATOM      2  C   UNL     1     -11.255   8.217 -24.509  1.00  0.00     0.014 C 
ATOM      3  C   UNL     1     -10.458  10.620 -24.197  1.00  0.00     0.014 C 
ATOM      4  C   UNL     1     -11.208   9.870 -26.522  1.00  0.00     0.030 C 
ATOM      5  C   UNL     1     -11.506   7.055 -25.478  1.00  0.00     0.004 C 
ATOM      6  C   UNL     1     -11.804  11.330 -23.908  1.00  0.00     0.013 C 
ATOM      7  C   UNL     1     -11.990  11.209 -26.414  1.00  0.00    -0.063 C 
ATOM      8  C   UNL     1     -11.819   8.722 -27.406  1.00  0.00    -0.003 C 
ATOM      9  C   UNL     1     -12.377   7.457 -26.678  1.00  0.00    -0.011 C 
ATOM     10  C   UNL     1     -12.773  11.578 -25.137  1.00  0.00    -0.006 C 
ATOM     11  C   UNL     1     -11.654  12.158 -27.312  1.00  0.00    -0.027 C 
ATOM     12  C   UNL     1     -12.721   9.229 -28.543  1.00  0.00     0.008 C 
ATOM     13  C   UNL     1     -13.877   7.444 -26.323  1.00  0.00     0.008 C 
ATOM     14  C   UNL     1     -13.996  10.611 -25.025  1.00  0.00     0.017 C 
ATOM     15  C   UNL     1     -13.352  13.098 -25.157  1.00  0.00    -0.020 C 
ATOM     16  C   UNL     1     -11.814  13.628 -27.117  1.00  0.00     0.032 C 
ATOM     17  C   UNL     1     -12.263  14.091 -25.699  1.00  0.00     0.006 C 
ATOM     18  C   UNL     1     -14.603  13.243 -26.102  1.00  0.00     0.008 C 
ATOM     19  C   UNL     1     -13.796  13.455 -23.691  1.00  0.00     0.012 C 
ATOM     20  C   UNL     1     -12.689  15.652 -25.657  1.00  0.00    -0.025 C 
ATOM     21  C   UNL     1     -14.860  14.647 -26.718  1.00  0.00     0.005 C 
ATOM     22  C   UNL     1     -14.254  15.841 -25.925  1.00  0.00     0.003 C 
ATOM     23  C   UNL     1     -11.824  16.478 -26.681  1.00  0.00     0.010 C 
ATOM     24  C   UNL     1     -12.328  16.210 -24.236  1.00  0.00     0.012 C 
ATOM     25  C   UNL     1     -14.728  17.293 -26.413  1.00  0.00    -0.006 C 
ATOM     26  C   UNL     1     -12.275  17.920 -26.906  1.00  0.00     0.033 C 
ATOM     27  C   UNL     1     -13.722  17.982 -27.395  1.00  0.00     0.120 C 
ATOM     28  C   UNL     1     -14.913  18.221 -25.174  1.00  0.00     0.014 C 
ATOM     29  C   UNL     1     -16.125  17.265 -27.095  1.00  0.00     0.014 C 
ENDROOT
BRANCH   1  30
ATOM     30  C   UNL     1      -9.051   9.024 -25.437  1.00  0.00     0.048 C 
ATOM     31  O   UNL     1      -8.355   8.448 -24.557  1.00  0.00    -0.550 OA
ATOM     32  O   UNL     1      -8.432   9.384 -26.631  1.00  0.00    -0.550 OA
ENDBRANCH   1  30
BRANCH  27  33
ATOM     33  O   UNL     1     -13.822  17.507 -28.719  1.00  0.00    -0.393 OA
ATOM     34  H   UNL     1     -12.963  17.087 -28.967  1.00  0.00     0.210 HD
ENDBRANCH  27  33
TORSDOF 2
ENDMDL
MODEL 7
REMARK VINA RESULT:    -6.993      2.055      7.834
REMARK INTER + INTRA:          -7.817
REMARK INTER:                  -7.606
REMARK INTRA:                  -0.211
REMARK UNBOUND:                -0.211
REMARK SMILES C[C@@H]1[C@H](C)CC[C@]2(C(=O)[O-])CC[C@]3(C)C(=CC[C@H]4[C@@]5(C)CC[C@@H](O)C(C)(C)[C@H]5CC[C@]43C)[C@H]12
REMARK SMILES IDX 7 1 6 2 11 3 33 4 5 5 12 6 15 7 2 8 3 9 13 10 16 11 1 12
REMARK SMILES IDX 4 13 14 14 31 15 17 16 18 17 30 18 32 19 19 20 29 21 28 22
REMARK SMILES IDX 21 23 20 24 25 25 22 26 23 27 26 28 27 29 8 30 9 31 10 32
REMARK SMILES IDX 24 33
REMARK H PARENT 24 34
REMARK Flexibility Score: inf
ROOT
ATOM      1  C   UNL     1     -13.005  17.310 -27.037  1.00  0.00     0.017 C 
ATOM      2  C   UNL     1     -13.533  18.167 -25.849  1.00  0.00     0.014 C 
ATOM      3  C   UNL     1     -14.099  16.314 -27.507  1.00  0.00     0.014 C 
ATOM      4  C   UNL     1     -11.695  16.512 -26.664  1.00  0.00     0.030 C 
ATOM      5  C   UNL     1     -12.449  19.051 -25.220  1.00  0.00     0.004 C 
ATOM      6  C   UNL     1     -14.425  15.153 -26.534  1.00  0.00     0.013 C 
ATOM      7  C   UNL     1     -11.916  14.986 -26.467  1.00  0.00    -0.063 C 
ATOM      8  C   UNL     1     -10.688  17.247 -25.705  1.00  0.00    -0.003 C 
ATOM      9  C   UNL     1     -11.274  18.240 -24.652  1.00  0.00    -0.011 C 
ATOM     10  C   UNL     1     -13.204  14.442 -25.817  1.00  0.00    -0.006 C 
ATOM     11  C   UNL     1     -11.124  14.179 -27.203  1.00  0.00    -0.027 C 
ATOM     12  C   UNL     1      -9.586  16.332 -25.146  1.00  0.00     0.008 C 
ATOM     13  C   UNL     1     -11.592  17.685 -23.249  1.00  0.00     0.008 C 
ATOM     14  C   UNL     1     -13.192  14.848 -24.308  1.00  0.00     0.017 C 
ATOM     15  C   UNL     1     -13.321  12.821 -25.885  1.00  0.00    -0.020 C 
ATOM     16  C   UNL     1     -11.459  12.788 -27.623  1.00  0.00     0.032 C 
ATOM     17  C   UNL     1     -12.905  12.302 -27.308  1.00  0.00     0.006 C 
ATOM     18  C   UNL     1     -12.367  12.114 -24.852  1.00  0.00     0.008 C 
ATOM     19  C   UNL     1     -14.805  12.437 -25.530  1.00  0.00     0.012 C 
ATOM     20  C   UNL     1     -13.091  10.709 -27.529  1.00  0.00    -0.025 C 
ATOM     21  C   UNL     1     -11.887  10.679 -25.206  1.00  0.00     0.005 C 
ATOM     22  C   UNL     1     -12.807   9.892 -26.183  1.00  0.00     0.003 C 
ATOM     23  C   UNL     1     -12.174  10.215 -28.709  1.00  0.00     0.010 C 
ATOM     24  C   UNL     1     -14.568  10.458 -27.994  1.00  0.00     0.012 C 
ATOM     25  C   UNL     1     -12.454   8.337 -26.350  1.00  0.00    -0.006 C 
ATOM     26  C   UNL     1     -12.082   8.699 -28.876  1.00  0.00     0.033 C 
ATOM     27  C   UNL     1     -11.568   8.027 -27.602  1.00  0.00     0.120 C 
ATOM     28  C   UNL     1     -13.773   7.516 -26.471  1.00  0.00     0.014 C 
ATOM     29  C   UNL     1     -11.740   7.752 -25.098  1.00  0.00     0.014 C 
ENDROOT
BRANCH   1  30
ATOM     30  C   UNL     1     -12.740  18.231 -28.244  1.00  0.00     0.048 C 
ATOM     31  O   UNL     1     -11.668  18.164 -28.904  1.00  0.00    -0.550 OA
ATOM     32  O   UNL     1     -13.653  19.229 -28.576  1.00  0.00    -0.550 OA
ENDBRANCH   1  30
BRANCH  27  33
ATOM     33  O   UNL     1     -10.201   8.314 -27.404  1.00  0.00    -0.393 OA
ATOM     34  H   UNL     1     -10.091   8.711 -26.507  1.00  0.00     0.210 HD
ENDBRANCH  27  33
TORSDOF 2
ENDMDL
MODEL 8
REMARK VINA RESULT:    -6.977      2.337      4.059
REMARK INTER + INTRA:          -7.800
REMARK INTER:                  -7.604
REMARK INTRA:                  -0.195
REMARK UNBOUND:                -0.211
REMARK SMILES C[C@@H]1[C@H](C)CC[C@]2(C(=O)[O-])CC[C@]3(C)C(=CC[C@H]4[C@@]5(C)CC[C@@H](O)C(C)(C)[C@H]5CC[C@]43C)[C@H]12
REMARK SMILES IDX 7 1 6 2 11 3 33 4 5 5 12 6 15 7 2 8 3 9 13 10 16 11 1 12
REMARK SMILES IDX 4 13 14 14 31 15 17 16 18 17 30 18 32 19 19 20 29 21 28 22
REMARK SMILES IDX 21 23 20 24 25 25 22 26 23 27 26 28 27 29 8 30 9 31 10 32
REMARK SMILES IDX 24 33
REMARK H PARENT 24 34
REMARK Flexibility Score: inf
ROOT
ATOM      1  C   UNL     1     -11.796   8.267 -28.348  1.00  0.00     0.017 C 
ATOM      2  C   UNL     1     -10.683   7.321 -27.808  1.00  0.00     0.014 C 
ATOM      3  C   UNL     1     -11.192   9.647 -28.721  1.00  0.00     0.014 C 
ATOM      4  C   UNL     1     -12.966   8.470 -27.308  1.00  0.00     0.030 C 
ATOM      5  C   UNL     1     -11.235   6.001 -27.257  1.00  0.00     0.004 C 
ATOM      6  C   UNL     1     -10.721  10.527 -27.536  1.00  0.00     0.013 C 
ATOM      7  C   UNL     1     -12.971   9.867 -26.626  1.00  0.00    -0.063 C 
ATOM      8  C   UNL     1     -13.342   7.216 -26.438  1.00  0.00    -0.003 C 
ATOM      9  C   UNL     1     -12.207   6.204 -26.084  1.00  0.00    -0.011 C 
ATOM     10  C   UNL     1     -11.656  10.583 -26.257  1.00  0.00    -0.006 C 
ATOM     11  C   UNL     1     -14.128  10.557 -26.709  1.00  0.00    -0.027 C 
ATOM     12  C   UNL     1     -14.272   7.539 -25.256  1.00  0.00     0.008 C 
ATOM     13  C   UNL     1     -11.457   6.411 -24.753  1.00  0.00     0.008 C 
ATOM     14  C   UNL     1     -10.980   9.785 -25.096  1.00  0.00     0.017 C 
ATOM     15  C   UNL     1     -11.880  12.108 -25.736  1.00  0.00    -0.020 C 
ATOM     16  C   UNL     1     -14.257  12.041 -26.649  1.00  0.00     0.032 C 
ATOM     17  C   UNL     1     -12.924  12.849 -26.645  1.00  0.00     0.006 C 
ATOM     18  C   UNL     1     -12.447  12.154 -24.268  1.00  0.00     0.008 C 
ATOM     19  C   UNL     1     -10.478  12.823 -25.747  1.00  0.00     0.012 C 
ATOM     20  C   UNL     1     -13.143  14.412 -26.288  1.00  0.00    -0.025 C 
ATOM     21  C   UNL     1     -13.286  13.403 -23.878  1.00  0.00     0.005 C 
ATOM     22  C   UNL     1     -13.004  14.682 -24.718  1.00  0.00     0.003 C 
ATOM     23  C   UNL     1     -14.533  14.904 -26.838  1.00  0.00     0.010 C 
ATOM     24  C   UNL     1     -12.055  15.237 -27.062  1.00  0.00     0.012 C 
ATOM     25  C   UNL     1     -13.676  16.027 -24.159  1.00  0.00    -0.006 C 
ATOM     26  C   UNL     1     -14.965  16.295 -26.377  1.00  0.00     0.033 C 
ATOM     27  C   UNL     1     -15.034  16.382 -24.852  1.00  0.00     0.120 C 
ATOM     28  C   UNL     1     -12.696  17.220 -24.367  1.00  0.00     0.014 C 
ATOM     29  C   UNL     1     -13.917  15.978 -22.624  1.00  0.00     0.014 C 
ENDROOT
BRANCH   1  30
ATOM     30  C   UNL     1     -12.351   7.691 -29.665  1.00  0.00     0.048 C 
ATOM     31  O   UNL     1     -13.577   7.759 -29.952  1.00  0.00    -0.550 OA
ATOM     32  O   UNL     1     -11.513   6.994 -30.532  1.00  0.00    -0.550 OA
ENDBRANCH   1  30
BRANCH  27  33
ATOM     33  O   UNL     1     -16.124  15.634 -24.360  1.00  0.00    -0.393 OA
ATOM     34  H   UNL     1     -15.829  14.702 -24.221  1.00  0.00     0.210 HD
ENDBRANCH  27  33
TORSDOF 2
ENDMDL
MODEL 9
REMARK VINA RESULT:    -6.776     15.452     17.660
REMARK INTER + INTRA:          -7.581
REMARK INTER:                  -7.380
REMARK INTRA:                  -0.202
REMARK UNBOUND:                -0.211
REMARK SMILES C[C@@H]1[C@H](C)CC[C@]2(C(=O)[O-])CC[C@]3(C)C(=CC[C@H]4[C@@]5(C)CC[C@@H](O)C(C)(C)[C@H]5CC[C@]43C)[C@H]12
REMARK SMILES IDX 7 1 6 2 11 3 33 4 5 5 12 6 15 7 2 8 3 9 13 10 16 11 1 12
REMARK SMILES IDX 4 13 14 14 31 15 17 16 18 17 30 18 32 19 19 20 29 21 28 22
REMARK SMILES IDX 21 23 20 24 25 25 22 26 23 27 26 28 27 29 8 30 9 31 10 32
REMARK SMILES IDX 24 33
REMARK H PARENT 24 34
REMARK Flexibility Score: inf
ROOT
ATOM      1  C   UNL     1      -1.448   4.690 -36.570  1.00  0.00     0.017 C 
ATOM      2  C   UNL     1      -2.660   3.912 -35.978  1.00  0.00     0.014 C 
ATOM      3  C   UNL     1      -0.975   5.782 -35.573  1.00  0.00     0.014 C 
ATOM      4  C   UNL     1      -1.786   5.359 -37.959  1.00  0.00     0.030 C 
ATOM      5  C   UNL     1      -3.291   2.935 -36.979  1.00  0.00     0.004 C 
ATOM      6  C   UNL     1      -1.929   6.987 -35.380  1.00  0.00     0.013 C 
ATOM      7  C   UNL     1      -1.956   6.903 -37.894  1.00  0.00    -0.063 C 
ATOM      8  C   UNL     1      -2.744   4.545 -38.902  1.00  0.00    -0.003 C 
ATOM      9  C   UNL     1      -3.826   3.635 -38.238  1.00  0.00    -0.011 C 
ATOM     10  C   UNL     1      -2.614   7.586 -36.678  1.00  0.00    -0.006 C 
ATOM     11  C   UNL     1      -1.192   7.614 -38.750  1.00  0.00    -0.027 C 
ATOM     12  C   UNL     1      -3.269   5.355 -40.100  1.00  0.00     0.008 C 
ATOM     13  C   UNL     1      -5.222   4.245 -38.001  1.00  0.00     0.008 C 
ATOM     14  C   UNL     1      -4.131   7.208 -36.674  1.00  0.00     0.017 C 
ATOM     15  C   UNL     1      -2.515   9.209 -36.722  1.00  0.00    -0.020 C 
ATOM     16  C   UNL     1      -0.750   9.023 -38.549  1.00  0.00     0.032 C 
ATOM     17  C   UNL     1      -1.077   9.658 -37.164  1.00  0.00     0.006 C 
ATOM     18  C   UNL     1      -3.521   9.835 -37.759  1.00  0.00     0.008 C 
ATOM     19  C   UNL     1      -2.885   9.745 -35.290  1.00  0.00     0.012 C 
ATOM     20  C   UNL     1      -0.827  11.256 -37.135  1.00  0.00    -0.025 C 
ATOM     21  C   UNL     1      -3.131  11.208 -38.374  1.00  0.00     0.005 C 
ATOM     22  C   UNL     1      -2.152  12.065 -37.521  1.00  0.00     0.003 C 
ATOM     23  C   UNL     1       0.376  11.635 -38.076  1.00  0.00     0.010 C 
ATOM     24  C   UNL     1      -0.379  11.645 -35.682  1.00  0.00     0.012 C 
ATOM     25  C   UNL     1      -1.949  13.574 -38.024  1.00  0.00    -0.006 C 
ATOM     26  C   UNL     1       0.575  13.130 -38.317  1.00  0.00     0.033 C 
ATOM     27  C   UNL     1      -0.678  13.771 -38.916  1.00  0.00     0.120 C 
ATOM     28  C   UNL     1      -1.832  14.520 -36.792  1.00  0.00     0.014 C 
ATOM     29  C   UNL     1      -3.178  14.108 -38.814  1.00  0.00     0.014 C 
ENDROOT
BRANCH   1  30
ATOM     30  C   UNL     1      -0.256   3.726 -36.721  1.00  0.00     0.048 C 
ATOM     31  O   UNL     1       0.375   3.620 -37.808  1.00  0.00    -0.550 OA
ATOM     32  O   UNL     1       0.093   2.875 -35.674  1.00  0.00    -0.550 OA
ENDBRANCH   1  30
BRANCH  27  33
ATOM     33  O   UNL     1      -0.861  13.352 -40.250  1.00  0.00    -0.393 OA
ATOM     34  H   UNL     1       0.025  13.194 -40.655  1.00  0.00     0.210 HD
ENDBRANCH  27  33
TORSDOF 2
ENDMDL
