MODEL 1
REMARK VINA RESULT:    -4.813      0.000      0.000
REMARK INTER + INTRA:          -5.650
REMARK INTER:                  -5.516
REMARK INTRA:                  -0.134
REMARK UNBOUND:                -0.134
REMARK SMILES O=C([O-])C=Cc1ccc(O)cc1
REMARK SMILES IDX 6 1 7 2 12 3 8 4 11 5 9 6 5 7 4 8 2 9 1 10 3 11 10 12
REMARK H PARENT 10 13
REMARK Flexibility Score: inf
ROOT
ATOM      1  C   UNL     1     -37.718 -15.023  -7.584  1.00  0.00    -0.025 A 
ATOM      2  C   UNL     1     -37.133 -16.078  -8.306  1.00  0.00     0.012 A 
ATOM      3  C   UNL     1     -38.924 -15.260  -6.894  1.00  0.00     0.012 A 
ATOM      4  C   UNL     1     -37.750 -17.330  -8.362  1.00  0.00     0.047 A 
ATOM      5  C   UNL     1     -39.537 -16.514  -6.951  1.00  0.00     0.047 A 
ATOM      6  C   UNL     1     -38.955 -17.551  -7.685  1.00  0.00     0.115 A 
ENDROOT
BRANCH   1   7
ATOM      7  C   UNL     1     -37.019 -13.714  -7.547  1.00  0.00     0.010 C 
ATOM      8  C   UNL     1     -37.577 -12.559  -7.938  1.00  0.00     0.025 C 
BRANCH   8   9
ATOM      9  C   UNL     1     -36.849 -11.281  -7.899  1.00  0.00     0.064 C 
ATOM     10  O   UNL     1     -37.201 -10.353  -7.122  1.00  0.00    -0.545 OA
ATOM     11  O   UNL     1     -35.756 -11.093  -8.734  1.00  0.00    -0.545 OA
ENDBRANCH   8   9
ENDBRANCH   1   7
BRANCH   6  12
ATOM     12  O   UNL     1     -39.579 -18.796  -7.733  1.00  0.00    -0.508 OA
ATOM     13  H   UNL     1     -39.049 -19.650  -7.858  1.00  0.00     0.293 HD
ENDBRANCH   6  12
TORSDOF 3
ENDMDL
MODEL 2
REMARK VINA RESULT:    -4.675      0.196      1.408
REMARK INTER + INTRA:          -5.492
REMARK INTER:                  -5.343
REMARK INTRA:                  -0.149
REMARK UNBOUND:                -0.134
REMARK SMILES O=C([O-])C=Cc1ccc(O)cc1
REMARK SMILES IDX 6 1 7 2 12 3 8 4 11 5 9 6 5 7 4 8 2 9 1 10 3 11 10 12
REMARK H PARENT 10 13
REMARK Flexibility Score: inf
ROOT
ATOM      1  C   UNL     1     -37.531 -15.088  -7.718  1.00  0.00    -0.025 A 
ATOM      2  C   UNL     1     -38.740 -15.203  -7.009  1.00  0.00     0.012 A 
ATOM      3  C   UNL     1     -37.011 -16.230  -8.361  1.00  0.00     0.012 A 
ATOM      4  C   UNL     1     -39.399 -16.431  -6.920  1.00  0.00     0.047 A 
ATOM      5  C   UNL     1     -37.674 -17.457  -8.270  1.00  0.00     0.047 A 
ATOM      6  C   UNL     1     -38.867 -17.563  -7.549  1.00  0.00     0.115 A 
ENDROOT
BRANCH   1   7
ATOM      7  C   UNL     1     -36.874 -13.759  -7.792  1.00  0.00     0.010 C 
ATOM      8  C   UNL     1     -37.535 -12.595  -7.712  1.00  0.00     0.025 C 
BRANCH   8   9
ATOM      9  C   UNL     1     -36.851 -11.296  -7.803  1.00  0.00     0.064 C 
ATOM     10  O   UNL     1     -37.206 -10.320  -7.086  1.00  0.00    -0.545 OA
ATOM     11  O   UNL     1     -35.799 -11.139  -8.694  1.00  0.00    -0.545 OA
ENDBRANCH   8   9
ENDBRANCH   1   7
BRANCH   6  12
ATOM     12  O   UNL     1     -39.515 -18.793  -7.467  1.00  0.00    -0.508 OA
ATOM     13  H   UNL     1     -39.830 -19.282  -8.297  1.00  0.00     0.293 HD
ENDBRANCH   6  12
TORSDOF 3
ENDMDL
MODEL 3
REMARK VINA RESULT:    -4.509      3.463      7.585
REMARK INTER + INTRA:          -5.302
REMARK INTER:                  -5.153
REMARK INTRA:                  -0.150
REMARK UNBOUND:                -0.134
REMARK SMILES O=C([O-])C=Cc1ccc(O)cc1
REMARK SMILES IDX 6 1 7 2 12 3 8 4 11 5 9 6 5 7 4 8 2 9 1 10 3 11 10 12
REMARK H PARENT 10 13
REMARK Flexibility Score: inf
ROOT
ATOM      1  C   UNL     1     -36.027  -9.464  -7.211  1.00  0.00    -0.025 A 
ATOM      2  C   UNL     1     -34.927  -9.566  -8.079  1.00  0.00     0.012 A 
ATOM      3  C   UNL     1     -36.096  -8.367  -6.328  1.00  0.00     0.012 A 
ATOM      4  C   UNL     1     -33.906  -8.613  -8.049  1.00  0.00     0.047 A 
ATOM      5  C   UNL     1     -35.073  -7.415  -6.302  1.00  0.00     0.047 A 
ATOM      6  C   UNL     1     -33.976  -7.535  -7.159  1.00  0.00     0.115 A 
ENDROOT
BRANCH   1   7
ATOM      7  C   UNL     1     -37.091 -10.497  -7.287  1.00  0.00     0.010 C 
ATOM      8  C   UNL     1     -36.919 -11.705  -7.842  1.00  0.00     0.025 C 
BRANCH   8   9
ATOM      9  C   UNL     1     -38.001 -12.700  -7.911  1.00  0.00     0.064 C 
ATOM     10  O   UNL     1     -38.956 -12.570  -8.725  1.00  0.00    -0.545 OA
ATOM     11  O   UNL     1     -37.972 -13.800  -7.065  1.00  0.00    -0.545 OA
ENDBRANCH   8   9
ENDBRANCH   1   7
BRANCH   6  12
ATOM     12  O   UNL     1     -32.964  -6.578  -7.120  1.00  0.00    -0.508 OA
ATOM     13  H   UNL     1     -33.157  -5.596  -7.278  1.00  0.00     0.293 HD
ENDBRANCH   6  12
TORSDOF 3
ENDMDL
MODEL 4
REMARK VINA RESULT:    -4.393      1.219      5.758
REMARK INTER + INTRA:          -5.169
REMARK INTER:                  -5.021
REMARK INTRA:                  -0.149
REMARK UNBOUND:                -0.134
REMARK SMILES O=C([O-])C=Cc1ccc(O)cc1
REMARK SMILES IDX 6 1 7 2 12 3 8 4 11 5 9 6 5 7 4 8 2 9 1 10 3 11 10 12
REMARK H PARENT 10 13
REMARK Flexibility Score: inf
ROOT
ATOM      1  C   UNL     1     -37.668 -13.372  -7.465  1.00  0.00    -0.025 A 
ATOM      2  C   UNL     1     -36.782 -13.389  -8.556  1.00  0.00     0.012 A 
ATOM      3  C   UNL     1     -37.870 -12.160  -6.774  1.00  0.00     0.012 A 
ATOM      4  C   UNL     1     -36.092 -12.234  -8.931  1.00  0.00     0.047 A 
ATOM      5  C   UNL     1     -37.179 -11.005  -7.154  1.00  0.00     0.047 A 
ATOM      6  C   UNL     1     -36.288 -11.038  -8.230  1.00  0.00     0.115 A 
ENDROOT
BRANCH   1   7
ATOM      7  C   UNL     1     -38.385 -14.623  -7.112  1.00  0.00     0.010 C 
ATOM      8  C   UNL     1     -37.953 -15.848  -7.444  1.00  0.00     0.025 C 
BRANCH   8   9
ATOM      9  C   UNL     1     -38.697 -17.066  -7.087  1.00  0.00     0.064 C 
ATOM     10  O   UNL     1     -38.427 -17.713  -6.038  1.00  0.00    -0.545 OA
ATOM     11  O   UNL     1     -39.713 -17.515  -7.920  1.00  0.00    -0.545 OA
ENDBRANCH   8   9
ENDBRANCH   1   7
BRANCH   6  12
ATOM     12  O   UNL     1     -35.606  -9.880  -8.595  1.00  0.00    -0.508 OA
ATOM     13  H   UNL     1     -35.215  -9.765  -9.523  1.00  0.00     0.293 HD
ENDBRANCH   6  12
TORSDOF 3
ENDMDL
MODEL 5
REMARK VINA RESULT:    -4.387      5.820      7.880
REMARK INTER + INTRA:          -5.162
REMARK INTER:                  -5.011
REMARK INTRA:                  -0.151
REMARK UNBOUND:                -0.134
REMARK SMILES O=C([O-])C=Cc1ccc(O)cc1
REMARK SMILES IDX 6 1 7 2 12 3 8 4 11 5 9 6 5 7 4 8 2 9 1 10 3 11 10 12
REMARK H PARENT 10 13
REMARK Flexibility Score: inf
ROOT
ATOM      1  C   UNL     1     -34.576  -7.915  -7.815  1.00  0.00    -0.025 A 
ATOM      2  C   UNL     1     -34.793  -9.227  -8.269  1.00  0.00     0.012 A 
ATOM      3  C   UNL     1     -35.208  -7.495  -6.627  1.00  0.00     0.012 A 
ATOM      4  C   UNL     1     -35.641 -10.091  -7.572  1.00  0.00     0.047 A 
ATOM      5  C   UNL     1     -36.055  -8.362  -5.931  1.00  0.00     0.047 A 
ATOM      6  C   UNL     1     -36.276  -9.660  -6.401  1.00  0.00     0.115 A 
ENDROOT
BRANCH   1   7
ATOM      7  C   UNL     1     -33.659  -7.038  -8.586  1.00  0.00     0.010 C 
ATOM      8  C   UNL     1     -33.191  -7.338  -9.806  1.00  0.00     0.025 C 
BRANCH   8   9
ATOM      9  C   UNL     1     -32.272  -6.450 -10.536  1.00  0.00     0.064 C 
ATOM     10  O   UNL     1     -31.205  -6.890 -11.043  1.00  0.00    -0.545 OA
ATOM     11  O   UNL     1     -32.583  -5.104 -10.665  1.00  0.00    -0.545 OA
ENDBRANCH   8   9
ENDBRANCH   1   7
BRANCH   6  12
ATOM     12  O   UNL     1     -37.123 -10.512  -5.697  1.00  0.00    -0.508 OA
ATOM     13  H   UNL     1     -36.767 -11.315  -5.192  1.00  0.00     0.293 HD
ENDBRANCH   6  12
TORSDOF 3
ENDMDL
MODEL 6
REMARK VINA RESULT:    -4.381      5.403      7.541
REMARK INTER + INTRA:          -5.156
REMARK INTER:                  -5.015
REMARK INTRA:                  -0.141
REMARK UNBOUND:                -0.134
REMARK SMILES O=C([O-])C=Cc1ccc(O)cc1
REMARK SMILES IDX 6 1 7 2 12 3 8 4 11 5 9 6 5 7 4 8 2 9 1 10 3 11 10 12
REMARK H PARENT 10 13
REMARK Flexibility Score: inf
ROOT
ATOM      1  C   UNL     1     -34.873  -9.533  -8.263  1.00  0.00    -0.025 A 
ATOM      2  C   UNL     1     -34.116  -8.376  -8.013  1.00  0.00     0.012 A 
ATOM      3  C   UNL     1     -36.006  -9.789  -7.464  1.00  0.00     0.012 A 
ATOM      4  C   UNL     1     -34.462  -7.510  -6.972  1.00  0.00     0.047 A 
ATOM      5  C   UNL     1     -36.349  -8.920  -6.424  1.00  0.00     0.047 A 
ATOM      6  C   UNL     1     -35.579  -7.781  -6.174  1.00  0.00     0.115 A 
ENDROOT
BRANCH   1   7
ATOM      7  C   UNL     1     -34.471 -10.416  -9.387  1.00  0.00     0.010 C 
ATOM      8  C   UNL     1     -35.198 -11.460  -9.812  1.00  0.00     0.025 C 
BRANCH   8   9
ATOM      9  C   UNL     1     -34.761 -12.321 -10.922  1.00  0.00     0.064 C 
ATOM     10  O   UNL     1     -35.009 -13.558 -10.925  1.00  0.00    -0.545 OA
ATOM     11  O   UNL     1     -34.060 -11.765 -11.983  1.00  0.00    -0.545 OA
ENDBRANCH   8   9
ENDBRANCH   1   7
BRANCH   6  12
ATOM     12  O   UNL     1     -35.934  -6.925  -5.134  1.00  0.00    -0.508 OA
ATOM     13  H   UNL     1     -36.902  -6.686  -4.951  1.00  0.00     0.293 HD
ENDBRANCH   6  12
TORSDOF 3
ENDMDL
MODEL 7
REMARK VINA RESULT:    -4.370      3.377      5.437
REMARK INTER + INTRA:          -5.143
REMARK INTER:                  -4.990
REMARK INTRA:                  -0.152
REMARK UNBOUND:                -0.134
REMARK SMILES O=C([O-])C=Cc1ccc(O)cc1
REMARK SMILES IDX 6 1 7 2 12 3 8 4 11 5 9 6 5 7 4 8 2 9 1 10 3 11 10 12
REMARK H PARENT 10 13
REMARK Flexibility Score: inf
ROOT
ATOM      1  C   UNL     1     -36.620 -13.650  -9.526  1.00  0.00    -0.025 A 
ATOM      2  C   UNL     1     -37.106 -14.444  -8.473  1.00  0.00     0.012 A 
ATOM      3  C   UNL     1     -36.568 -12.252  -9.352  1.00  0.00     0.012 A 
ATOM      4  C   UNL     1     -37.556 -13.858  -7.287  1.00  0.00     0.047 A 
ATOM      5  C   UNL     1     -37.017 -11.669  -8.164  1.00  0.00     0.047 A 
ATOM      6  C   UNL     1     -37.514 -12.467  -7.130  1.00  0.00     0.115 A 
ENDROOT
BRANCH   1   7
ATOM      7  C   UNL     1     -36.145 -14.320 -10.762  1.00  0.00     0.010 C 
ATOM      8  C   UNL     1     -36.085 -15.652 -10.911  1.00  0.00     0.025 C 
BRANCH   8   9
ATOM      9  C   UNL     1     -35.596 -16.282 -12.148  1.00  0.00     0.064 C 
ATOM     10  O   UNL     1     -35.936 -15.846 -13.281  1.00  0.00    -0.545 OA
ATOM     11  O   UNL     1     -34.748 -17.378 -12.066  1.00  0.00    -0.545 OA
ENDBRANCH   8   9
ENDBRANCH   1   7
BRANCH   6  12
ATOM     12  O   UNL     1     -37.958 -11.871  -5.952  1.00  0.00    -0.508 OA
ATOM     13  H   UNL     1     -38.403 -10.961  -5.954  1.00  0.00     0.293 HD
ENDBRANCH   6  12
TORSDOF 3
ENDMDL
MODEL 8
REMARK VINA RESULT:    -4.274     14.299     14.679
REMARK INTER + INTRA:          -5.033
REMARK INTER:                  -4.896
REMARK INTRA:                  -0.137
REMARK UNBOUND:                -0.134
REMARK SMILES O=C([O-])C=Cc1ccc(O)cc1
REMARK SMILES IDX 6 1 7 2 12 3 8 4 11 5 9 6 5 7 4 8 2 9 1 10 3 11 10 12
REMARK H PARENT 10 13
REMARK Flexibility Score: inf
ROOT
ATOM      1  C   UNL     1     -26.985 -19.556   0.527  1.00  0.00    -0.025 A 
ATOM      2  C   UNL     1     -26.825 -20.776  -0.153  1.00  0.00     0.012 A 
ATOM      3  C   UNL     1     -26.858 -19.540   1.930  1.00  0.00     0.012 A 
ATOM      4  C   UNL     1     -26.573 -21.956   0.551  1.00  0.00     0.047 A 
ATOM      5  C   UNL     1     -26.605 -20.723   2.632  1.00  0.00     0.047 A 
ATOM      6  C   UNL     1     -26.464 -21.933   1.946  1.00  0.00     0.115 A 
ENDROOT
BRANCH   1   7
ATOM      7  C   UNL     1     -27.241 -18.328  -0.267  1.00  0.00     0.010 C 
ATOM      8  C   UNL     1     -26.354 -17.333  -0.408  1.00  0.00     0.025 C 
BRANCH   8   9
ATOM      9  C   UNL     1     -26.648 -16.124  -1.194  1.00  0.00     0.064 C 
ATOM     10  O   UNL     1     -27.545 -16.123  -2.080  1.00  0.00    -0.545 OA
ATOM     11  O   UNL     1     -25.924 -14.963  -0.957  1.00  0.00    -0.545 OA
ENDBRANCH   8   9
ENDBRANCH   1   7
BRANCH   6  12
ATOM     12  O   UNL     1     -26.213 -23.102   2.660  1.00  0.00    -0.508 OA
ATOM     13  H   UNL     1     -26.883 -23.473   3.323  1.00  0.00     0.293 HD
ENDBRANCH   6  12
TORSDOF 3
ENDMDL
MODEL 9
REMARK VINA RESULT:    -4.268      3.330      4.570
REMARK INTER + INTRA:          -5.026
REMARK INTER:                  -4.889
REMARK INTRA:                  -0.137
REMARK UNBOUND:                -0.134
REMARK SMILES O=C([O-])C=Cc1ccc(O)cc1
REMARK SMILES IDX 6 1 7 2 12 3 8 4 11 5 9 6 5 7 4 8 2 9 1 10 3 11 10 12
REMARK H PARENT 10 13
REMARK Flexibility Score: inf
ROOT
ATOM      1  C   UNL     1     -37.138 -16.117  -8.533  1.00  0.00    -0.025 A 
ATOM      2  C   UNL     1     -37.927 -17.047  -7.834  1.00  0.00     0.012 A 
ATOM      3  C   UNL     1     -37.074 -14.791  -8.060  1.00  0.00     0.012 A 
ATOM      4  C   UNL     1     -38.657 -16.658  -6.708  1.00  0.00     0.047 A 
ATOM      5  C   UNL     1     -37.806 -14.405  -6.933  1.00  0.00     0.047 A 
ATOM      6  C   UNL     1     -38.600 -15.335  -6.255  1.00  0.00     0.115 A 
ENDROOT
BRANCH   1   7
ATOM      7  C   UNL     1     -36.373 -16.582  -9.717  1.00  0.00     0.010 C 
ATOM      8  C   UNL     1     -36.298 -15.901 -10.870  1.00  0.00     0.025 C 
BRANCH   8   9
ATOM      9  C   UNL     1     -35.540 -16.399 -12.028  1.00  0.00     0.064 C 
ATOM     10  O   UNL     1     -35.445 -15.721 -13.087  1.00  0.00    -0.545 OA
ATOM     11  O   UNL     1     -34.919 -17.639 -11.956  1.00  0.00    -0.545 OA
ENDBRANCH   8   9
ENDBRANCH   1   7
BRANCH   6  12
ATOM     12  O   UNL     1     -39.323 -14.935  -5.134  1.00  0.00    -0.508 OA
ATOM     13  H   UNL     1     -38.945 -15.030  -4.199  1.00  0.00     0.293 HD
ENDBRANCH   6  12
TORSDOF 3
ENDMDL
