MODEL 1
REMARK VINA RESULT:    -4.185      0.000      0.000
REMARK INTER + INTRA:         -16.646
REMARK INTER:                 -11.035
REMARK INTRA:                  -5.611
REMARK UNBOUND:                -5.611
REMARK SMILES CCCCCCCCCCCCCCCCCCCCCCCCCCCCCC(=O)[O-]
REMARK SMILES IDX 16 1 17 2 18 3 19 4 20 5 21 6 22 7 23 8 24 9 25 10 26 11
REMARK SMILES IDX 27 12 28 13 29 14 30 15 31 16 32 17 15 18 14 19 13 20 12 21
REMARK SMILES IDX 11 22 10 23 9 24 8 25 7 26 6 27 5 28 4 29 3 30 2 31 1 32
REMARK H PARENT
REMARK Flexibility Score: inf
ROOT
ATOM      1  C   UNL     1      -5.304  25.852  53.998  1.00  0.00     0.000 C 
ENDROOT
BRANCH   1   2
ATOM      2  C   UNL     1      -5.718  26.849  55.097  1.00  0.00     0.000 C 
BRANCH   2   3
ATOM      3  C   UNL     1      -6.209  26.185  56.401  1.00  0.00     0.000 C 
BRANCH   3   4
ATOM      4  C   UNL     1      -5.424  26.647  57.642  1.00  0.00     0.000 C 
BRANCH   4   5
ATOM      5  C   UNL     1      -4.726  25.488  58.369  1.00  0.00     0.000 C 
BRANCH   5   6
ATOM      6  C   UNL     1      -3.460  25.933  59.125  1.00  0.00     0.000 C 
BRANCH   6   7
ATOM      7  C   UNL     1      -3.470  27.431  59.470  1.00  0.00     0.000 C 
BRANCH   7   8
ATOM      8  C   UNL     1      -2.090  28.085  59.314  1.00  0.00     0.000 C 
BRANCH   8   9
ATOM      9  C   UNL     1      -2.207  29.617  59.290  1.00  0.00     0.000 C 
BRANCH   9  10
ATOM     10  C   UNL     1      -2.225  30.190  57.863  1.00  0.00     0.000 C 
BRANCH  10  11
ATOM     11  C   UNL     1      -3.600  30.754  57.467  1.00  0.00     0.000 C 
BRANCH  11  12
ATOM     12  C   UNL     1      -4.249  29.968  56.315  1.00  0.00     0.000 C 
BRANCH  12  13
ATOM     13  C   UNL     1      -5.758  30.244  56.182  1.00  0.00     0.006 C 
BRANCH  13  14
ATOM     14  C   UNL     1      -6.130  30.761  54.786  1.00  0.00     0.053 C 
BRANCH  14  15
ATOM     15  C   UNL     1      -7.317  31.675  54.833  1.00  0.00     0.041 C 
ATOM     16  O   UNL     1      -8.035  31.730  55.866  1.00  0.00    -0.550 OA
ATOM     17  O   UNL     1      -7.606  32.496  53.749  1.00  0.00    -0.550 OA
ENDBRANCH  14  15
ENDBRANCH  13  14
ENDBRANCH  12  13
ENDBRANCH  11  12
ENDBRANCH  10  11
ENDBRANCH   9  10
ENDBRANCH   8   9
ENDBRANCH   7   8
ENDBRANCH   6   7
ENDBRANCH   5   6
ENDBRANCH   4   5
ENDBRANCH   3   4
ENDBRANCH   2   3
ENDBRANCH   1   2
BRANCH   1  18
ATOM     18  C   UNL     1      -3.788  25.622  53.854  1.00  0.00     0.000 C 
BRANCH  18  19
ATOM     19  C   UNL     1      -3.149  24.740  54.946  1.00  0.00     0.000 C 
BRANCH  19  20
ATOM     20  C   UNL     1      -2.004  25.408  55.732  1.00  0.00     0.000 C 
BRANCH  20  21
ATOM     21  C   UNL     1      -2.137  26.936  55.892  1.00  0.00     0.000 C 
BRANCH  21  22
ATOM     22  C   UNL     1      -1.036  27.764  55.198  1.00  0.00     0.000 C 
BRANCH  22  23
ATOM     23  C   UNL     1      -1.465  28.465  53.895  1.00  0.00     0.000 C 
BRANCH  23  24
ATOM     24  C   UNL     1      -1.468  29.998  54.013  1.00  0.00    -0.000 C 
BRANCH  24  25
ATOM     25  C   UNL     1      -2.069  30.685  52.775  1.00  0.00    -0.000 C 
BRANCH  25  26
ATOM     26  C   UNL     1      -2.978  31.873  53.137  1.00  0.00    -0.000 C 
BRANCH  26  27
ATOM     27  C   UNL     1      -2.539  32.580  54.429  1.00  0.00    -0.000 C 
BRANCH  27  28
ATOM     28  C   UNL     1      -3.604  33.553  54.965  1.00  0.00    -0.000 C 
BRANCH  28  29
ATOM     29  C   UNL     1      -3.748  34.811  54.093  1.00  0.00    -0.000 C 
BRANCH  29  30
ATOM     30  C   UNL     1      -5.191  35.039  53.617  1.00  0.00    -0.000 C 
BRANCH  30  31
ATOM     31  C   UNL     1      -5.695  36.423  54.039  1.00  0.00    -0.003 C 
ATOM     32  C   UNL     1      -4.670  37.507  53.715  1.00  0.00     0.004 C 
ENDBRANCH  30  31
ENDBRANCH  29  30
ENDBRANCH  28  29
ENDBRANCH  27  28
ENDBRANCH  26  27
ENDBRANCH  25  26
ENDBRANCH  24  25
ENDBRANCH  23  24
ENDBRANCH  22  23
ENDBRANCH  21  22
ENDBRANCH  20  21
ENDBRANCH  19  20
ENDBRANCH  18  19
ENDBRANCH   1  18
TORSDOF 28
ENDMDL
MODEL 2
REMARK VINA RESULT:    -4.141      2.231      4.891
REMARK INTER + INTRA:         -16.531
REMARK INTER:                 -10.936
REMARK INTRA:                  -5.595
REMARK UNBOUND:                -5.611
REMARK SMILES CCCCCCCCCCCCCCCCCCCCCCCCCCCCCC(=O)[O-]
REMARK SMILES IDX 16 1 17 2 18 3 19 4 20 5 21 6 22 7 23 8 24 9 25 10 26 11
REMARK SMILES IDX 27 12 28 13 29 14 30 15 31 16 32 17 15 18 14 19 13 20 12 21
REMARK SMILES IDX 11 22 10 23 9 24 8 25 7 26 6 27 5 28 4 29 3 30 2 31 1 32
REMARK H PARENT
REMARK Flexibility Score: inf
ROOT
ATOM      1  C   UNL     1      -4.597  23.326  54.987  1.00  0.00     0.000 C 
ENDROOT
BRANCH   1   2
ATOM      2  C   UNL     1      -4.326  23.748  56.443  1.00  0.00     0.000 C 
BRANCH   2   3
ATOM      3  C   UNL     1      -5.489  23.456  57.413  1.00  0.00     0.000 C 
BRANCH   3   4
ATOM      4  C   UNL     1      -6.600  24.522  57.357  1.00  0.00     0.000 C 
BRANCH   4   5
ATOM      5  C   UNL     1      -6.702  25.342  58.651  1.00  0.00     0.000 C 
BRANCH   5   6
ATOM      6  C   UNL     1      -5.778  26.574  58.652  1.00  0.00     0.000 C 
BRANCH   6   7
ATOM      7  C   UNL     1      -4.427  26.305  59.333  1.00  0.00     0.000 C 
BRANCH   7   8
ATOM      8  C   UNL     1      -3.265  27.052  58.662  1.00  0.00     0.000 C 
BRANCH   8   9
ATOM      9  C   UNL     1      -2.706  28.143  59.589  1.00  0.00     0.000 C 
BRANCH   9  10
ATOM     10  C   UNL     1      -2.781  29.547  58.967  1.00  0.00     0.000 C 
BRANCH  10  11
ATOM     11  C   UNL     1      -3.560  29.568  57.642  1.00  0.00     0.000 C 
BRANCH  11  12
ATOM     12  C   UNL     1      -3.063  30.663  56.684  1.00  0.00     0.000 C 
BRANCH  12  13
ATOM     13  C   UNL     1      -3.930  30.785  55.417  1.00  0.00     0.006 C 
BRANCH  13  14
ATOM     14  C   UNL     1      -5.057  31.814  55.585  1.00  0.00     0.053 C 
BRANCH  14  15
ATOM     15  C   UNL     1      -6.404  31.159  55.603  1.00  0.00     0.041 C 
ATOM     16  O   UNL     1      -7.172  31.313  56.589  1.00  0.00    -0.550 OA
ATOM     17  O   UNL     1      -6.828  30.409  54.512  1.00  0.00    -0.550 OA
ENDBRANCH  14  15
ENDBRANCH  13  14
ENDBRANCH  12  13
ENDBRANCH  11  12
ENDBRANCH  10  11
ENDBRANCH   9  10
ENDBRANCH   8   9
ENDBRANCH   7   8
ENDBRANCH   6   7
ENDBRANCH   5   6
ENDBRANCH   4   5
ENDBRANCH   3   4
ENDBRANCH   2   3
ENDBRANCH   1   2
BRANCH   1  18
ATOM     18  C   UNL     1      -3.908  22.023  54.538  1.00  0.00     0.000 C 
BRANCH  18  19
ATOM     19  C   UNL     1      -3.116  21.285  55.637  1.00  0.00     0.000 C 
BRANCH  19  20
ATOM     20  C   UNL     1      -1.766  20.698  55.179  1.00  0.00     0.000 C 
BRANCH  20  21
ATOM     21  C   UNL     1      -1.127  21.413  53.972  1.00  0.00     0.000 C 
BRANCH  21  22
ATOM     22  C   UNL     1       0.362  21.781  54.144  1.00  0.00     0.000 C 
BRANCH  22  23
ATOM     23  C   UNL     1       0.640  23.265  54.447  1.00  0.00     0.000 C 
BRANCH  23  24
ATOM     24  C   UNL     1      -0.645  24.082  54.672  1.00  0.00    -0.000 C 
BRANCH  24  25
ATOM     25  C   UNL     1      -0.822  24.515  56.136  1.00  0.00    -0.000 C 
BRANCH  25  26
ATOM     26  C   UNL     1      -0.849  26.044  56.304  1.00  0.00    -0.000 C 
BRANCH  26  27
ATOM     27  C   UNL     1      -0.503  26.787  55.004  1.00  0.00    -0.000 C 
BRANCH  27  28
ATOM     28  C   UNL     1      -1.468  27.950  54.709  1.00  0.00    -0.000 C 
BRANCH  28  29
ATOM     29  C   UNL     1      -2.356  27.685  53.483  1.00  0.00    -0.000 C 
BRANCH  29  30
ATOM     30  C   UNL     1      -3.499  26.704  53.781  1.00  0.00    -0.000 C 
BRANCH  30  31
ATOM     31  C   UNL     1      -4.216  27.077  55.083  1.00  0.00    -0.003 C 
ATOM     32  C   UNL     1      -5.729  27.115  54.891  1.00  0.00     0.004 C 
ENDBRANCH  30  31
ENDBRANCH  29  30
ENDBRANCH  28  29
ENDBRANCH  27  28
ENDBRANCH  26  27
ENDBRANCH  25  26
ENDBRANCH  24  25
ENDBRANCH  23  24
ENDBRANCH  22  23
ENDBRANCH  21  22
ENDBRANCH  20  21
ENDBRANCH  19  20
ENDBRANCH  18  19
ENDBRANCH   1  18
TORSDOF 28
ENDMDL
MODEL 3
REMARK VINA RESULT:    -4.086      2.247      6.306
REMARK INTER + INTRA:         -16.384
REMARK INTER:                 -10.757
REMARK INTRA:                  -5.627
REMARK UNBOUND:                -5.611
REMARK SMILES CCCCCCCCCCCCCCCCCCCCCCCCCCCCCC(=O)[O-]
REMARK SMILES IDX 16 1 17 2 18 3 19 4 20 5 21 6 22 7 23 8 24 9 25 10 26 11
REMARK SMILES IDX 27 12 28 13 29 14 30 15 31 16 32 17 15 18 14 19 13 20 12 21
REMARK SMILES IDX 11 22 10 23 9 24 8 25 7 26 6 27 5 28 4 29 3 30 2 31 1 32
REMARK H PARENT
REMARK Flexibility Score: inf
ROOT
ATOM      1  C   UNL     1      -0.736  26.958  55.426  1.00  0.00     0.000 C 
ENDROOT
BRANCH   1   2
ATOM      2  C   UNL     1      -1.141  28.227  54.652  1.00  0.00     0.000 C 
BRANCH   2   3
ATOM      3  C   UNL     1      -2.662  28.382  54.444  1.00  0.00     0.000 C 
BRANCH   3   4
ATOM      4  C   UNL     1      -3.469  27.204  55.021  1.00  0.00     0.000 C 
BRANCH   4   5
ATOM      5  C   UNL     1      -4.722  27.660  55.783  1.00  0.00     0.000 C 
BRANCH   5   6
ATOM      6  C   UNL     1      -4.624  27.405  57.299  1.00  0.00     0.000 C 
BRANCH   6   7
ATOM      7  C   UNL     1      -3.576  26.339  57.656  1.00  0.00     0.000 C 
BRANCH   7   8
ATOM      8  C   UNL     1      -2.436  26.894  58.522  1.00  0.00     0.000 C 
BRANCH   8   9
ATOM      9  C   UNL     1      -2.729  28.339  58.954  1.00  0.00     0.000 C 
BRANCH   9  10
ATOM     10  C   UNL     1      -1.610  29.317  58.556  1.00  0.00     0.000 C 
BRANCH  10  11
ATOM     11  C   UNL     1      -2.056  30.323  57.482  1.00  0.00     0.000 C 
BRANCH  11  12
ATOM     12  C   UNL     1      -3.540  30.704  57.613  1.00  0.00     0.000 C 
BRANCH  12  13
ATOM     13  C   UNL     1      -4.100  31.363  56.339  1.00  0.00     0.006 C 
BRANCH  13  14
ATOM     14  C   UNL     1      -5.596  31.076  56.150  1.00  0.00     0.053 C 
BRANCH  14  15
ATOM     15  C   UNL     1      -6.210  31.988  55.132  1.00  0.00     0.041 C 
ATOM     16  O   UNL     1      -7.455  32.175  55.116  1.00  0.00    -0.550 OA
ATOM     17  O   UNL     1      -5.401  32.662  54.224  1.00  0.00    -0.550 OA
ENDBRANCH  14  15
ENDBRANCH  13  14
ENDBRANCH  12  13
ENDBRANCH  11  12
ENDBRANCH  10  11
ENDBRANCH   9  10
ENDBRANCH   8   9
ENDBRANCH   7   8
ENDBRANCH   6   7
ENDBRANCH   5   6
ENDBRANCH   4   5
ENDBRANCH   3   4
ENDBRANCH   2   3
ENDBRANCH   1   2
BRANCH   1  18
ATOM     18  C   UNL     1       0.329  26.080  54.743  1.00  0.00     0.000 C 
BRANCH  18  19
ATOM     19  C   UNL     1       0.244  24.574  55.063  1.00  0.00     0.000 C 
BRANCH  19  20
ATOM     20  C   UNL     1      -1.033  24.139  55.809  1.00  0.00     0.000 C 
BRANCH  20  21
ATOM     21  C   UNL     1      -2.041  23.348  54.953  1.00  0.00     0.000 C 
BRANCH  21  22
ATOM     22  C   UNL     1      -3.516  23.485  55.387  1.00  0.00     0.000 C 
BRANCH  22  23
ATOM     23  C   UNL     1      -4.475  24.001  54.298  1.00  0.00     0.000 C 
BRANCH  23  24
ATOM     24  C   UNL     1      -5.945  23.639  54.573  1.00  0.00    -0.000 C 
BRANCH  24  25
ATOM     25  C   UNL     1      -6.788  24.858  54.981  1.00  0.00    -0.000 C 
BRANCH  25  26
ATOM     26  C   UNL     1      -7.384  24.722  56.393  1.00  0.00    -0.000 C 
BRANCH  26  27
ATOM     27  C   UNL     1      -6.404  24.081  57.389  1.00  0.00    -0.000 C 
BRANCH  27  28
ATOM     28  C   UNL     1      -6.781  24.358  58.855  1.00  0.00    -0.000 C 
BRANCH  28  29
ATOM     29  C   UNL     1      -7.129  25.834  59.107  1.00  0.00    -0.000 C 
BRANCH  29  30
ATOM     30  C   UNL     1      -7.820  26.056  60.461  1.00  0.00    -0.000 C 
BRANCH  30  31
ATOM     31  C   UNL     1      -6.791  26.152  61.593  1.00  0.00    -0.003 C 
ATOM     32  C   UNL     1      -7.472  26.169  62.959  1.00  0.00     0.004 C 
ENDBRANCH  30  31
ENDBRANCH  29  30
ENDBRANCH  28  29
ENDBRANCH  27  28
ENDBRANCH  26  27
ENDBRANCH  25  26
ENDBRANCH  24  25
ENDBRANCH  23  24
ENDBRANCH  22  23
ENDBRANCH  21  22
ENDBRANCH  20  21
ENDBRANCH  19  20
ENDBRANCH  18  19
ENDBRANCH   1  18
TORSDOF 28
ENDMDL
MODEL 4
REMARK VINA RESULT:    -4.063      3.131      7.833
REMARK INTER + INTRA:         -16.324
REMARK INTER:                 -10.216
REMARK INTRA:                  -6.108
REMARK UNBOUND:                -5.611
REMARK SMILES CCCCCCCCCCCCCCCCCCCCCCCCCCCCCC(=O)[O-]
REMARK SMILES IDX 16 1 17 2 18 3 19 4 20 5 21 6 22 7 23 8 24 9 25 10 26 11
REMARK SMILES IDX 27 12 28 13 29 14 30 15 31 16 32 17 15 18 14 19 13 20 12 21
REMARK SMILES IDX 11 22 10 23 9 24 8 25 7 26 6 27 5 28 4 29 3 30 2 31 1 32
REMARK H PARENT
REMARK Flexibility Score: inf
ROOT
ATOM      1  C   UNL     1      -4.190  29.159  57.169  1.00  0.00     0.000 C 
ENDROOT
BRANCH   1   2
ATOM      2  C   UNL     1      -3.654  30.599  57.277  1.00  0.00     0.000 C 
BRANCH   2   3
ATOM      3  C   UNL     1      -2.260  30.804  56.650  1.00  0.00     0.000 C 
BRANCH   3   4
ATOM      4  C   UNL     1      -2.293  30.838  55.110  1.00  0.00     0.000 C 
BRANCH   4   5
ATOM      5  C   UNL     1      -1.544  29.658  54.473  1.00  0.00     0.000 C 
BRANCH   5   6
ATOM      6  C   UNL     1      -0.971  28.681  55.517  1.00  0.00     0.000 C 
BRANCH   6   7
ATOM      7  C   UNL     1      -0.736  27.273  54.948  1.00  0.00     0.000 C 
BRANCH   7   8
ATOM      8  C   UNL     1      -0.805  26.179  56.023  1.00  0.00     0.000 C 
BRANCH   8   9
ATOM      9  C   UNL     1      -1.487  26.703  57.297  1.00  0.00     0.000 C 
BRANCH   9  10
ATOM     10  C   UNL     1      -2.621  25.786  57.783  1.00  0.00     0.000 C 
BRANCH  10  11
ATOM     11  C   UNL     1      -3.283  26.294  59.075  1.00  0.00     0.000 C 
BRANCH  11  12
ATOM     12  C   UNL     1      -4.777  25.939  59.150  1.00  0.00     0.000 C 
BRANCH  12  13
ATOM     13  C   UNL     1      -5.286  25.231  57.880  1.00  0.00     0.006 C 
BRANCH  13  14
ATOM     14  C   UNL     1      -6.805  25.016  57.909  1.00  0.00     0.053 C 
BRANCH  14  15
ATOM     15  C   UNL     1      -7.345  24.707  56.545  1.00  0.00     0.041 C 
ATOM     16  O   UNL     1      -7.100  25.473  55.577  1.00  0.00    -0.550 OA
ATOM     17  O   UNL     1      -8.086  23.549  56.337  1.00  0.00    -0.550 OA
ENDBRANCH  14  15
ENDBRANCH  13  14
ENDBRANCH  12  13
ENDBRANCH  11  12
ENDBRANCH  10  11
ENDBRANCH   9  10
ENDBRANCH   8   9
ENDBRANCH   7   8
ENDBRANCH   6   7
ENDBRANCH   5   6
ENDBRANCH   4   5
ENDBRANCH   3   4
ENDBRANCH   2   3
ENDBRANCH   1   2
BRANCH   1  18
ATOM     18  C   UNL     1      -5.452  28.988  56.303  1.00  0.00     0.000 C 
BRANCH  18  19
ATOM     19  C   UNL     1      -5.202  28.477  54.869  1.00  0.00     0.000 C 
BRANCH  19  20
ATOM     20  C   UNL     1      -4.331  27.209  54.774  1.00  0.00     0.000 C 
BRANCH  20  21
ATOM     21  C   UNL     1      -4.322  26.535  53.388  1.00  0.00     0.000 C 
BRANCH  21  22
ATOM     22  C   UNL     1      -3.796  25.084  53.371  1.00  0.00     0.000 C 
BRANCH  22  23
ATOM     23  C   UNL     1      -3.624  24.432  54.756  1.00  0.00     0.000 C 
BRANCH  23  24
ATOM     24  C   UNL     1      -4.249  23.029  54.840  1.00  0.00    -0.000 C 
BRANCH  24  25
ATOM     25  C   UNL     1      -3.572  22.142  55.898  1.00  0.00    -0.000 C 
BRANCH  25  26
ATOM     26  C   UNL     1      -3.285  20.720  55.386  1.00  0.00    -0.000 C 
BRANCH  26  27
ATOM     27  C   UNL     1      -1.791  20.361  55.450  1.00  0.00    -0.000 C 
BRANCH  27  28
ATOM     28  C   UNL     1      -1.052  20.656  54.132  1.00  0.00    -0.000 C 
BRANCH  28  29
ATOM     29  C   UNL     1      -0.173  21.914  54.217  1.00  0.00    -0.000 C 
BRANCH  29  30
ATOM     30  C   UNL     1      -0.701  23.064  53.346  1.00  0.00    -0.000 C 
BRANCH  30  31
ATOM     31  C   UNL     1       0.376  24.136  53.142  1.00  0.00    -0.003 C 
ATOM     32  C   UNL     1      -0.024  25.120  52.046  1.00  0.00     0.004 C 
ENDBRANCH  30  31
ENDBRANCH  29  30
ENDBRANCH  28  29
ENDBRANCH  27  28
ENDBRANCH  26  27
ENDBRANCH  25  26
ENDBRANCH  24  25
ENDBRANCH  23  24
ENDBRANCH  22  23
ENDBRANCH  21  22
ENDBRANCH  20  21
ENDBRANCH  19  20
ENDBRANCH  18  19
ENDBRANCH   1  18
TORSDOF 28
ENDMDL
MODEL 5
REMARK VINA RESULT:    -4.063      2.246      5.547
REMARK INTER + INTRA:         -16.324
REMARK INTER:                 -10.785
REMARK INTRA:                  -5.539
REMARK UNBOUND:                -5.611
REMARK SMILES CCCCCCCCCCCCCCCCCCCCCCCCCCCCCC(=O)[O-]
REMARK SMILES IDX 16 1 17 2 18 3 19 4 20 5 21 6 22 7 23 8 24 9 25 10 26 11
REMARK SMILES IDX 27 12 28 13 29 14 30 15 31 16 32 17 15 18 14 19 13 20 12 21
REMARK SMILES IDX 11 22 10 23 9 24 8 25 7 26 6 27 5 28 4 29 3 30 2 31 1 32
REMARK H PARENT
REMARK Flexibility Score: inf
ROOT
ATOM      1  C   UNL     1      -0.158  32.487  56.281  1.00  0.00     0.000 C 
ENDROOT
BRANCH   1   2
ATOM      2  C   UNL     1      -0.845  32.775  54.933  1.00  0.00     0.000 C 
BRANCH   2   3
ATOM      3  C   UNL     1      -2.124  31.948  54.686  1.00  0.00     0.000 C 
BRANCH   3   4
ATOM      4  C   UNL     1      -2.083  31.163  53.361  1.00  0.00     0.000 C 
BRANCH   4   5
ATOM      5  C   UNL     1      -2.605  29.726  53.507  1.00  0.00     0.000 C 
BRANCH   5   6
ATOM      6  C   UNL     1      -1.479  28.675  53.472  1.00  0.00     0.000 C 
BRANCH   6   7
ATOM      7  C   UNL     1      -1.082  28.183  54.872  1.00  0.00     0.000 C 
BRANCH   7   8
ATOM      8  C   UNL     1      -1.916  26.979  55.336  1.00  0.00     0.000 C 
BRANCH   8   9
ATOM      9  C   UNL     1      -1.233  26.258  56.509  1.00  0.00     0.000 C 
BRANCH   9  10
ATOM     10  C   UNL     1      -2.231  25.510  57.409  1.00  0.00     0.000 C 
BRANCH  10  11
ATOM     11  C   UNL     1      -2.983  26.448  58.368  1.00  0.00     0.000 C 
BRANCH  11  12
ATOM     12  C   UNL     1      -4.228  25.787  58.981  1.00  0.00     0.000 C 
BRANCH  12  13
ATOM     13  C   UNL     1      -5.531  26.194  58.268  1.00  0.00     0.006 C 
BRANCH  13  14
ATOM     14  C   UNL     1      -6.582  25.076  58.303  1.00  0.00     0.053 C 
BRANCH  14  15
ATOM     15  C   UNL     1      -7.191  24.846  56.952  1.00  0.00     0.041 C 
ATOM     16  O   UNL     1      -7.808  23.777  56.708  1.00  0.00    -0.550 OA
ATOM     17  O   UNL     1      -7.109  25.833  55.976  1.00  0.00    -0.550 OA
ENDBRANCH  14  15
ENDBRANCH  13  14
ENDBRANCH  12  13
ENDBRANCH  11  12
ENDBRANCH  10  11
ENDBRANCH   9  10
ENDBRANCH   8   9
ENDBRANCH   7   8
ENDBRANCH   6   7
ENDBRANCH   5   6
ENDBRANCH   4   5
ENDBRANCH   3   4
ENDBRANCH   2   3
ENDBRANCH   1   2
BRANCH   1  18
ATOM     18  C   UNL     1      -0.026  30.997  56.650  1.00  0.00     0.000 C 
BRANCH  18  19
ATOM     19  C   UNL     1      -0.327  30.654  58.123  1.00  0.00     0.000 C 
BRANCH  19  20
ATOM     20  C   UNL     1      -1.451  29.620  58.332  1.00  0.00     0.000 C 
BRANCH  20  21
ATOM     21  C   UNL     1      -2.814  30.221  58.728  1.00  0.00     0.000 C 
BRANCH  21  22
ATOM     22  C   UNL     1      -3.730  30.602  57.546  1.00  0.00     0.000 C 
BRANCH  22  23
ATOM     23  C   UNL     1      -4.199  29.424  56.673  1.00  0.00     0.000 C 
BRANCH  23  24
ATOM     24  C   UNL     1      -5.506  29.720  55.918  1.00  0.00    -0.000 C 
BRANCH  24  25
ATOM     25  C   UNL     1      -6.135  31.062  56.328  1.00  0.00    -0.000 C 
BRANCH  25  26
ATOM     26  C   UNL     1      -6.596  31.896  55.120  1.00  0.00    -0.000 C 
BRANCH  26  27
ATOM     27  C   UNL     1      -5.783  31.597  53.851  1.00  0.00    -0.000 C 
BRANCH  27  28
ATOM     28  C   UNL     1      -5.386  32.872  53.085  1.00  0.00    -0.000 C 
BRANCH  28  29
ATOM     29  C   UNL     1      -5.411  34.126  53.972  1.00  0.00    -0.000 C 
BRANCH  29  30
ATOM     30  C   UNL     1      -4.092  34.913  53.921  1.00  0.00    -0.000 C 
BRANCH  30  31
ATOM     31  C   UNL     1      -3.396  34.729  52.568  1.00  0.00    -0.003 C 
ATOM     32  C   UNL     1      -2.199  35.666  52.430  1.00  0.00     0.004 C 
ENDBRANCH  30  31
ENDBRANCH  29  30
ENDBRANCH  28  29
ENDBRANCH  27  28
ENDBRANCH  26  27
ENDBRANCH  25  26
ENDBRANCH  24  25
ENDBRANCH  23  24
ENDBRANCH  22  23
ENDBRANCH  21  22
ENDBRANCH  20  21
ENDBRANCH  19  20
ENDBRANCH  18  19
ENDBRANCH   1  18
TORSDOF 28
ENDMDL
MODEL 6
REMARK VINA RESULT:    -4.062      1.952      6.807
REMARK INTER + INTRA:         -16.323
REMARK INTER:                 -11.286
REMARK INTRA:                  -5.036
REMARK UNBOUND:                -5.611
REMARK SMILES CCCCCCCCCCCCCCCCCCCCCCCCCCCCCC(=O)[O-]
REMARK SMILES IDX 16 1 17 2 18 3 19 4 20 5 21 6 22 7 23 8 24 9 25 10 26 11
REMARK SMILES IDX 27 12 28 13 29 14 30 15 31 16 32 17 15 18 14 19 13 20 12 21
REMARK SMILES IDX 11 22 10 23 9 24 8 25 7 26 6 27 5 28 4 29 3 30 2 31 1 32
REMARK H PARENT
REMARK Flexibility Score: inf
ROOT
ATOM      1  C   UNL     1      -1.141  25.884  56.254  1.00  0.00     0.000 C 
ENDROOT
BRANCH   1   2
ATOM      2  C   UNL     1      -0.253  26.414  55.112  1.00  0.00     0.000 C 
BRANCH   2   3
ATOM      3  C   UNL     1      -1.034  26.841  53.851  1.00  0.00     0.000 C 
BRANCH   3   4
ATOM      4  C   UNL     1      -1.213  28.367  53.746  1.00  0.00     0.000 C 
BRANCH   4   5
ATOM      5  C   UNL     1      -2.679  28.780  53.544  1.00  0.00     0.000 C 
BRANCH   5   6
ATOM      6  C   UNL     1      -3.057  30.047  54.334  1.00  0.00     0.000 C 
BRANCH   6   7
ATOM      7  C   UNL     1      -1.950  30.497  55.300  1.00  0.00     0.000 C 
BRANCH   7   8
ATOM      8  C   UNL     1      -1.942  32.016  55.526  1.00  0.00     0.000 C 
BRANCH   8   9
ATOM      9  C   UNL     1      -1.856  32.770  54.190  1.00  0.00     0.000 C 
BRANCH   9  10
ATOM     10  C   UNL     1      -2.401  34.205  54.280  1.00  0.00     0.000 C 
BRANCH  10  11
ATOM     11  C   UNL     1      -3.916  34.281  54.030  1.00  0.00     0.000 C 
BRANCH  11  12
ATOM     12  C   UNL     1      -4.377  33.329  52.913  1.00  0.00     0.000 C 
BRANCH  12  13
ATOM     13  C   UNL     1      -5.528  32.406  53.354  1.00  0.00     0.006 C 
BRANCH  13  14
ATOM     14  C   UNL     1      -5.778  32.477  54.866  1.00  0.00     0.053 C 
BRANCH  14  15
ATOM     15  C   UNL     1      -6.874  31.546  55.290  1.00  0.00     0.041 C 
ATOM     16  O   UNL     1      -6.786  30.916  56.376  1.00  0.00    -0.550 OA
ATOM     17  O   UNL     1      -8.010  31.405  54.502  1.00  0.00    -0.550 OA
ENDBRANCH  14  15
ENDBRANCH  13  14
ENDBRANCH  12  13
ENDBRANCH  11  12
ENDBRANCH  10  11
ENDBRANCH   9  10
ENDBRANCH   8   9
ENDBRANCH   7   8
ENDBRANCH   6   7
ENDBRANCH   5   6
ENDBRANCH   4   5
ENDBRANCH   3   4
ENDBRANCH   2   3
ENDBRANCH   1   2
BRANCH   1  18
ATOM     18  C   UNL     1      -1.550  26.928  57.310  1.00  0.00     0.000 C 
BRANCH  18  19
ATOM     19  C   UNL     1      -2.622  26.461  58.316  1.00  0.00     0.000 C 
BRANCH  19  20
ATOM     20  C   UNL     1      -3.721  27.497  58.621  1.00  0.00     0.000 C 
BRANCH  20  21
ATOM     21  C   UNL     1      -4.126  28.380  57.424  1.00  0.00     0.000 C 
BRANCH  21  22
ATOM     22  C   UNL     1      -5.276  27.823  56.560  1.00  0.00     0.000 C 
BRANCH  22  23
ATOM     23  C   UNL     1      -4.841  26.913  55.396  1.00  0.00     0.000 C 
BRANCH  23  24
ATOM     24  C   UNL     1      -5.513  25.530  55.433  1.00  0.00    -0.000 C 
BRANCH  24  25
ATOM     25  C   UNL     1      -4.545  24.413  55.858  1.00  0.00    -0.000 C 
BRANCH  25  26
ATOM     26  C   UNL     1      -5.089  23.567  57.023  1.00  0.00    -0.000 C 
BRANCH  26  27
ATOM     27  C   UNL     1      -5.527  24.425  58.221  1.00  0.00    -0.000 C 
BRANCH  27  28
ATOM     28  C   UNL     1      -7.057  24.510  58.362  1.00  0.00    -0.000 C 
BRANCH  28  29
ATOM     29  C   UNL     1      -7.547  25.942  58.633  1.00  0.00    -0.000 C 
BRANCH  29  30
ATOM     30  C   UNL     1      -8.079  26.124  60.063  1.00  0.00    -0.000 C 
BRANCH  30  31
ATOM     31  C   UNL     1      -6.935  26.088  61.082  1.00  0.00    -0.003 C 
ATOM     32  C   UNL     1      -7.466  25.927  62.504  1.00  0.00     0.004 C 
ENDBRANCH  30  31
ENDBRANCH  29  30
ENDBRANCH  28  29
ENDBRANCH  27  28
ENDBRANCH  26  27
ENDBRANCH  25  26
ENDBRANCH  24  25
ENDBRANCH  23  24
ENDBRANCH  22  23
ENDBRANCH  21  22
ENDBRANCH  20  21
ENDBRANCH  19  20
ENDBRANCH  18  19
ENDBRANCH   1  18
TORSDOF 28
ENDMDL
MODEL 7
REMARK VINA RESULT:    -3.967      2.446      4.815
REMARK INTER + INTRA:         -16.072
REMARK INTER:                  -9.979
REMARK INTRA:                  -6.093
REMARK UNBOUND:                -5.611
REMARK SMILES CCCCCCCCCCCCCCCCCCCCCCCCCCCCCC(=O)[O-]
REMARK SMILES IDX 16 1 17 2 18 3 19 4 20 5 21 6 22 7 23 8 24 9 25 10 26 11
REMARK SMILES IDX 27 12 28 13 29 14 30 15 31 16 32 17 15 18 14 19 13 20 12 21
REMARK SMILES IDX 11 22 10 23 9 24 8 25 7 26 6 27 5 28 4 29 3 30 2 31 1 32
REMARK H PARENT
REMARK Flexibility Score: inf
ROOT
ATOM      1  C   UNL     1      -5.762  24.560  54.799  1.00  0.00     0.000 C 
ENDROOT
BRANCH   1   2
ATOM      2  C   UNL     1      -6.620  24.236  56.036  1.00  0.00     0.000 C 
BRANCH   2   3
ATOM      3  C   UNL     1      -6.879  25.443  56.960  1.00  0.00     0.000 C 
BRANCH   3   4
ATOM      4  C   UNL     1      -6.028  26.673  56.594  1.00  0.00     0.000 C 
BRANCH   4   5
ATOM      5  C   UNL     1      -5.159  27.164  57.762  1.00  0.00     0.000 C 
BRANCH   5   6
ATOM      6  C   UNL     1      -4.570  26.010  58.594  1.00  0.00     0.000 C 
BRANCH   6   7
ATOM      7  C   UNL     1      -3.260  26.394  59.299  1.00  0.00     0.000 C 
BRANCH   7   8
ATOM      8  C   UNL     1      -3.028  27.912  59.335  1.00  0.00     0.000 C 
BRANCH   8   9
ATOM      9  C   UNL     1      -1.650  28.271  58.758  1.00  0.00     0.000 C 
BRANCH   9  10
ATOM     10  C   UNL     1      -1.701  29.475  57.803  1.00  0.00     0.000 C 
BRANCH  10  11
ATOM     11  C   UNL     1      -3.055  30.203  57.838  1.00  0.00     0.000 C 
BRANCH  11  12
ATOM     12  C   UNL     1      -3.515  30.657  56.443  1.00  0.00     0.000 C 
BRANCH  12  13
ATOM     13  C   UNL     1      -4.976  31.145  56.427  1.00  0.00     0.006 C 
BRANCH  13  14
ATOM     14  C   UNL     1      -5.803  30.457  55.333  1.00  0.00     0.053 C 
BRANCH  14  15
ATOM     15  C   UNL     1      -6.902  31.344  54.831  1.00  0.00     0.041 C 
ATOM     16  O   UNL     1      -6.803  31.904  53.708  1.00  0.00    -0.550 OA
ATOM     17  O   UNL     1      -8.055  31.519  55.588  1.00  0.00    -0.550 OA
ENDBRANCH  14  15
ENDBRANCH  13  14
ENDBRANCH  12  13
ENDBRANCH  11  12
ENDBRANCH  10  11
ENDBRANCH   9  10
ENDBRANCH   8   9
ENDBRANCH   7   8
ENDBRANCH   6   7
ENDBRANCH   5   6
ENDBRANCH   4   5
ENDBRANCH   3   4
ENDBRANCH   2   3
ENDBRANCH   1   2
BRANCH   1  18
ATOM     18  C   UNL     1      -4.541  23.646  54.585  1.00  0.00     0.000 C 
BRANCH  18  19
ATOM     19  C   UNL     1      -4.146  22.780  55.798  1.00  0.00     0.000 C 
BRANCH  19  20
ATOM     20  C   UNL     1      -2.646  22.438  55.892  1.00  0.00     0.000 C 
BRANCH  20  21
ATOM     21  C   UNL     1      -2.139  21.458  54.815  1.00  0.00     0.000 C 
BRANCH  21  22
ATOM     22  C   UNL     1      -1.020  22.008  53.906  1.00  0.00     0.000 C 
BRANCH  22  23
ATOM     23  C   UNL     1      -0.925  23.544  53.837  1.00  0.00     0.000 C 
BRANCH  23  24
ATOM     24  C   UNL     1       0.341  24.097  54.513  1.00  0.00    -0.000 C 
BRANCH  24  25
ATOM     25  C   UNL     1       0.149  25.525  55.050  1.00  0.00    -0.000 C 
BRANCH  25  26
ATOM     26  C   UNL     1      -0.802  25.582  56.259  1.00  0.00    -0.000 C 
BRANCH  26  27
ATOM     27  C   UNL     1      -2.205  26.084  55.883  1.00  0.00    -0.000 C 
BRANCH  27  28
ATOM     28  C   UNL     1      -2.168  27.279  54.913  1.00  0.00    -0.000 C 
BRANCH  28  29
ATOM     29  C   UNL     1      -3.402  27.337  53.998  1.00  0.00    -0.000 C 
BRANCH  29  30
ATOM     30  C   UNL     1      -3.180  26.614  52.660  1.00  0.00    -0.000 C 
BRANCH  30  31
ATOM     31  C   UNL     1      -1.746  26.817  52.159  1.00  0.00    -0.003 C 
ATOM     32  C   UNL     1      -1.675  26.730  50.637  1.00  0.00     0.004 C 
ENDBRANCH  30  31
ENDBRANCH  29  30
ENDBRANCH  28  29
ENDBRANCH  27  28
ENDBRANCH  26  27
ENDBRANCH  25  26
ENDBRANCH  24  25
ENDBRANCH  23  24
ENDBRANCH  22  23
ENDBRANCH  21  22
ENDBRANCH  20  21
ENDBRANCH  19  20
ENDBRANCH  18  19
ENDBRANCH   1  18
TORSDOF 28
ENDMDL
MODEL 8
REMARK VINA RESULT:    -3.938      2.084      7.217
REMARK INTER + INTRA:         -15.996
REMARK INTER:                 -10.517
REMARK INTRA:                  -5.480
REMARK UNBOUND:                -5.611
REMARK SMILES CCCCCCCCCCCCCCCCCCCCCCCCCCCCCC(=O)[O-]
REMARK SMILES IDX 16 1 17 2 18 3 19 4 20 5 21 6 22 7 23 8 24 9 25 10 26 11
REMARK SMILES IDX 27 12 28 13 29 14 30 15 31 16 32 17 15 18 14 19 13 20 12 21
REMARK SMILES IDX 11 22 10 23 9 24 8 25 7 26 6 27 5 28 4 29 3 30 2 31 1 32
REMARK H PARENT
REMARK Flexibility Score: inf
ROOT
ATOM      1  C   UNL     1      -2.327  27.362  58.589  1.00  0.00     0.000 C 
ENDROOT
BRANCH   1   2
ATOM      2  C   UNL     1      -2.256  28.510  59.613  1.00  0.00     0.000 C 
BRANCH   2   3
ATOM      3  C   UNL     1      -1.824  29.865  59.015  1.00  0.00     0.000 C 
BRANCH   3   4
ATOM      4  C   UNL     1      -2.768  30.359  57.903  1.00  0.00     0.000 C 
BRANCH   4   5
ATOM      5  C   UNL     1      -2.021  30.745  56.618  1.00  0.00     0.000 C 
BRANCH   5   6
ATOM      6  C   UNL     1      -0.894  29.758  56.262  1.00  0.00     0.000 C 
BRANCH   6   7
ATOM      7  C   UNL     1      -1.171  28.983  54.964  1.00  0.00     0.000 C 
BRANCH   7   8
ATOM      8  C   UNL     1      -1.182  27.462  55.171  1.00  0.00     0.000 C 
BRANCH   8   9
ATOM      9  C   UNL     1      -2.549  26.867  54.800  1.00  0.00     0.000 C 
BRANCH   9  10
ATOM     10  C   UNL     1      -3.538  27.926  54.286  1.00  0.00     0.000 C 
BRANCH  10  11
ATOM     11  C   UNL     1      -4.902  27.857  54.993  1.00  0.00     0.000 C 
BRANCH  11  12
ATOM     12  C   UNL     1      -5.224  29.140  55.778  1.00  0.00     0.000 C 
BRANCH  12  13
ATOM     13  C   UNL     1      -5.980  30.182  54.933  1.00  0.00     0.006 C 
BRANCH  13  14
ATOM     14  C   UNL     1      -5.116  31.411  54.622  1.00  0.00     0.053 C 
BRANCH  14  15
ATOM     15  C   UNL     1      -5.906  32.482  53.933  1.00  0.00     0.041 C 
ATOM     16  O   UNL     1      -7.048  32.229  53.469  1.00  0.00    -0.550 OA
ATOM     17  O   UNL     1      -5.394  33.771  53.838  1.00  0.00    -0.550 OA
ENDBRANCH  14  15
ENDBRANCH  13  14
ENDBRANCH  12  13
ENDBRANCH  11  12
ENDBRANCH  10  11
ENDBRANCH   9  10
ENDBRANCH   8   9
ENDBRANCH   7   8
ENDBRANCH   6   7
ENDBRANCH   5   6
ENDBRANCH   4   5
ENDBRANCH   3   4
ENDBRANCH   2   3
ENDBRANCH   1   2
BRANCH   1  18
ATOM     18  C   UNL     1      -3.726  26.752  58.376  1.00  0.00     0.000 C 
BRANCH  18  19
ATOM     19  C   UNL     1      -4.441  26.281  59.659  1.00  0.00     0.000 C 
BRANCH  19  20
ATOM     20  C   UNL     1      -5.980  26.278  59.581  1.00  0.00     0.000 C 
BRANCH  20  21
ATOM     21  C   UNL     1      -6.555  26.576  58.182  1.00  0.00     0.000 C 
BRANCH  21  22
ATOM     22  C   UNL     1      -7.163  25.359  57.452  1.00  0.00     0.000 C 
BRANCH  22  23
ATOM     23  C   UNL     1      -6.547  23.997  57.823  1.00  0.00     0.000 C 
BRANCH  23  24
ATOM     24  C   UNL     1      -5.271  23.680  57.024  1.00  0.00    -0.000 C 
BRANCH  24  25
ATOM     25  C   UNL     1      -5.318  24.231  55.590  1.00  0.00    -0.000 C 
BRANCH  25  26
ATOM     26  C   UNL     1      -4.388  23.469  54.630  1.00  0.00    -0.000 C 
BRANCH  26  27
ATOM     27  C   UNL     1      -3.935  22.114  55.198  1.00  0.00    -0.000 C 
BRANCH  27  28
ATOM     28  C   UNL     1      -2.410  21.918  55.121  1.00  0.00    -0.000 C 
BRANCH  28  29
ATOM     29  C   UNL     1      -1.631  23.208  55.427  1.00  0.00    -0.000 C 
BRANCH  29  30
ATOM     30  C   UNL     1      -0.481  23.453  54.440  1.00  0.00    -0.000 C 
BRANCH  30  31
ATOM     31  C   UNL     1       0.623  24.300  55.083  1.00  0.00    -0.003 C 
ATOM     32  C   UNL     1       1.423  25.059  54.029  1.00  0.00     0.004 C 
ENDBRANCH  30  31
ENDBRANCH  29  30
ENDBRANCH  28  29
ENDBRANCH  27  28
ENDBRANCH  26  27
ENDBRANCH  25  26
ENDBRANCH  24  25
ENDBRANCH  23  24
ENDBRANCH  22  23
ENDBRANCH  21  22
ENDBRANCH  20  21
ENDBRANCH  19  20
ENDBRANCH  18  19
ENDBRANCH   1  18
TORSDOF 28
ENDMDL
MODEL 9
REMARK VINA RESULT:    -3.934      1.894      6.929
REMARK INTER + INTRA:         -15.985
REMARK INTER:                 -10.274
REMARK INTRA:                  -5.711
REMARK UNBOUND:                -5.611
REMARK SMILES CCCCCCCCCCCCCCCCCCCCCCCCCCCCCC(=O)[O-]
REMARK SMILES IDX 16 1 17 2 18 3 19 4 20 5 21 6 22 7 23 8 24 9 25 10 26 11
REMARK SMILES IDX 27 12 28 13 29 14 30 15 31 16 32 17 15 18 14 19 13 20 12 21
REMARK SMILES IDX 11 22 10 23 9 24 8 25 7 26 6 27 5 28 4 29 3 30 2 31 1 32
REMARK H PARENT
REMARK Flexibility Score: inf
ROOT
ATOM      1  C   UNL     1      -2.244  27.375  58.493  1.00  0.00     0.000 C 
ENDROOT
BRANCH   1   2
ATOM      2  C   UNL     1      -1.816  28.620  59.293  1.00  0.00     0.000 C 
BRANCH   2   3
ATOM      3  C   UNL     1      -2.153  29.959  58.605  1.00  0.00     0.000 C 
BRANCH   3   4
ATOM      4  C   UNL     1      -0.990  30.506  57.757  1.00  0.00     0.000 C 
BRANCH   4   5
ATOM      5  C   UNL     1      -1.391  30.768  56.297  1.00  0.00     0.000 C 
BRANCH   5   6
ATOM      6  C   UNL     1      -1.355  29.496  55.431  1.00  0.00     0.000 C 
BRANCH   6   7
ATOM      7  C   UNL     1      -2.632  29.309  54.596  1.00  0.00     0.000 C 
BRANCH   7   8
ATOM      8  C   UNL     1      -3.634  28.346  55.251  1.00  0.00     0.000 C 
BRANCH   8   9
ATOM      9  C   UNL     1      -5.009  29.012  55.411  1.00  0.00     0.000 C 
BRANCH   9  10
ATOM     10  C   UNL     1      -5.009  30.132  56.464  1.00  0.00     0.000 C 
BRANCH  10  11
ATOM     11  C   UNL     1      -5.689  31.417  55.963  1.00  0.00     0.000 C 
BRANCH  11  12
ATOM     12  C   UNL     1      -6.510  31.189  54.683  1.00  0.00     0.000 C 
BRANCH  12  13
ATOM     13  C   UNL     1      -6.101  32.132  53.536  1.00  0.00     0.006 C 
BRANCH  13  14
ATOM     14  C   UNL     1      -4.633  32.566  53.642  1.00  0.00     0.053 C 
BRANCH  14  15
ATOM     15  C   UNL     1      -4.460  34.018  53.313  1.00  0.00     0.041 C 
ATOM     16  O   UNL     1      -4.178  34.374  52.139  1.00  0.00    -0.550 OA
ATOM     17  O   UNL     1      -4.652  34.981  54.297  1.00  0.00    -0.550 OA
ENDBRANCH  14  15
ENDBRANCH  13  14
ENDBRANCH  12  13
ENDBRANCH  11  12
ENDBRANCH  10  11
ENDBRANCH   9  10
ENDBRANCH   8   9
ENDBRANCH   7   8
ENDBRANCH   6   7
ENDBRANCH   5   6
ENDBRANCH   4   5
ENDBRANCH   3   4
ENDBRANCH   2   3
ENDBRANCH   1   2
BRANCH   1  18
ATOM     18  C   UNL     1      -3.383  26.547  59.119  1.00  0.00     0.000 C 
BRANCH  18  19
ATOM     19  C   UNL     1      -4.689  26.499  58.300  1.00  0.00     0.000 C 
BRANCH  19  20
ATOM     20  C   UNL     1      -5.646  25.349  58.670  1.00  0.00     0.000 C 
BRANCH  20  21
ATOM     21  C   UNL     1      -5.824  24.280  57.574  1.00  0.00     0.000 C 
BRANCH  21  22
ATOM     22  C   UNL     1      -7.177  24.325  56.831  1.00  0.00     0.000 C 
BRANCH  22  23
ATOM     23  C   UNL     1      -7.091  24.660  55.331  1.00  0.00     0.000 C 
BRANCH  23  24
ATOM     24  C   UNL     1      -5.768  25.342  54.944  1.00  0.00    -0.000 C 
BRANCH  24  25
ATOM     25  C   UNL     1      -5.174  24.784  53.640  1.00  0.00    -0.000 C 
BRANCH  25  26
ATOM     26  C   UNL     1      -5.513  23.300  53.420  1.00  0.00    -0.000 C 
BRANCH  26  27
ATOM     27  C   UNL     1      -4.457  22.358  54.020  1.00  0.00    -0.000 C 
BRANCH  27  28
ATOM     28  C   UNL     1      -3.094  23.045  54.221  1.00  0.00    -0.000 C 
BRANCH  28  29
ATOM     29  C   UNL     1      -2.625  23.013  55.684  1.00  0.00    -0.000 C 
BRANCH  29  30
ATOM     30  C   UNL     1      -2.319  24.412  56.238  1.00  0.00    -0.000 C 
BRANCH  30  31
ATOM     31  C   UNL     1      -1.774  25.330  55.138  1.00  0.00    -0.003 C 
ATOM     32  C   UNL     1      -0.410  25.899  55.519  1.00  0.00     0.004 C 
ENDBRANCH  30  31
ENDBRANCH  29  30
ENDBRANCH  28  29
ENDBRANCH  27  28
ENDBRANCH  26  27
ENDBRANCH  25  26
ENDBRANCH  24  25
ENDBRANCH  23  24
ENDBRANCH  22  23
ENDBRANCH  21  22
ENDBRANCH  20  21
ENDBRANCH  19  20
ENDBRANCH  18  19
ENDBRANCH   1  18
TORSDOF 28
ENDMDL
