MODEL 1
REMARK VINA RESULT:     8.162      0.000      0.000
REMARK INTER + INTRA:          12.376
REMARK INTER:                  12.934
REMARK INTRA:                  -0.558
REMARK UNBOUND:                -0.558
REMARK SMILES CCCCCCCCCCCC(=O)[O-]
REMARK SMILES IDX 7 1 8 2 9 3 10 4 11 5 12 6 13 7 14 8 6 9 5 10 4 11 3 12 2 13
REMARK SMILES IDX 1 14
REMARK H PARENT
REMARK Flexibility Score: inf
ROOT
ATOM      1  C   UNL     1      16.902  17.508  17.155  1.00  0.00     0.000 C 
ENDROOT
BRANCH   1   2
ATOM      2  C   UNL     1      16.038  17.931  18.354  1.00  0.00     0.000 C 
BRANCH   2   3
ATOM      3  C   UNL     1      16.182  16.935  19.513  1.00  0.00     0.000 C 
BRANCH   3   4
ATOM      4  C   UNL     1      17.635  16.784  20.001  1.00  0.00     0.006 C 
BRANCH   4   5
ATOM      5  C   UNL     1      18.067  17.856  21.018  1.00  0.00     0.053 C 
BRANCH   5   6
ATOM      6  C   UNL     1      19.500  18.263  20.849  1.00  0.00     0.041 C 
ATOM      7  O   UNL     1      20.149  17.891  19.836  1.00  0.00    -0.550 OA
ATOM      8  O   UNL     1      20.130  19.024  21.827  1.00  0.00    -0.550 OA
ENDBRANCH   5   6
ENDBRANCH   4   5
ENDBRANCH   3   4
ENDBRANCH   2   3
ENDBRANCH   1   2
BRANCH   1   9
ATOM      9  C   UNL     1      16.205  17.750  15.807  1.00  0.00     0.000 C 
BRANCH   9  10
ATOM     10  C   UNL     1      16.875  16.987  14.650  1.00  0.00    -0.000 C 
BRANCH  10  11
ATOM     11  C   UNL     1      18.041  17.768  14.016  1.00  0.00    -0.000 C 
BRANCH  11  12
ATOM     12  C   UNL     1      17.816  19.287  13.875  1.00  0.00    -0.000 C 
BRANCH  12  13
ATOM     13  C   UNL     1      18.699  20.162  14.781  1.00  0.00    -0.003 C 
ATOM     14  C   UNL     1      19.476  21.226  14.007  1.00  0.00     0.004 C 
ENDBRANCH  12  13
ENDBRANCH  11  12
ENDBRANCH  10  11
ENDBRANCH   9  10
ENDBRANCH   1   9
TORSDOF 10
ENDMDL
MODEL 2
REMARK VINA RESULT:     9.112      0.568      1.423
REMARK INTER + INTRA:          13.881
REMARK INTER:                  14.520
REMARK INTRA:                  -0.640
REMARK UNBOUND:                -0.558
REMARK SMILES CCCCCCCCCCCC(=O)[O-]
REMARK SMILES IDX 7 1 8 2 9 3 10 4 11 5 12 6 13 7 14 8 6 9 5 10 4 11 3 12 2 13
REMARK SMILES IDX 1 14
REMARK H PARENT
REMARK Flexibility Score: inf
ROOT
ATOM      1  C   UNL     1      15.898  18.362  18.059  1.00  0.00     0.000 C 
ENDROOT
BRANCH   1   2
ATOM      2  C   UNL     1      15.876  17.746  19.468  1.00  0.00     0.000 C 
BRANCH   2   3
ATOM      3  C   UNL     1      16.731  16.472  19.524  1.00  0.00     0.000 C 
BRANCH   3   4
ATOM      4  C   UNL     1      18.049  16.666  20.297  1.00  0.00     0.006 C 
BRANCH   4   5
ATOM      5  C   UNL     1      18.447  18.139  20.496  1.00  0.00     0.053 C 
BRANCH   5   6
ATOM      6  C   UNL     1      19.891  18.300  20.864  1.00  0.00     0.041 C 
ATOM      7  O   UNL     1      20.209  18.790  21.980  1.00  0.00    -0.550 OA
ATOM      8  O   UNL     1      20.887  17.941  19.964  1.00  0.00    -0.550 OA
ENDBRANCH   5   6
ENDBRANCH   4   5
ENDBRANCH   3   4
ENDBRANCH   2   3
ENDBRANCH   1   2
BRANCH   1   9
ATOM      9  C   UNL     1      16.766  17.562  17.075  1.00  0.00     0.000 C 
BRANCH   9  10
ATOM     10  C   UNL     1      16.196  17.568  15.645  1.00  0.00    -0.000 C 
BRANCH  10  11
ATOM     11  C   UNL     1      17.128  16.884  14.628  1.00  0.00    -0.000 C 
BRANCH  11  12
ATOM     12  C   UNL     1      18.196  17.799  13.996  1.00  0.00    -0.000 C 
BRANCH  12  13
ATOM     13  C   UNL     1      17.795  19.280  13.876  1.00  0.00    -0.003 C 
ATOM     14  C   UNL     1      18.752  20.216  14.612  1.00  0.00     0.004 C 
ENDBRANCH  12  13
ENDBRANCH  11  12
ENDBRANCH  10  11
ENDBRANCH   9  10
ENDBRANCH   1   9
TORSDOF 10
ENDMDL
MODEL 3
REMARK VINA RESULT:     9.201      3.246      7.039
REMARK INTER + INTRA:          14.023
REMARK INTER:                  14.335
REMARK INTRA:                  -0.312
REMARK UNBOUND:                -0.558
REMARK SMILES CCCCCCCCCCCC(=O)[O-]
REMARK SMILES IDX 7 1 8 2 9 3 10 4 11 5 12 6 13 7 14 8 6 9 5 10 4 11 3 12 2 13
REMARK SMILES IDX 1 14
REMARK H PARENT
REMARK Flexibility Score: inf
ROOT
ATOM      1  C   UNL     1      18.120  17.077  20.059  1.00  0.00     0.000 C 
ENDROOT
BRANCH   1   2
ATOM      2  C   UNL     1      16.926  17.907  19.561  1.00  0.00     0.000 C 
BRANCH   2   3
ATOM      3  C   UNL     1      16.341  17.312  18.273  1.00  0.00     0.000 C 
BRANCH   3   4
ATOM      4  C   UNL     1      17.288  17.442  17.065  1.00  0.00     0.006 C 
BRANCH   4   5
ATOM      5  C   UNL     1      16.563  17.559  15.712  1.00  0.00     0.053 C 
BRANCH   5   6
ATOM      6  C   UNL     1      17.482  17.347  14.547  1.00  0.00     0.041 C 
ATOM      7  O   UNL     1      18.007  18.334  13.967  1.00  0.00    -0.550 OA
ATOM      8  O   UNL     1      17.734  16.063  14.079  1.00  0.00    -0.550 OA
ENDBRANCH   5   6
ENDBRANCH   4   5
ENDBRANCH   3   4
ENDBRANCH   2   3
ENDBRANCH   1   2
BRANCH   1   9
ATOM      9  C   UNL     1      19.399  17.914  20.219  1.00  0.00     0.000 C 
BRANCH   9  10
ATOM     10  C   UNL     1      19.371  18.802  21.475  1.00  0.00    -0.000 C 
BRANCH  10  11
ATOM     11  C   UNL     1      20.716  18.819  22.224  1.00  0.00    -0.000 C 
BRANCH  11  12
ATOM     12  C   UNL     1      20.632  19.192  23.718  1.00  0.00    -0.000 C 
BRANCH  12  13
ATOM     13  C   UNL     1      21.191  20.581  24.075  1.00  0.00    -0.003 C 
ATOM     14  C   UNL     1      22.628  20.529  24.592  1.00  0.00     0.004 C 
ENDBRANCH  12  13
ENDBRANCH  11  12
ENDBRANCH  10  11
ENDBRANCH   9  10
ENDBRANCH   1   9
TORSDOF 10
ENDMDL
MODEL 4
REMARK VINA RESULT:     9.328      3.191      6.226
REMARK INTER + INTRA:          14.223
REMARK INTER:                  14.680
REMARK INTRA:                  -0.458
REMARK UNBOUND:                -0.558
REMARK SMILES CCCCCCCCCCCC(=O)[O-]
REMARK SMILES IDX 7 1 8 2 9 3 10 4 11 5 12 6 13 7 14 8 6 9 5 10 4 11 3 12 2 13
REMARK SMILES IDX 1 14
REMARK H PARENT
REMARK Flexibility Score: inf
ROOT
ATOM      1  C   UNL     1      17.990  17.106  19.595  1.00  0.00     0.000 C 
ENDROOT
BRANCH   1   2
ATOM      2  C   UNL     1      16.475  17.264  19.387  1.00  0.00     0.000 C 
BRANCH   2   3
ATOM      3  C   UNL     1      16.172  17.904  18.025  1.00  0.00     0.000 C 
BRANCH   3   4
ATOM      4  C   UNL     1      17.115  17.421  16.908  1.00  0.00     0.006 C 
BRANCH   4   5
ATOM      5  C   UNL     1      16.472  17.405  15.510  1.00  0.00     0.053 C 
BRANCH   5   6
ATOM      6  C   UNL     1      17.488  17.335  14.410  1.00  0.00     0.041 C 
ATOM      7  O   UNL     1      17.845  16.220  13.949  1.00  0.00    -0.550 OA
ATOM      8  O   UNL     1      18.066  18.499  13.917  1.00  0.00    -0.550 OA
ENDBRANCH   5   6
ENDBRANCH   4   5
ENDBRANCH   3   4
ENDBRANCH   2   3
ENDBRANCH   1   2
BRANCH   1   9
ATOM      9  C   UNL     1      18.482  17.758  20.897  1.00  0.00     0.000 C 
BRANCH   9  10
ATOM     10  C   UNL     1      19.826  18.486  20.723  1.00  0.00    -0.000 C 
BRANCH  10  11
ATOM     11  C   UNL     1      20.828  17.691  19.865  1.00  0.00    -0.000 C 
BRANCH  11  12
ATOM     12  C   UNL     1      22.286  18.190  19.926  1.00  0.00    -0.000 C 
BRANCH  12  13
ATOM     13  C   UNL     1      23.160  17.516  20.998  1.00  0.00    -0.003 C 
ATOM     14  C   UNL     1      24.387  18.346  21.373  1.00  0.00     0.004 C 
ENDBRANCH  12  13
ENDBRANCH  11  12
ENDBRANCH  10  11
ENDBRANCH   9  10
ENDBRANCH   1   9
TORSDOF 10
ENDMDL
MODEL 5
REMARK VINA RESULT:     9.710      2.816      5.836
REMARK INTER + INTRA:          14.829
REMARK INTER:                  15.225
REMARK INTRA:                  -0.396
REMARK UNBOUND:                -0.558
REMARK SMILES CCCCCCCCCCCC(=O)[O-]
REMARK SMILES IDX 7 1 8 2 9 3 10 4 11 5 12 6 13 7 14 8 6 9 5 10 4 11 3 12 2 13
REMARK SMILES IDX 1 14
REMARK H PARENT
REMARK Flexibility Score: inf
ROOT
ATOM      1  C   UNL     1      16.311  17.969  18.660  1.00  0.00     0.000 C 
ENDROOT
BRANCH   1   2
ATOM      2  C   UNL     1      16.034  17.503  17.222  1.00  0.00     0.000 C 
BRANCH   2   3
ATOM      3  C   UNL     1      17.338  17.396  16.418  1.00  0.00     0.000 C 
BRANCH   3   4
ATOM      4  C   UNL     1      17.104  17.082  14.929  1.00  0.00     0.006 C 
BRANCH   4   5
ATOM      5  C   UNL     1      17.963  17.926  13.970  1.00  0.00     0.053 C 
BRANCH   5   6
ATOM      6  C   UNL     1      17.957  19.383  14.323  1.00  0.00     0.041 C 
ATOM      7  O   UNL     1      16.908  19.923  14.762  1.00  0.00    -0.550 OA
ATOM      8  O   UNL     1      19.099  20.153  14.136  1.00  0.00    -0.550 OA
ENDBRANCH   5   6
ENDBRANCH   4   5
ENDBRANCH   3   4
ENDBRANCH   2   3
ENDBRANCH   1   2
BRANCH   1   9
ATOM      9  C   UNL     1      16.549  16.799  19.628  1.00  0.00     0.000 C 
BRANCH   9  10
ATOM     10  C   UNL     1      17.967  16.804  20.225  1.00  0.00    -0.000 C 
BRANCH  10  11
ATOM     11  C   UNL     1      18.427  18.208  20.659  1.00  0.00    -0.000 C 
BRANCH  11  12
ATOM     12  C   UNL     1      19.944  18.360  20.890  1.00  0.00    -0.000 C 
BRANCH  12  13
ATOM     13  C   UNL     1      20.832  17.865  19.734  1.00  0.00    -0.003 C 
ATOM     14  C   UNL     1      22.321  17.885  20.076  1.00  0.00     0.004 C 
ENDBRANCH  12  13
ENDBRANCH  11  12
ENDBRANCH  10  11
ENDBRANCH   9  10
ENDBRANCH   1   9
TORSDOF 10
ENDMDL
MODEL 6
REMARK VINA RESULT:     9.737      1.318      2.099
REMARK INTER + INTRA:          14.871
REMARK INTER:                  15.370
REMARK INTRA:                  -0.499
REMARK UNBOUND:                -0.558
REMARK SMILES CCCCCCCCCCCC(=O)[O-]
REMARK SMILES IDX 7 1 8 2 9 3 10 4 11 5 12 6 13 7 14 8 6 9 5 10 4 11 3 12 2 13
REMARK SMILES IDX 1 14
REMARK H PARENT
REMARK Flexibility Score: inf
ROOT
ATOM      1  C   UNL     1      16.429  17.512  18.726  1.00  0.00     0.000 C 
ENDROOT
BRANCH   1   2
ATOM      2  C   UNL     1      17.066  16.762  19.907  1.00  0.00     0.000 C 
BRANCH   2   3
ATOM      3  C   UNL     1      18.515  17.220  20.130  1.00  0.00     0.000 C 
BRANCH   3   4
ATOM      4  C   UNL     1      18.618  18.496  20.986  1.00  0.00     0.006 C 
BRANCH   4   5
ATOM      5  C   UNL     1      20.045  18.808  21.472  1.00  0.00     0.053 C 
BRANCH   5   6
ATOM      6  C   UNL     1      20.189  18.672  22.958  1.00  0.00     0.041 C 
ATOM      7  O   UNL     1      19.583  17.754  23.571  1.00  0.00    -0.550 OA
ATOM      8  O   UNL     1      20.963  19.579  23.672  1.00  0.00    -0.550 OA
ENDBRANCH   5   6
ENDBRANCH   4   5
ENDBRANCH   3   4
ENDBRANCH   2   3
ENDBRANCH   1   2
BRANCH   1   9
ATOM      9  C   UNL     1      17.301  17.480  17.462  1.00  0.00     0.000 C 
BRANCH   9  10
ATOM     10  C   UNL     1      16.496  17.762  16.181  1.00  0.00    -0.000 C 
BRANCH  10  11
ATOM     11  C   UNL     1      17.079  17.058  14.942  1.00  0.00    -0.000 C 
BRANCH  11  12
ATOM     12  C   UNL     1      18.026  17.918  14.082  1.00  0.00    -0.000 C 
BRANCH  12  13
ATOM     13  C   UNL     1      17.703  19.423  14.063  1.00  0.00    -0.003 C 
ATOM     14  C   UNL     1      18.948  20.301  14.182  1.00  0.00     0.004 C 
ENDBRANCH  12  13
ENDBRANCH  11  12
ENDBRANCH  10  11
ENDBRANCH   9  10
ENDBRANCH   1   9
TORSDOF 10
ENDMDL
MODEL 7
REMARK VINA RESULT:    10.140      2.562      5.958
REMARK INTER + INTRA:          15.510
REMARK INTER:                  15.706
REMARK INTRA:                  -0.196
REMARK UNBOUND:                -0.558
REMARK SMILES CCCCCCCCCCCC(=O)[O-]
REMARK SMILES IDX 7 1 8 2 9 3 10 4 11 5 12 6 13 7 14 8 6 9 5 10 4 11 3 12 2 13
REMARK SMILES IDX 1 14
REMARK H PARENT
REMARK Flexibility Score: inf
ROOT
ATOM      1  C   UNL     1      17.017  17.443  17.112  1.00  0.00     0.000 C 
ENDROOT
BRANCH   1   2
ATOM      2  C   UNL     1      16.422  17.739  15.726  1.00  0.00     0.000 C 
BRANCH   2   3
ATOM      3  C   UNL     1      17.267  17.097  14.617  1.00  0.00     0.000 C 
BRANCH   3   4
ATOM      4  C   UNL     1      18.170  18.109  13.886  1.00  0.00     0.006 C 
BRANCH   4   5
ATOM      5  C   UNL     1      17.654  19.558  13.938  1.00  0.00     0.053 C 
BRANCH   5   6
ATOM      6  C   UNL     1      18.759  20.555  14.121  1.00  0.00     0.041 C 
ATOM      7  O   UNL     1      19.891  20.178  14.524  1.00  0.00    -0.550 OA
ATOM      8  O   UNL     1      18.530  21.904  13.882  1.00  0.00    -0.550 OA
ENDBRANCH   5   6
ENDBRANCH   4   5
ENDBRANCH   3   4
ENDBRANCH   2   3
ENDBRANCH   1   2
BRANCH   1   9
ATOM      9  C   UNL     1      16.164  18.009  18.258  1.00  0.00     0.000 C 
BRANCH   9  10
ATOM     10  C   UNL     1      15.727  16.925  19.261  1.00  0.00    -0.000 C 
BRANCH  10  11
ATOM     11  C   UNL     1      16.894  16.396  20.113  1.00  0.00    -0.000 C 
BRANCH  11  12
ATOM     12  C   UNL     1      18.217  17.176  19.975  1.00  0.00    -0.000 C 
BRANCH  12  13
ATOM     13  C   UNL     1      18.634  17.976  21.222  1.00  0.00    -0.003 C 
ATOM     14  C   UNL     1      19.973  18.691  21.049  1.00  0.00     0.004 C 
ENDBRANCH  12  13
ENDBRANCH  11  12
ENDBRANCH  10  11
ENDBRANCH   9  10
ENDBRANCH   1   9
TORSDOF 10
ENDMDL
