MODEL 1
REMARK VINA RESULT:    -6.581      0.000      0.000
REMARK INTER + INTRA:          -6.723
REMARK INTER:                  -7.158
REMARK INTRA:                   0.434
REMARK UNBOUND:                 0.434
REMARK SMILES C[C@H]1[C@@H](C)CC[C@]2(C(=O)[O-])CC[C@]3(C)C(=CC[C@@H]4[C@@]5(C)CC[C@H](O)C(C)(C)[C@@H]5CC[C@]43C)[C@@H]12
REMARK SMILES IDX 7 1 6 2 11 3 33 4 5 5 12 6 15 7 2 8 3 9 13 10 16 11 1 12
REMARK SMILES IDX 4 13 14 14 31 15 17 16 18 17 30 18 32 19 19 20 29 21 28 22
REMARK SMILES IDX 21 23 20 24 25 25 22 26 23 27 26 28 27 29 8 30 9 31 10 32
REMARK SMILES IDX 24 33
REMARK H PARENT 24 34
REMARK Flexibility Score: inf
ROOT
ATOM      1  C   UNL     1      27.088  30.329  55.329  1.00  0.00     0.017 C 
ATOM      2  C   UNL     1      26.704  29.361  56.488  1.00  0.00     0.014 C 
ATOM      3  C   UNL     1      28.379  31.111  55.738  1.00  0.00     0.014 C 
ATOM      4  C   UNL     1      26.019  31.392  54.933  1.00  0.00     0.030 C 
ATOM      5  C   UNL     1      25.445  29.721  57.169  1.00  0.00     0.004 C 
ATOM      6  C   UNL     1      28.886  32.143  54.694  1.00  0.00     0.013 C 
ATOM      7  C   UNL     1      26.495  32.163  53.695  1.00  0.00    -0.063 C 
ATOM      8  C   UNL     1      24.579  30.713  54.900  1.00  0.00    -0.003 C 
ATOM      9  C   UNL     1      24.237  29.830  56.155  1.00  0.00    -0.011 C 
ATOM     10  C   UNL     1      27.935  32.651  53.512  1.00  0.00    -0.006 C 
ATOM     11  C   UNL     1      25.602  32.687  52.845  1.00  0.00    -0.027 C 
ATOM     12  C   UNL     1      24.041  30.159  53.529  1.00  0.00     0.008 C 
ATOM     13  C   UNL     1      23.721  28.386  55.822  1.00  0.00     0.008 C 
ATOM     14  C   UNL     1      27.910  34.210  53.758  1.00  0.00     0.017 C 
ATOM     15  C   UNL     1      28.423  32.353  51.990  1.00  0.00    -0.020 C 
ATOM     16  C   UNL     1      25.872  32.460  51.405  1.00  0.00     0.032 C 
ATOM     17  C   UNL     1      27.282  32.809  50.973  1.00  0.00     0.006 C 
ATOM     18  C   UNL     1      29.687  33.159  51.538  1.00  0.00     0.008 C 
ATOM     19  C   UNL     1      28.754  30.842  51.902  1.00  0.00     0.012 C 
ATOM     20  C   UNL     1      27.537  32.407  49.440  1.00  0.00    -0.025 C 
ATOM     21  C   UNL     1      30.046  32.884  50.022  1.00  0.00     0.005 C 
ATOM     22  C   UNL     1      28.859  33.141  49.038  1.00  0.00     0.003 C 
ATOM     23  C   UNL     1      26.383  32.983  48.549  1.00  0.00     0.010 C 
ATOM     24  C   UNL     1      27.548  30.853  49.190  1.00  0.00     0.012 C 
ATOM     25  C   UNL     1      29.192  33.068  47.500  1.00  0.00    -0.006 C 
ATOM     26  C   UNL     1      26.643  32.918  47.053  1.00  0.00     0.033 C 
ATOM     27  C   UNL     1      27.974  33.562  46.661  1.00  0.00     0.120 C 
ATOM     28  C   UNL     1      29.614  31.664  47.023  1.00  0.00     0.014 C 
ATOM     29  C   UNL     1      30.335  34.065  47.217  1.00  0.00     0.014 C 
ENDROOT
BRANCH   1  30
ATOM     30  C   UNL     1      27.432  29.330  54.227  1.00  0.00     0.048 C 
ATOM     31  O   UNL     1      28.575  28.749  54.303  1.00  0.00    -0.550 OA
ATOM     32  O   UNL     1      26.434  28.591  53.607  1.00  0.00    -0.550 OA
ENDBRANCH   1  30
BRANCH  27  33
ATOM     33  O   UNL     1      28.201  33.346  45.303  1.00  0.00    -0.393 OA
ATOM     34  H   UNL     1      27.591  33.987  44.808  1.00  0.00     0.210 HD
ENDBRANCH  27  33
TORSDOF 2
ENDMDL
MODEL 2
REMARK VINA RESULT:    -6.574     13.124     15.464
REMARK INTER + INTRA:          -6.716
REMARK INTER:                  -7.149
REMARK INTRA:                   0.433
REMARK UNBOUND:                 0.434
REMARK SMILES C[C@H]1[C@@H](C)CC[C@]2(C(=O)[O-])CC[C@]3(C)C(=CC[C@@H]4[C@@]5(C)CC[C@H](O)C(C)(C)[C@@H]5CC[C@]43C)[C@@H]12
REMARK SMILES IDX 7 1 6 2 11 3 33 4 5 5 12 6 15 7 2 8 3 9 13 10 16 11 1 12
REMARK SMILES IDX 4 13 14 14 31 15 17 16 18 17 30 18 32 19 19 20 29 21 28 22
REMARK SMILES IDX 21 23 20 24 25 25 22 26 23 27 26 28 27 29 8 30 9 31 10 32
REMARK SMILES IDX 24 33
REMARK H PARENT 24 34
REMARK Flexibility Score: inf
ROOT
ATOM      1  C   UNL     1      19.915  20.581  42.814  1.00  0.00     0.017 C 
ATOM      2  C   UNL     1      18.414  20.991  42.897  1.00  0.00     0.014 C 
ATOM      3  C   UNL     1      20.251  20.214  41.331  1.00  0.00     0.014 C 
ATOM      4  C   UNL     1      20.351  19.369  43.692  1.00  0.00     0.030 C 
ATOM      5  C   UNL     1      17.582  20.041  43.662  1.00  0.00     0.004 C 
ATOM      6  C   UNL     1      21.714  19.757  41.078  1.00  0.00     0.013 C 
ATOM      7  C   UNL     1      21.872  19.189  43.601  1.00  0.00    -0.063 C 
ATOM      8  C   UNL     1      19.683  19.487  45.133  1.00  0.00    -0.003 C 
ATOM      9  C   UNL     1      18.145  19.808  45.122  1.00  0.00    -0.011 C 
ATOM     10  C   UNL     1      22.654  19.302  42.289  1.00  0.00    -0.006 C 
ATOM     11  C   UNL     1      22.547  18.647  44.623  1.00  0.00    -0.027 C 
ATOM     12  C   UNL     1      20.501  20.179  46.285  1.00  0.00     0.008 C 
ATOM     13  C   UNL     1      17.719  21.016  46.029  1.00  0.00     0.008 C 
ATOM     14  C   UNL     1      23.037  17.829  41.871  1.00  0.00     0.017 C 
ATOM     15  C   UNL     1      24.012  20.163  42.536  1.00  0.00    -0.020 C 
ATOM     16  C   UNL     1      23.795  19.346  45.015  1.00  0.00     0.032 C 
ATOM     17  C   UNL     1      24.731  19.643  43.861  1.00  0.00     0.006 C 
ATOM     18  C   UNL     1      25.098  20.006  41.419  1.00  0.00     0.008 C 
ATOM     19  C   UNL     1      23.601  21.655  42.606  1.00  0.00     0.012 C 
ATOM     20  C   UNL     1      25.987  20.519  44.340  1.00  0.00    -0.025 C 
ATOM     21  C   UNL     1      26.420  20.799  41.773  1.00  0.00     0.005 C 
ATOM     22  C   UNL     1      27.020  20.433  43.169  1.00  0.00     0.003 C 
ATOM     23  C   UNL     1      26.639  19.852  45.601  1.00  0.00     0.010 C 
ATOM     24  C   UNL     1      25.605  21.984  44.771  1.00  0.00     0.012 C 
ATOM     25  C   UNL     1      28.431  21.043  43.510  1.00  0.00    -0.006 C 
ATOM     26  C   UNL     1      27.996  20.419  45.988  1.00  0.00     0.033 C 
ATOM     27  C   UNL     1      28.988  20.413  44.824  1.00  0.00     0.120 C 
ATOM     28  C   UNL     1      28.429  22.580  43.634  1.00  0.00     0.014 C 
ATOM     29  C   UNL     1      29.409  20.625  42.391  1.00  0.00     0.014 C 
ENDROOT
BRANCH   1  30
ATOM     30  C   UNL     1      20.591  21.902  43.171  1.00  0.00     0.048 C 
ATOM     31  O   UNL     1      20.642  22.798  42.252  1.00  0.00    -0.550 OA
ATOM     32  O   UNL     1      20.546  22.390  44.470  1.00  0.00    -0.550 OA
ENDBRANCH   1  30
BRANCH  27  33
ATOM     33  O   UNL     1      30.155  21.063  45.217  1.00  0.00    -0.393 OA
ATOM     34  H   UNL     1      30.144  21.967  44.759  1.00  0.00     0.210 HD
ENDBRANCH  27  33
TORSDOF 2
ENDMDL
MODEL 3
REMARK VINA RESULT:    -5.994     13.191     15.999
REMARK INTER + INTRA:          -6.085
REMARK INTER:                  -6.519
REMARK INTRA:                   0.433
REMARK UNBOUND:                 0.434
REMARK SMILES C[C@H]1[C@@H](C)CC[C@]2(C(=O)[O-])CC[C@]3(C)C(=CC[C@@H]4[C@@]5(C)CC[C@H](O)C(C)(C)[C@@H]5CC[C@]43C)[C@@H]12
REMARK SMILES IDX 7 1 6 2 11 3 33 4 5 5 12 6 15 7 2 8 3 9 13 10 16 11 1 12
REMARK SMILES IDX 4 13 14 14 31 15 17 16 18 17 30 18 32 19 19 20 29 21 28 22
REMARK SMILES IDX 21 23 20 24 25 25 22 26 23 27 26 28 27 29 8 30 9 31 10 32
REMARK SMILES IDX 24 33
REMARK H PARENT 24 34
REMARK Flexibility Score: inf
ROOT
ATOM      1  C   UNL     1      26.057  20.437  44.205  1.00  0.00     0.017 C 
ATOM      2  C   UNL     1      27.544  20.878  44.353  1.00  0.00     0.014 C 
ATOM      3  C   UNL     1      25.836  19.135  45.043  1.00  0.00     0.014 C 
ATOM      4  C   UNL     1      25.565  20.135  42.757  1.00  0.00     0.030 C 
ATOM      5  C   UNL     1      28.324  20.761  43.105  1.00  0.00     0.004 C 
ATOM      6  C   UNL     1      24.399  18.546  44.984  1.00  0.00     0.013 C 
ATOM      7  C   UNL     1      24.057  19.855  42.774  1.00  0.00    -0.063 C 
ATOM      8  C   UNL     1      26.122  21.246  41.762  1.00  0.00    -0.003 C 
ATOM      9  C   UNL     1      27.655  21.560  41.916  1.00  0.00    -0.011 C 
ATOM     10  C   UNL     1      23.374  18.993  43.841  1.00  0.00    -0.006 C 
ATOM     11  C   UNL     1      23.311  20.124  41.695  1.00  0.00    -0.027 C 
ATOM     12  C   UNL     1      25.216  22.492  41.444  1.00  0.00     0.008 C 
ATOM     13  C   UNL     1      28.003  23.082  42.068  1.00  0.00     0.008 C 
ATOM     14  C   UNL     1      23.035  17.616  43.148  1.00  0.00     0.017 C 
ATOM     15  C   UNL     1      21.996  19.710  44.321  1.00  0.00    -0.020 C 
ATOM     16  C   UNL     1      22.033  20.829  41.953  1.00  0.00     0.032 C 
ATOM     17  C   UNL     1      21.183  20.200  43.039  1.00  0.00     0.006 C 
ATOM     18  C   UNL     1      20.997  18.768  45.075  1.00  0.00     0.008 C 
ATOM     19  C   UNL     1      22.389  20.864  45.276  1.00  0.00     0.012 C 
ATOM     20  C   UNL     1      19.888  21.093  43.356  1.00  0.00    -0.025 C 
ATOM     21  C   UNL     1      19.647  19.511  45.429  1.00  0.00     0.005 C 
ATOM     22  C   UNL     1      18.947  20.168  44.196  1.00  0.00     0.003 C 
ATOM     23  C   UNL     1      19.148  21.435  42.017  1.00  0.00     0.010 C 
ATOM     24  C   UNL     1      20.226  22.473  44.033  1.00  0.00     0.012 C 
ATOM     25  C   UNL     1      17.509  20.764  44.438  1.00  0.00    -0.006 C 
ATOM     26  C   UNL     1      17.763  22.035  42.192  1.00  0.00     0.033 C 
ATOM     27  C   UNL     1      16.861  21.176  43.080  1.00  0.00     0.120 C 
ATOM     28  C   UNL     1      17.490  21.965  45.405  1.00  0.00     0.014 C 
ATOM     29  C   UNL     1      16.621  19.639  45.009  1.00  0.00     0.014 C 
ENDROOT
BRANCH   1  30
ATOM     30  C   UNL     1      25.346  21.603  44.889  1.00  0.00     0.048 C 
ATOM     31  O   UNL     1      25.367  21.626  46.173  1.00  0.00    -0.550 OA
ATOM     32  O   UNL     1      25.279  22.846  44.276  1.00  0.00    -0.550 OA
ENDBRANCH   1  30
BRANCH  27  33
ATOM     33  O   UNL     1      15.662  21.851  43.300  1.00  0.00    -0.393 OA
ATOM     34  H   UNL     1      15.831  22.818  43.047  1.00  0.00     0.210 HD
ENDBRANCH  27  33
TORSDOF 2
ENDMDL
MODEL 4
REMARK VINA RESULT:    -5.982      1.896      7.873
REMARK INTER + INTRA:          -6.073
REMARK INTER:                  -6.503
REMARK INTRA:                   0.430
REMARK UNBOUND:                 0.434
REMARK SMILES C[C@H]1[C@@H](C)CC[C@]2(C(=O)[O-])CC[C@]3(C)C(=CC[C@@H]4[C@@]5(C)CC[C@H](O)C(C)(C)[C@@H]5CC[C@]43C)[C@@H]12
REMARK SMILES IDX 7 1 6 2 11 3 33 4 5 5 12 6 15 7 2 8 3 9 13 10 16 11 1 12
REMARK SMILES IDX 4 13 14 14 31 15 17 16 18 17 30 18 32 19 19 20 29 21 28 22
REMARK SMILES IDX 21 23 20 24 25 25 22 26 23 27 26 28 27 29 8 30 9 31 10 32
REMARK SMILES IDX 24 33
REMARK H PARENT 24 34
REMARK Flexibility Score: inf
ROOT
ATOM      1  C   UNL     1      27.571  32.414  49.600  1.00  0.00     0.017 C 
ATOM      2  C   UNL     1      28.064  32.559  48.129  1.00  0.00     0.014 C 
ATOM      3  C   UNL     1      26.277  33.275  49.780  1.00  0.00     0.014 C 
ATOM      4  C   UNL     1      28.570  32.857  50.712  1.00  0.00     0.030 C 
ATOM      5  C   UNL     1      29.348  33.277  48.002  1.00  0.00     0.004 C 
ATOM      6  C   UNL     1      25.666  33.259  51.209  1.00  0.00     0.013 C 
ATOM      7  C   UNL     1      27.988  32.519  52.090  1.00  0.00    -0.063 C 
ATOM      8  C   UNL     1      30.031  32.334  50.354  1.00  0.00    -0.003 C 
ATOM      9  C   UNL     1      30.485  32.608  48.874  1.00  0.00    -0.011 C 
ATOM     10  C   UNL     1      26.521  32.754  52.462  1.00  0.00    -0.006 C 
ATOM     11  C   UNL     1      28.804  32.264  53.121  1.00  0.00    -0.027 C 
ATOM     12  C   UNL     1      30.504  30.958  50.952  1.00  0.00     0.008 C 
ATOM     13  C   UNL     1      31.036  31.352  48.112  1.00  0.00     0.008 C 
ATOM     14  C   UNL     1      26.499  34.020  53.405  1.00  0.00     0.017 C 
ATOM     15  C   UNL     1      25.951  31.466  53.276  1.00  0.00    -0.020 C 
ATOM     16  C   UNL     1      28.455  31.080  53.942  1.00  0.00     0.032 C 
ATOM     17  C   UNL     1      27.008  31.039  54.392  1.00  0.00     0.006 C 
ATOM     18  C   UNL     1      24.630  31.728  54.074  1.00  0.00     0.008 C 
ATOM     19  C   UNL     1      25.676  30.352  52.234  1.00  0.00     0.012 C 
ATOM     20  C   UNL     1      26.674  29.667  55.154  1.00  0.00    -0.025 C 
ATOM     21  C   UNL     1      24.190  30.459  54.909  1.00  0.00     0.005 C 
ATOM     22  C   UNL     1      25.302  29.915  55.863  1.00  0.00     0.003 C 
ATOM     23  C   UNL     1      27.747  29.414  56.269  1.00  0.00     0.010 C 
ATOM     24  C   UNL     1      26.710  28.402  54.218  1.00  0.00     0.012 C 
ATOM     25  C   UNL     1      24.876  28.771  56.859  1.00  0.00    -0.006 C 
ATOM     26  C   UNL     1      27.397  28.303  57.246  1.00  0.00     0.033 C 
ATOM     27  C   UNL     1      26.020  28.496  57.884  1.00  0.00     0.120 C 
ATOM     28  C   UNL     1      24.482  27.454  56.159  1.00  0.00     0.014 C 
ATOM     29  C   UNL     1      23.679  29.285  57.686  1.00  0.00     0.014 C 
ENDROOT
BRANCH   1  30
ATOM     30  C   UNL     1      27.198  30.934  49.630  1.00  0.00     0.048 C 
ATOM     31  O   UNL     1      26.092  30.599  49.071  1.00  0.00    -0.550 OA
ATOM     32  O   UNL     1      28.185  29.957  49.619  1.00  0.00    -0.550 OA
ENDBRANCH   1  30
BRANCH  27  33
ATOM     33  O   UNL     1      25.718  27.379  58.659  1.00  0.00    -0.393 OA
ATOM     34  H   UNL     1      26.396  26.668  58.410  1.00  0.00     0.210 HD
ENDBRANCH  27  33
TORSDOF 2
ENDMDL
MODEL 5
REMARK VINA RESULT:    -5.973      1.637      2.543
REMARK INTER + INTRA:          -6.062
REMARK INTER:                  -6.496
REMARK INTRA:                   0.434
REMARK UNBOUND:                 0.434
REMARK SMILES C[C@H]1[C@@H](C)CC[C@]2(C(=O)[O-])CC[C@]3(C)C(=CC[C@@H]4[C@@]5(C)CC[C@H](O)C(C)(C)[C@@H]5CC[C@]43C)[C@@H]12
REMARK SMILES IDX 7 1 6 2 11 3 33 4 5 5 12 6 15 7 2 8 3 9 13 10 16 11 1 12
REMARK SMILES IDX 4 13 14 14 31 15 17 16 18 17 30 18 32 19 19 20 29 21 28 22
REMARK SMILES IDX 21 23 20 24 25 25 22 26 23 27 26 28 27 29 8 30 9 31 10 32
REMARK SMILES IDX 24 33
REMARK H PARENT 24 34
REMARK Flexibility Score: inf
ROOT
ATOM      1  C   UNL     1      30.241  30.632  55.466  1.00  0.00     0.017 C 
ATOM      2  C   UNL     1      30.609  29.757  56.702  1.00  0.00     0.014 C 
ATOM      3  C   UNL     1      31.488  31.490  55.072  1.00  0.00     0.014 C 
ATOM      4  C   UNL     1      29.049  31.621  55.648  1.00  0.00     0.030 C 
ATOM      5  C   UNL     1      29.884  30.134  57.932  1.00  0.00     0.004 C 
ATOM      6  C   UNL     1      31.279  32.443  53.863  1.00  0.00     0.013 C 
ATOM      7  C   UNL     1      28.731  32.296  54.308  1.00  0.00    -0.063 C 
ATOM      8  C   UNL     1      27.869  30.894  56.433  1.00  0.00    -0.003 C 
ATOM      9  C   UNL     1      28.317  30.113  57.722  1.00  0.00    -0.011 C 
ATOM     10  C   UNL     1      29.810  32.814  53.352  1.00  0.00    -0.006 C 
ATOM     11  C   UNL     1      27.486  32.714  54.044  1.00  0.00    -0.027 C 
ATOM     12  C   UNL     1      26.726  30.204  55.600  1.00  0.00     0.008 C 
ATOM     13  C   UNL     1      27.814  28.629  57.800  1.00  0.00     0.008 C 
ATOM     14  C   UNL     1      29.804  34.387  53.486  1.00  0.00     0.017 C 
ATOM     15  C   UNL     1      29.431  32.400  51.826  1.00  0.00    -0.020 C 
ATOM     16  C   UNL     1      26.962  32.370  52.700  1.00  0.00     0.032 C 
ATOM     17  C   UNL     1      27.892  32.727  51.559  1.00  0.00     0.006 C 
ATOM     18  C   UNL     1      30.194  33.205  50.721  1.00  0.00     0.008 C 
ATOM     19  C   UNL     1      29.777  30.899  51.659  1.00  0.00     0.012 C 
ATOM     20  C   UNL     1      27.320  32.202  50.155  1.00  0.00    -0.025 C 
ATOM     21  C   UNL     1      29.708  32.811  49.268  1.00  0.00     0.005 C 
ATOM     22  C   UNL     1      28.163  32.941  49.065  1.00  0.00     0.003 C 
ATOM     23  C   UNL     1      25.829  32.659  49.994  1.00  0.00     0.010 C 
ATOM     24  C   UNL     1      27.312  30.633  50.026  1.00  0.00     0.012 C 
ATOM     25  C   UNL     1      27.630  32.745  47.596  1.00  0.00    -0.006 C 
ATOM     26  C   UNL     1      25.255  32.471  48.599  1.00  0.00     0.033 C 
ATOM     27  C   UNL     1      26.118  33.123  47.518  1.00  0.00     0.120 C 
ATOM     28  C   UNL     1      27.835  31.319  47.046  1.00  0.00     0.014 C 
ATOM     29  C   UNL     1      28.366  33.751  46.687  1.00  0.00     0.014 C 
ENDROOT
BRANCH   1  30
ATOM     30  C   UNL     1      30.017  29.553  54.409  1.00  0.00     0.048 C 
ATOM     31  O   UNL     1      31.064  29.006  53.905  1.00  0.00    -0.550 OA
ATOM     32  O   UNL     1      28.891  28.743  54.454  1.00  0.00    -0.550 OA
ENDBRANCH   1  30
BRANCH  27  33
ATOM     33  O   UNL     1      25.601  32.797  46.265  1.00  0.00    -0.393 OA
ATOM     34  H   UNL     1      24.663  32.449  46.427  1.00  0.00     0.210 HD
ENDBRANCH  27  33
TORSDOF 2
ENDMDL
MODEL 6
REMARK VINA RESULT:    -5.862      5.297      9.352
REMARK INTER + INTRA:          -5.942
REMARK INTER:                  -6.375
REMARK INTRA:                   0.433
REMARK UNBOUND:                 0.434
REMARK SMILES C[C@H]1[C@@H](C)CC[C@]2(C(=O)[O-])CC[C@]3(C)C(=CC[C@@H]4[C@@]5(C)CC[C@H](O)C(C)(C)[C@@H]5CC[C@]43C)[C@@H]12
REMARK SMILES IDX 7 1 6 2 11 3 33 4 5 5 12 6 15 7 2 8 3 9 13 10 16 11 1 12
REMARK SMILES IDX 4 13 14 14 31 15 17 16 18 17 30 18 32 19 19 20 29 21 28 22
REMARK SMILES IDX 21 23 20 24 25 25 22 26 23 27 26 28 27 29 8 30 9 31 10 32
REMARK SMILES IDX 24 33
REMARK H PARENT 24 34
REMARK Flexibility Score: inf
ROOT
ATOM      1  C   UNL     1      18.006  26.892  56.023  1.00  0.00     0.017 C 
ATOM      2  C   UNL     1      16.670  26.319  55.462  1.00  0.00     0.014 C 
ATOM      3  C   UNL     1      18.217  26.339  57.471  1.00  0.00     0.014 C 
ATOM      4  C   UNL     1      18.112  28.445  56.110  1.00  0.00     0.030 C 
ATOM      5  C   UNL     1      15.622  27.341  55.269  1.00  0.00     0.004 C 
ATOM      6  C   UNL     1      19.503  26.837  58.188  1.00  0.00     0.013 C 
ATOM      7  C   UNL     1      19.528  28.840  56.545  1.00  0.00    -0.063 C 
ATOM      8  C   UNL     1      17.513  29.094  54.784  1.00  0.00    -0.003 C 
ATOM      9  C   UNL     1      16.116  28.524  54.343  1.00  0.00    -0.011 C 
ATOM     10  C   UNL     1      20.300  28.116  57.652  1.00  0.00    -0.006 C 
ATOM     11  C   UNL     1      20.044  30.017  56.166  1.00  0.00    -0.027 C 
ATOM     12  C   UNL     1      18.497  29.434  53.604  1.00  0.00     0.008 C 
ATOM     13  C   UNL     1      16.036  28.064  52.846  1.00  0.00     0.008 C 
ATOM     14  C   UNL     1      20.271  29.070  58.910  1.00  0.00     0.017 C 
ATOM     15  C   UNL     1      21.840  27.886  57.184  1.00  0.00    -0.020 C 
ATOM     16  C   UNL     1      21.437  29.977  55.658  1.00  0.00     0.032 C 
ATOM     17  C   UNL     1      22.407  29.240  56.559  1.00  0.00     0.006 C 
ATOM     18  C   UNL     1      22.834  27.551  58.346  1.00  0.00     0.008 C 
ATOM     19  C   UNL     1      21.843  26.701  56.186  1.00  0.00     0.012 C 
ATOM     20  C   UNL     1      23.856  29.119  55.879  1.00  0.00    -0.025 C 
ATOM     21  C   UNL     1      24.323  27.431  57.826  1.00  0.00     0.005 C 
ATOM     22  C   UNL     1      24.817  28.685  57.034  1.00  0.00     0.003 C 
ATOM     23  C   UNL     1      24.319  30.532  55.381  1.00  0.00     0.010 C 
ATOM     24  C   UNL     1      23.883  28.181  54.616  1.00  0.00     0.012 C 
ATOM     25  C   UNL     1      26.343  28.716  56.647  1.00  0.00    -0.006 C 
ATOM     26  C   UNL     1      25.781  30.613  54.972  1.00  0.00     0.033 C 
ATOM     27  C   UNL     1      26.724  30.114  56.068  1.00  0.00     0.120 C 
ATOM     28  C   UNL     1      26.753  27.614  55.649  1.00  0.00     0.014 C 
ATOM     29  C   UNL     1      27.164  28.556  57.945  1.00  0.00     0.014 C 
ENDROOT
BRANCH   1  30
ATOM     30  C   UNL     1      19.014  26.236  55.082  1.00  0.00     0.048 C 
ATOM     31  O   UNL     1      19.284  24.998  55.288  1.00  0.00    -0.550 OA
ATOM     32  O   UNL     1      19.122  26.652  53.762  1.00  0.00    -0.550 OA
ENDBRANCH   1  30
BRANCH  27  33
ATOM     33  O   UNL     1      28.026  30.095  55.573  1.00  0.00    -0.393 OA
ATOM     34  H   UNL     1      27.946  30.038  54.565  1.00  0.00     0.210 HD
ENDBRANCH  27  33
TORSDOF 2
ENDMDL
MODEL 7
REMARK VINA RESULT:    -5.832      5.074     10.063
REMARK INTER + INTRA:          -5.910
REMARK INTER:                  -6.340
REMARK INTRA:                   0.431
REMARK UNBOUND:                 0.434
REMARK SMILES C[C@H]1[C@@H](C)CC[C@]2(C(=O)[O-])CC[C@]3(C)C(=CC[C@@H]4[C@@]5(C)CC[C@H](O)C(C)(C)[C@@H]5CC[C@]43C)[C@@H]12
REMARK SMILES IDX 7 1 6 2 11 3 33 4 5 5 12 6 15 7 2 8 3 9 13 10 16 11 1 12
REMARK SMILES IDX 4 13 14 14 31 15 17 16 18 17 30 18 32 19 19 20 29 21 28 22
REMARK SMILES IDX 21 23 20 24 25 25 22 26 23 27 26 28 27 29 8 30 9 31 10 32
REMARK SMILES IDX 24 33
REMARK H PARENT 24 34
REMARK Flexibility Score: inf
ROOT
ATOM      1  C   UNL     1      24.103  28.910  56.805  1.00  0.00     0.017 C 
ATOM      2  C   UNL     1      25.427  29.636  57.192  1.00  0.00     0.014 C 
ATOM      3  C   UNL     1      23.711  27.935  57.962  1.00  0.00     0.014 C 
ATOM      4  C   UNL     1      24.134  28.070  55.492  1.00  0.00     0.030 C 
ATOM      5  C   UNL     1      26.577  29.262  56.347  1.00  0.00     0.004 C 
ATOM      6  C   UNL     1      22.416  27.110  57.722  1.00  0.00     0.013 C 
ATOM      7  C   UNL     1      22.726  27.544  55.186  1.00  0.00    -0.063 C 
ATOM      8  C   UNL     1      24.908  28.878  54.359  1.00  0.00    -0.003 C 
ATOM      9  C   UNL     1      26.281  29.495  54.811  1.00  0.00    -0.011 C 
ATOM     10  C   UNL     1      21.793  26.968  56.256  1.00  0.00    -0.006 C 
ATOM     11  C   UNL     1      22.357  27.307  53.920  1.00  0.00    -0.027 C 
ATOM     12  C   UNL     1      24.072  29.767  53.367  1.00  0.00     0.008 C 
ATOM     13  C   UNL     1      26.454  31.021  54.488  1.00  0.00     0.008 C 
ATOM     14  C   UNL     1      21.794  25.403  56.050  1.00  0.00     0.017 C 
ATOM     15  C   UNL     1      20.287  27.541  56.033  1.00  0.00    -0.020 C 
ATOM     16  C   UNL     1      21.019  27.816  53.533  1.00  0.00     0.032 C 
ATOM     17  C   UNL     1      19.906  27.432  54.488  1.00  0.00     0.006 C 
ATOM     18  C   UNL     1      19.164  26.732  56.766  1.00  0.00     0.008 C 
ATOM     19  C   UNL     1      20.267  28.994  56.568  1.00  0.00     0.012 C 
ATOM     20  C   UNL     1      18.521  28.130  54.079  1.00  0.00    -0.025 C 
ATOM     21  C   UNL     1      17.725  27.294  56.429  1.00  0.00     0.005 C 
ATOM     22  C   UNL     1      17.423  27.376  54.897  1.00  0.00     0.003 C 
ATOM     23  C   UNL     1      18.238  27.879  52.557  1.00  0.00     0.010 C 
ATOM     24  C   UNL     1      18.524  29.693  54.269  1.00  0.00     0.012 C 
ATOM     25  C   UNL     1      15.947  27.748  54.491  1.00  0.00    -0.006 C 
ATOM     26  C   UNL     1      16.833  28.243  52.105  1.00  0.00     0.033 C 
ATOM     27  C   UNL     1      15.752  27.572  52.953  1.00  0.00     0.120 C 
ATOM     28  C   UNL     1      15.531  29.174  54.904  1.00  0.00     0.014 C 
ATOM     29  C   UNL     1      15.001  26.729  55.159  1.00  0.00     0.014 C 
ENDROOT
BRANCH   1  30
ATOM     30  C   UNL     1      23.130  30.087  56.786  1.00  0.00     0.048 C 
ATOM     31  O   UNL     1      22.711  30.515  57.921  1.00  0.00    -0.550 OA
ATOM     32  O   UNL     1      23.197  31.043  55.782  1.00  0.00    -0.550 OA
ENDBRANCH   1  30
BRANCH  27  33
ATOM     33  O   UNL     1      14.504  28.054  52.565  1.00  0.00    -0.393 OA
ATOM     34  H   UNL     1      13.845  27.302  52.729  1.00  0.00     0.210 HD
ENDBRANCH  27  33
TORSDOF 2
ENDMDL
MODEL 8
REMARK VINA RESULT:    -5.788      1.943      7.726
REMARK INTER + INTRA:          -5.861
REMARK INTER:                  -6.293
REMARK INTRA:                   0.431
REMARK UNBOUND:                 0.434
REMARK SMILES C[C@H]1[C@@H](C)CC[C@]2(C(=O)[O-])CC[C@]3(C)C(=CC[C@@H]4[C@@]5(C)CC[C@H](O)C(C)(C)[C@@H]5CC[C@]43C)[C@@H]12
REMARK SMILES IDX 7 1 6 2 11 3 33 4 5 5 12 6 15 7 2 8 3 9 13 10 16 11 1 12
REMARK SMILES IDX 4 13 14 14 31 15 17 16 18 17 30 18 32 19 19 20 29 21 28 22
REMARK SMILES IDX 21 23 20 24 25 25 22 26 23 27 26 28 27 29 8 30 9 31 10 32
REMARK SMILES IDX 24 33
REMARK H PARENT 24 34
REMARK Flexibility Score: inf
ROOT
ATOM      1  C   UNL     1      26.889  31.861  49.227  1.00  0.00     0.017 C 
ATOM      2  C   UNL     1      26.896  31.827  47.669  1.00  0.00     0.014 C 
ATOM      3  C   UNL     1      25.411  32.013  49.716  1.00  0.00     0.014 C 
ATOM      4  C   UNL     1      27.710  33.004  49.898  1.00  0.00     0.030 C 
ATOM      5  C   UNL     1      27.534  33.008  47.053  1.00  0.00     0.004 C 
ATOM      6  C   UNL     1      25.229  32.087  51.258  1.00  0.00     0.013 C 
ATOM      7  C   UNL     1      27.713  32.810  51.419  1.00  0.00    -0.063 C 
ATOM      8  C   UNL     1      29.106  33.168  49.149  1.00  0.00    -0.003 C 
ATOM      9  C   UNL     1      29.010  33.222  47.581  1.00  0.00    -0.011 C 
ATOM     10  C   UNL     1      26.469  32.405  52.217  1.00  0.00    -0.006 C 
ATOM     11  C   UNL     1      28.739  33.259  52.153  1.00  0.00    -0.027 C 
ATOM     12  C   UNL     1      30.357  32.401  49.714  1.00  0.00     0.008 C 
ATOM     13  C   UNL     1      29.966  32.230  46.829  1.00  0.00     0.008 C 
ATOM     14  C   UNL     1      25.979  33.705  52.966  1.00  0.00     0.017 C 
ATOM     15  C   UNL     1      26.868  31.270  53.311  1.00  0.00    -0.020 C 
ATOM     16  C   UNL     1      29.264  32.319  53.172  1.00  0.00     0.032 C 
ATOM     17  C   UNL     1      28.201  31.713  54.067  1.00  0.00     0.006 C 
ATOM     18  C   UNL     1      25.821  31.071  54.459  1.00  0.00     0.008 C 
ATOM     19  C   UNL     1      27.012  29.929  52.548  1.00  0.00     0.012 C 
ATOM     20  C   UNL     1      28.826  30.607  55.047  1.00  0.00    -0.025 C 
ATOM     21  C   UNL     1      26.320  30.019  55.529  1.00  0.00     0.005 C 
ATOM     22  C   UNL     1      27.726  30.348  56.128  1.00  0.00     0.003 C 
ATOM     23  C   UNL     1      30.080  31.203  55.776  1.00  0.00     0.010 C 
ATOM     24  C   UNL     1      29.329  29.316  54.300  1.00  0.00     0.012 C 
ATOM     25  C   UNL     1      28.205  29.451  57.331  1.00  0.00    -0.006 C 
ATOM     26  C   UNL     1      30.598  30.365  56.934  1.00  0.00     0.033 C 
ATOM     27  C   UNL     1      29.509  30.038  57.956  1.00  0.00     0.120 C 
ATOM     28  C   UNL     1      28.435  27.974  56.951  1.00  0.00     0.014 C 
ATOM     29  C   UNL     1      27.131  29.529  58.437  1.00  0.00     0.014 C 
ENDROOT
BRANCH   1  30
ATOM     30  C   UNL     1      27.382  30.451  49.544  1.00  0.00     0.048 C 
ATOM     31  O   UNL     1      26.541  29.493  49.396  1.00  0.00    -0.550 OA
ATOM     32  O   UNL     1      28.712  30.107  49.344  1.00  0.00    -0.550 OA
ENDBRANCH   1  30
BRANCH  27  33
ATOM     33  O   UNL     1      30.026  29.164  58.909  1.00  0.00    -0.393 OA
ATOM     34  H   UNL     1      29.768  28.232  58.608  1.00  0.00     0.210 HD
ENDBRANCH  27  33
TORSDOF 2
ENDMDL
MODEL 9
REMARK VINA RESULT:    -5.689     10.710     14.702
REMARK INTER + INTRA:          -5.754
REMARK INTER:                  -6.184
REMARK INTRA:                   0.431
REMARK UNBOUND:                 0.434
REMARK SMILES C[C@H]1[C@@H](C)CC[C@]2(C(=O)[O-])CC[C@]3(C)C(=CC[C@@H]4[C@@]5(C)CC[C@H](O)C(C)(C)[C@@H]5CC[C@]43C)[C@@H]12
REMARK SMILES IDX 7 1 6 2 11 3 33 4 5 5 12 6 15 7 2 8 3 9 13 10 16 11 1 12
REMARK SMILES IDX 4 13 14 14 31 15 17 16 18 17 30 18 32 19 19 20 29 21 28 22
REMARK SMILES IDX 21 23 20 24 25 25 22 26 23 27 26 28 27 29 8 30 9 31 10 32
REMARK SMILES IDX 24 33
REMARK H PARENT 24 34
REMARK Flexibility Score: inf
ROOT
ATOM      1  C   UNL     1      15.328  26.846  54.529  1.00  0.00     0.017 C 
ATOM      2  C   UNL     1      15.008  28.367  54.417  1.00  0.00     0.014 C 
ATOM      3  C   UNL     1      14.137  26.136  55.252  1.00  0.00     0.014 C 
ATOM      4  C   UNL     1      16.624  26.466  55.308  1.00  0.00     0.030 C 
ATOM      5  C   UNL     1      15.891  29.220  55.237  1.00  0.00     0.004 C 
ATOM      6  C   UNL     1      14.309  24.607  55.466  1.00  0.00     0.013 C 
ATOM      7  C   UNL     1      16.864  24.955  55.202  1.00  0.00    -0.063 C 
ATOM      8  C   UNL     1      17.803  27.455  54.895  1.00  0.00    -0.003 C 
ATOM      9  C   UNL     1      17.418  28.979  54.902  1.00  0.00    -0.011 C 
ATOM     10  C   UNL     1      15.746  23.916  55.338  1.00  0.00    -0.006 C 
ATOM     11  C   UNL     1      18.109  24.465  55.266  1.00  0.00    -0.027 C 
ATOM     12  C   UNL     1      18.778  27.019  53.740  1.00  0.00     0.008 C 
ATOM     13  C   UNL     1      17.778  29.754  53.587  1.00  0.00     0.008 C 
ATOM     14  C   UNL     1      15.921  23.259  56.763  1.00  0.00     0.017 C 
ATOM     15  C   UNL     1      15.920  22.775  54.192  1.00  0.00    -0.020 C 
ATOM     16  C   UNL     1      18.452  23.443  54.249  1.00  0.00     0.032 C 
ATOM     17  C   UNL     1      17.446  22.315  54.135  1.00  0.00     0.006 C 
ATOM     18  C   UNL     1      15.127  21.452  54.461  1.00  0.00     0.008 C 
ATOM     19  C   UNL     1      15.412  23.383  52.861  1.00  0.00     0.012 C 
ATOM     20  C   UNL     1      17.813  21.327  52.925  1.00  0.00    -0.025 C 
ATOM     21  C   UNL     1      15.417  20.361  53.353  1.00  0.00     0.005 C 
ATOM     22  C   UNL     1      16.936  20.052  53.155  1.00  0.00     0.003 C 
ATOM     23  C   UNL     1      19.317  20.897  53.038  1.00  0.00     0.010 C 
ATOM     24  C   UNL     1      17.653  21.985  51.504  1.00  0.00     0.012 C 
ATOM     25  C   UNL     1      17.291  18.848  52.205  1.00  0.00    -0.006 C 
ATOM     26  C   UNL     1      19.720  19.751  52.125  1.00  0.00     0.033 C 
ATOM     27  C   UNL     1      18.816  18.528  52.286  1.00  0.00     0.120 C 
ATOM     28  C   UNL     1      16.889  19.079  50.734  1.00  0.00     0.014 C 
ATOM     29  C   UNL     1      16.565  17.594  52.738  1.00  0.00     0.014 C 
ENDROOT
BRANCH   1  30
ATOM     30  C   UNL     1      15.331  26.447  53.055  1.00  0.00     0.048 C 
ATOM     31  O   UNL     1      14.189  26.313  52.485  1.00  0.00    -0.550 OA
ATOM     32  O   UNL     1      16.366  26.844  52.218  1.00  0.00    -0.550 OA
ENDBRANCH   1  30
BRANCH  27  33
ATOM     33  O   UNL     1      19.163  17.576  51.329  1.00  0.00    -0.393 OA
ATOM     34  H   UNL     1      19.641  18.078  50.590  1.00  0.00     0.210 HD
ENDBRANCH  27  33
TORSDOF 2
ENDMDL
