MODEL 1
REMARK VINA RESULT:    -3.445      0.000      0.000
REMARK INTER + INTRA:          -8.073
REMARK INTER:                  -6.265
REMARK INTRA:                  -1.807
REMARK UNBOUND:                -1.807
REMARK SMILES CCCCCCCCCCCCCCCC(=O)[O-]
REMARK SMILES IDX 9 1 10 2 11 3 12 4 13 5 14 6 15 7 16 8 17 9 18 10 8 11 7 12
REMARK SMILES IDX 6 13 5 14 4 15 3 16 2 17 1 18
REMARK H PARENT
REMARK Flexibility Score: inf
ROOT
ATOM      1  C   UNL     1       6.737  36.929  -0.083  1.00  0.00     0.000 C 
ENDROOT
BRANCH   1   2
ATOM      2  C   UNL     1       7.539  35.668  -0.448  1.00  0.00     0.000 C 
BRANCH   2   3
ATOM      3  C   UNL     1       7.786  34.744   0.760  1.00  0.00     0.000 C 
BRANCH   3   4
ATOM      4  C   UNL     1       9.182  34.097   0.820  1.00  0.00     0.000 C 
BRANCH   4   5
ATOM      5  C   UNL     1       9.130  32.574   1.030  1.00  0.00     0.000 C 
BRANCH   5   6
ATOM      6  C   UNL     1       7.925  32.135   1.877  1.00  0.00     0.006 C 
BRANCH   6   7
ATOM      7  C   UNL     1       7.175  30.941   1.271  1.00  0.00     0.053 C 
BRANCH   7   8
ATOM      8  C   UNL     1       7.231  29.768   2.199  1.00  0.00     0.041 C 
ATOM      9  O   UNL     1       8.051  29.754   3.155  1.00  0.00    -0.550 OA
ATOM     10  O   UNL     1       6.405  28.671   1.984  1.00  0.00    -0.550 OA
ENDBRANCH   7   8
ENDBRANCH   6   7
ENDBRANCH   5   6
ENDBRANCH   4   5
ENDBRANCH   3   4
ENDBRANCH   2   3
ENDBRANCH   1   2
BRANCH   1  11
ATOM     11  C   UNL     1       6.525  37.077   1.433  1.00  0.00     0.000 C 
BRANCH  11  12
ATOM     12  C   UNL     1       7.125  38.375   1.994  1.00  0.00    -0.000 C 
BRANCH  12  13
ATOM     13  C   UNL     1       6.622  39.595   1.206  1.00  0.00    -0.000 C 
BRANCH  13  14
ATOM     14  C   UNL     1       7.753  40.555   0.804  1.00  0.00    -0.000 C 
BRANCH  14  15
ATOM     15  C   UNL     1       8.402  40.174  -0.538  1.00  0.00    -0.000 C 
BRANCH  15  16
ATOM     16  C   UNL     1       9.894  39.831  -0.393  1.00  0.00    -0.000 C 
BRANCH  16  17
ATOM     17  C   UNL     1      10.186  38.342  -0.638  1.00  0.00    -0.003 C 
ATOM     18  C   UNL     1      10.560  37.636   0.663  1.00  0.00     0.004 C 
ENDBRANCH  16  17
ENDBRANCH  15  16
ENDBRANCH  14  15
ENDBRANCH  13  14
ENDBRANCH  12  13
ENDBRANCH  11  12
ENDBRANCH   1  11
TORSDOF 14
ENDMDL
MODEL 2
REMARK VINA RESULT:    -3.349     13.266     14.600
REMARK INTER + INTRA:          -7.897
REMARK INTER:                  -7.109
REMARK INTRA:                  -0.788
REMARK UNBOUND:                -1.807
REMARK SMILES CCCCCCCCCCCCCCCC(=O)[O-]
REMARK SMILES IDX 9 1 10 2 11 3 12 4 13 5 14 6 15 7 16 8 17 9 18 10 8 11 7 12
REMARK SMILES IDX 6 13 5 14 4 15 3 16 2 17 1 18
REMARK H PARENT
REMARK Flexibility Score: inf
ROOT
ATOM      1  C   UNL     1       6.528  39.462  16.628  1.00  0.00     0.000 C 
ENDROOT
BRANCH   1   2
ATOM      2  C   UNL     1       5.120  39.943  16.237  1.00  0.00     0.000 C 
BRANCH   2   3
ATOM      3  C   UNL     1       4.107  38.788  16.105  1.00  0.00     0.000 C 
BRANCH   3   4
ATOM      4  C   UNL     1       2.823  39.124  15.324  1.00  0.00     0.000 C 
BRANCH   4   5
ATOM      5  C   UNL     1       2.004  37.877  14.952  1.00  0.00     0.000 C 
BRANCH   5   6
ATOM      6  C   UNL     1       2.885  36.713  14.469  1.00  0.00     0.006 C 
BRANCH   6   7
ATOM      7  C   UNL     1       2.217  35.344  14.658  1.00  0.00     0.053 C 
BRANCH   7   8
ATOM      8  C   UNL     1       1.428  34.978  13.440  1.00  0.00     0.041 C 
ATOM      9  O   UNL     1       0.572  34.056  13.493  1.00  0.00    -0.550 OA
ATOM     10  O   UNL     1       1.669  35.626  12.235  1.00  0.00    -0.550 OA
ENDBRANCH   7   8
ENDBRANCH   6   7
ENDBRANCH   5   6
ENDBRANCH   4   5
ENDBRANCH   3   4
ENDBRANCH   2   3
ENDBRANCH   1   2
BRANCH   1  11
ATOM     11  C   UNL     1       7.601  40.542  16.417  1.00  0.00     0.000 C 
BRANCH  11  12
ATOM     12  C   UNL     1       7.390  41.347  15.125  1.00  0.00    -0.000 C 
BRANCH  12  13
ATOM     13  C   UNL     1       8.626  41.257  14.217  1.00  0.00    -0.000 C 
BRANCH  13  14
ATOM     14  C   UNL     1       9.678  40.262  14.734  1.00  0.00    -0.000 C 
BRANCH  14  15
ATOM     15  C   UNL     1      10.936  40.220  13.851  1.00  0.00    -0.000 C 
BRANCH  15  16
ATOM     16  C   UNL     1      10.812  41.112  12.605  1.00  0.00    -0.000 C 
BRANCH  16  17
ATOM     17  C   UNL     1      11.810  40.730  11.501  1.00  0.00    -0.003 C 
ATOM     18  C   UNL     1      12.363  39.325  11.723  1.00  0.00     0.004 C 
ENDBRANCH  16  17
ENDBRANCH  15  16
ENDBRANCH  14  15
ENDBRANCH  13  14
ENDBRANCH  12  13
ENDBRANCH  11  12
ENDBRANCH   1  11
TORSDOF 14
ENDMDL
MODEL 3
REMARK VINA RESULT:    -3.240      1.899      4.381
REMARK INTER + INTRA:          -7.700
REMARK INTER:                  -6.301
REMARK INTRA:                  -1.399
REMARK UNBOUND:                -1.807
REMARK SMILES CCCCCCCCCCCCCCCC(=O)[O-]
REMARK SMILES IDX 9 1 10 2 11 3 12 4 13 5 14 6 15 7 16 8 17 9 18 10 8 11 7 12
REMARK SMILES IDX 6 13 5 14 4 15 3 16 2 17 1 18
REMARK H PARENT
REMARK Flexibility Score: inf
ROOT
ATOM      1  C   UNL     1       7.635  32.563   1.472  1.00  0.00     0.000 C 
ENDROOT
BRANCH   1   2
ATOM      2  C   UNL     1       7.038  32.318   0.076  1.00  0.00     0.000 C 
BRANCH   2   3
ATOM      3  C   UNL     1       6.920  30.821  -0.271  1.00  0.00     0.000 C 
BRANCH   3   4
ATOM      4  C   UNL     1       5.582  30.160   0.109  1.00  0.00     0.000 C 
BRANCH   4   5
ATOM      5  C   UNL     1       5.738  29.048   1.159  1.00  0.00     0.000 C 
BRANCH   5   6
ATOM      6  C   UNL     1       7.051  29.163   1.951  1.00  0.00     0.006 C 
BRANCH   6   7
ATOM      7  C   UNL     1       7.675  27.797   2.267  1.00  0.00     0.053 C 
BRANCH   7   8
ATOM      8  C   UNL     1       8.561  27.896   3.470  1.00  0.00     0.041 C 
ATOM      9  O   UNL     1       8.791  26.877   4.173  1.00  0.00    -0.550 OA
ATOM     10  O   UNL     1       9.099  29.123   3.838  1.00  0.00    -0.550 OA
ENDBRANCH   7   8
ENDBRANCH   6   7
ENDBRANCH   5   6
ENDBRANCH   4   5
ENDBRANCH   3   4
ENDBRANCH   2   3
ENDBRANCH   1   2
BRANCH   1  11
ATOM     11  C   UNL     1       9.172  32.525   1.473  1.00  0.00     0.000 C 
BRANCH  11  12
ATOM     12  C   UNL     1       9.791  33.441   0.404  1.00  0.00    -0.000 C 
BRANCH  12  13
ATOM     13  C   UNL     1       9.779  34.906   0.867  1.00  0.00    -0.000 C 
BRANCH  13  14
ATOM     14  C   UNL     1       9.324  35.878  -0.234  1.00  0.00    -0.000 C 
BRANCH  14  15
ATOM     15  C   UNL     1       7.793  35.969  -0.345  1.00  0.00    -0.000 C 
BRANCH  15  16
ATOM     16  C   UNL     1       7.104  36.014   1.029  1.00  0.00    -0.000 C 
BRANCH  16  17
ATOM     17  C   UNL     1       6.376  37.344   1.283  1.00  0.00    -0.003 C 
ATOM     18  C   UNL     1       7.348  38.419   1.761  1.00  0.00     0.004 C 
ENDBRANCH  16  17
ENDBRANCH  15  16
ENDBRANCH  14  15
ENDBRANCH  13  14
ENDBRANCH  12  13
ENDBRANCH  11  12
ENDBRANCH   1  11
TORSDOF 14
ENDMDL
MODEL 4
REMARK VINA RESULT:    -3.157      2.628      4.847
REMARK INTER + INTRA:          -7.548
REMARK INTER:                  -6.721
REMARK INTRA:                  -0.826
REMARK UNBOUND:                -1.807
REMARK SMILES CCCCCCCCCCCCCCCC(=O)[O-]
REMARK SMILES IDX 9 1 10 2 11 3 12 4 13 5 14 6 15 7 16 8 17 9 18 10 8 11 7 12
REMARK SMILES IDX 6 13 5 14 4 15 3 16 2 17 1 18
REMARK H PARENT
REMARK Flexibility Score: inf
ROOT
ATOM      1  C   UNL     1       9.553  32.267   0.967  1.00  0.00     0.000 C 
ENDROOT
BRANCH   1   2
ATOM      2  C   UNL     1      10.245  30.974   1.430  1.00  0.00     0.000 C 
BRANCH   2   3
ATOM      3  C   UNL     1      10.339  30.861   2.964  1.00  0.00     0.000 C 
BRANCH   3   4
ATOM      4  C   UNL     1       9.318  29.912   3.619  1.00  0.00     0.000 C 
BRANCH   4   5
ATOM      5  C   UNL     1       8.682  28.932   2.618  1.00  0.00     0.000 C 
BRANCH   5   6
ATOM      6  C   UNL     1       8.130  27.669   3.297  1.00  0.00     0.006 C 
BRANCH   6   7
ATOM      7  C   UNL     1       9.005  26.432   3.052  1.00  0.00     0.053 C 
BRANCH   7   8
ATOM      8  C   UNL     1       8.515  25.278   3.870  1.00  0.00     0.041 C 
ATOM      9  O   UNL     1       7.599  25.446   4.718  1.00  0.00    -0.550 OA
ATOM     10  O   UNL     1       9.100  24.026   3.727  1.00  0.00    -0.550 OA
ENDBRANCH   7   8
ENDBRANCH   6   7
ENDBRANCH   5   6
ENDBRANCH   4   5
ENDBRANCH   3   4
ENDBRANCH   2   3
ENDBRANCH   1   2
BRANCH   1  11
ATOM     11  C   UNL     1       8.021  32.180   1.051  1.00  0.00     0.000 C 
BRANCH  11  12
ATOM     12  C   UNL     1       7.369  33.514   1.449  1.00  0.00    -0.000 C 
BRANCH  12  13
ATOM     13  C   UNL     1       8.214  34.702   0.961  1.00  0.00    -0.000 C 
BRANCH  13  14
ATOM     14  C   UNL     1       7.385  35.759   0.214  1.00  0.00    -0.000 C 
BRANCH  14  15
ATOM     15  C   UNL     1       6.619  36.692   1.169  1.00  0.00    -0.000 C 
BRANCH  15  16
ATOM     16  C   UNL     1       7.536  37.725   1.845  1.00  0.00    -0.000 C 
BRANCH  16  17
ATOM     17  C   UNL     1       6.947  39.144   1.821  1.00  0.00    -0.003 C 
ATOM     18  C   UNL     1       7.653  40.013   0.784  1.00  0.00     0.004 C 
ENDBRANCH  16  17
ENDBRANCH  15  16
ENDBRANCH  14  15
ENDBRANCH  13  14
ENDBRANCH  12  13
ENDBRANCH  11  12
ENDBRANCH   1  11
TORSDOF 14
ENDMDL
MODEL 5
REMARK VINA RESULT:    -3.112      8.548     10.190
REMARK INTER + INTRA:          -7.466
REMARK INTER:                  -5.412
REMARK INTRA:                  -2.054
REMARK UNBOUND:                -1.807
REMARK SMILES CCCCCCCCCCCCCCCC(=O)[O-]
REMARK SMILES IDX 9 1 10 2 11 3 12 4 13 5 14 6 15 7 16 8 17 9 18 10 8 11 7 12
REMARK SMILES IDX 6 13 5 14 4 15 3 16 2 17 1 18
REMARK H PARENT
REMARK Flexibility Score: inf
ROOT
ATOM      1  C   UNL     1      -0.456  40.381   3.107  1.00  0.00     0.000 C 
ENDROOT
BRANCH   1   2
ATOM      2  C   UNL     1      -0.533  38.846   3.049  1.00  0.00     0.000 C 
BRANCH   2   3
ATOM      3  C   UNL     1      -1.405  38.246   4.169  1.00  0.00     0.000 C 
BRANCH   3   4
ATOM      4  C   UNL     1      -1.194  36.744   4.436  1.00  0.00     0.000 C 
BRANCH   4   5
ATOM      5  C   UNL     1       0.290  36.360   4.555  1.00  0.00     0.000 C 
BRANCH   5   6
ATOM      6  C   UNL     1       0.659  35.146   3.687  1.00  0.00     0.006 C 
BRANCH   6   7
ATOM      7  C   UNL     1       0.263  35.326   2.215  1.00  0.00     0.053 C 
BRANCH   7   8
ATOM      8  C   UNL     1      -0.522  34.144   1.739  1.00  0.00     0.041 C 
ATOM      9  O   UNL     1      -0.073  33.415   0.815  1.00  0.00    -0.550 OA
ATOM     10  O   UNL     1      -1.769  33.870   2.287  1.00  0.00    -0.550 OA
ENDBRANCH   7   8
ENDBRANCH   6   7
ENDBRANCH   5   6
ENDBRANCH   4   5
ENDBRANCH   3   4
ENDBRANCH   2   3
ENDBRANCH   1   2
BRANCH   1  11
ATOM     11  C   UNL     1       0.613  40.883   4.091  1.00  0.00     0.000 C 
BRANCH  11  12
ATOM     12  C   UNL     1       0.008  41.519   5.353  1.00  0.00    -0.000 C 
BRANCH  12  13
ATOM     13  C   UNL     1       0.569  40.856   6.621  1.00  0.00    -0.000 C 
BRANCH  13  14
ATOM     14  C   UNL     1       1.417  39.610   6.320  1.00  0.00    -0.000 C 
BRANCH  14  15
ATOM     15  C   UNL     1       0.998  38.393   7.163  1.00  0.00    -0.000 C 
BRANCH  15  16
ATOM     16  C   UNL     1      -0.090  38.736   8.193  1.00  0.00    -0.000 C 
BRANCH  16  17
ATOM     17  C   UNL     1      -1.456  38.131   7.835  1.00  0.00    -0.003 C 
ATOM     18  C   UNL     1      -1.599  36.723   8.405  1.00  0.00     0.004 C 
ENDBRANCH  16  17
ENDBRANCH  15  16
ENDBRANCH  14  15
ENDBRANCH  13  14
ENDBRANCH  12  13
ENDBRANCH  11  12
ENDBRANCH   1  11
TORSDOF 14
ENDMDL
MODEL 6
REMARK VINA RESULT:    -3.108     14.565     16.069
REMARK INTER + INTRA:          -7.460
REMARK INTER:                  -6.257
REMARK INTRA:                  -1.203
REMARK UNBOUND:                -1.807
REMARK SMILES CCCCCCCCCCCCCCCC(=O)[O-]
REMARK SMILES IDX 9 1 10 2 11 3 12 4 13 5 14 6 15 7 16 8 17 9 18 10 8 11 7 12
REMARK SMILES IDX 6 13 5 14 4 15 3 16 2 17 1 18
REMARK H PARENT
REMARK Flexibility Score: inf
ROOT
ATOM      1  C   UNL     1       7.344  39.997  16.380  1.00  0.00     0.000 C 
ENDROOT
BRANCH   1   2
ATOM      2  C   UNL     1       7.387  40.476  17.841  1.00  0.00     0.000 C 
BRANCH   2   3
ATOM      3  C   UNL     1       6.374  39.744  18.742  1.00  0.00     0.000 C 
BRANCH   3   4
ATOM      4  C   UNL     1       5.869  38.393  18.204  1.00  0.00     0.000 C 
BRANCH   4   5
ATOM      5  C   UNL     1       4.456  38.040  18.699  1.00  0.00     0.000 C 
BRANCH   5   6
ATOM      6  C   UNL     1       3.446  37.896  17.550  1.00  0.00     0.006 C 
BRANCH   6   7
ATOM      7  C   UNL     1       3.999  38.390  16.206  1.00  0.00     0.053 C 
BRANCH   7   8
ATOM      8  C   UNL     1       3.199  39.553  15.710  1.00  0.00     0.041 C 
ATOM      9  O   UNL     1       3.687  40.714  15.734  1.00  0.00    -0.550 OA
ATOM     10  O   UNL     1       1.898  39.362  15.259  1.00  0.00    -0.550 OA
ENDBRANCH   7   8
ENDBRANCH   6   7
ENDBRANCH   5   6
ENDBRANCH   4   5
ENDBRANCH   3   4
ENDBRANCH   2   3
ENDBRANCH   1   2
BRANCH   1  11
ATOM     11  C   UNL     1       7.125  41.149  15.386  1.00  0.00     0.000 C 
BRANCH  11  12
ATOM     12  C   UNL     1       8.323  41.359  14.446  1.00  0.00    -0.000 C 
BRANCH  12  13
ATOM     13  C   UNL     1       9.400  40.289  14.684  1.00  0.00    -0.000 C 
BRANCH  13  14
ATOM     14  C   UNL     1      10.735  40.881  15.164  1.00  0.00    -0.000 C 
BRANCH  14  15
ATOM     15  C   UNL     1      11.874  40.663  14.152  1.00  0.00    -0.000 C 
BRANCH  15  16
ATOM     16  C   UNL     1      11.572  41.288  12.781  1.00  0.00    -0.000 C 
BRANCH  16  17
ATOM     17  C   UNL     1      11.313  40.233  11.693  1.00  0.00    -0.003 C 
ATOM     18  C   UNL     1      12.392  39.154  11.708  1.00  0.00     0.004 C 
ENDBRANCH  16  17
ENDBRANCH  15  16
ENDBRANCH  14  15
ENDBRANCH  13  14
ENDBRANCH  12  13
ENDBRANCH  11  12
ENDBRANCH   1  11
TORSDOF 14
ENDMDL
MODEL 7
REMARK VINA RESULT:    -3.108      1.811      3.797
REMARK INTER + INTRA:          -7.460
REMARK INTER:                  -5.769
REMARK INTRA:                  -1.691
REMARK UNBOUND:                -1.807
REMARK SMILES CCCCCCCCCCCCCCCC(=O)[O-]
REMARK SMILES IDX 9 1 10 2 11 3 12 4 13 5 14 6 15 7 16 8 17 9 18 10 8 11 7 12
REMARK SMILES IDX 6 13 5 14 4 15 3 16 2 17 1 18
REMARK H PARENT
REMARK Flexibility Score: inf
ROOT
ATOM      1  C   UNL     1      10.360  33.107   0.745  1.00  0.00     0.000 C 
ENDROOT
BRANCH   1   2
ATOM      2  C   UNL     1       9.447  32.786  -0.450  1.00  0.00     0.000 C 
BRANCH   2   3
ATOM      3  C   UNL     1       7.987  32.521  -0.035  1.00  0.00     0.000 C 
BRANCH   3   4
ATOM      4  C   UNL     1       7.743  32.415   1.482  1.00  0.00     0.000 C 
BRANCH   4   5
ATOM      5  C   UNL     1       7.322  31.004   1.925  1.00  0.00     0.000 C 
BRANCH   5   6
ATOM      6  C   UNL     1       8.143  29.899   1.240  1.00  0.00     0.006 C 
BRANCH   6   7
ATOM      7  C   UNL     1       9.479  29.628   1.945  1.00  0.00     0.053 C 
BRANCH   7   8
ATOM      8  C   UNL     1       9.254  29.353   3.399  1.00  0.00     0.041 C 
ATOM      9  O   UNL     1       9.595  30.202   4.265  1.00  0.00    -0.550 OA
ATOM     10  O   UNL     1       8.705  28.142   3.801  1.00  0.00    -0.550 OA
ENDBRANCH   7   8
ENDBRANCH   6   7
ENDBRANCH   5   6
ENDBRANCH   4   5
ENDBRANCH   3   4
ENDBRANCH   2   3
ENDBRANCH   1   2
BRANCH   1  11
ATOM     11  C   UNL     1      10.750  34.593   0.809  1.00  0.00     0.000 C 
BRANCH  11  12
ATOM     12  C   UNL     1      10.542  35.321  -0.528  1.00  0.00    -0.000 C 
BRANCH  12  13
ATOM     13  C   UNL     1       9.385  36.327  -0.428  1.00  0.00    -0.000 C 
BRANCH  13  14
ATOM     14  C   UNL     1       8.745  36.366   0.969  1.00  0.00    -0.000 C 
BRANCH  14  15
ATOM     15  C   UNL     1       7.259  35.968   0.950  1.00  0.00    -0.000 C 
BRANCH  15  16
ATOM     16  C   UNL     1       6.343  37.086   1.473  1.00  0.00    -0.000 C 
BRANCH  16  17
ATOM     17  C   UNL     1       6.516  38.404   0.703  1.00  0.00    -0.003 C 
ATOM     18  C   UNL     1       6.783  39.566   1.656  1.00  0.00     0.004 C 
ENDBRANCH  16  17
ENDBRANCH  15  16
ENDBRANCH  14  15
ENDBRANCH  13  14
ENDBRANCH  12  13
ENDBRANCH  11  12
ENDBRANCH   1  11
TORSDOF 14
ENDMDL
MODEL 8
REMARK VINA RESULT:    -3.102      8.603     10.462
REMARK INTER + INTRA:          -7.449
REMARK INTER:                  -5.023
REMARK INTRA:                  -2.426
REMARK UNBOUND:                -1.807
REMARK SMILES CCCCCCCCCCCCCCCC(=O)[O-]
REMARK SMILES IDX 9 1 10 2 11 3 12 4 13 5 14 6 15 7 16 8 17 9 18 10 8 11 7 12
REMARK SMILES IDX 6 13 5 14 4 15 3 16 2 17 1 18
REMARK H PARENT
REMARK Flexibility Score: inf
ROOT
ATOM      1  C   UNL     1      -1.378  37.942   7.967  1.00  0.00     0.000 C 
ENDROOT
BRANCH   1   2
ATOM      2  C   UNL     1      -1.161  36.835   6.922  1.00  0.00     0.000 C 
BRANCH   2   3
ATOM      3  C   UNL     1      -2.077  36.983   5.692  1.00  0.00     0.000 C 
BRANCH   3   4
ATOM      4  C   UNL     1      -1.494  36.452   4.368  1.00  0.00     0.000 C 
BRANCH   4   5
ATOM      5  C   UNL     1       0.038  36.567   4.300  1.00  0.00     0.000 C 
BRANCH   5   6
ATOM      6  C   UNL     1       0.698  35.315   3.698  1.00  0.00     0.006 C 
BRANCH   6   7
ATOM      7  C   UNL     1      -0.320  34.337   3.098  1.00  0.00     0.053 C 
BRANCH   7   8
ATOM      8  C   UNL     1      -0.237  34.351   1.604  1.00  0.00     0.041 C 
ATOM      9  O   UNL     1      -0.156  33.270   0.963  1.00  0.00    -0.550 OA
ATOM     10  O   UNL     1      -0.206  35.561   0.920  1.00  0.00    -0.550 OA
ENDBRANCH   7   8
ENDBRANCH   6   7
ENDBRANCH   5   6
ENDBRANCH   4   5
ENDBRANCH   3   4
ENDBRANCH   2   3
ENDBRANCH   1   2
BRANCH   1  11
ATOM     11  C   UNL     1      -0.124  38.803   8.185  1.00  0.00     0.000 C 
BRANCH  11  12
ATOM     12  C   UNL     1       0.962  38.555   7.126  1.00  0.00    -0.000 C 
BRANCH  12  13
ATOM     13  C   UNL     1       1.363  39.868   6.436  1.00  0.00    -0.000 C 
BRANCH  13  14
ATOM     14  C   UNL     1       0.899  39.940   4.972  1.00  0.00    -0.000 C 
BRANCH  14  15
ATOM     15  C   UNL     1      -0.122  41.065   4.731  1.00  0.00    -0.000 C 
BRANCH  15  16
ATOM     16  C   UNL     1      -1.551  40.532   4.540  1.00  0.00    -0.000 C 
BRANCH  16  17
ATOM     17  C   UNL     1      -2.414  40.682   5.804  1.00  0.00    -0.003 C 
ATOM     18  C   UNL     1      -1.886  41.801   6.698  1.00  0.00     0.004 C 
ENDBRANCH  16  17
ENDBRANCH  15  16
ENDBRANCH  14  15
ENDBRANCH  13  14
ENDBRANCH  12  13
ENDBRANCH  11  12
ENDBRANCH   1  11
TORSDOF 14
ENDMDL
MODEL 9
REMARK VINA RESULT:    -3.055      3.502      8.022
REMARK INTER + INTRA:          -7.363
REMARK INTER:                  -4.809
REMARK INTRA:                  -2.553
REMARK UNBOUND:                -1.807
REMARK SMILES CCCCCCCCCCCCCCCC(=O)[O-]
REMARK SMILES IDX 9 1 10 2 11 3 12 4 13 5 14 6 15 7 16 8 17 9 18 10 8 11 7 12
REMARK SMILES IDX 6 13 5 14 4 15 3 16 2 17 1 18
REMARK H PARENT
REMARK Flexibility Score: inf
ROOT
ATOM      1  C   UNL     1       8.167  29.141   2.997  1.00  0.00     0.000 C 
ENDROOT
BRANCH   1   2
ATOM      2  C   UNL     1       8.243  30.677   2.957  1.00  0.00     0.000 C 
BRANCH   2   3
ATOM      3  C   UNL     1       9.552  31.196   2.331  1.00  0.00     0.000 C 
BRANCH   3   4
ATOM      4  C   UNL     1       9.395  32.387   1.367  1.00  0.00     0.000 C 
BRANCH   4   5
ATOM      5  C   UNL     1       8.010  33.050   1.454  1.00  0.00     0.000 C 
BRANCH   5   6
ATOM      6  C   UNL     1       7.741  34.014   0.288  1.00  0.00     0.006 C 
BRANCH   6   7
ATOM      7  C   UNL     1       7.217  35.379   0.753  1.00  0.00     0.053 C 
BRANCH   7   8
ATOM      8  C   UNL     1       8.358  36.293   1.073  1.00  0.00     0.041 C 
ATOM      9  O   UNL     1       9.527  36.000   0.705  1.00  0.00    -0.550 OA
ATOM     10  O   UNL     1       8.139  37.447   1.815  1.00  0.00    -0.550 OA
ENDBRANCH   7   8
ENDBRANCH   6   7
ENDBRANCH   5   6
ENDBRANCH   4   5
ENDBRANCH   3   4
ENDBRANCH   2   3
ENDBRANCH   1   2
BRANCH   1  11
ATOM     11  C   UNL     1       6.921  28.592   2.283  1.00  0.00     0.000 C 
BRANCH  11  12
ATOM     12  C   UNL     1       6.214  29.650   1.421  1.00  0.00    -0.000 C 
BRANCH  12  13
ATOM     13  C   UNL     1       6.344  29.313  -0.072  1.00  0.00    -0.000 C 
BRANCH  13  14
ATOM     14  C   UNL     1       7.336  30.228  -0.808  1.00  0.00    -0.000 C 
BRANCH  14  15
ATOM     15  C   UNL     1       8.693  29.548  -1.057  1.00  0.00    -0.000 C 
BRANCH  15  16
ATOM     16  C   UNL     1       8.605  28.015  -0.986  1.00  0.00    -0.000 C 
BRANCH  16  17
ATOM     17  C   UNL     1       9.633  27.407  -0.018  1.00  0.00    -0.003 C 
ATOM     18  C   UNL     1      10.742  28.405   0.302  1.00  0.00     0.004 C 
ENDBRANCH  16  17
ENDBRANCH  15  16
ENDBRANCH  14  15
ENDBRANCH  13  14
ENDBRANCH  12  13
ENDBRANCH  11  12
ENDBRANCH   1  11
TORSDOF 14
ENDMDL
