MODEL 1
REMARK VINA RESULT:    -6.603      0.000      0.000
REMARK INTER + INTRA:          -8.197
REMARK INTER:                  -7.954
REMARK INTRA:                  -0.243
REMARK UNBOUND:                -0.243
REMARK SMILES O=c1c(O)c(-c2ccc(O)c(O)c2)oc2cc(O)cc(O)c12
REMARK SMILES IDX 5 1 3 2 2 3 1 4 22 5 20 6 19 7 17 8 16 9 15 10 14 11 6 12
REMARK SMILES IDX 7 13 8 14 9 15 13 16 11 17 10 18 12 20 4 22 21 24 18 26
REMARK H PARENT 10 19 12 21 4 23 21 25 18 27
REMARK Flexibility Score: inf
ROOT
ATOM      1  C   UNL     1      -9.393  34.384  -3.596  1.00  0.00     0.180 A 
ATOM      2  C   UNL     1     -10.098  34.451  -2.382  1.00  0.00     0.208 A 
ATOM      3  C   UNL     1     -10.624  35.685  -1.966  1.00  0.00     0.238 A 
ATOM      4  O   UNL     1     -11.206  35.749  -0.852  1.00  0.00    -0.285 OA
ATOM      5  C   UNL     1     -10.454  36.833  -2.777  1.00  0.00     0.111 A 
ATOM      6  C   UNL     1     -10.979  38.124  -2.473  1.00  0.00     0.134 A 
ATOM      7  C   UNL     1     -10.638  39.217  -3.282  1.00  0.00     0.093 A 
ATOM      8  C   UNL     1      -9.845  39.049  -4.419  1.00  0.00     0.123 A 
ATOM      9  C   UNL     1      -9.376  37.782  -4.757  1.00  0.00     0.094 A 
ATOM     10  C   UNL     1      -9.669  36.681  -3.950  1.00  0.00     0.146 A 
ATOM     11  O   UNL     1      -9.194  35.492  -4.302  1.00  0.00    -0.452 OA
ENDROOT
BRANCH   1  12
ATOM     12  C   UNL     1      -8.830  33.116  -4.114  1.00  0.00     0.025 A 
ATOM     13  C   UNL     1      -9.477  32.452  -5.167  1.00  0.00     0.016 A 
ATOM     14  C   UNL     1      -8.974  31.244  -5.657  1.00  0.00     0.051 A 
ATOM     15  C   UNL     1      -7.830  30.674  -5.092  1.00  0.00     0.157 A 
ATOM     16  C   UNL     1      -7.691  32.530  -3.533  1.00  0.00     0.062 A 
ATOM     17  C   UNL     1      -7.186  31.317  -4.022  1.00  0.00     0.158 A 
BRANCH  15  18
ATOM     18  O   UNL     1      -7.351  29.468  -5.604  1.00  0.00    -0.504 OA
ATOM     19  H   UNL     1      -7.962  28.788  -6.040  1.00  0.00     0.293 HD
ENDBRANCH  15  18
BRANCH  17  20
ATOM     20  O   UNL     1      -6.053  30.746  -3.445  1.00  0.00    -0.504 OA
ATOM     21  H   UNL     1      -5.650  29.888  -3.802  1.00  0.00     0.293 HD
ENDBRANCH  17  20
ENDBRANCH   1  12
BRANCH   2  22
ATOM     22  O   UNL     1     -10.235  33.310  -1.586  1.00  0.00    -0.502 OA
ATOM     23  H   UNL     1      -9.439  32.825  -1.188  1.00  0.00     0.293 HD
ENDBRANCH   2  22
BRANCH   6  24
ATOM     24  O   UNL     1     -11.855  38.381  -1.415  1.00  0.00    -0.507 OA
ATOM     25  H   UNL     1     -12.808  38.691  -1.521  1.00  0.00     0.293 HD
ENDBRANCH   6  24
BRANCH   8  26
ATOM     26  O   UNL     1      -9.523  40.139  -5.227  1.00  0.00    -0.508 OA
ATOM     27  H   UNL     1      -9.247  40.019  -6.194  1.00  0.00     0.293 HD
ENDBRANCH   8  26
TORSDOF 6
ENDMDL
MODEL 2
REMARK VINA RESULT:    -6.580      8.023      9.367
REMARK INTER + INTRA:          -8.170
REMARK INTER:                  -7.913
REMARK INTRA:                  -0.257
REMARK UNBOUND:                -0.243
REMARK SMILES O=c1c(O)c(-c2ccc(O)c(O)c2)oc2cc(O)cc(O)c12
REMARK SMILES IDX 5 1 3 2 2 3 1 4 22 5 20 6 19 7 17 8 16 9 15 10 14 11 6 12
REMARK SMILES IDX 7 13 8 14 9 15 13 16 11 17 10 18 12 20 4 22 21 24 18 26
REMARK H PARENT 10 19 12 21 4 23 21 25 18 27
REMARK Flexibility Score: inf
ROOT
ATOM      1  C   UNL     1     -16.666  31.381  -0.728  1.00  0.00     0.180 A 
ATOM      2  C   UNL     1     -16.216  31.907  -1.951  1.00  0.00     0.208 A 
ATOM      3  C   UNL     1     -16.752  33.120  -2.411  1.00  0.00     0.238 A 
ATOM      4  O   UNL     1     -16.385  33.557  -3.533  1.00  0.00    -0.285 OA
ATOM      5  C   UNL     1     -17.720  33.801  -1.634  1.00  0.00     0.111 A 
ATOM      6  C   UNL     1     -18.302  35.056  -1.982  1.00  0.00     0.134 A 
ATOM      7  C   UNL     1     -19.346  35.575  -1.204  1.00  0.00     0.093 A 
ATOM      8  C   UNL     1     -19.782  34.913  -0.054  1.00  0.00     0.123 A 
ATOM      9  C   UNL     1     -19.179  33.717   0.328  1.00  0.00     0.094 A 
ATOM     10  C   UNL     1     -18.162  33.157  -0.448  1.00  0.00     0.146 A 
ATOM     11  O   UNL     1     -17.623  32.010  -0.055  1.00  0.00    -0.452 OA
ENDROOT
BRANCH   1  12
ATOM     12  C   UNL     1     -16.130  30.120  -0.166  1.00  0.00     0.025 A 
ATOM     13  C   UNL     1     -15.202  30.171   0.886  1.00  0.00     0.016 A 
ATOM     14  C   UNL     1     -14.669  28.994   1.417  1.00  0.00     0.051 A 
ATOM     15  C   UNL     1     -15.041  27.752   0.896  1.00  0.00     0.157 A 
ATOM     16  C   UNL     1     -16.487  28.870  -0.702  1.00  0.00     0.062 A 
ATOM     17  C   UNL     1     -15.952  27.687  -0.171  1.00  0.00     0.158 A 
BRANCH  15  18
ATOM     18  O   UNL     1     -14.493  26.594   1.449  1.00  0.00    -0.504 OA
ATOM     19  H   UNL     1     -13.597  26.226   1.149  1.00  0.00     0.293 HD
ENDBRANCH  15  18
BRANCH  17  20
ATOM     20  O   UNL     1     -16.316  26.452  -0.705  1.00  0.00    -0.504 OA
ATOM     21  H   UNL     1     -16.160  25.588  -0.198  1.00  0.00     0.293 HD
ENDBRANCH  17  20
ENDBRANCH   1  12
BRANCH   2  22
ATOM     22  O   UNL     1     -15.276  31.207  -2.713  1.00  0.00    -0.502 OA
ATOM     23  H   UNL     1     -15.159  31.359  -3.708  1.00  0.00     0.293 HD
ENDBRANCH   2  22
BRANCH   6  24
ATOM     24  O   UNL     1     -17.877  35.842  -3.057  1.00  0.00    -0.507 OA
ATOM     25  H   UNL     1     -17.063  36.438  -3.047  1.00  0.00     0.293 HD
ENDBRANCH   6  24
BRANCH   8  26
ATOM     26  O   UNL     1     -20.811  35.444   0.723  1.00  0.00    -0.508 OA
ATOM     27  H   UNL     1     -21.737  35.598   0.342  1.00  0.00     0.293 HD
ENDBRANCH   8  26
TORSDOF 6
ENDMDL
MODEL 3
REMARK VINA RESULT:    -6.564      8.305     11.171
REMARK INTER + INTRA:          -8.150
REMARK INTER:                  -7.837
REMARK INTRA:                  -0.312
REMARK UNBOUND:                -0.243
REMARK SMILES O=c1c(O)c(-c2ccc(O)c(O)c2)oc2cc(O)cc(O)c12
REMARK SMILES IDX 5 1 3 2 2 3 1 4 22 5 20 6 19 7 17 8 16 9 15 10 14 11 6 12
REMARK SMILES IDX 7 13 8 14 9 15 13 16 11 17 10 18 12 20 4 22 21 24 18 26
REMARK H PARENT 10 19 12 21 4 23 21 25 18 27
REMARK Flexibility Score: inf
ROOT
ATOM      1  C   UNL     1     -16.951  32.288  -0.196  1.00  0.00     0.180 A 
ATOM      2  C   UNL     1     -15.883  32.520   0.687  1.00  0.00     0.208 A 
ATOM      3  C   UNL     1     -15.045  31.450   1.041  1.00  0.00     0.238 A 
ATOM      4  O   UNL     1     -14.125  31.653   1.875  1.00  0.00    -0.285 OA
ATOM      5  C   UNL     1     -15.277  30.164   0.495  1.00  0.00     0.111 A 
ATOM      6  C   UNL     1     -14.468  29.017   0.753  1.00  0.00     0.134 A 
ATOM      7  C   UNL     1     -14.867  27.766   0.262  1.00  0.00     0.093 A 
ATOM      8  C   UNL     1     -16.009  27.636  -0.531  1.00  0.00     0.123 A 
ATOM      9  C   UNL     1     -16.772  28.760  -0.837  1.00  0.00     0.094 A 
ATOM     10  C   UNL     1     -16.420  30.013  -0.332  1.00  0.00     0.146 A 
ATOM     11  O   UNL     1     -17.181  31.057  -0.640  1.00  0.00    -0.452 OA
ENDROOT
BRANCH   1  12
ATOM     12  C   UNL     1     -17.861  33.370  -0.636  1.00  0.00     0.025 A 
ATOM     13  C   UNL     1     -17.585  34.067  -1.822  1.00  0.00     0.016 A 
ATOM     14  C   UNL     1     -18.419  35.105  -2.245  1.00  0.00     0.051 A 
ATOM     15  C   UNL     1     -19.531  35.472  -1.482  1.00  0.00     0.157 A 
ATOM     16  C   UNL     1     -18.968  33.755   0.141  1.00  0.00     0.062 A 
ATOM     17  C   UNL     1     -19.806  34.798  -0.280  1.00  0.00     0.158 A 
BRANCH  15  18
ATOM     18  O   UNL     1     -20.347  36.511  -1.930  1.00  0.00    -0.504 OA
ATOM     19  H   UNL     1     -20.206  37.471  -1.636  1.00  0.00     0.293 HD
ENDBRANCH  15  18
BRANCH  17  20
ATOM     20  O   UNL     1     -20.905  35.170   0.493  1.00  0.00    -0.504 OA
ATOM     21  H   UNL     1     -20.968  34.933   1.476  1.00  0.00     0.293 HD
ENDBRANCH  17  20
ENDBRANCH   1  12
BRANCH   2  22
ATOM     22  O   UNL     1     -15.686  33.792   1.232  1.00  0.00    -0.502 OA
ATOM     23  H   UNL     1     -16.407  34.503   1.229  1.00  0.00     0.293 HD
ENDBRANCH   2  22
BRANCH   6  24
ATOM     24  O   UNL     1     -13.261  29.056   1.455  1.00  0.00    -0.507 OA
ATOM     25  H   UNL     1     -12.698  28.248   1.675  1.00  0.00     0.293 HD
ENDBRANCH   6  24
BRANCH   8  26
ATOM     26  O   UNL     1     -16.389  26.390  -1.027  1.00  0.00    -0.508 OA
ATOM     27  H   UNL     1     -15.719  25.640  -1.147  1.00  0.00     0.293 HD
ENDBRANCH   8  26
TORSDOF 6
ENDMDL
MODEL 4
REMARK VINA RESULT:    -6.549      1.558      7.016
REMARK INTER + INTRA:          -8.132
REMARK INTER:                  -7.812
REMARK INTRA:                  -0.320
REMARK UNBOUND:                -0.243
REMARK SMILES O=c1c(O)c(-c2ccc(O)c(O)c2)oc2cc(O)cc(O)c12
REMARK SMILES IDX 5 1 3 2 2 3 1 4 22 5 20 6 19 7 17 8 16 9 15 10 14 11 6 12
REMARK SMILES IDX 7 13 8 14 9 15 13 16 11 17 10 18 12 20 4 22 21 24 18 26
REMARK H PARENT 10 19 12 21 4 23 21 25 18 27
REMARK Flexibility Score: inf
ROOT
ATOM      1  C   UNL     1      -9.787  34.995  -4.135  1.00  0.00     0.180 A 
ATOM      2  C   UNL     1     -10.726  34.404  -4.997  1.00  0.00     0.208 A 
ATOM      3  C   UNL     1     -10.576  33.052  -5.345  1.00  0.00     0.238 A 
ATOM      4  O   UNL     1     -11.389  32.543  -6.161  1.00  0.00    -0.285 OA
ATOM      5  C   UNL     1      -9.497  32.304  -4.814  1.00  0.00     0.111 A 
ATOM      6  C   UNL     1      -9.271  30.918  -5.067  1.00  0.00     0.134 A 
ATOM      7  C   UNL     1      -8.099  30.311  -4.595  1.00  0.00     0.093 A 
ATOM      8  C   UNL     1      -7.180  31.026  -3.823  1.00  0.00     0.123 A 
ATOM      9  C   UNL     1      -7.422  32.364  -3.521  1.00  0.00     0.094 A 
ATOM     10  C   UNL     1      -8.563  33.005  -4.009  1.00  0.00     0.146 A 
ATOM     11  O   UNL     1      -8.749  34.285  -3.706  1.00  0.00    -0.452 OA
ENDROOT
BRANCH   1  12
ATOM     12  C   UNL     1      -9.892  36.408  -3.703  1.00  0.00     0.025 A 
ATOM     13  C   UNL     1     -10.697  36.736  -2.602  1.00  0.00     0.016 A 
ATOM     14  C   UNL     1     -10.826  38.065  -2.190  1.00  0.00     0.051 A 
ATOM     15  C   UNL     1     -10.167  39.085  -2.880  1.00  0.00     0.157 A 
ATOM     16  C   UNL     1      -9.245  37.439  -4.408  1.00  0.00     0.062 A 
ATOM     17  C   UNL     1      -9.375  38.773  -3.998  1.00  0.00     0.158 A 
BRANCH  15  18
ATOM     18  O   UNL     1     -10.313  40.402  -2.443  1.00  0.00    -0.504 OA
ATOM     19  H   UNL     1      -9.539  40.930  -2.057  1.00  0.00     0.293 HD
ENDBRANCH  15  18
BRANCH  17  20
ATOM     20  O   UNL     1      -8.726  39.788  -4.699  1.00  0.00    -0.504 OA
ATOM     21  H   UNL     1      -8.390  39.650  -5.644  1.00  0.00     0.293 HD
ENDBRANCH  17  20
ENDBRANCH   1  12
BRANCH   2  22
ATOM     22  O   UNL     1     -11.770  35.167  -5.528  1.00  0.00    -0.502 OA
ATOM     23  H   UNL     1     -11.745  36.179  -5.555  1.00  0.00     0.293 HD
ENDBRANCH   2  22
BRANCH   6  24
ATOM     24  O   UNL     1     -10.170  30.092  -5.747  1.00  0.00    -0.507 OA
ATOM     25  H   UNL     1      -9.920  29.461  -6.493  1.00  0.00     0.293 HD
ENDBRANCH   6  24
BRANCH   8  26
ATOM     26  O   UNL     1      -6.025  30.411  -3.344  1.00  0.00    -0.508 OA
ATOM     27  H   UNL     1      -5.690  29.537  -3.733  1.00  0.00     0.293 HD
ENDBRANCH   8  26
TORSDOF 6
ENDMDL
MODEL 5
REMARK VINA RESULT:    -6.079      4.316      5.210
REMARK INTER + INTRA:          -7.566
REMARK INTER:                  -7.257
REMARK INTRA:                  -0.308
REMARK UNBOUND:                -0.243
REMARK SMILES O=c1c(O)c(-c2ccc(O)c(O)c2)oc2cc(O)cc(O)c12
REMARK SMILES IDX 5 1 3 2 2 3 1 4 22 5 20 6 19 7 17 8 16 9 15 10 14 11 6 12
REMARK SMILES IDX 7 13 8 14 9 15 13 16 11 17 10 18 12 20 4 22 21 24 18 26
REMARK H PARENT 10 19 12 21 4 23 21 25 18 27
REMARK Flexibility Score: inf
ROOT
ATOM      1  C   UNL     1      -9.589  32.007  -6.169  1.00  0.00     0.180 A 
ATOM      2  C   UNL     1     -10.792  32.532  -5.667  1.00  0.00     0.208 A 
ATOM      3  C   UNL     1     -11.611  33.295  -6.516  1.00  0.00     0.238 A 
ATOM      4  O   UNL     1     -12.659  33.808  -6.044  1.00  0.00    -0.285 OA
ATOM      5  C   UNL     1     -11.224  33.509  -7.861  1.00  0.00     0.111 A 
ATOM      6  C   UNL     1     -11.995  34.231  -8.820  1.00  0.00     0.134 A 
ATOM      7  C   UNL     1     -11.455  34.493 -10.086  1.00  0.00     0.093 A 
ATOM      8  C   UNL     1     -10.199  34.001 -10.447  1.00  0.00     0.123 A 
ATOM      9  C   UNL     1      -9.463  33.243  -9.538  1.00  0.00     0.094 A 
ATOM     10  C   UNL     1      -9.960  32.998  -8.256  1.00  0.00     0.146 A 
ATOM     11  O   UNL     1      -9.223  32.281  -7.416  1.00  0.00    -0.452 OA
ENDROOT
BRANCH   1  12
ATOM     12  C   UNL     1      -8.686  31.174  -5.343  1.00  0.00     0.025 A 
ATOM     13  C   UNL     1      -8.800  29.776  -5.390  1.00  0.00     0.016 A 
ATOM     14  C   UNL     1      -7.972  28.971  -4.603  1.00  0.00     0.051 A 
ATOM     15  C   UNL     1      -7.030  29.550  -3.749  1.00  0.00     0.157 A 
ATOM     16  C   UNL     1      -7.752  31.754  -4.468  1.00  0.00     0.062 A 
ATOM     17  C   UNL     1      -6.920  30.948  -3.676  1.00  0.00     0.158 A 
BRANCH  15  18
ATOM     18  O   UNL     1      -6.215  28.720  -2.978  1.00  0.00    -0.504 OA
ATOM     19  H   UNL     1      -5.864  29.004  -2.071  1.00  0.00     0.293 HD
ENDBRANCH  15  18
BRANCH  17  20
ATOM     20  O   UNL     1      -5.992  31.532  -2.815  1.00  0.00    -0.504 OA
ATOM     21  H   UNL     1      -6.081  32.494  -2.512  1.00  0.00     0.293 HD
ENDBRANCH  17  20
ENDBRANCH   1  12
BRANCH   2  22
ATOM     22  O   UNL     1     -11.144  32.328  -4.330  1.00  0.00    -0.502 OA
ATOM     23  H   UNL     1     -10.460  32.318  -3.582  1.00  0.00     0.293 HD
ENDBRANCH   2  22
BRANCH   6  24
ATOM     24  O   UNL     1     -13.297  34.686  -8.592  1.00  0.00    -0.507 OA
ATOM     25  H   UNL     1     -13.530  35.568  -8.162  1.00  0.00     0.293 HD
ENDBRANCH   6  24
BRANCH   8  26
ATOM     26  O   UNL     1      -9.675  34.252 -11.714  1.00  0.00    -0.508 OA
ATOM     27  H   UNL     1      -9.043  33.601 -12.165  1.00  0.00     0.293 HD
ENDBRANCH   8  26
TORSDOF 6
ENDMDL
MODEL 6
REMARK VINA RESULT:    -5.927      2.852      7.016
REMARK INTER + INTRA:          -7.383
REMARK INTER:                  -7.600
REMARK INTRA:                   0.216
REMARK UNBOUND:                -0.243
REMARK SMILES O=c1c(O)c(-c2ccc(O)c(O)c2)oc2cc(O)cc(O)c12
REMARK SMILES IDX 5 1 3 2 2 3 1 4 22 5 20 6 19 7 17 8 16 9 15 10 14 11 6 12
REMARK SMILES IDX 7 13 8 14 9 15 13 16 11 17 10 18 12 20 4 22 21 24 18 26
REMARK H PARENT 10 19 12 21 4 23 21 25 18 27
REMARK Flexibility Score: inf
ROOT
ATOM      1  C   UNL     1     -10.670  35.277  -4.884  1.00  0.00     0.180 A 
ATOM      2  C   UNL     1     -11.560  35.424  -5.960  1.00  0.00     0.208 A 
ATOM      3  C   UNL     1     -12.172  34.281  -6.500  1.00  0.00     0.238 A 
ATOM      4  O   UNL     1     -12.926  34.413  -7.500  1.00  0.00    -0.285 OA
ATOM      5  C   UNL     1     -11.897  33.007  -5.947  1.00  0.00     0.111 A 
ATOM      6  C   UNL     1     -12.491  31.787  -6.388  1.00  0.00     0.134 A 
ATOM      7  C   UNL     1     -12.048  30.570  -5.854  1.00  0.00     0.093 A 
ATOM      8  C   UNL     1     -11.079  30.536  -4.848  1.00  0.00     0.123 A 
ATOM      9  C   UNL     1     -10.537  31.726  -4.368  1.00  0.00     0.094 A 
ATOM     10  C   UNL     1     -10.932  32.952  -4.907  1.00  0.00     0.146 A 
ATOM     11  O   UNL     1     -10.382  34.062  -4.429  1.00  0.00    -0.452 OA
ENDROOT
BRANCH   1  12
ATOM     12  C   UNL     1     -10.005  36.436  -4.245  1.00  0.00     0.025 A 
ATOM     13  C   UNL     1      -9.819  36.447  -2.854  1.00  0.00     0.016 A 
ATOM     14  C   UNL     1      -9.214  37.540  -2.229  1.00  0.00     0.051 A 
ATOM     15  C   UNL     1      -8.799  38.643  -2.980  1.00  0.00     0.157 A 
ATOM     16  C   UNL     1      -9.606  37.556  -4.996  1.00  0.00     0.062 A 
ATOM     17  C   UNL     1      -8.999  38.654  -4.371  1.00  0.00     0.158 A 
BRANCH  15  18
ATOM     18  O   UNL     1      -8.195  39.718  -2.328  1.00  0.00    -0.504 OA
ATOM     19  H   UNL     1      -7.414  39.593  -1.694  1.00  0.00     0.293 HD
ENDBRANCH  15  18
BRANCH  17  20
ATOM     20  O   UNL     1      -8.602  39.758  -5.124  1.00  0.00    -0.504 OA
ATOM     21  H   UNL     1      -7.882  40.392  -4.797  1.00  0.00     0.293 HD
ENDBRANCH  17  20
ENDBRANCH   1  12
BRANCH   2  22
ATOM     22  O   UNL     1     -11.800  36.688  -6.507  1.00  0.00    -0.502 OA
ATOM     23  H   UNL     1     -11.469  36.955  -7.426  1.00  0.00     0.293 HD
ENDBRANCH   2  22
BRANCH   6  24
ATOM     24  O   UNL     1     -13.530  31.717  -7.320  1.00  0.00    -0.507 OA
ATOM     25  H   UNL     1     -14.319  31.093  -7.255  1.00  0.00     0.293 HD
ENDBRANCH   6  24
BRANCH   8  26
ATOM     26  O   UNL     1     -10.655  29.322  -4.311  1.00  0.00    -0.508 OA
ATOM     27  H   UNL     1     -10.837  28.442  -4.781  1.00  0.00     0.293 HD
ENDBRANCH   8  26
TORSDOF 6
ENDMDL
MODEL 7
REMARK VINA RESULT:    -5.868      6.557      9.678
REMARK INTER + INTRA:          -7.312
REMARK INTER:                  -6.982
REMARK INTRA:                  -0.330
REMARK UNBOUND:                -0.243
REMARK SMILES O=c1c(O)c(-c2ccc(O)c(O)c2)oc2cc(O)cc(O)c12
REMARK SMILES IDX 5 1 3 2 2 3 1 4 22 5 20 6 19 7 17 8 16 9 15 10 14 11 6 12
REMARK SMILES IDX 7 13 8 14 9 15 13 16 11 17 10 18 12 20 4 22 21 24 18 26
REMARK H PARENT 10 19 12 21 4 23 21 25 18 27
REMARK Flexibility Score: inf
ROOT
ATOM      1  C   UNL     1     -15.755  33.110  -0.983  1.00  0.00     0.180 A 
ATOM      2  C   UNL     1     -14.956  32.454  -1.935  1.00  0.00     0.208 A 
ATOM      3  C   UNL     1     -13.795  31.788  -1.509  1.00  0.00     0.238 A 
ATOM      4  O   UNL     1     -13.055  31.250  -2.374  1.00  0.00    -0.285 OA
ATOM      5  C   UNL     1     -13.457  31.773  -0.135  1.00  0.00     0.111 A 
ATOM      6  C   UNL     1     -12.327  31.095   0.414  1.00  0.00     0.134 A 
ATOM      7  C   UNL     1     -12.017  31.256   1.771  1.00  0.00     0.093 A 
ATOM      8  C   UNL     1     -12.834  32.016   2.610  1.00  0.00     0.123 A 
ATOM      9  C   UNL     1     -13.972  32.632   2.097  1.00  0.00     0.094 A 
ATOM     10  C   UNL     1     -14.287  32.521   0.741  1.00  0.00     0.146 A 
ATOM     11  O   UNL     1     -15.375  33.133   0.290  1.00  0.00    -0.452 OA
ENDROOT
BRANCH   1  12
ATOM     12  C   UNL     1     -17.006  33.813  -1.351  1.00  0.00     0.025 A 
ATOM     13  C   UNL     1     -16.964  35.179  -1.668  1.00  0.00     0.016 A 
ATOM     14  C   UNL     1     -18.135  35.865  -1.999  1.00  0.00     0.051 A 
ATOM     15  C   UNL     1     -19.365  35.203  -2.002  1.00  0.00     0.157 A 
ATOM     16  C   UNL     1     -18.247  33.152  -1.336  1.00  0.00     0.062 A 
ATOM     17  C   UNL     1     -19.424  33.840  -1.666  1.00  0.00     0.158 A 
BRANCH  15  18
ATOM     18  O   UNL     1     -20.517  35.914  -2.339  1.00  0.00    -0.504 OA
ATOM     19  H   UNL     1     -21.308  35.472  -2.792  1.00  0.00     0.293 HD
ENDBRANCH  15  18
BRANCH  17  20
ATOM     20  O   UNL     1     -20.650  33.177  -1.653  1.00  0.00    -0.504 OA
ATOM     21  H   UNL     1     -20.739  32.219  -1.970  1.00  0.00     0.293 HD
ENDBRANCH  17  20
ENDBRANCH   1  12
BRANCH   2  22
ATOM     22  O   UNL     1     -15.296  32.502  -3.290  1.00  0.00    -0.502 OA
ATOM     23  H   UNL     1     -14.793  31.978  -3.996  1.00  0.00     0.293 HD
ENDBRANCH   2  22
BRANCH   6  24
ATOM     24  O   UNL     1     -11.500  30.238  -0.318  1.00  0.00    -0.507 OA
ATOM     25  H   UNL     1     -11.049  29.418   0.056  1.00  0.00     0.293 HD
ENDBRANCH   6  24
BRANCH   8  26
ATOM     26  O   UNL     1     -12.526  32.158   3.962  1.00  0.00    -0.508 OA
ATOM     27  H   UNL     1     -12.419  33.071   4.389  1.00  0.00     0.293 HD
ENDBRANCH   8  26
TORSDOF 6
ENDMDL
MODEL 8
REMARK VINA RESULT:    -5.863      3.368      4.996
REMARK INTER + INTRA:          -7.305
REMARK INTER:                  -6.976
REMARK INTRA:                  -0.329
REMARK UNBOUND:                -0.243
REMARK SMILES O=c1c(O)c(-c2ccc(O)c(O)c2)oc2cc(O)cc(O)c12
REMARK SMILES IDX 5 1 3 2 2 3 1 4 22 5 20 6 19 7 17 8 16 9 15 10 14 11 6 12
REMARK SMILES IDX 7 13 8 14 9 15 13 16 11 17 10 18 12 20 4 22 21 24 18 26
REMARK H PARENT 10 19 12 21 4 23 21 25 18 27
REMARK Flexibility Score: inf
ROOT
ATOM      1  C   UNL     1      -8.376  30.889  -4.539  1.00  0.00     0.180 A 
ATOM      2  C   UNL     1      -8.229  32.099  -3.841  1.00  0.00     0.208 A 
ATOM      3  C   UNL     1      -9.255  33.055  -3.909  1.00  0.00     0.238 A 
ATOM      4  O   UNL     1      -9.092  34.159  -3.327  1.00  0.00    -0.285 OA
ATOM      5  C   UNL     1     -10.423  32.782  -4.661  1.00  0.00     0.111 A 
ATOM      6  C   UNL     1     -11.542  33.661  -4.767  1.00  0.00     0.134 A 
ATOM      7  C   UNL     1     -12.588  33.344  -5.644  1.00  0.00     0.093 A 
ATOM      8  C   UNL     1     -12.584  32.150  -6.367  1.00  0.00     0.123 A 
ATOM      9  C   UNL     1     -11.524  31.257  -6.225  1.00  0.00     0.094 A 
ATOM     10  C   UNL     1     -10.450  31.562  -5.387  1.00  0.00     0.146 A 
ATOM     11  O   UNL     1      -9.454  30.689  -5.289  1.00  0.00    -0.452 OA
ENDROOT
BRANCH   1  12
ATOM     12  C   UNL     1      -7.349  29.822  -4.496  1.00  0.00     0.025 A 
ATOM     13  C   UNL     1      -6.332  29.802  -5.463  1.00  0.00     0.016 A 
ATOM     14  C   UNL     1      -5.365  28.793  -5.453  1.00  0.00     0.051 A 
ATOM     15  C   UNL     1      -5.409  27.783  -4.487  1.00  0.00     0.157 A 
ATOM     16  C   UNL     1      -7.402  28.794  -3.538  1.00  0.00     0.062 A 
ATOM     17  C   UNL     1      -6.434  27.780  -3.527  1.00  0.00     0.158 A 
BRANCH  15  18
ATOM     18  O   UNL     1      -4.428  26.791  -4.501  1.00  0.00    -0.504 OA
ATOM     19  H   UNL     1      -3.479  26.969  -4.192  1.00  0.00     0.293 HD
ENDBRANCH  15  18
BRANCH  17  20
ATOM     20  O   UNL     1      -6.491  26.767  -2.571  1.00  0.00    -0.504 OA
ATOM     21  H   UNL     1      -6.559  25.791  -2.835  1.00  0.00     0.293 HD
ENDBRANCH  17  20
ENDBRANCH   1  12
BRANCH   2  22
ATOM     22  O   UNL     1      -7.057  32.358  -3.123  1.00  0.00    -0.502 OA
ATOM     23  H   UNL     1      -6.892  33.239  -2.651  1.00  0.00     0.293 HD
ENDBRANCH   2  22
BRANCH   6  24
ATOM     24  O   UNL     1     -11.688  34.832  -4.019  1.00  0.00    -0.507 OA
ATOM     25  H   UNL     1     -11.149  35.673  -4.159  1.00  0.00     0.293 HD
ENDBRANCH   6  24
BRANCH   8  26
ATOM     26  O   UNL     1     -13.637  31.836  -7.226  1.00  0.00    -0.508 OA
ATOM     27  H   UNL     1     -14.328  32.528  -7.492  1.00  0.00     0.293 HD
ENDBRANCH   8  26
TORSDOF 6
ENDMDL
MODEL 9
REMARK VINA RESULT:    -5.792      7.403     10.749
REMARK INTER + INTRA:          -7.221
REMARK INTER:                  -6.984
REMARK INTRA:                  -0.237
REMARK UNBOUND:                -0.243
REMARK SMILES O=c1c(O)c(-c2ccc(O)c(O)c2)oc2cc(O)cc(O)c12
REMARK SMILES IDX 5 1 3 2 2 3 1 4 22 5 20 6 19 7 17 8 16 9 15 10 14 11 6 12
REMARK SMILES IDX 7 13 8 14 9 15 13 16 11 17 10 18 12 20 4 22 21 24 18 26
REMARK H PARENT 10 19 12 21 4 23 21 25 18 27
REMARK Flexibility Score: inf
ROOT
ATOM      1  C   UNL     1     -16.723  33.571   0.118  1.00  0.00     0.180 A 
ATOM      2  C   UNL     1     -16.519  32.952  -1.128  1.00  0.00     0.208 A 
ATOM      3  C   UNL     1     -15.460  32.041  -1.271  1.00  0.00     0.238 A 
ATOM      4  O   UNL     1     -15.249  31.532  -2.403  1.00  0.00    -0.285 OA
ATOM      5  C   UNL     1     -14.628  31.748  -0.164  1.00  0.00     0.111 A 
ATOM      6  C   UNL     1     -13.552  30.811  -0.185  1.00  0.00     0.134 A 
ATOM      7  C   UNL     1     -12.714  30.697   0.932  1.00  0.00     0.093 A 
ATOM      8  C   UNL     1     -12.955  31.438   2.091  1.00  0.00     0.123 A 
ATOM      9  C   UNL     1     -14.039  32.311   2.142  1.00  0.00     0.094 A 
ATOM     10  C   UNL     1     -14.870  32.474   1.032  1.00  0.00     0.146 A 
ATOM     11  O   UNL     1     -15.886  33.324   1.119  1.00  0.00    -0.452 OA
ENDROOT
BRANCH   1  12
ATOM     12  C   UNL     1     -17.833  34.523   0.354  1.00  0.00     0.025 A 
ATOM     13  C   UNL     1     -17.543  35.871   0.614  1.00  0.00     0.016 A 
ATOM     14  C   UNL     1     -18.574  36.782   0.859  1.00  0.00     0.051 A 
ATOM     15  C   UNL     1     -19.905  36.357   0.864  1.00  0.00     0.157 A 
ATOM     16  C   UNL     1     -19.172  34.094   0.379  1.00  0.00     0.062 A 
ATOM     17  C   UNL     1     -20.207  35.006   0.627  1.00  0.00     0.158 A 
BRANCH  15  18
ATOM     18  O   UNL     1     -20.913  37.291   1.110  1.00  0.00    -0.504 OA
ATOM     19  H   UNL     1     -21.838  37.202   0.706  1.00  0.00     0.293 HD
ENDBRANCH  15  18
BRANCH  17  20
ATOM     20  O   UNL     1     -21.533  34.574   0.645  1.00  0.00    -0.504 OA
ATOM     21  H   UNL     1     -21.871  33.873  -0.003  1.00  0.00     0.293 HD
ENDBRANCH  17  20
ENDBRANCH   1  12
BRANCH   2  22
ATOM     22  O   UNL     1     -17.338  33.273  -2.214  1.00  0.00    -0.502 OA
ATOM     23  H   UNL     1     -17.153  34.063  -2.821  1.00  0.00     0.293 HD
ENDBRANCH   2  22
BRANCH   6  24
ATOM     24  O   UNL     1     -13.282  29.957  -1.257  1.00  0.00    -0.507 OA
ATOM     25  H   UNL     1     -12.963  30.258  -2.165  1.00  0.00     0.293 HD
ENDBRANCH   6  24
BRANCH   8  26
ATOM     26  O   UNL     1     -12.125  31.307   3.203  1.00  0.00    -0.508 OA
ATOM     27  H   UNL     1     -12.503  31.194   4.137  1.00  0.00     0.293 HD
ENDBRANCH   8  26
TORSDOF 6
ENDMDL
