MODEL 1
REMARK VINA RESULT:    -7.154      0.000      0.000
REMARK INTER + INTRA:          -7.245
REMARK INTER:                  -7.782
REMARK INTRA:                   0.537
REMARK UNBOUND:                 0.537
REMARK SMILES CC1(C)CC[C@@]2(C(=O)[O-])CC[C@]3(C)C(=CC[C@H]4[C@]5(C)CC[C@@H](O)C(C)(C)[C@@H]5CC[C@@]43C)[C@@H]2C1
REMARK SMILES IDX 6 1 5 2 10 3 32 4 4 5 11 6 14 7 33 8 2 9 12 10 15 11 1 12
REMARK SMILES IDX 3 13 13 14 30 15 16 16 17 17 29 18 31 19 18 20 28 21 27 22
REMARK SMILES IDX 20 23 19 24 24 25 21 26 22 27 25 28 26 29 7 30 8 31 9 32
REMARK SMILES IDX 23 33
REMARK H PARENT 23 34
REMARK Flexibility Score: inf
ROOT
ATOM      1  C   UNL     1       0.659  24.481  27.698  1.00  0.00     0.017 C 
ATOM      2  C   UNL     1       2.029  23.748  27.667  1.00  0.00     0.014 C 
ATOM      3  C   UNL     1      -0.446  23.534  28.248  1.00  0.00     0.014 C 
ATOM      4  C   UNL     1       0.807  25.647  28.722  1.00  0.00     0.028 C 
ATOM      5  C   UNL     1       3.174  24.696  27.240  1.00  0.00     0.007 C 
ATOM      6  C   UNL     1      -1.802  24.206  28.651  1.00  0.00     0.013 C 
ATOM      7  C   UNL     1      -0.504  26.247  29.255  1.00  0.00    -0.064 C 
ATOM      8  C   UNL     1       1.901  26.670  28.338  1.00  0.00     0.015 C 
ATOM      9  C   UNL     1       3.290  25.990  28.106  1.00  0.00    -0.035 C 
ATOM     10  C   UNL     1      -1.873  25.786  28.701  1.00  0.00    -0.006 C 
ATOM     11  C   UNL     1      -0.395  26.829  30.474  1.00  0.00    -0.027 C 
ATOM     12  C   UNL     1       3.959  25.651  29.462  1.00  0.00     0.011 C 
ATOM     13  C   UNL     1       4.206  26.992  27.373  1.00  0.00     0.011 C 
ATOM     14  C   UNL     1      -2.070  26.302  27.235  1.00  0.00     0.017 C 
ATOM     15  C   UNL     1      -3.115  26.339  29.602  1.00  0.00    -0.020 C 
ATOM     16  C   UNL     1      -1.530  27.107  31.403  1.00  0.00     0.032 C 
ATOM     17  C   UNL     1      -2.786  26.247  31.119  1.00  0.00     0.006 C 
ATOM     18  C   UNL     1      -4.355  25.454  29.366  1.00  0.00     0.008 C 
ATOM     19  C   UNL     1      -3.454  27.829  29.243  1.00  0.00     0.012 C 
ATOM     20  C   UNL     1      -4.004  26.478  32.165  1.00  0.00    -0.025 C 
ATOM     21  C   UNL     1      -5.615  25.910  30.079  1.00  0.00     0.005 C 
ATOM     22  C   UNL     1      -5.478  26.512  31.518  1.00  0.00     0.003 C 
ATOM     23  C   UNL     1      -3.925  25.344  33.249  1.00  0.00     0.010 C 
ATOM     24  C   UNL     1      -3.792  27.832  32.930  1.00  0.00     0.012 C 
ATOM     25  C   UNL     1      -6.633  25.946  32.470  1.00  0.00    -0.006 C 
ATOM     26  C   UNL     1      -4.795  24.134  32.901  1.00  0.00     0.033 C 
ATOM     27  C   UNL     1      -6.307  24.461  32.876  1.00  0.00     0.120 C 
ATOM     28  C   UNL     1      -6.831  26.843  33.730  1.00  0.00     0.014 C 
ATOM     29  C   UNL     1      -8.023  25.996  31.758  1.00  0.00     0.014 C 
ENDROOT
BRANCH   1  30
ATOM     30  C   UNL     1       0.357  24.847  26.247  1.00  0.00     0.048 C 
ATOM     31  O   UNL     1       0.925  25.809  25.668  1.00  0.00    -0.550 OA
ATOM     32  O   UNL     1      -0.499  24.044  25.499  1.00  0.00    -0.550 OA
ENDBRANCH   1  30
BRANCH  27  33
ATOM     33  O   UNL     1      -6.868  24.135  34.125  1.00  0.00    -0.393 OA
ATOM     34  H   UNL     1      -6.112  23.927  34.735  1.00  0.00     0.210 HD
ENDBRANCH  27  33
TORSDOF 2
ENDMDL
MODEL 2
REMARK VINA RESULT:    -6.582      1.784      2.739
REMARK INTER + INTRA:          -6.622
REMARK INTER:                  -6.971
REMARK INTRA:                   0.349
REMARK UNBOUND:                 0.537
REMARK SMILES CC1(C)CC[C@@]2(C(=O)[O-])CC[C@]3(C)C(=CC[C@H]4[C@]5(C)CC[C@@H](O)C(C)(C)[C@@H]5CC[C@@]43C)[C@@H]2C1
REMARK SMILES IDX 6 1 5 2 10 3 32 4 4 5 11 6 14 7 33 8 2 9 12 10 15 11 1 12
REMARK SMILES IDX 3 13 13 14 30 15 16 16 17 17 29 18 31 19 18 20 28 21 27 22
REMARK SMILES IDX 20 23 19 24 24 25 21 26 22 27 25 28 26 29 7 30 8 31 9 32
REMARK SMILES IDX 23 33
REMARK H PARENT 23 34
REMARK Flexibility Score: inf
ROOT
ATOM      1  C   UNL     1      -0.672  26.276  27.084  1.00  0.00     0.017 C 
ATOM      2  C   UNL     1      -0.130  25.290  26.011  1.00  0.00     0.014 C 
ATOM      3  C   UNL     1      -2.199  26.502  26.884  1.00  0.00     0.014 C 
ATOM      4  C   UNL     1      -0.496  25.569  28.462  1.00  0.00     0.028 C 
ATOM      5  C   UNL     1       1.359  24.947  26.253  1.00  0.00     0.007 C 
ATOM      6  C   UNL     1      -2.960  27.199  28.062  1.00  0.00     0.013 C 
ATOM      7  C   UNL     1      -1.333  26.131  29.622  1.00  0.00    -0.064 C 
ATOM      8  C   UNL     1       0.976  25.237  28.801  1.00  0.00     0.015 C 
ATOM      9  C   UNL     1       1.664  24.392  27.680  1.00  0.00    -0.035 C 
ATOM     10  C   UNL     1      -2.199  27.400  29.435  1.00  0.00    -0.006 C 
ATOM     11  C   UNL     1      -1.594  25.237  30.605  1.00  0.00    -0.027 C 
ATOM     12  C   UNL     1       1.218  22.910  27.769  1.00  0.00     0.011 C 
ATOM     13  C   UNL     1       3.190  24.434  27.907  1.00  0.00     0.011 C 
ATOM     14  C   UNL     1      -1.286  28.666  29.294  1.00  0.00     0.017 C 
ATOM     15  C   UNL     1      -3.208  27.643  30.693  1.00  0.00    -0.020 C 
ATOM     16  C   UNL     1      -2.692  25.354  31.610  1.00  0.00     0.032 C 
ATOM     17  C   UNL     1      -3.834  26.302  31.169  1.00  0.00     0.006 C 
ATOM     18  C   UNL     1      -4.378  28.541  30.247  1.00  0.00     0.008 C 
ATOM     19  C   UNL     1      -2.458  28.313  31.899  1.00  0.00     0.012 C 
ATOM     20  C   UNL     1      -5.074  26.383  32.212  1.00  0.00    -0.025 C 
ATOM     21  C   UNL     1      -5.352  28.922  31.347  1.00  0.00     0.005 C 
ATOM     22  C   UNL     1      -5.699  27.850  32.435  1.00  0.00     0.003 C 
ATOM     23  C   UNL     1      -6.190  25.401  31.706  1.00  0.00     0.010 C 
ATOM     24  C   UNL     1      -4.619  25.845  33.615  1.00  0.00     0.012 C 
ATOM     25  C   UNL     1      -7.268  27.862  32.747  1.00  0.00    -0.006 C 
ATOM     26  C   UNL     1      -7.227  26.094  30.818  1.00  0.00     0.033 C 
ATOM     27  C   UNL     1      -8.049  27.168  31.570  1.00  0.00     0.120 C 
ATOM     28  C   UNL     1      -7.589  27.182  34.113  1.00  0.00     0.014 C 
ATOM     29  C   UNL     1      -7.795  29.322  32.928  1.00  0.00     0.014 C 
ENDROOT
BRANCH   1  30
ATOM     30  C   UNL     1       0.083  27.583  26.857  1.00  0.00     0.048 C 
ATOM     31  O   UNL     1       1.138  27.863  27.482  1.00  0.00    -0.550 OA
ATOM     32  O   UNL     1      -0.344  28.460  25.864  1.00  0.00    -0.550 OA
ENDBRANCH   1  30
BRANCH  27  33
ATOM     33  O   UNL     1      -9.252  26.592  32.021  1.00  0.00    -0.393 OA
ATOM     34  H   UNL     1      -9.942  26.792  31.336  1.00  0.00     0.210 HD
ENDBRANCH  27  33
TORSDOF 2
ENDMDL
MODEL 3
REMARK VINA RESULT:    -6.459      2.039      2.976
REMARK INTER + INTRA:          -6.489
REMARK INTER:                  -6.836
REMARK INTRA:                   0.347
REMARK UNBOUND:                 0.537
REMARK SMILES CC1(C)CC[C@@]2(C(=O)[O-])CC[C@]3(C)C(=CC[C@H]4[C@]5(C)CC[C@@H](O)C(C)(C)[C@@H]5CC[C@@]43C)[C@@H]2C1
REMARK SMILES IDX 6 1 5 2 10 3 32 4 4 5 11 6 14 7 33 8 2 9 12 10 15 11 1 12
REMARK SMILES IDX 3 13 13 14 30 15 16 16 17 17 29 18 31 19 18 20 28 21 27 22
REMARK SMILES IDX 20 23 19 24 24 25 21 26 22 27 25 28 26 29 7 30 8 31 9 32
REMARK SMILES IDX 23 33
REMARK H PARENT 23 34
REMARK Flexibility Score: inf
ROOT
ATOM      1  C   UNL     1       0.870  26.523  27.780  1.00  0.00     0.017 C 
ATOM      2  C   UNL     1       2.288  27.150  27.668  1.00  0.00     0.014 C 
ATOM      3  C   UNL     1       0.472  26.356  29.275  1.00  0.00     0.014 C 
ATOM      4  C   UNL     1      -0.119  27.556  27.161  1.00  0.00     0.028 C 
ATOM      5  C   UNL     1       2.668  27.443  26.197  1.00  0.00     0.007 C 
ATOM      6  C   UNL     1      -1.036  26.049  29.564  1.00  0.00     0.013 C 
ATOM      7  C   UNL     1      -1.600  27.380  27.531  1.00  0.00    -0.064 C 
ATOM      8  C   UNL     1       0.164  27.865  25.672  1.00  0.00     0.015 C 
ATOM      9  C   UNL     1       1.637  28.334  25.436  1.00  0.00    -0.035 C 
ATOM     10  C   UNL     1      -2.070  26.168  28.372  1.00  0.00    -0.006 C 
ATOM     11  C   UNL     1      -2.331  28.518  27.463  1.00  0.00    -0.027 C 
ATOM     12  C   UNL     1       1.809  29.813  25.866  1.00  0.00     0.011 C 
ATOM     13  C   UNL     1       1.938  28.251  23.925  1.00  0.00     0.011 C 
ATOM     14  C   UNL     1      -1.979  24.851  27.527  1.00  0.00     0.017 C 
ATOM     15  C   UNL     1      -3.611  26.336  28.879  1.00  0.00    -0.020 C 
ATOM     16  C   UNL     1      -3.639  28.747  28.145  1.00  0.00     0.032 C 
ATOM     17  C   UNL     1      -3.887  27.795  29.341  1.00  0.00     0.006 C 
ATOM     18  C   UNL     1      -3.850  25.434  30.105  1.00  0.00     0.008 C 
ATOM     19  C   UNL     1      -4.625  25.962  27.741  1.00  0.00     0.012 C 
ATOM     20  C   UNL     1      -5.268  28.078  30.144  1.00  0.00    -0.025 C 
ATOM     21  C   UNL     1      -5.274  25.425  30.630  1.00  0.00     0.005 C 
ATOM     22  C   UNL     1      -6.080  26.769  30.612  1.00  0.00     0.003 C 
ATOM     23  C   UNL     1      -4.922  28.964  31.394  1.00  0.00     0.010 C 
ATOM     24  C   UNL     1      -6.231  28.936  29.250  1.00  0.00     0.012 C 
ATOM     25  C   UNL     1      -6.895  26.946  31.977  1.00  0.00    -0.006 C 
ATOM     26  C   UNL     1      -4.662  28.132  32.652  1.00  0.00     0.033 C 
ATOM     27  C   UNL     1      -5.911  27.355  33.135  1.00  0.00     0.120 C 
ATOM     28  C   UNL     1      -8.049  27.984  31.828  1.00  0.00     0.014 C 
ATOM     29  C   UNL     1      -7.633  25.625  32.367  1.00  0.00     0.014 C 
ENDROOT
BRANCH   1  30
ATOM     30  C   UNL     1       0.974  25.154  27.112  1.00  0.00     0.048 C 
ATOM     31  O   UNL     1       0.679  24.976  25.902  1.00  0.00    -0.550 OA
ATOM     32  O   UNL     1       1.500  24.080  27.824  1.00  0.00    -0.550 OA
ENDBRANCH   1  30
BRANCH  27  33
ATOM     33  O   UNL     1      -6.567  28.110  34.125  1.00  0.00    -0.393 OA
ATOM     34  H   UNL     1      -5.942  28.831  34.399  1.00  0.00     0.210 HD
ENDBRANCH  27  33
TORSDOF 2
ENDMDL
MODEL 4
REMARK VINA RESULT:    -6.346      1.524      8.267
REMARK INTER + INTRA:          -6.366
REMARK INTER:                  -6.784
REMARK INTRA:                   0.419
REMARK UNBOUND:                 0.537
REMARK SMILES CC1(C)CC[C@@]2(C(=O)[O-])CC[C@]3(C)C(=CC[C@H]4[C@]5(C)CC[C@@H](O)C(C)(C)[C@@H]5CC[C@@]43C)[C@@H]2C1
REMARK SMILES IDX 6 1 5 2 10 3 32 4 4 5 11 6 14 7 33 8 2 9 12 10 15 11 1 12
REMARK SMILES IDX 3 13 13 14 30 15 16 16 17 17 29 18 31 19 18 20 28 21 27 22
REMARK SMILES IDX 20 23 19 24 24 25 21 26 22 27 25 28 26 29 7 30 8 31 9 32
REMARK SMILES IDX 23 33
REMARK H PARENT 23 34
REMARK Flexibility Score: inf
ROOT
ATOM      1  C   UNL     1      -5.994  25.952  31.319  1.00  0.00     0.017 C 
ATOM      2  C   UNL     1      -7.498  26.324  31.183  1.00  0.00     0.014 C 
ATOM      3  C   UNL     1      -5.493  25.254  30.023  1.00  0.00     0.014 C 
ATOM      4  C   UNL     1      -5.217  27.298  31.437  1.00  0.00     0.028 C 
ATOM      5  C   UNL     1      -7.999  27.129  32.405  1.00  0.00     0.007 C 
ATOM      6  C   UNL     1      -3.942  25.111  29.863  1.00  0.00     0.013 C 
ATOM      7  C   UNL     1      -3.708  27.234  31.150  1.00  0.00    -0.064 C 
ATOM      8  C   UNL     1      -5.626  28.141  32.667  1.00  0.00     0.015 C 
ATOM      9  C   UNL     1      -7.165  28.413  32.711  1.00  0.00    -0.035 C 
ATOM     10  C   UNL     1      -3.007  25.880  30.882  1.00  0.00    -0.006 C 
ATOM     11  C   UNL     1      -3.171  28.403  30.727  1.00  0.00    -0.027 C 
ATOM     12  C   UNL     1      -7.545  29.532  31.708  1.00  0.00     0.011 C 
ATOM     13  C   UNL     1      -7.531  28.912  34.125  1.00  0.00     0.011 C 
ATOM     14  C   UNL     1      -2.935  25.034  32.198  1.00  0.00     0.017 C 
ATOM     15  C   UNL     1      -1.487  26.079  30.326  1.00  0.00    -0.020 C 
ATOM     16  C   UNL     1      -1.880  28.545  29.991  1.00  0.00     0.032 C 
ATOM     17  C   UNL     1      -1.420  27.242  29.295  1.00  0.00     0.006 C 
ATOM     18  C   UNL     1      -1.041  24.805  29.582  1.00  0.00     0.008 C 
ATOM     19  C   UNL     1      -0.490  26.381  31.500  1.00  0.00     0.012 C 
ATOM     20  C   UNL     1      -0.059  27.394  28.425  1.00  0.00    -0.025 C 
ATOM     21  C   UNL     1       0.393  24.818  29.085  1.00  0.00     0.005 C 
ATOM     22  C   UNL     1       0.974  26.163  28.530  1.00  0.00     0.003 C 
ATOM     23  C   UNL     1      -0.471  27.615  26.925  1.00  0.00     0.010 C 
ATOM     24  C   UNL     1       0.706  28.691  28.866  1.00  0.00     0.012 C 
ATOM     25  C   UNL     1       1.825  25.896  27.202  1.00  0.00    -0.006 C 
ATOM     26  C   UNL     1      -0.527  26.308  26.131  1.00  0.00     0.033 C 
ATOM     27  C   UNL     1       0.853  25.620  25.995  1.00  0.00     0.120 C 
ATOM     28  C   UNL     1       2.790  27.079  26.888  1.00  0.00     0.014 C 
ATOM     29  C   UNL     1       2.783  24.674  27.384  1.00  0.00     0.014 C 
ENDROOT
BRANCH   1  30
ATOM     30  C   UNL     1      -5.917  24.984  32.497  1.00  0.00     0.048 C 
ATOM     31  O   UNL     1      -6.134  23.752  32.365  1.00  0.00    -0.550 OA
ATOM     32  O   UNL     1      -5.501  25.448  33.742  1.00  0.00    -0.550 OA
ENDBRANCH   1  30
BRANCH  27  33
ATOM     33  O   UNL     1       1.435  25.998  24.771  1.00  0.00    -0.393 OA
ATOM     34  H   UNL     1       2.184  25.368  24.601  1.00  0.00     0.210 HD
ENDBRANCH  27  33
TORSDOF 2
ENDMDL
MODEL 5
REMARK VINA RESULT:    -6.205      1.957      3.315
REMARK INTER + INTRA:          -6.212
REMARK INTER:                  -6.599
REMARK INTRA:                   0.387
REMARK UNBOUND:                 0.537
REMARK SMILES CC1(C)CC[C@@]2(C(=O)[O-])CC[C@]3(C)C(=CC[C@H]4[C@]5(C)CC[C@@H](O)C(C)(C)[C@@H]5CC[C@@]43C)[C@@H]2C1
REMARK SMILES IDX 6 1 5 2 10 3 32 4 4 5 11 6 14 7 33 8 2 9 12 10 15 11 1 12
REMARK SMILES IDX 3 13 13 14 30 15 16 16 17 17 29 18 31 19 18 20 28 21 27 22
REMARK SMILES IDX 20 23 19 24 24 25 21 26 22 27 25 28 26 29 7 30 8 31 9 32
REMARK SMILES IDX 23 33
REMARK H PARENT 23 34
REMARK Flexibility Score: inf
ROOT
ATOM      1  C   UNL     1       1.821  26.936  27.822  1.00  0.00     0.017 C 
ATOM      2  C   UNL     1       2.792  28.112  27.520  1.00  0.00     0.014 C 
ATOM      3  C   UNL     1       1.481  26.895  29.340  1.00  0.00     0.014 C 
ATOM      4  C   UNL     1       0.494  27.255  27.070  1.00  0.00     0.028 C 
ATOM      5  C   UNL     1       3.056  28.258  26.003  1.00  0.00     0.007 C 
ATOM      6  C   UNL     1       0.274  25.989  29.760  1.00  0.00     0.013 C 
ATOM      7  C   UNL     1      -0.752  26.491  27.543  1.00  0.00    -0.064 C 
ATOM      8  C   UNL     1       0.665  27.367  25.537  1.00  0.00     0.015 C 
ATOM      9  C   UNL     1       1.763  28.408  25.140  1.00  0.00    -0.035 C 
ATOM     10  C   UNL     1      -0.645  25.386  28.622  1.00  0.00    -0.006 C 
ATOM     11  C   UNL     1      -1.923  27.126  27.298  1.00  0.00    -0.027 C 
ATOM     12  C   UNL     1       1.214  29.851  25.272  1.00  0.00     0.011 C 
ATOM     13  C   UNL     1       2.133  28.184  23.659  1.00  0.00     0.011 C 
ATOM     14  C   UNL     1       0.081  24.125  28.040  1.00  0.00     0.017 C 
ATOM     15  C   UNL     1      -2.109  24.918  29.167  1.00  0.00    -0.020 C 
ATOM     16  C   UNL     1      -3.217  26.852  27.990  1.00  0.00     0.032 C 
ATOM     17  C   UNL     1      -3.048  26.143  29.356  1.00  0.00     0.006 C 
ATOM     18  C   UNL     1      -1.956  24.262  30.553  1.00  0.00     0.008 C 
ATOM     19  C   UNL     1      -2.786  23.907  28.175  1.00  0.00     0.012 C 
ATOM     20  C   UNL     1      -4.437  25.905  30.161  1.00  0.00    -0.025 C 
ATOM     21  C   UNL     1      -3.236  23.698  31.142  1.00  0.00     0.005 C 
ATOM     22  C   UNL     1      -4.570  24.487  30.911  1.00  0.00     0.003 C 
ATOM     23  C   UNL     1      -4.593  27.073  31.201  1.00  0.00     0.010 C 
ATOM     24  C   UNL     1      -5.648  26.032  29.172  1.00  0.00     0.012 C 
ATOM     25  C   UNL     1      -5.433  24.527  32.257  1.00  0.00    -0.006 C 
ATOM     26  C   UNL     1      -4.033  26.714  32.579  1.00  0.00     0.033 C 
ATOM     27  C   UNL     1      -4.800  25.557  33.264  1.00  0.00     0.120 C 
ATOM     28  C   UNL     1      -6.929  24.865  31.973  1.00  0.00     0.014 C 
ATOM     29  C   UNL     1      -5.493  23.117  32.929  1.00  0.00     0.014 C 
ENDROOT
BRANCH   1  30
ATOM     30  C   UNL     1       2.574  25.670  27.422  1.00  0.00     0.048 C 
ATOM     31  O   UNL     1       2.353  25.075  26.336  1.00  0.00    -0.550 OA
ATOM     32  O   UNL     1       3.607  25.201  28.229  1.00  0.00    -0.550 OA
ENDBRANCH   1  30
BRANCH  27  33
ATOM     33  O   UNL     1      -5.772  26.099  34.125  1.00  0.00    -0.393 OA
ATOM     34  H   UNL     1      -5.302  26.372  34.956  1.00  0.00     0.210 HD
ENDBRANCH  27  33
TORSDOF 2
ENDMDL
MODEL 6
REMARK VINA RESULT:    -6.110      2.040      8.421
REMARK INTER + INTRA:          -6.109
REMARK INTER:                  -6.584
REMARK INTRA:                   0.475
REMARK UNBOUND:                 0.537
REMARK SMILES CC1(C)CC[C@@]2(C(=O)[O-])CC[C@]3(C)C(=CC[C@H]4[C@]5(C)CC[C@@H](O)C(C)(C)[C@@H]5CC[C@@]43C)[C@@H]2C1
REMARK SMILES IDX 6 1 5 2 10 3 32 4 4 5 11 6 14 7 33 8 2 9 12 10 15 11 1 12
REMARK SMILES IDX 3 13 13 14 30 15 16 16 17 17 29 18 31 19 18 20 28 21 27 22
REMARK SMILES IDX 20 23 19 24 24 25 21 26 22 27 25 28 26 29 7 30 8 31 9 32
REMARK SMILES IDX 23 33
REMARK H PARENT 23 34
REMARK Flexibility Score: inf
ROOT
ATOM      1  C   UNL     1      -6.116  27.041  32.160  1.00  0.00     0.017 C 
ATOM      2  C   UNL     1      -7.487  26.453  32.599  1.00  0.00     0.014 C 
ATOM      3  C   UNL     1      -4.984  26.001  32.396  1.00  0.00     0.014 C 
ATOM      4  C   UNL     1      -6.207  27.270  30.621  1.00  0.00     0.028 C 
ATOM      5  C   UNL     1      -8.653  27.414  32.266  1.00  0.00     0.007 C 
ATOM      6  C   UNL     1      -3.607  26.303  31.713  1.00  0.00     0.013 C 
ATOM      7  C   UNL     1      -4.869  27.431  29.882  1.00  0.00    -0.064 C 
ATOM      8  C   UNL     1      -7.320  28.261  30.209  1.00  0.00     0.015 C 
ATOM      9  C   UNL     1      -8.720  27.842  30.766  1.00  0.00    -0.035 C 
ATOM     10  C   UNL     1      -3.532  27.482  30.660  1.00  0.00    -0.006 C 
ATOM     11  C   UNL     1      -4.911  27.088  28.572  1.00  0.00    -0.027 C 
ATOM     12  C   UNL     1      -9.314  26.688  29.921  1.00  0.00     0.011 C 
ATOM     13  C   UNL     1      -9.674  29.049  30.642  1.00  0.00     0.011 C 
ATOM     14  C   UNL     1      -3.415  28.826  31.456  1.00  0.00     0.017 C 
ATOM     15  C   UNL     1      -2.242  27.369  29.668  1.00  0.00    -0.020 C 
ATOM     16  C   UNL     1      -3.727  26.742  27.731  1.00  0.00     0.032 C 
ATOM     17  C   UNL     1      -2.489  26.311  28.555  1.00  0.00     0.006 C 
ATOM     18  C   UNL     1      -1.018  26.886  30.470  1.00  0.00     0.008 C 
ATOM     19  C   UNL     1      -1.922  28.751  28.997  1.00  0.00     0.012 C 
ATOM     20  C   UNL     1      -1.216  25.857  27.658  1.00  0.00    -0.025 C 
ATOM     21  C   UNL     1       0.280  26.820  29.686  1.00  0.00     0.005 C 
ATOM     22  C   UNL     1       0.221  26.350  28.192  1.00  0.00     0.003 C 
ATOM     23  C   UNL     1      -1.237  24.289  27.557  1.00  0.00     0.010 C 
ATOM     24  C   UNL     1      -1.384  26.394  26.193  1.00  0.00     0.012 C 
ATOM     25  C   UNL     1       1.426  25.345  27.878  1.00  0.00    -0.006 C 
ATOM     26  C   UNL     1      -0.388  23.618  28.639  1.00  0.00     0.033 C 
ATOM     27  C   UNL     1       1.122  23.936  28.511  1.00  0.00     0.120 C 
ATOM     28  C   UNL     1       1.693  25.227  26.347  1.00  0.00     0.014 C 
ATOM     29  C   UNL     1       2.775  25.888  28.449  1.00  0.00     0.014 C 
ENDROOT
BRANCH   1  30
ATOM     30  C   UNL     1      -5.893  28.265  33.046  1.00  0.00     0.048 C 
ATOM     31  O   UNL     1      -5.251  28.201  34.125  1.00  0.00    -0.550 OA
ATOM     32  O   UNL     1      -6.326  29.515  32.612  1.00  0.00    -0.550 OA
ENDBRANCH   1  30
BRANCH  27  33
ATOM     33  O   UNL     1       1.749  22.903  27.791  1.00  0.00    -0.393 OA
ATOM     34  H   UNL     1       2.728  23.050  27.869  1.00  0.00     0.210 HD
ENDBRANCH  27  33
TORSDOF 2
ENDMDL
MODEL 7
REMARK VINA RESULT:    -6.023     15.539     18.103
REMARK INTER + INTRA:          -6.014
REMARK INTER:                  -6.363
REMARK INTRA:                   0.349
REMARK UNBOUND:                 0.537
REMARK SMILES CC1(C)CC[C@@]2(C(=O)[O-])CC[C@]3(C)C(=CC[C@H]4[C@]5(C)CC[C@@H](O)C(C)(C)[C@@H]5CC[C@@]43C)[C@@H]2C1
REMARK SMILES IDX 6 1 5 2 10 3 32 4 4 5 11 6 14 7 33 8 2 9 12 10 15 11 1 12
REMARK SMILES IDX 3 13 13 14 30 15 16 16 17 17 29 18 31 19 18 20 28 21 27 22
REMARK SMILES IDX 20 23 19 24 24 25 21 26 22 27 25 28 26 29 7 30 8 31 9 32
REMARK SMILES IDX 23 33
REMARK H PARENT 23 34
REMARK Flexibility Score: inf
ROOT
ATOM      1  C   UNL     1      -9.334  21.749  16.587  1.00  0.00     0.017 C 
ATOM      2  C   UNL     1      -8.452  22.995  16.881  1.00  0.00     0.014 C 
ATOM      3  C   UNL     1      -8.706  20.903  15.442  1.00  0.00     0.014 C 
ATOM      4  C   UNL     1      -9.296  20.869  17.873  1.00  0.00     0.028 C 
ATOM      5  C   UNL     1      -8.980  23.794  18.095  1.00  0.00     0.007 C 
ATOM      6  C   UNL     1      -9.282  19.460  15.246  1.00  0.00     0.013 C 
ATOM      7  C   UNL     1      -9.719  19.402  17.700  1.00  0.00    -0.064 C 
ATOM      8  C   UNL     1      -9.857  21.582  19.125  1.00  0.00     0.015 C 
ATOM      9  C   UNL     1      -9.144  22.947  19.396  1.00  0.00    -0.035 C 
ATOM     10  C   UNL     1     -10.263  18.886  16.346  1.00  0.00    -0.006 C 
ATOM     11  C   UNL     1      -9.188  18.557  18.616  1.00  0.00    -0.027 C 
ATOM     12  C   UNL     1      -7.755  22.713  20.044  1.00  0.00     0.011 C 
ATOM     13  C   UNL     1      -9.997  23.750  20.401  1.00  0.00     0.011 C 
ATOM     14  C   UNL     1     -11.688  19.476  16.071  1.00  0.00     0.017 C 
ATOM     15  C   UNL     1     -10.376  17.259  16.313  1.00  0.00    -0.020 C 
ATOM     16  C   UNL     1      -9.073  17.076  18.461  1.00  0.00     0.032 C 
ATOM     17  C   UNL     1      -9.139  16.602  16.989  1.00  0.00     0.006 C 
ATOM     18  C   UNL     1     -10.387  16.775  14.849  1.00  0.00     0.008 C 
ATOM     19  C   UNL     1     -11.677  16.766  17.041  1.00  0.00     0.012 C 
ATOM     20  C   UNL     1      -8.938  15.004  16.792  1.00  0.00    -0.025 C 
ATOM     21  C   UNL     1     -10.577  15.280  14.668  1.00  0.00     0.005 C 
ATOM     22  C   UNL     1      -9.893  14.314  15.695  1.00  0.00     0.003 C 
ATOM     23  C   UNL     1      -7.433  14.754  16.420  1.00  0.00     0.010 C 
ATOM     24  C   UNL     1      -9.181  14.271  18.158  1.00  0.00     0.012 C 
ATOM     25  C   UNL     1      -9.238  13.068  14.935  1.00  0.00    -0.006 C 
ATOM     26  C   UNL     1      -7.199  14.709  14.908  1.00  0.00     0.033 C 
ATOM     27  C   UNL     1      -7.911  13.520  14.219  1.00  0.00     0.120 C 
ATOM     28  C   UNL     1      -8.975  11.876  15.905  1.00  0.00     0.014 C 
ATOM     29  C   UNL     1     -10.222  12.474  13.876  1.00  0.00     0.014 C 
ENDROOT
BRANCH   1  30
ATOM     30  C   UNL     1     -10.688  22.300  16.146  1.00  0.00     0.048 C 
ATOM     31  O   UNL     1     -11.632  22.482  16.958  1.00  0.00    -0.550 OA
ATOM     32  O   UNL     1     -10.867  22.708  14.828  1.00  0.00    -0.550 OA
ENDBRANCH   1  30
BRANCH  27  33
ATOM     33  O   UNL     1      -7.004  12.451  14.095  1.00  0.00    -0.393 OA
ATOM     34  H   UNL     1      -6.261  12.629  14.729  1.00  0.00     0.210 HD
ENDBRANCH  27  33
TORSDOF 2
ENDMDL
MODEL 8
REMARK VINA RESULT:    -5.969      1.516      1.990
REMARK INTER + INTRA:          -5.955
REMARK INTER:                  -6.304
REMARK INTRA:                   0.349
REMARK UNBOUND:                 0.537
REMARK SMILES CC1(C)CC[C@@]2(C(=O)[O-])CC[C@]3(C)C(=CC[C@H]4[C@]5(C)CC[C@@H](O)C(C)(C)[C@@H]5CC[C@@]43C)[C@@H]2C1
REMARK SMILES IDX 6 1 5 2 10 3 32 4 4 5 11 6 14 7 33 8 2 9 12 10 15 11 1 12
REMARK SMILES IDX 3 13 13 14 30 15 16 16 17 17 29 18 31 19 18 20 28 21 27 22
REMARK SMILES IDX 20 23 19 24 24 25 21 26 22 27 25 28 26 29 7 30 8 31 9 32
REMARK SMILES IDX 23 33
REMARK H PARENT 23 34
REMARK Flexibility Score: inf
ROOT
ATOM      1  C   UNL     1       1.755  26.521  28.250  1.00  0.00     0.017 C 
ATOM      2  C   UNL     1       3.201  25.988  28.049  1.00  0.00     0.014 C 
ATOM      3  C   UNL     1       0.734  25.349  28.177  1.00  0.00     0.014 C 
ATOM      4  C   UNL     1       1.691  27.086  29.701  1.00  0.00     0.028 C 
ATOM      5  C   UNL     1       4.252  27.107  28.237  1.00  0.00     0.007 C 
ATOM      6  C   UNL     1      -0.717  25.656  28.680  1.00  0.00     0.013 C 
ATOM      7  C   UNL     1       0.285  27.272  30.293  1.00  0.00    -0.064 C 
ATOM      8  C   UNL     1       2.680  28.247  29.955  1.00  0.00     0.015 C 
ATOM      9  C   UNL     1       4.153  27.855  29.603  1.00  0.00    -0.035 C 
ATOM     10  C   UNL     1      -0.978  27.022  29.434  1.00  0.00    -0.006 C 
ATOM     11  C   UNL     1       0.239  27.228  31.646  1.00  0.00    -0.027 C 
ATOM     12  C   UNL     1       4.761  26.975  30.724  1.00  0.00     0.011 C 
ATOM     13  C   UNL     1       4.993  29.147  29.518  1.00  0.00     0.011 C 
ATOM     14  C   UNL     1      -1.132  28.144  28.351  1.00  0.00     0.017 C 
ATOM     15  C   UNL     1      -2.337  27.002  30.336  1.00  0.00    -0.020 C 
ATOM     16  C   UNL     1      -0.983  26.959  32.460  1.00  0.00     0.032 C 
ATOM     17  C   UNL     1      -2.105  26.241  31.672  1.00  0.00     0.006 C 
ATOM     18  C   UNL     1      -3.443  26.239  29.581  1.00  0.00     0.008 C 
ATOM     19  C   UNL     1      -2.825  28.459  30.657  1.00  0.00     0.012 C 
ATOM     20  C   UNL     1      -3.412  25.870  32.559  1.00  0.00    -0.025 C 
ATOM     21  C   UNL     1      -4.796  26.219  30.270  1.00  0.00     0.005 C 
ATOM     22  C   UNL     1      -4.831  26.092  31.831  1.00  0.00     0.003 C 
ATOM     23  C   UNL     1      -3.275  24.371  33.010  1.00  0.00     0.010 C 
ATOM     24  C   UNL     1      -3.417  26.725  33.874  1.00  0.00     0.012 C 
ATOM     25  C   UNL     1      -5.975  25.067  32.280  1.00  0.00    -0.006 C 
ATOM     26  C   UNL     1      -3.969  23.401  32.051  1.00  0.00     0.033 C 
ATOM     27  C   UNL     1      -5.504  23.591  32.001  1.00  0.00     0.120 C 
ATOM     28  C   UNL     1      -6.365  25.259  33.777  1.00  0.00     0.014 C 
ATOM     29  C   UNL     1      -7.308  25.339  31.511  1.00  0.00     0.014 C 
ENDROOT
BRANCH   1  30
ATOM     30  C   UNL     1       1.513  27.496  27.100  1.00  0.00     0.048 C 
ATOM     31  O   UNL     1       1.730  28.730  27.213  1.00  0.00    -0.550 OA
ATOM     32  O   UNL     1       1.134  27.007  25.854  1.00  0.00    -0.550 OA
ENDBRANCH   1  30
BRANCH  27  33
ATOM     33  O   UNL     1      -6.108  22.683  32.890  1.00  0.00    -0.393 OA
ATOM     34  H   UNL     1      -6.546  23.222  33.600  1.00  0.00     0.210 HD
ENDBRANCH  27  33
TORSDOF 2
ENDMDL
MODEL 9
REMARK VINA RESULT:    -5.873      1.994      2.899
REMARK INTER + INTRA:          -5.851
REMARK INTER:                  -6.270
REMARK INTRA:                   0.419
REMARK UNBOUND:                 0.537
REMARK SMILES CC1(C)CC[C@@]2(C(=O)[O-])CC[C@]3(C)C(=CC[C@H]4[C@]5(C)CC[C@@H](O)C(C)(C)[C@@H]5CC[C@@]43C)[C@@H]2C1
REMARK SMILES IDX 6 1 5 2 10 3 32 4 4 5 11 6 14 7 33 8 2 9 12 10 15 11 1 12
REMARK SMILES IDX 3 13 13 14 30 15 16 16 17 17 29 18 31 19 18 20 28 21 27 22
REMARK SMILES IDX 20 23 19 24 24 25 21 26 22 27 25 28 26 29 7 30 8 31 9 32
REMARK SMILES IDX 23 33
REMARK H PARENT 23 34
REMARK Flexibility Score: inf
ROOT
ATOM      1  C   UNL     1       0.424  27.423  27.387  1.00  0.00     0.017 C 
ATOM      2  C   UNL     1       1.078  26.740  26.153  1.00  0.00     0.014 C 
ATOM      3  C   UNL     1      -1.103  27.605  27.156  1.00  0.00     0.014 C 
ATOM      4  C   UNL     1       0.587  26.431  28.578  1.00  0.00     0.028 C 
ATOM      5  C   UNL     1       2.574  26.434  26.396  1.00  0.00     0.007 C 
ATOM      6  C   UNL     1      -1.960  27.971  28.415  1.00  0.00     0.013 C 
ATOM      7  C   UNL     1      -0.335  26.666  29.785  1.00  0.00    -0.064 C 
ATOM      8  C   UNL     1       2.062  26.112  28.918  1.00  0.00     0.015 C 
ATOM      9  C   UNL     1       2.853  25.585  27.676  1.00  0.00    -0.035 C 
ATOM     10  C   UNL     1      -1.274  27.895  29.839  1.00  0.00    -0.006 C 
ATOM     11  C   UNL     1      -0.578  25.558  30.525  1.00  0.00    -0.027 C 
ATOM     12  C   UNL     1       2.504  24.100  27.403  1.00  0.00     0.011 C 
ATOM     13  C   UNL     1       4.362  25.657  27.994  1.00  0.00     0.011 C 
ATOM     14  C   UNL     1      -0.443  29.208  30.040  1.00  0.00     0.017 C 
ATOM     15  C   UNL     1      -2.351  27.788  31.060  1.00  0.00    -0.020 C 
ATOM     16  C   UNL     1      -1.724  25.381  31.465  1.00  0.00     0.032 C 
ATOM     17  C   UNL     1      -2.906  26.341  31.185  1.00  0.00     0.006 C 
ATOM     18  C   UNL     1      -3.558  28.698  30.761  1.00  0.00     0.008 C 
ATOM     19  C   UNL     1      -1.701  28.204  32.427  1.00  0.00     0.012 C 
ATOM     20  C   UNL     1      -4.194  26.112  32.146  1.00  0.00    -0.025 C 
ATOM     21  C   UNL     1      -4.603  28.763  31.861  1.00  0.00     0.005 C 
ATOM     22  C   UNL     1      -4.924  27.453  32.658  1.00  0.00     0.003 C 
ATOM     23  C   UNL     1      -5.219  25.212  31.367  1.00  0.00     0.010 C 
ATOM     24  C   UNL     1      -3.766  25.294  33.414  1.00  0.00     0.012 C 
ATOM     25  C   UNL     1      -6.503  27.307  32.873  1.00  0.00    -0.006 C 
ATOM     26  C   UNL     1      -6.260  26.032  30.601  1.00  0.00     0.033 C 
ATOM     27  C   UNL     1      -7.184  26.859  31.527  1.00  0.00     0.120 C 
ATOM     28  C   UNL     1      -6.837  26.316  34.030  1.00  0.00     0.014 C 
ATOM     29  C   UNL     1      -7.133  28.656  33.348  1.00  0.00     0.014 C 
ENDROOT
BRANCH   1  30
ATOM     30  C   UNL     1       1.100  28.788  27.505  1.00  0.00     0.048 C 
ATOM     31  O   UNL     1       0.696  29.791  26.863  1.00  0.00    -0.550 OA
ATOM     32  O   UNL     1       2.134  28.965  28.419  1.00  0.00    -0.550 OA
ENDBRANCH   1  30
BRANCH  27  33
ATOM     33  O   UNL     1      -8.364  26.130  31.766  1.00  0.00    -0.393 OA
ATOM     34  H   UNL     1      -8.088  25.229  32.080  1.00  0.00     0.210 HD
ENDBRANCH  27  33
TORSDOF 2
ENDMDL
