MODEL 1
REMARK VINA RESULT:    -4.977      0.000      0.000
REMARK INTER + INTRA:         -11.033
REMARK INTER:                  -9.050
REMARK INTRA:                  -1.983
REMARK UNBOUND:                -1.983
REMARK SMILES CCCCCCCCCCCCCCCC(=O)[O-]
REMARK SMILES IDX 9 1 10 2 11 3 12 4 13 5 14 6 15 7 16 8 17 9 18 10 8 11 7 12
REMARK SMILES IDX 6 13 5 14 4 15 3 16 2 17 1 18
REMARK H PARENT
REMARK Flexibility Score: inf
ROOT
ATOM      1  C   UNL     1      63.196  29.933  13.731  1.00  0.00     0.000 C 
ENDROOT
BRANCH   1   2
ATOM      2  C   UNL     1      63.244  31.000  12.625  1.00  0.00     0.000 C 
BRANCH   2   3
ATOM      3  C   UNL     1      62.635  32.345  13.063  1.00  0.00     0.000 C 
BRANCH   3   4
ATOM      4  C   UNL     1      61.093  32.400  13.077  1.00  0.00     0.000 C 
BRANCH   4   5
ATOM      5  C   UNL     1      60.460  32.623  14.462  1.00  0.00     0.000 C 
BRANCH   5   6
ATOM      6  C   UNL     1      61.502  32.945  15.548  1.00  0.00     0.006 C 
BRANCH   6   7
ATOM      7  C   UNL     1      61.099  34.159  16.394  1.00  0.00     0.053 C 
BRANCH   7   8
ATOM      8  C   UNL     1      61.642  34.067  17.788  1.00  0.00     0.041 C 
ATOM      9  O   UNL     1      61.321  33.101  18.529  1.00  0.00    -0.550 OA
ATOM     10  O   UNL     1      62.529  35.029  18.254  1.00  0.00    -0.550 OA
ENDBRANCH   7   8
ENDBRANCH   6   7
ENDBRANCH   5   6
ENDBRANCH   4   5
ENDBRANCH   3   4
ENDBRANCH   2   3
ENDBRANCH   1   2
BRANCH   1  11
ATOM     11  C   UNL     1      62.303  28.731  13.370  1.00  0.00     0.000 C 
BRANCH  11  12
ATOM     12  C   UNL     1      60.810  28.888  13.714  1.00  0.00    -0.000 C 
BRANCH  12  13
ATOM     13  C   UNL     1      59.879  28.389  12.597  1.00  0.00    -0.000 C 
BRANCH  13  14
ATOM     14  C   UNL     1      59.750  29.387  11.431  1.00  0.00    -0.000 C 
BRANCH  14  15
ATOM     15  C   UNL     1      59.744  28.761  10.024  1.00  0.00    -0.000 C 
BRANCH  15  16
ATOM     16  C   UNL     1      61.144  28.340   9.547  1.00  0.00    -0.000 C 
BRANCH  16  17
ATOM     17  C   UNL     1      62.170  29.480   9.654  1.00  0.00    -0.003 C 
ATOM     18  C   UNL     1      63.608  29.004   9.451  1.00  0.00     0.004 C 
ENDBRANCH  16  17
ENDBRANCH  15  16
ENDBRANCH  14  15
ENDBRANCH  13  14
ENDBRANCH  12  13
ENDBRANCH  11  12
ENDBRANCH   1  11
TORSDOF 14
ENDMDL
MODEL 2
REMARK VINA RESULT:    -4.807      3.307      6.336
REMARK INTER + INTRA:         -10.725
REMARK INTER:                  -8.564
REMARK INTRA:                  -2.161
REMARK UNBOUND:                -1.983
REMARK SMILES CCCCCCCCCCCCCCCC(=O)[O-]
REMARK SMILES IDX 9 1 10 2 11 3 12 4 13 5 14 6 15 7 16 8 17 9 18 10 8 11 7 12
REMARK SMILES IDX 6 13 5 14 4 15 3 16 2 17 1 18
REMARK H PARENT
REMARK Flexibility Score: inf
ROOT
ATOM      1  C   UNL     1      60.378  28.171  12.941  1.00  0.00     0.000 C 
ENDROOT
BRANCH   1   2
ATOM      2  C   UNL     1      59.646  29.276  12.162  1.00  0.00     0.000 C 
BRANCH   2   3
ATOM      3  C   UNL     1      59.699  29.070  10.637  1.00  0.00     0.000 C 
BRANCH   3   4
ATOM      4  C   UNL     1      60.970  29.599   9.941  1.00  0.00     0.000 C 
BRANCH   4   5
ATOM      5  C   UNL     1      62.050  28.539   9.660  1.00  0.00     0.000 C 
BRANCH   5   6
ATOM      6  C   UNL     1      63.475  29.117   9.696  1.00  0.00     0.006 C 
BRANCH   6   7
ATOM      7  C   UNL     1      63.480  30.649   9.616  1.00  0.00     0.053 C 
BRANCH   7   8
ATOM      8  C   UNL     1      64.833  31.215   9.923  1.00  0.00     0.041 C 
ATOM      9  O   UNL     1      65.865  30.694   9.423  1.00  0.00    -0.550 OA
ATOM     10  O   UNL     1      64.951  32.338  10.731  1.00  0.00    -0.550 OA
ENDBRANCH   7   8
ENDBRANCH   6   7
ENDBRANCH   5   6
ENDBRANCH   4   5
ENDBRANCH   3   4
ENDBRANCH   2   3
ENDBRANCH   1   2
BRANCH   1  11
ATOM     11  C   UNL     1      61.791  28.585  13.390  1.00  0.00     0.000 C 
BRANCH  11  12
ATOM     12  C   UNL     1      61.888  29.951  14.097  1.00  0.00    -0.000 C 
BRANCH  12  13
ATOM     13  C   UNL     1      62.834  30.931  13.383  1.00  0.00    -0.000 C 
BRANCH  13  14
ATOM     14  C   UNL     1      62.150  32.256  13.001  1.00  0.00    -0.000 C 
BRANCH  14  15
ATOM     15  C   UNL     1      60.673  32.382  13.420  1.00  0.00    -0.000 C 
BRANCH  15  16
ATOM     16  C   UNL     1      60.444  33.445  14.507  1.00  0.00    -0.000 C 
BRANCH  16  17
ATOM     17  C   UNL     1      61.651  33.593  15.448  1.00  0.00    -0.003 C 
ATOM     18  C   UNL     1      61.520  32.754  16.718  1.00  0.00     0.004 C 
ENDBRANCH  16  17
ENDBRANCH  15  16
ENDBRANCH  14  15
ENDBRANCH  13  14
ENDBRANCH  12  13
ENDBRANCH  11  12
ENDBRANCH   1  11
TORSDOF 14
ENDMDL
MODEL 3
REMARK VINA RESULT:    -4.750      0.925      2.564
REMARK INTER + INTRA:         -10.620
REMARK INTER:                  -8.847
REMARK INTRA:                  -1.773
REMARK UNBOUND:                -1.983
REMARK SMILES CCCCCCCCCCCCCCCC(=O)[O-]
REMARK SMILES IDX 9 1 10 2 11 3 12 4 13 5 14 6 15 7 16 8 17 9 18 10 8 11 7 12
REMARK SMILES IDX 6 13 5 14 4 15 3 16 2 17 1 18
REMARK H PARENT
REMARK Flexibility Score: inf
ROOT
ATOM      1  C   UNL     1      63.738  30.458  12.039  1.00  0.00     0.000 C 
ENDROOT
BRANCH   1   2
ATOM      2  C   UNL     1      63.139  31.859  12.248  1.00  0.00     0.000 C 
BRANCH   2   3
ATOM      3  C   UNL     1      62.443  32.017  13.612  1.00  0.00     0.000 C 
BRANCH   3   4
ATOM      4  C   UNL     1      61.082  32.744  13.581  1.00  0.00     0.000 C 
BRANCH   4   5
ATOM      5  C   UNL     1      60.344  32.808  14.930  1.00  0.00     0.000 C 
BRANCH   5   6
ATOM      6  C   UNL     1      60.924  33.875  15.874  1.00  0.00     0.006 C 
BRANCH   6   7
ATOM      7  C   UNL     1      61.567  33.255  17.121  1.00  0.00     0.053 C 
BRANCH   7   8
ATOM      8  C   UNL     1      62.008  34.305  18.096  1.00  0.00     0.041 C 
ATOM      9  O   UNL     1      63.015  35.018  17.844  1.00  0.00    -0.550 OA
ATOM     10  O   UNL     1      61.288  34.517  19.264  1.00  0.00    -0.550 OA
ENDBRANCH   7   8
ENDBRANCH   6   7
ENDBRANCH   5   6
ENDBRANCH   4   5
ENDBRANCH   3   4
ENDBRANCH   2   3
ENDBRANCH   1   2
BRANCH   1  11
ATOM     11  C   UNL     1      64.104  30.173  10.571  1.00  0.00     0.000 C 
BRANCH  11  12
ATOM     12  C   UNL     1      63.361  28.989   9.921  1.00  0.00    -0.000 C 
BRANCH  12  13
ATOM     13  C   UNL     1      62.054  29.407   9.228  1.00  0.00    -0.000 C 
BRANCH  13  14
ATOM     14  C   UNL     1      60.939  28.353   9.362  1.00  0.00    -0.000 C 
BRANCH  14  15
ATOM     15  C   UNL     1      59.698  28.801  10.155  1.00  0.00    -0.000 C 
BRANCH  15  16
ATOM     16  C   UNL     1      60.010  29.887  11.198  1.00  0.00    -0.000 C 
BRANCH  16  17
ATOM     17  C   UNL     1      59.809  29.394  12.640  1.00  0.00    -0.003 C 
ATOM     18  C   UNL     1      60.838  28.344  13.056  1.00  0.00     0.004 C 
ENDBRANCH  16  17
ENDBRANCH  15  16
ENDBRANCH  14  15
ENDBRANCH  13  14
ENDBRANCH  12  13
ENDBRANCH  11  12
ENDBRANCH   1  11
TORSDOF 14
ENDMDL
MODEL 4
REMARK VINA RESULT:    -4.748     11.093     14.330
REMARK INTER + INTRA:         -10.617
REMARK INTER:                  -8.397
REMARK INTRA:                  -2.220
REMARK UNBOUND:                -1.983
REMARK SMILES CCCCCCCCCCCCCCCC(=O)[O-]
REMARK SMILES IDX 9 1 10 2 11 3 12 4 13 5 14 6 15 7 16 8 17 9 18 10 8 11 7 12
REMARK SMILES IDX 6 13 5 14 4 15 3 16 2 17 1 18
REMARK H PARENT
REMARK Flexibility Score: inf
ROOT
ATOM      1  C   UNL     1      61.862  29.343  24.813  1.00  0.00     0.000 C 
ENDROOT
BRANCH   1   2
ATOM      2  C   UNL     1      63.276  29.778  25.234  1.00  0.00     0.000 C 
BRANCH   2   3
ATOM      3  C   UNL     1      64.384  28.965  24.540  1.00  0.00     0.000 C 
BRANCH   3   4
ATOM      4  C   UNL     1      65.098  27.926  25.429  1.00  0.00     0.000 C 
BRANCH   4   5
ATOM      5  C   UNL     1      64.650  26.468  25.218  1.00  0.00     0.000 C 
BRANCH   5   6
ATOM      6  C   UNL     1      64.465  26.112  23.733  1.00  0.00     0.006 C 
BRANCH   6   7
ATOM      7  C   UNL     1      65.774  25.646  23.083  1.00  0.00     0.053 C 
BRANCH   7   8
ATOM      8  C   UNL     1      66.187  26.550  21.960  1.00  0.00     0.041 C 
ATOM      9  O   UNL     1      66.645  27.696  22.208  1.00  0.00    -0.550 OA
ATOM     10  O   UNL     1      66.099  26.112  20.646  1.00  0.00    -0.550 OA
ENDBRANCH   7   8
ENDBRANCH   6   7
ENDBRANCH   5   6
ENDBRANCH   4   5
ENDBRANCH   3   4
ENDBRANCH   2   3
ENDBRANCH   1   2
BRANCH   1  11
ATOM     11  C   UNL     1      61.398  28.049  25.509  1.00  0.00     0.000 C 
BRANCH  11  12
ATOM     12  C   UNL     1      61.076  28.183  27.010  1.00  0.00    -0.000 C 
BRANCH  12  13
ATOM     13  C   UNL     1      62.196  27.646  27.915  1.00  0.00    -0.000 C 
BRANCH  13  14
ATOM     14  C   UNL     1      62.528  28.590  29.085  1.00  0.00    -0.000 C 
BRANCH  14  15
ATOM     15  C   UNL     1      62.317  30.090  28.805  1.00  0.00    -0.000 C 
BRANCH  15  16
ATOM     16  C   UNL     1      63.574  30.934  29.070  1.00  0.00    -0.000 C 
BRANCH  16  17
ATOM     17  C   UNL     1      64.853  30.083  29.125  1.00  0.00    -0.003 C 
ATOM     18  C   UNL     1      65.842  30.426  28.012  1.00  0.00     0.004 C 
ENDBRANCH  16  17
ENDBRANCH  15  16
ENDBRANCH  14  15
ENDBRANCH  13  14
ENDBRANCH  12  13
ENDBRANCH  11  12
ENDBRANCH   1  11
TORSDOF 14
ENDMDL
MODEL 5
REMARK VINA RESULT:    -4.734      1.063      2.387
REMARK INTER + INTRA:         -10.592
REMARK INTER:                  -8.788
REMARK INTRA:                  -1.804
REMARK UNBOUND:                -1.983
REMARK SMILES CCCCCCCCCCCCCCCC(=O)[O-]
REMARK SMILES IDX 9 1 10 2 11 3 12 4 13 5 14 6 15 7 16 8 17 9 18 10 8 11 7 12
REMARK SMILES IDX 6 13 5 14 4 15 3 16 2 17 1 18
REMARK H PARENT
REMARK Flexibility Score: inf
ROOT
ATOM      1  C   UNL     1      59.992  30.696  12.471  1.00  0.00     0.000 C 
ENDROOT
BRANCH   1   2
ATOM      2  C   UNL     1      59.695  31.702  13.596  1.00  0.00     0.000 C 
BRANCH   2   3
ATOM      3  C   UNL     1      60.588  32.954  13.532  1.00  0.00     0.000 C 
BRANCH   3   4
ATOM      4  C   UNL     1      62.104  32.693  13.655  1.00  0.00     0.000 C 
BRANCH   4   5
ATOM      5  C   UNL     1      62.739  33.145  14.983  1.00  0.00     0.000 C 
BRANCH   5   6
ATOM      6  C   UNL     1      61.741  33.865  15.906  1.00  0.00     0.006 C 
BRANCH   6   7
ATOM      7  C   UNL     1      61.609  33.172  17.268  1.00  0.00     0.053 C 
BRANCH   7   8
ATOM      8  C   UNL     1      62.148  34.024  18.377  1.00  0.00     0.041 C 
ATOM      9  O   UNL     1      61.882  33.744  19.576  1.00  0.00    -0.550 OA
ATOM     10  O   UNL     1      62.970  35.105  18.088  1.00  0.00    -0.550 OA
ENDBRANCH   7   8
ENDBRANCH   6   7
ENDBRANCH   5   6
ENDBRANCH   4   5
ENDBRANCH   3   4
ENDBRANCH   2   3
ENDBRANCH   1   2
BRANCH   1  11
ATOM     11  C   UNL     1      59.757  29.234  12.893  1.00  0.00     0.000 C 
BRANCH  11  12
ATOM     12  C   UNL     1      61.015  28.344  12.926  1.00  0.00    -0.000 C 
BRANCH  12  13
ATOM     13  C   UNL     1      62.237  29.054  13.530  1.00  0.00    -0.000 C 
BRANCH  13  14
ATOM     14  C   UNL     1      63.441  29.100  12.570  1.00  0.00    -0.000 C 
BRANCH  14  15
ATOM     15  C   UNL     1      63.267  30.006  11.336  1.00  0.00    -0.000 C 
BRANCH  15  16
ATOM     16  C   UNL     1      63.316  29.230  10.010  1.00  0.00    -0.000 C 
BRANCH  16  17
ATOM     17  C   UNL     1      62.006  29.343   9.213  1.00  0.00    -0.003 C 
ATOM     18  C   UNL     1      61.125  28.101   9.342  1.00  0.00     0.004 C 
ENDBRANCH  16  17
ENDBRANCH  15  16
ENDBRANCH  14  15
ENDBRANCH  13  14
ENDBRANCH  12  13
ENDBRANCH  11  12
ENDBRANCH   1  11
TORSDOF 14
ENDMDL
MODEL 6
REMARK VINA RESULT:    -4.722     12.026     14.296
REMARK INTER + INTRA:         -10.570
REMARK INTER:                  -8.554
REMARK INTRA:                  -2.016
REMARK UNBOUND:                -1.983
REMARK SMILES CCCCCCCCCCCCCCCC(=O)[O-]
REMARK SMILES IDX 9 1 10 2 11 3 12 4 13 5 14 6 15 7 16 8 17 9 18 10 8 11 7 12
REMARK SMILES IDX 6 13 5 14 4 15 3 16 2 17 1 18
REMARK H PARENT
REMARK Flexibility Score: inf
ROOT
ATOM      1  C   UNL     1      64.221  30.536  28.113  1.00  0.00     0.000 C 
ENDROOT
BRANCH   1   2
ATOM      2  C   UNL     1      65.727  30.515  28.424  1.00  0.00     0.000 C 
BRANCH   2   3
ATOM      3  C   UNL     1      66.588  30.163  27.197  1.00  0.00     0.000 C 
BRANCH   3   4
ATOM      4  C   UNL     1      65.907  29.261  26.147  1.00  0.00     0.000 C 
BRANCH   4   5
ATOM      5  C   UNL     1      66.549  29.287  24.749  1.00  0.00     0.000 C 
BRANCH   5   6
ATOM      6  C   UNL     1      66.086  28.120  23.859  1.00  0.00     0.006 C 
BRANCH   6   7
ATOM      7  C   UNL     1      65.143  27.166  24.602  1.00  0.00     0.053 C 
BRANCH   7   8
ATOM      8  C   UNL     1      64.761  25.992  23.752  1.00  0.00     0.041 C 
ATOM      9  O   UNL     1      63.672  25.393  23.955  1.00  0.00    -0.550 OA
ATOM     10  O   UNL     1      65.589  25.584  22.715  1.00  0.00    -0.550 OA
ENDBRANCH   7   8
ENDBRANCH   6   7
ENDBRANCH   5   6
ENDBRANCH   4   5
ENDBRANCH   3   4
ENDBRANCH   2   3
ENDBRANCH   1   2
BRANCH   1  11
ATOM     11  C   UNL     1      63.400  29.629  29.048  1.00  0.00     0.000 C 
BRANCH  11  12
ATOM     12  C   UNL     1      61.874  29.841  29.006  1.00  0.00    -0.000 C 
BRANCH  12  13
ATOM     13  C   UNL     1      61.102  28.576  28.600  1.00  0.00    -0.000 C 
BRANCH  13  14
ATOM     14  C   UNL     1      62.024  27.382  28.291  1.00  0.00    -0.000 C 
BRANCH  14  15
ATOM     15  C   UNL     1      62.232  27.078  26.795  1.00  0.00    -0.000 C 
BRANCH  15  16
ATOM     16  C   UNL     1      61.055  27.536  25.919  1.00  0.00    -0.000 C 
BRANCH  16  17
ATOM     17  C   UNL     1      61.514  28.332  24.686  1.00  0.00    -0.003 C 
ATOM     18  C   UNL     1      62.263  29.613  25.052  1.00  0.00     0.004 C 
ENDBRANCH  16  17
ENDBRANCH  15  16
ENDBRANCH  14  15
ENDBRANCH  13  14
ENDBRANCH  12  13
ENDBRANCH  11  12
ENDBRANCH   1  11
TORSDOF 14
ENDMDL
MODEL 7
REMARK VINA RESULT:    -4.722      2.098      3.597
REMARK INTER + INTRA:         -10.570
REMARK INTER:                  -8.641
REMARK INTRA:                  -1.929
REMARK UNBOUND:                -1.983
REMARK SMILES CCCCCCCCCCCCCCCC(=O)[O-]
REMARK SMILES IDX 9 1 10 2 11 3 12 4 13 5 14 6 15 7 16 8 17 9 18 10 8 11 7 12
REMARK SMILES IDX 6 13 5 14 4 15 3 16 2 17 1 18
REMARK H PARENT
REMARK Flexibility Score: inf
ROOT
ATOM      1  C   UNL     1      64.549  30.371   9.345  1.00  0.00     0.000 C 
ENDROOT
BRANCH   1   2
ATOM      2  C   UNL     1      64.692  31.612  10.241  1.00  0.00     0.000 C 
BRANCH   2   3
ATOM      3  C   UNL     1      63.820  31.542  11.508  1.00  0.00     0.000 C 
BRANCH   3   4
ATOM      4  C   UNL     1      64.140  32.593  12.592  1.00  0.00     0.000 C 
BRANCH   4   5
ATOM      5  C   UNL     1      63.720  32.206  14.021  1.00  0.00     0.000 C 
BRANCH   5   6
ATOM      6  C   UNL     1      62.728  33.205  14.640  1.00  0.00     0.006 C 
BRANCH   6   7
ATOM      7  C   UNL     1      61.486  32.508  15.210  1.00  0.00     0.053 C 
BRANCH   7   8
ATOM      8  C   UNL     1      60.375  32.448  14.206  1.00  0.00     0.041 C 
ATOM      9  O   UNL     1      59.252  31.979  14.532  1.00  0.00    -0.550 OA
ATOM     10  O   UNL     1      60.568  32.942  12.923  1.00  0.00    -0.550 OA
ENDBRANCH   7   8
ENDBRANCH   6   7
ENDBRANCH   5   6
ENDBRANCH   4   5
ENDBRANCH   3   4
ENDBRANCH   2   3
ENDBRANCH   1   2
BRANCH   1  11
ATOM     11  C   UNL     1      63.649  29.284   9.961  1.00  0.00     0.000 C 
BRANCH  11  12
ATOM     12  C   UNL     1      62.442  28.858   9.103  1.00  0.00    -0.000 C 
BRANCH  12  13
ATOM     13  C   UNL     1      61.265  28.331   9.939  1.00  0.00    -0.000 C 
BRANCH  13  14
ATOM     14  C   UNL     1      60.159  29.382  10.149  1.00  0.00    -0.000 C 
BRANCH  14  15
ATOM     15  C   UNL     1      59.834  29.715  11.618  1.00  0.00    -0.000 C 
BRANCH  15  16
ATOM     16  C   UNL     1      60.196  28.578  12.586  1.00  0.00    -0.000 C 
BRANCH  16  17
ATOM     17  C   UNL     1      61.144  29.038  13.706  1.00  0.00    -0.003 C 
ATOM     18  C   UNL     1      62.609  28.724  13.409  1.00  0.00     0.004 C 
ENDBRANCH  16  17
ENDBRANCH  15  16
ENDBRANCH  14  15
ENDBRANCH  13  14
ENDBRANCH  12  13
ENDBRANCH  11  12
ENDBRANCH   1  11
TORSDOF 14
ENDMDL
MODEL 8
REMARK VINA RESULT:    -4.719     11.571     13.061
REMARK INTER + INTRA:         -10.564
REMARK INTER:                  -8.490
REMARK INTRA:                  -2.074
REMARK UNBOUND:                -1.983
REMARK SMILES CCCCCCCCCCCCCCCC(=O)[O-]
REMARK SMILES IDX 9 1 10 2 11 3 12 4 13 5 14 6 15 7 16 8 17 9 18 10 8 11 7 12
REMARK SMILES IDX 6 13 5 14 4 15 3 16 2 17 1 18
REMARK H PARENT
REMARK Flexibility Score: inf
ROOT
ATOM      1  C   UNL     1      66.231  28.377  23.949  1.00  0.00     0.000 C 
ENDROOT
BRANCH   1   2
ATOM      2  C   UNL     1      65.756  29.836  23.845  1.00  0.00     0.000 C 
BRANCH   2   3
ATOM      3  C   UNL     1      64.889  30.271  25.041  1.00  0.00     0.000 C 
BRANCH   3   4
ATOM      4  C   UNL     1      65.025  29.402  26.308  1.00  0.00     0.000 C 
BRANCH   4   5
ATOM      5  C   UNL     1      65.202  30.184  27.621  1.00  0.00     0.000 C 
BRANCH   5   6
ATOM      6  C   UNL     1      64.141  29.825  28.676  1.00  0.00     0.006 C 
BRANCH   6   7
ATOM      7  C   UNL     1      62.714  29.978  28.136  1.00  0.00     0.053 C 
BRANCH   7   8
ATOM      8  C   UNL     1      61.891  28.751  28.390  1.00  0.00     0.041 C 
ATOM      9  O   UNL     1      60.675  28.858  28.697  1.00  0.00    -0.550 OA
ATOM     10  O   UNL     1      62.459  27.491  28.252  1.00  0.00    -0.550 OA
ENDBRANCH   7   8
ENDBRANCH   6   7
ENDBRANCH   5   6
ENDBRANCH   4   5
ENDBRANCH   3   4
ENDBRANCH   2   3
ENDBRANCH   1   2
BRANCH   1  11
ATOM     11  C   UNL     1      66.364  27.688  22.578  1.00  0.00     0.000 C 
BRANCH  11  12
ATOM     12  C   UNL     1      65.764  26.271  22.488  1.00  0.00    -0.000 C 
BRANCH  12  13
ATOM     13  C   UNL     1      65.229  25.759  23.834  1.00  0.00    -0.000 C 
BRANCH  13  14
ATOM     14  C   UNL     1      63.693  25.643  23.866  1.00  0.00    -0.000 C 
BRANCH  14  15
ATOM     15  C   UNL     1      62.975  26.629  24.807  1.00  0.00    -0.000 C 
BRANCH  15  16
ATOM     16  C   UNL     1      62.472  27.890  24.085  1.00  0.00    -0.000 C 
BRANCH  16  17
ATOM     17  C   UNL     1      61.273  28.536  24.798  1.00  0.00    -0.003 C 
ATOM     18  C   UNL     1      60.286  27.508  25.350  1.00  0.00     0.004 C 
ENDBRANCH  16  17
ENDBRANCH  15  16
ENDBRANCH  14  15
ENDBRANCH  13  14
ENDBRANCH  12  13
ENDBRANCH  11  12
ENDBRANCH   1  11
TORSDOF 14
ENDMDL
MODEL 9
REMARK VINA RESULT:    -4.708      1.132      2.441
REMARK INTER + INTRA:         -10.545
REMARK INTER:                  -8.663
REMARK INTRA:                  -1.882
REMARK UNBOUND:                -1.983
REMARK SMILES CCCCCCCCCCCCCCCC(=O)[O-]
REMARK SMILES IDX 9 1 10 2 11 3 12 4 13 5 14 6 15 7 16 8 17 9 18 10 8 11 7 12
REMARK SMILES IDX 6 13 5 14 4 15 3 16 2 17 1 18
REMARK H PARENT
REMARK Flexibility Score: inf
ROOT
ATOM      1  C   UNL     1      61.502  28.942  13.474  1.00  0.00     0.000 C 
ENDROOT
BRANCH   1   2
ATOM      2  C   UNL     1      61.380  30.312  14.161  1.00  0.00     0.000 C 
BRANCH   2   3
ATOM      3  C   UNL     1      60.408  31.262  13.437  1.00  0.00     0.000 C 
BRANCH   3   4
ATOM      4  C   UNL     1      60.751  32.763  13.537  1.00  0.00     0.000 C 
BRANCH   4   5
ATOM      5  C   UNL     1      61.751  33.132  14.647  1.00  0.00     0.000 C 
BRANCH   5   6
ATOM      6  C   UNL     1      61.078  33.803  15.856  1.00  0.00     0.006 C 
BRANCH   6   7
ATOM      7  C   UNL     1      61.562  33.217  17.188  1.00  0.00     0.053 C 
BRANCH   7   8
ATOM      8  C   UNL     1      61.999  34.289  18.139  1.00  0.00     0.041 C 
ATOM      9  O   UNL     1      62.956  35.051  17.837  1.00  0.00    -0.550 OA
ATOM     10  O   UNL     1      61.327  34.470  19.341  1.00  0.00    -0.550 OA
ENDBRANCH   7   8
ENDBRANCH   6   7
ENDBRANCH   5   6
ENDBRANCH   4   5
ENDBRANCH   3   4
ENDBRANCH   2   3
ENDBRANCH   1   2
BRANCH   1  11
ATOM     11  C   UNL     1      60.341  28.647  12.506  1.00  0.00     0.000 C 
BRANCH  11  12
ATOM     12  C   UNL     1      60.750  28.368  11.046  1.00  0.00    -0.000 C 
BRANCH  12  13
ATOM     13  C   UNL     1      60.623  29.603  10.140  1.00  0.00    -0.000 C 
BRANCH  13  14
ATOM     14  C   UNL     1      61.767  29.717   9.115  1.00  0.00    -0.000 C 
BRANCH  14  15
ATOM     15  C   UNL     1      63.102  29.080   9.542  1.00  0.00    -0.000 C 
BRANCH  15  16
ATOM     16  C   UNL     1      64.147  30.115   9.988  1.00  0.00    -0.000 C 
BRANCH  16  17
ATOM     17  C   UNL     1      64.064  30.424  11.492  1.00  0.00    -0.003 C 
ATOM     18  C   UNL     1      63.910  31.916  11.783  1.00  0.00     0.004 C 
ENDBRANCH  16  17
ENDBRANCH  15  16
ENDBRANCH  14  15
ENDBRANCH  13  14
ENDBRANCH  12  13
ENDBRANCH  11  12
ENDBRANCH   1  11
TORSDOF 14
ENDMDL
