MODEL 1
REMARK VINA RESULT:    -3.966      0.000      0.000
REMARK INTER + INTRA:          -4.680
REMARK INTER:                  -4.545
REMARK INTRA:                  -0.134
REMARK UNBOUND:                -0.134
REMARK SMILES O=C([O-])C=Cc1ccc(O)cc1
REMARK SMILES IDX 6 1 7 2 12 3 8 4 11 5 9 6 5 7 4 8 2 9 1 10 3 11 10 12
REMARK H PARENT 10 13
REMARK Flexibility Score: inf
ROOT
ATOM      1  C   UNL     1      13.248  23.670  80.675  1.00  0.00    -0.025 A 
ATOM      2  C   UNL     1      14.599  23.311  80.523  1.00  0.00     0.012 A 
ATOM      3  C   UNL     1      12.254  22.789  80.203  1.00  0.00     0.012 A 
ATOM      4  C   UNL     1      14.951  22.092  79.937  1.00  0.00     0.047 A 
ATOM      5  C   UNL     1      12.611  21.570  79.616  1.00  0.00     0.047 A 
ATOM      6  C   UNL     1      13.959  21.217  79.483  1.00  0.00     0.115 A 
ENDROOT
BRANCH   1   7
ATOM      7  C   UNL     1      12.927  24.979  81.295  1.00  0.00     0.010 C 
ATOM      8  C   UNL     1      12.697  25.147  82.604  1.00  0.00     0.025 C 
BRANCH   8   9
ATOM      9  C   UNL     1      12.393  26.468  83.178  1.00  0.00     0.064 C 
ATOM     10  O   UNL     1      13.225  27.404  83.057  1.00  0.00    -0.545 OA
ATOM     11  O   UNL     1      11.200  26.699  83.854  1.00  0.00    -0.545 OA
ENDBRANCH   8   9
ENDBRANCH   1   7
BRANCH   6  12
ATOM     12  O   UNL     1      14.323  20.006  78.902  1.00  0.00    -0.508 OA
ATOM     13  H   UNL     1      14.238  19.849  77.904  1.00  0.00     0.293 HD
ENDBRANCH   6  12
TORSDOF 3
ENDMDL
MODEL 2
REMARK VINA RESULT:    -3.942      2.594      3.633
REMARK INTER + INTRA:          -4.652
REMARK INTER:                  -4.519
REMARK INTRA:                  -0.133
REMARK UNBOUND:                -0.134
REMARK SMILES O=C([O-])C=Cc1ccc(O)cc1
REMARK SMILES IDX 6 1 7 2 12 3 8 4 11 5 9 6 5 7 4 8 2 9 1 10 3 11 10 12
REMARK H PARENT 10 13
REMARK Flexibility Score: inf
ROOT
ATOM      1  C   UNL     1      12.837  25.791  82.946  1.00  0.00    -0.025 A 
ATOM      2  C   UNL     1      12.708  25.169  81.692  1.00  0.00     0.012 A 
ATOM      3  C   UNL     1      13.920  25.432  83.774  1.00  0.00     0.012 A 
ATOM      4  C   UNL     1      13.650  24.230  81.262  1.00  0.00     0.047 A 
ATOM      5  C   UNL     1      14.860  24.491  83.340  1.00  0.00     0.047 A 
ATOM      6  C   UNL     1      14.729  23.890  82.082  1.00  0.00     0.115 A 
ENDROOT
BRANCH   1   7
ATOM      7  C   UNL     1      11.805  26.774  83.360  1.00  0.00     0.010 C 
ATOM      8  C   UNL     1      11.988  28.101  83.336  1.00  0.00     0.025 C 
BRANCH   8   9
ATOM      9  C   UNL     1      10.932  29.039  83.746  1.00  0.00     0.064 C 
ATOM     10  O   UNL     1      10.286  29.669  82.868  1.00  0.00    -0.545 OA
ATOM     11  O   UNL     1      10.636  29.246  85.089  1.00  0.00    -0.545 OA
ENDBRANCH   8   9
ENDBRANCH   1   7
BRANCH   6  12
ATOM     12  O   UNL     1      15.660  22.954  81.642  1.00  0.00    -0.508 OA
ATOM     13  H   UNL     1      15.866  22.833  80.656  1.00  0.00     0.293 HD
ENDBRANCH   6  12
TORSDOF 3
ENDMDL
MODEL 3
REMARK VINA RESULT:    -3.940     12.909     13.821
REMARK INTER + INTRA:          -4.650
REMARK INTER:                  -4.502
REMARK INTRA:                  -0.148
REMARK UNBOUND:                -0.134
REMARK SMILES O=C([O-])C=Cc1ccc(O)cc1
REMARK SMILES IDX 6 1 7 2 12 3 8 4 11 5 9 6 5 7 4 8 2 9 1 10 3 11 10 12
REMARK H PARENT 10 13
REMARK Flexibility Score: inf
ROOT
ATOM      1  C   UNL     1       3.977  24.558  71.906  1.00  0.00    -0.025 A 
ATOM      2  C   UNL     1       4.312  23.938  70.689  1.00  0.00     0.012 A 
ATOM      3  C   UNL     1       4.735  24.253  73.055  1.00  0.00     0.012 A 
ATOM      4  C   UNL     1       5.394  23.056  70.613  1.00  0.00     0.047 A 
ATOM      5  C   UNL     1       5.817  23.370  72.974  1.00  0.00     0.047 A 
ATOM      6  C   UNL     1       6.150  22.771  71.753  1.00  0.00     0.115 A 
ENDROOT
BRANCH   1   7
ATOM      7  C   UNL     1       2.813  25.478  71.936  1.00  0.00     0.010 C 
ATOM      8  C   UNL     1       1.659  25.241  71.299  1.00  0.00     0.025 C 
BRANCH   8   9
ATOM      9  C   UNL     1       0.527  26.178  71.366  1.00  0.00     0.064 C 
ATOM     10  O   UNL     1       0.702  27.333  71.835  1.00  0.00    -0.545 OA
ATOM     11  O   UNL     1      -0.738  25.808  70.921  1.00  0.00    -0.545 OA
ENDBRANCH   8   9
ENDBRANCH   1   7
BRANCH   6  12
ATOM     12  O   UNL     1       7.226  21.891  71.663  1.00  0.00    -0.508 OA
ATOM     13  H   UNL     1       7.093  20.886  71.691  1.00  0.00     0.293 HD
ENDBRANCH   6  12
TORSDOF 3
ENDMDL
MODEL 4
REMARK VINA RESULT:    -3.876     11.842     12.776
REMARK INTER + INTRA:          -4.577
REMARK INTER:                  -4.444
REMARK INTRA:                  -0.133
REMARK UNBOUND:                -0.134
REMARK SMILES O=C([O-])C=Cc1ccc(O)cc1
REMARK SMILES IDX 6 1 7 2 12 3 8 4 11 5 9 6 5 7 4 8 2 9 1 10 3 11 10 12
REMARK H PARENT 10 13
REMARK Flexibility Score: inf
ROOT
ATOM      1  C   UNL     1       4.988  24.783  72.620  1.00  0.00    -0.025 A 
ATOM      2  C   UNL     1       5.315  23.472  73.006  1.00  0.00     0.012 A 
ATOM      3  C   UNL     1       6.022  25.649  72.209  1.00  0.00     0.012 A 
ATOM      4  C   UNL     1       6.639  23.025  72.959  1.00  0.00     0.047 A 
ATOM      5  C   UNL     1       7.346  25.197  72.164  1.00  0.00     0.047 A 
ATOM      6  C   UNL     1       7.657  23.884  72.537  1.00  0.00     0.115 A 
ENDROOT
BRANCH   1   7
ATOM      7  C   UNL     1       3.569  25.213  72.697  1.00  0.00     0.010 C 
ATOM      8  C   UNL     1       2.743  25.245  71.643  1.00  0.00     0.025 C 
BRANCH   8   9
ATOM      9  C   UNL     1       1.339  25.667  71.768  1.00  0.00     0.064 C 
ATOM     10  O   UNL     1       0.428  24.800  71.779  1.00  0.00    -0.545 OA
ATOM     11  O   UNL     1       1.001  27.012  71.872  1.00  0.00    -0.545 OA
ENDBRANCH   8   9
ENDBRANCH   1   7
BRANCH   6  12
ATOM     12  O   UNL     1       8.971  23.425  72.495  1.00  0.00    -0.508 OA
ATOM     13  H   UNL     1       9.372  23.043  71.645  1.00  0.00     0.293 HD
ENDBRANCH   6  12
TORSDOF 3
ENDMDL
MODEL 5
REMARK VINA RESULT:    -3.807     15.674     16.776
REMARK INTER + INTRA:          -4.498
REMARK INTER:                  -4.364
REMARK INTRA:                  -0.134
REMARK UNBOUND:                -0.134
REMARK SMILES O=C([O-])C=Cc1ccc(O)cc1
REMARK SMILES IDX 6 1 7 2 12 3 8 4 11 5 9 6 5 7 4 8 2 9 1 10 3 11 10 12
REMARK H PARENT 10 13
REMARK Flexibility Score: inf
ROOT
ATOM      1  C   UNL     1       0.236  26.153  71.249  1.00  0.00    -0.025 A 
ATOM      2  C   UNL     1       0.132  27.400  70.609  1.00  0.00     0.012 A 
ATOM      3  C   UNL     1      -0.803  25.215  71.082  1.00  0.00     0.012 A 
ATOM      4  C   UNL     1      -0.969  27.696  69.800  1.00  0.00     0.047 A 
ATOM      5  C   UNL     1      -1.903  25.515  70.272  1.00  0.00     0.047 A 
ATOM      6  C   UNL     1      -1.988  26.755  69.627  1.00  0.00     0.115 A 
ENDROOT
BRANCH   1   7
ATOM      7  C   UNL     1       1.420  25.891  72.106  1.00  0.00     0.010 C 
ATOM      8  C   UNL     1       2.542  25.308  71.666  1.00  0.00     0.025 C 
BRANCH   8   9
ATOM      9  C   UNL     1       3.697  25.078  72.549  1.00  0.00     0.064 C 
ATOM     10  O   UNL     1       4.451  24.092  72.342  1.00  0.00    -0.545 OA
ATOM     11  O   UNL     1       3.969  25.932  73.612  1.00  0.00    -0.545 OA
ENDBRANCH   8   9
ENDBRANCH   1   7
BRANCH   6  12
ATOM     12  O   UNL     1      -3.078  27.062  68.817  1.00  0.00    -0.508 OA
ATOM     13  H   UNL     1      -3.062  26.889  67.819  1.00  0.00     0.293 HD
ENDBRANCH   6  12
TORSDOF 3
ENDMDL
MODEL 6
REMARK VINA RESULT:    -3.713     17.031     18.097
REMARK INTER + INTRA:          -4.390
REMARK INTER:                  -4.243
REMARK INTRA:                  -0.147
REMARK UNBOUND:                -0.134
REMARK SMILES O=C([O-])C=Cc1ccc(O)cc1
REMARK SMILES IDX 6 1 7 2 12 3 8 4 11 5 9 6 5 7 4 8 2 9 1 10 3 11 10 12
REMARK H PARENT 10 13
REMARK Flexibility Score: inf
ROOT
ATOM      1  C   UNL     1       8.997  13.001  68.249  1.00  0.00    -0.025 A 
ATOM      2  C   UNL     1       7.747  12.359  68.262  1.00  0.00     0.012 A 
ATOM      3  C   UNL     1       9.045  14.388  68.002  1.00  0.00     0.012 A 
ATOM      4  C   UNL     1       6.570  13.086  68.059  1.00  0.00     0.047 A 
ATOM      5  C   UNL     1       7.865  15.112  67.799  1.00  0.00     0.047 A 
ATOM      6  C   UNL     1       6.625  14.463  67.829  1.00  0.00     0.115 A 
ENDROOT
BRANCH   1   7
ATOM      7  C   UNL     1      10.217  12.183  68.460  1.00  0.00     0.010 C 
ATOM      8  C   UNL     1      10.273  11.129  69.285  1.00  0.00     0.025 C 
BRANCH   8   9
ATOM      9  C   UNL     1      11.502  10.339  69.455  1.00  0.00     0.064 C 
ATOM     10  O   UNL     1      12.111   9.911  68.440  1.00  0.00    -0.545 OA
ATOM     11  O   UNL     1      12.004  10.055  70.720  1.00  0.00    -0.545 OA
ENDBRANCH   8   9
ENDBRANCH   1   7
BRANCH   6  12
ATOM     12  O   UNL     1       5.446  15.176  67.629  1.00  0.00    -0.508 OA
ATOM     13  H   UNL     1       5.332  16.121  67.978  1.00  0.00     0.293 HD
ENDBRANCH   6  12
TORSDOF 3
ENDMDL
MODEL 7
REMARK VINA RESULT:    -3.703      4.702      7.117
REMARK INTER + INTRA:          -4.378
REMARK INTER:                  -4.228
REMARK INTRA:                  -0.150
REMARK UNBOUND:                -0.134
REMARK SMILES O=C([O-])C=Cc1ccc(O)cc1
REMARK SMILES IDX 6 1 7 2 12 3 8 4 11 5 9 6 5 7 4 8 2 9 1 10 3 11 10 12
REMARK H PARENT 10 13
REMARK Flexibility Score: inf
ROOT
ATOM      1  C   UNL     1      14.602  17.360  79.756  1.00  0.00    -0.025 A 
ATOM      2  C   UNL     1      13.644  16.504  79.188  1.00  0.00     0.012 A 
ATOM      3  C   UNL     1      15.655  16.799  80.507  1.00  0.00     0.012 A 
ATOM      4  C   UNL     1      13.747  15.118  79.341  1.00  0.00     0.047 A 
ATOM      5  C   UNL     1      15.754  15.411  80.658  1.00  0.00     0.047 A 
ATOM      6  C   UNL     1      14.802  14.567  80.074  1.00  0.00     0.115 A 
ENDROOT
BRANCH   1   7
ATOM      7  C   UNL     1      14.443  18.824  79.573  1.00  0.00     0.010 C 
ATOM      8  C   UNL     1      13.713  19.377  78.595  1.00  0.00     0.025 C 
BRANCH   8   9
ATOM      9  C   UNL     1      13.574  20.835  78.458  1.00  0.00     0.064 C 
ATOM     10  O   UNL     1      12.879  21.474  79.291  1.00  0.00    -0.545 OA
ATOM     11  O   UNL     1      14.197  21.522  77.421  1.00  0.00    -0.545 OA
ENDBRANCH   8   9
ENDBRANCH   1   7
BRANCH   6  12
ATOM     12  O   UNL     1      14.893  13.186  80.218  1.00  0.00    -0.508 OA
ATOM     13  H   UNL     1      14.107  12.578  80.013  1.00  0.00     0.293 HD
ENDBRANCH   6  12
TORSDOF 3
ENDMDL
MODEL 8
REMARK VINA RESULT:    -3.653      1.198      5.819
REMARK INTER + INTRA:          -4.322
REMARK INTER:                  -4.189
REMARK INTRA:                  -0.133
REMARK UNBOUND:                -0.134
REMARK SMILES O=C([O-])C=Cc1ccc(O)cc1
REMARK SMILES IDX 6 1 7 2 12 3 8 4 11 5 9 6 5 7 4 8 2 9 1 10 3 11 10 12
REMARK H PARENT 10 13
REMARK Flexibility Score: inf
ROOT
ATOM      1  C   UNL     1      13.071  24.650  81.130  1.00  0.00    -0.025 A 
ATOM      2  C   UNL     1      12.861  25.897  80.514  1.00  0.00     0.012 A 
ATOM      3  C   UNL     1      12.915  24.548  82.527  1.00  0.00     0.012 A 
ATOM      4  C   UNL     1      12.480  27.009  81.270  1.00  0.00     0.047 A 
ATOM      5  C   UNL     1      12.534  25.664  83.280  1.00  0.00     0.047 A 
ATOM      6  C   UNL     1      12.314  26.896  82.653  1.00  0.00     0.115 A 
ENDROOT
BRANCH   1   7
ATOM      7  C   UNL     1      13.484  23.502  80.285  1.00  0.00     0.010 C 
ATOM      8  C   UNL     1      12.629  22.602  79.783  1.00  0.00     0.025 C 
BRANCH   8   9
ATOM      9  C   UNL     1      13.082  21.484  78.939  1.00  0.00     0.064 C 
ATOM     10  O   UNL     1      13.023  21.588  77.686  1.00  0.00    -0.545 OA
ATOM     11  O   UNL     1      13.574  20.313  79.504  1.00  0.00    -0.545 OA
ENDBRANCH   8   9
ENDBRANCH   1   7
BRANCH   6  12
ATOM     12  O   UNL     1      11.933  28.012  83.394  1.00  0.00    -0.508 OA
ATOM     13  H   UNL     1      12.413  28.270  84.248  1.00  0.00     0.293 HD
ENDBRANCH   6  12
TORSDOF 3
ENDMDL
MODEL 9
REMARK VINA RESULT:    -3.626     12.065     13.711
REMARK INTER + INTRA:          -4.290
REMARK INTER:                  -4.138
REMARK INTRA:                  -0.152
REMARK UNBOUND:                -0.134
REMARK SMILES O=C([O-])C=Cc1ccc(O)cc1
REMARK SMILES IDX 6 1 7 2 12 3 8 4 11 5 9 6 5 7 4 8 2 9 1 10 3 11 10 12
REMARK H PARENT 10 13
REMARK Flexibility Score: inf
ROOT
ATOM      1  C   UNL     1       4.566  24.130  71.613  1.00  0.00    -0.025 A 
ATOM      2  C   UNL     1       4.208  23.838  70.286  1.00  0.00     0.012 A 
ATOM      3  C   UNL     1       3.680  24.889  72.404  1.00  0.00     0.012 A 
ATOM      4  C   UNL     1       2.984  24.270  69.766  1.00  0.00     0.047 A 
ATOM      5  C   UNL     1       2.457  25.320  71.880  1.00  0.00     0.047 A 
ATOM      6  C   UNL     1       2.105  25.009  70.561  1.00  0.00     0.115 A 
ENDROOT
BRANCH   1   7
ATOM      7  C   UNL     1       5.881  23.658  72.114  1.00  0.00     0.010 C 
ATOM      8  C   UNL     1       6.523  22.587  71.626  1.00  0.00     0.025 C 
BRANCH   8   9
ATOM      9  C   UNL     1       7.831  22.161  72.146  1.00  0.00     0.064 C 
ATOM     10  O   UNL     1       8.373  22.815  73.075  1.00  0.00    -0.545 OA
ATOM     11  O   UNL     1       8.482  21.048  71.626  1.00  0.00    -0.545 OA
ENDBRANCH   8   9
ENDBRANCH   1   7
BRANCH   6  12
ATOM     12  O   UNL     1       0.888  25.432  70.032  1.00  0.00    -0.508 OA
ATOM     13  H   UNL     1       0.012  25.001  70.305  1.00  0.00     0.293 HD
ENDBRANCH   6  12
TORSDOF 3
ENDMDL
