MODEL 1
REMARK VINA RESULT:    -3.884      0.000      0.000
REMARK INTER + INTRA:          -7.401
REMARK INTER:                  -6.154
REMARK INTRA:                  -1.248
REMARK UNBOUND:                -1.248
REMARK SMILES CCCCCCCCCCCC(=O)[O-]
REMARK SMILES IDX 7 1 8 2 9 3 10 4 11 5 12 6 13 7 14 8 6 9 5 10 4 11 3 12 2 13
REMARK SMILES IDX 1 14
REMARK H PARENT
REMARK Flexibility Score: inf
ROOT
ATOM      1  C   UNL     1       1.900  10.415 -18.061  1.00  0.00     0.000 C 
ENDROOT
BRANCH   1   2
ATOM      2  C   UNL     1       3.376  10.098 -17.772  1.00  0.00     0.000 C 
BRANCH   2   3
ATOM      3  C   UNL     1       4.116   9.551 -19.004  1.00  0.00     0.000 C 
BRANCH   3   4
ATOM      4  C   UNL     1       3.168   8.881 -20.012  1.00  0.00     0.006 C 
BRANCH   4   5
ATOM      5  C   UNL     1       3.912   8.018 -21.041  1.00  0.00     0.053 C 
BRANCH   5   6
ATOM      6  C   UNL     1       3.396   6.615 -21.015  1.00  0.00     0.041 C 
ATOM      7  O   UNL     1       3.202   6.032 -19.915  1.00  0.00    -0.550 OA
ATOM      8  O   UNL     1       3.081   5.967 -22.202  1.00  0.00    -0.550 OA
ENDBRANCH   5   6
ENDBRANCH   4   5
ENDBRANCH   3   4
ENDBRANCH   2   3
ENDBRANCH   1   2
BRANCH   1   9
ATOM      9  C   UNL     1       1.103  10.745 -16.789  1.00  0.00     0.000 C 
BRANCH   9  10
ATOM     10  C   UNL     1       1.698  10.027 -15.568  1.00  0.00    -0.000 C 
BRANCH  10  11
ATOM     11  C   UNL     1       0.932   8.745 -15.204  1.00  0.00    -0.000 C 
BRANCH  11  12
ATOM     12  C   UNL     1       1.755   7.472 -15.450  1.00  0.00    -0.000 C 
BRANCH  12  13
ATOM     13  C   UNL     1       1.583   6.978 -16.891  1.00  0.00    -0.003 C 
ATOM     14  C   UNL     1       0.128   7.081 -17.338  1.00  0.00     0.004 C 
ENDBRANCH  12  13
ENDBRANCH  11  12
ENDBRANCH  10  11
ENDBRANCH   9  10
ENDBRANCH   1   9
TORSDOF 10
ENDMDL
MODEL 2
REMARK VINA RESULT:    -3.839     23.045     24.949
REMARK INTER + INTRA:          -7.330
REMARK INTER:                  -5.867
REMARK INTRA:                  -1.464
REMARK UNBOUND:                -1.248
REMARK SMILES CCCCCCCCCCCC(=O)[O-]
REMARK SMILES IDX 7 1 8 2 9 3 10 4 11 5 12 6 13 7 14 8 6 9 5 10 4 11 3 12 2 13
REMARK SMILES IDX 1 14
REMARK H PARENT
REMARK Flexibility Score: inf
ROOT
ATOM      1  C   UNL     1     -15.765  -4.998 -30.842  1.00  0.00     0.000 C 
ENDROOT
BRANCH   1   2
ATOM      2  C   UNL     1     -16.125  -4.310 -32.170  1.00  0.00     0.000 C 
BRANCH   2   3
ATOM      3  C   UNL     1     -14.961  -4.321 -33.175  1.00  0.00     0.000 C 
BRANCH   3   4
ATOM      4  C   UNL     1     -14.383  -2.918 -33.425  1.00  0.00     0.006 C 
BRANCH   4   5
ATOM      5  C   UNL     1     -15.472  -1.863 -33.664  1.00  0.00     0.053 C 
BRANCH   5   6
ATOM      6  C   UNL     1     -15.331  -0.738 -32.689  1.00  0.00     0.041 C 
ATOM      7  O   UNL     1     -14.851   0.366 -33.061  1.00  0.00    -0.550 OA
ATOM      8  O   UNL     1     -15.776  -0.889 -31.382  1.00  0.00    -0.550 OA
ENDBRANCH   5   6
ENDBRANCH   4   5
ENDBRANCH   3   4
ENDBRANCH   2   3
ENDBRANCH   1   2
BRANCH   1   9
ATOM      9  C   UNL     1     -15.295  -6.449 -31.034  1.00  0.00     0.000 C 
BRANCH   9  10
ATOM     10  C   UNL     1     -13.978  -6.701 -30.284  1.00  0.00    -0.000 C 
BRANCH  10  11
ATOM     11  C   UNL     1     -13.248  -5.399 -29.915  1.00  0.00    -0.000 C 
BRANCH  11  12
ATOM     12  C   UNL     1     -12.095  -5.072 -30.876  1.00  0.00    -0.000 C 
BRANCH  12  13
ATOM     13  C   UNL     1     -11.798  -3.568 -30.882  1.00  0.00    -0.003 C 
ATOM     14  C   UNL     1     -12.875  -2.790 -30.134  1.00  0.00     0.004 C 
ENDBRANCH  12  13
ENDBRANCH  11  12
ENDBRANCH  10  11
ENDBRANCH   9  10
ENDBRANCH   1   9
TORSDOF 10
ENDMDL
MODEL 3
REMARK VINA RESULT:    -3.829     23.588     25.298
REMARK INTER + INTRA:          -7.315
REMARK INTER:                  -6.713
REMARK INTRA:                  -0.602
REMARK UNBOUND:                -1.248
REMARK SMILES CCCCCCCCCCCC(=O)[O-]
REMARK SMILES IDX 7 1 8 2 9 3 10 4 11 5 12 6 13 7 14 8 6 9 5 10 4 11 3 12 2 13
REMARK SMILES IDX 1 14
REMARK H PARENT
REMARK Flexibility Score: inf
ROOT
ATOM      1  C   UNL     1     -14.529  -5.342 -30.437  1.00  0.00     0.000 C 
ENDROOT
BRANCH   1   2
ATOM      2  C   UNL     1     -13.732  -4.542 -31.480  1.00  0.00     0.000 C 
BRANCH   2   3
ATOM      3  C   UNL     1     -14.440  -4.481 -32.845  1.00  0.00     0.000 C 
BRANCH   3   4
ATOM      4  C   UNL     1     -15.616  -3.491 -32.856  1.00  0.00     0.006 C 
BRANCH   4   5
ATOM      5  C   UNL     1     -15.295  -2.198 -33.617  1.00  0.00     0.053 C 
BRANCH   5   6
ATOM      6  C   UNL     1     -15.367  -1.020 -32.698  1.00  0.00     0.041 C 
ATOM      7  O   UNL     1     -15.753  -1.167 -31.508  1.00  0.00    -0.550 OA
ATOM      8  O   UNL     1     -14.958   0.232 -33.139  1.00  0.00    -0.550 OA
ENDBRANCH   5   6
ENDBRANCH   4   5
ENDBRANCH   3   4
ENDBRANCH   2   3
ENDBRANCH   1   2
BRANCH   1   9
ATOM      9  C   UNL     1     -15.348  -6.483 -31.062  1.00  0.00     0.000 C 
BRANCH   9  10
ATOM     10  C   UNL     1     -14.847  -7.850 -30.570  1.00  0.00    -0.000 C 
BRANCH  10  11
ATOM     11  C   UNL     1     -13.510  -7.754 -29.816  1.00  0.00    -0.000 C 
BRANCH  11  12
ATOM     12  C   UNL     1     -13.159  -9.046 -29.064  1.00  0.00    -0.000 C 
BRANCH  12  13
ATOM     13  C   UNL     1     -12.519  -8.733 -27.706  1.00  0.00    -0.003 C 
ATOM     14  C   UNL     1     -12.090  -7.271 -27.623  1.00  0.00     0.004 C 
ENDBRANCH  12  13
ENDBRANCH  11  12
ENDBRANCH  10  11
ENDBRANCH   9  10
ENDBRANCH   1   9
TORSDOF 10
ENDMDL
MODEL 4
REMARK VINA RESULT:    -3.803      1.669      3.894
REMARK INTER + INTRA:          -7.273
REMARK INTER:                  -5.841
REMARK INTRA:                  -1.432
REMARK UNBOUND:                -1.248
REMARK SMILES CCCCCCCCCCCC(=O)[O-]
REMARK SMILES IDX 7 1 8 2 9 3 10 4 11 5 12 6 13 7 14 8 6 9 5 10 4 11 3 12 2 13
REMARK SMILES IDX 1 14
REMARK H PARENT
REMARK Flexibility Score: inf
ROOT
ATOM      1  C   UNL     1       1.096   8.893 -14.997  1.00  0.00     0.000 C 
ENDROOT
BRANCH   1   2
ATOM      2  C   UNL     1       1.876   7.590 -15.241  1.00  0.00     0.000 C 
BRANCH   2   3
ATOM      3  C   UNL     1       1.719   7.068 -16.679  1.00  0.00     0.000 C 
BRANCH   3   4
ATOM      4  C   UNL     1       0.262   7.116 -17.169  1.00  0.00     0.006 C 
BRANCH   4   5
ATOM      5  C   UNL     1       0.092   6.539 -18.581  1.00  0.00     0.053 C 
BRANCH   5   6
ATOM      6  C   UNL     1       0.069   5.044 -18.534  1.00  0.00     0.041 C 
ATOM      7  O   UNL     1      -0.994   4.436 -18.242  1.00  0.00    -0.550 OA
ATOM      8  O   UNL     1       1.208   4.321 -18.862  1.00  0.00    -0.550 OA
ENDBRANCH   5   6
ENDBRANCH   4   5
ENDBRANCH   3   4
ENDBRANCH   2   3
ENDBRANCH   1   2
BRANCH   1   9
ATOM      9  C   UNL     1       1.806  10.127 -15.575  1.00  0.00     0.000 C 
BRANCH   9  10
ATOM     10  C   UNL     1       1.046  10.676 -16.793  1.00  0.00    -0.000 C 
BRANCH  10  11
ATOM     11  C   UNL     1       1.861  10.578 -18.093  1.00  0.00    -0.000 C 
BRANCH  11  12
ATOM     12  C   UNL     1       3.316  10.148 -17.851  1.00  0.00    -0.000 C 
BRANCH  12  13
ATOM     13  C   UNL     1       3.873   9.392 -19.063  1.00  0.00    -0.003 C 
ATOM     14  C   UNL     1       2.747   8.849 -19.939  1.00  0.00     0.004 C 
ENDBRANCH  12  13
ENDBRANCH  11  12
ENDBRANCH  10  11
ENDBRANCH   9  10
ENDBRANCH   1   9
TORSDOF 10
ENDMDL
MODEL 5
REMARK VINA RESULT:    -3.797      1.492      1.750
REMARK INTER + INTRA:          -7.265
REMARK INTER:                  -6.019
REMARK INTRA:                  -1.246
REMARK UNBOUND:                -1.248
REMARK SMILES CCCCCCCCCCCC(=O)[O-]
REMARK SMILES IDX 7 1 8 2 9 3 10 4 11 5 12 6 13 7 14 8 6 9 5 10 4 11 3 12 2 13
REMARK SMILES IDX 1 14
REMARK H PARENT
REMARK Flexibility Score: inf
ROOT
ATOM      1  C   UNL     1       1.893  10.494 -18.098  1.00  0.00     0.000 C 
ENDROOT
BRANCH   1   2
ATOM      2  C   UNL     1       3.357  10.148 -17.776  1.00  0.00     0.000 C 
BRANCH   2   3
ATOM      3  C   UNL     1       4.125   9.631 -19.004  1.00  0.00     0.000 C 
BRANCH   3   4
ATOM      4  C   UNL     1       3.340   8.563 -19.784  1.00  0.00     0.006 C 
BRANCH   4   5
ATOM      5  C   UNL     1       3.732   8.505 -21.267  1.00  0.00     0.053 C 
BRANCH   5   6
ATOM      6  C   UNL     1       2.594   8.961 -22.125  1.00  0.00     0.041 C 
ATOM      7  O   UNL     1       2.811   9.387 -23.290  1.00  0.00    -0.550 OA
ATOM      8  O   UNL     1       1.290   8.868 -21.657  1.00  0.00    -0.550 OA
ENDBRANCH   5   6
ENDBRANCH   4   5
ENDBRANCH   3   4
ENDBRANCH   2   3
ENDBRANCH   1   2
BRANCH   1   9
ATOM      9  C   UNL     1       1.040  10.696 -16.835  1.00  0.00     0.000 C 
BRANCH   9  10
ATOM     10  C   UNL     1       1.696  10.026 -15.618  1.00  0.00    -0.000 C 
BRANCH  10  11
ATOM     11  C   UNL     1       1.048   8.677 -15.265  1.00  0.00    -0.000 C 
BRANCH  11  12
ATOM     12  C   UNL     1       1.898   7.476 -15.706  1.00  0.00    -0.000 C 
BRANCH  12  13
ATOM     13  C   UNL     1       1.415   6.930 -17.056  1.00  0.00    -0.003 C 
ATOM     14  C   UNL     1      -0.076   7.187 -17.252  1.00  0.00     0.004 C 
ENDBRANCH  12  13
ENDBRANCH  11  12
ENDBRANCH  10  11
ENDBRANCH   9  10
ENDBRANCH   1   9
TORSDOF 10
ENDMDL
MODEL 6
REMARK VINA RESULT:    -3.727     22.772     24.810
REMARK INTER + INTRA:          -7.153
REMARK INTER:                  -6.251
REMARK INTRA:                  -0.902
REMARK UNBOUND:                -1.248
REMARK SMILES CCCCCCCCCCCC(=O)[O-]
REMARK SMILES IDX 7 1 8 2 9 3 10 4 11 5 12 6 13 7 14 8 6 9 5 10 4 11 3 12 2 13
REMARK SMILES IDX 1 14
REMARK H PARENT
REMARK Flexibility Score: inf
ROOT
ATOM      1  C   UNL     1     -14.936  -6.159 -30.863  1.00  0.00     0.000 C 
ENDROOT
BRANCH   1   2
ATOM      2  C   UNL     1     -15.023  -7.685 -30.693  1.00  0.00     0.000 C 
BRANCH   2   3
ATOM      3  C   UNL     1     -13.844  -8.258 -29.888  1.00  0.00     0.000 C 
BRANCH   3   4
ATOM      4  C   UNL     1     -12.891  -7.164 -29.378  1.00  0.00     0.006 C 
BRANCH   4   5
ATOM      5  C   UNL     1     -12.156  -7.570 -28.093  1.00  0.00     0.053 C 
BRANCH   5   6
ATOM      6  C   UNL     1     -10.703  -7.791 -28.371  1.00  0.00     0.041 C 
ATOM      7  O   UNL     1     -10.314  -8.869 -28.893  1.00  0.00    -0.550 OA
ATOM      8  O   UNL     1      -9.783  -6.786 -28.101  1.00  0.00    -0.550 OA
ENDBRANCH   5   6
ENDBRANCH   4   5
ENDBRANCH   3   4
ENDBRANCH   2   3
ENDBRANCH   1   2
BRANCH   1   9
ATOM      9  C   UNL     1     -16.077  -5.592 -31.723  1.00  0.00     0.000 C 
BRANCH   9  10
ATOM     10  C   UNL     1     -15.555  -4.504 -32.674  1.00  0.00    -0.000 C 
BRANCH  10  11
ATOM     11  C   UNL     1     -14.053  -4.232 -32.496  1.00  0.00    -0.000 C 
BRANCH  11  12
ATOM     12  C   UNL     1     -13.763  -2.819 -31.968  1.00  0.00    -0.000 C 
BRANCH  12  13
ATOM     13  C   UNL     1     -12.493  -2.804 -31.109  1.00  0.00    -0.003 C 
ATOM     14  C   UNL     1     -11.784  -4.154 -31.152  1.00  0.00     0.004 C 
ENDBRANCH  12  13
ENDBRANCH  11  12
ENDBRANCH  10  11
ENDBRANCH   9  10
ENDBRANCH   1   9
TORSDOF 10
ENDMDL
MODEL 7
REMARK VINA RESULT:    -3.720      1.459      4.616
REMARK INTER + INTRA:          -7.143
REMARK INTER:                  -6.107
REMARK INTRA:                  -1.036
REMARK UNBOUND:                -1.248
REMARK SMILES CCCCCCCCCCCC(=O)[O-]
REMARK SMILES IDX 7 1 8 2 9 3 10 4 11 5 12 6 13 7 14 8 6 9 5 10 4 11 3 12 2 13
REMARK SMILES IDX 1 14
REMARK H PARENT
REMARK Flexibility Score: inf
ROOT
ATOM      1  C   UNL     1       1.877  10.393 -18.152  1.00  0.00     0.000 C 
ENDROOT
BRANCH   1   2
ATOM      2  C   UNL     1       1.062  10.616 -16.868  1.00  0.00     0.000 C 
BRANCH   2   3
ATOM      3  C   UNL     1       1.747  10.026 -15.623  1.00  0.00     0.000 C 
BRANCH   3   4
ATOM      4  C   UNL     1       1.136   8.682 -15.194  1.00  0.00     0.006 C 
BRANCH   4   5
ATOM      5  C   UNL     1       1.870   7.478 -15.799  1.00  0.00     0.053 C 
BRANCH   5   6
ATOM      6  C   UNL     1       1.152   6.987 -17.016  1.00  0.00     0.041 C 
ATOM      7  O   UNL     1       1.752   6.268 -17.859  1.00  0.00    -0.550 OA
ATOM      8  O   UNL     1      -0.194   7.279 -17.195  1.00  0.00    -0.550 OA
ENDBRANCH   5   6
ENDBRANCH   4   5
ENDBRANCH   3   4
ENDBRANCH   2   3
ENDBRANCH   1   2
BRANCH   1   9
ATOM      9  C   UNL     1       3.378  10.208 -17.879  1.00  0.00     0.000 C 
BRANCH   9  10
ATOM     10  C   UNL     1       4.038   9.376 -18.989  1.00  0.00    -0.000 C 
BRANCH  10  11
ATOM     11  C   UNL     1       3.027   8.872 -20.031  1.00  0.00    -0.000 C 
BRANCH  11  12
ATOM     12  C   UNL     1       3.588   8.893 -21.461  1.00  0.00    -0.000 C 
BRANCH  12  13
ATOM     13  C   UNL     1       4.125   7.513 -21.860  1.00  0.00    -0.003 C 
ATOM     14  C   UNL     1       3.428   6.404 -21.078  1.00  0.00     0.004 C 
ENDBRANCH  12  13
ENDBRANCH  11  12
ENDBRANCH  10  11
ENDBRANCH   9  10
ENDBRANCH   1   9
TORSDOF 10
ENDMDL
MODEL 8
REMARK VINA RESULT:    -3.699     23.122     25.160
REMARK INTER + INTRA:          -7.110
REMARK INTER:                  -6.527
REMARK INTRA:                  -0.583
REMARK UNBOUND:                -1.248
REMARK SMILES CCCCCCCCCCCC(=O)[O-]
REMARK SMILES IDX 7 1 8 2 9 3 10 4 11 5 12 6 13 7 14 8 6 9 5 10 4 11 3 12 2 13
REMARK SMILES IDX 1 14
REMARK H PARENT
REMARK Flexibility Score: inf
ROOT
ATOM      1  C   UNL     1     -15.329  -7.331 -30.625  1.00  0.00     0.000 C 
ENDROOT
BRANCH   1   2
ATOM      2  C   UNL     1     -13.883  -7.487 -30.128  1.00  0.00     0.000 C 
BRANCH   2   3
ATOM      3  C   UNL     1     -13.576  -8.914 -29.641  1.00  0.00     0.000 C 
BRANCH   3   4
ATOM      4  C   UNL     1     -12.320  -8.978 -28.756  1.00  0.00     0.006 C 
BRANCH   4   5
ATOM      5  C   UNL     1     -11.955  -7.619 -28.146  1.00  0.00     0.053 C 
BRANCH   5   6
ATOM      6  C   UNL     1     -10.577  -7.213 -28.562  1.00  0.00     0.041 C 
ATOM      7  O   UNL     1     -10.367  -6.789 -29.730  1.00  0.00    -0.550 OA
ATOM      8  O   UNL     1      -9.533  -7.254 -27.647  1.00  0.00    -0.550 OA
ENDBRANCH   5   6
ENDBRANCH   4   5
ENDBRANCH   3   4
ENDBRANCH   2   3
ENDBRANCH   1   2
BRANCH   1   9
ATOM      9  C   UNL     1     -15.556  -6.017 -31.389  1.00  0.00     0.000 C 
BRANCH   9  10
ATOM     10  C   UNL     1     -14.544  -4.947 -30.950  1.00  0.00    -0.000 C 
BRANCH  10  11
ATOM     11  C   UNL     1     -13.882  -4.235 -32.141  1.00  0.00    -0.000 C 
BRANCH  11  12
ATOM     12  C   UNL     1     -14.884  -3.870 -33.247  1.00  0.00    -0.000 C 
BRANCH  12  13
ATOM     13  C   UNL     1     -15.418  -2.446 -33.054  1.00  0.00    -0.003 C 
ATOM     14  C   UNL     1     -15.233  -1.613 -34.319  1.00  0.00     0.004 C 
ENDBRANCH  12  13
ENDBRANCH  11  12
ENDBRANCH  10  11
ENDBRANCH   9  10
ENDBRANCH   1   9
TORSDOF 10
ENDMDL
MODEL 9
REMARK VINA RESULT:    -3.524     23.515     25.419
REMARK INTER + INTRA:          -6.831
REMARK INTER:                  -6.112
REMARK INTRA:                  -0.720
REMARK UNBOUND:                -1.248
REMARK SMILES CCCCCCCCCCCC(=O)[O-]
REMARK SMILES IDX 7 1 8 2 9 3 10 4 11 5 12 6 13 7 14 8 6 9 5 10 4 11 3 12 2 13
REMARK SMILES IDX 1 14
REMARK H PARENT
REMARK Flexibility Score: inf
ROOT
ATOM      1  C   UNL     1     -15.774  -3.991 -31.010  1.00  0.00     0.000 C 
ENDROOT
BRANCH   1   2
ATOM      2  C   UNL     1     -16.125  -5.418 -30.558  1.00  0.00     0.000 C 
BRANCH   2   3
ATOM      3  C   UNL     1     -15.428  -6.495 -31.406  1.00  0.00     0.000 C 
BRANCH   3   4
ATOM      4  C   UNL     1     -14.653  -7.511 -30.550  1.00  0.00     0.006 C 
BRANCH   4   5
ATOM      5  C   UNL     1     -13.428  -6.895 -29.862  1.00  0.00     0.053 C 
BRANCH   5   6
ATOM      6  C   UNL     1     -12.688  -7.936 -29.083  1.00  0.00     0.041 C 
ATOM      7  O   UNL     1     -13.113  -9.121 -29.047  1.00  0.00    -0.550 OA
ATOM      8  O   UNL     1     -11.502  -7.609 -28.439  1.00  0.00    -0.550 OA
ENDBRANCH   5   6
ENDBRANCH   4   5
ENDBRANCH   3   4
ENDBRANCH   2   3
ENDBRANCH   1   2
BRANCH   1   9
ATOM      9  C   UNL     1     -15.948  -3.788 -32.523  1.00  0.00     0.000 C 
BRANCH   9  10
ATOM     10  C   UNL     1     -14.679  -3.182 -33.144  1.00  0.00    -0.000 C 
BRANCH  10  11
ATOM     11  C   UNL     1     -14.984  -2.003 -34.082  1.00  0.00    -0.000 C 
BRANCH  11  12
ATOM     12  C   UNL     1     -15.379  -0.727 -33.323  1.00  0.00    -0.000 C 
BRANCH  12  13
ATOM     13  C   UNL     1     -14.549  -0.572 -32.043  1.00  0.00    -0.003 C 
ATOM     14  C   UNL     1     -15.438  -0.240 -30.848  1.00  0.00     0.004 C 
ENDBRANCH  12  13
ENDBRANCH  11  12
ENDBRANCH  10  11
ENDBRANCH   9  10
ENDBRANCH   1   9
TORSDOF 10
ENDMDL
