MODEL 1
REMARK VINA RESULT:     1.169      0.000      0.000
REMARK INTER + INTRA:           1.203
REMARK INTER:                   1.647
REMARK INTRA:                  -0.445
REMARK UNBOUND:                -0.445
REMARK SMILES O=c1cc(-c2ccc(O)c(O)c2)oc2cc(O)c([C@@H]3O[C@H](CO)[C@@H](O)[C@@H](O)[C@@H]3O)c(O)c12
REMARK SMILES IDX 4 1 3 2 2 3 1 4 32 5 14 6 13 7 15 8 16 9 18 10 30 11 5 12
REMARK SMILES IDX 6 13 7 14 8 15 12 16 10 17 9 18 11 20 31 22 17 24 19 26
REMARK SMILES IDX 28 27 20 28 26 29 21 30 24 31 29 32 27 34 22 36 23 37 25 39
REMARK H PARENT 9 19 11 21 31 23 17 25 29 33 27 35 23 38 25 40
REMARK Flexibility Score: inf
ROOT
ATOM      1  C   UNL     1      -5.235 -17.286 -18.339  1.00  0.00     0.138 A 
ATOM      2  C   UNL     1      -5.030 -17.425 -19.718  1.00  0.00     0.100 A 
ATOM      3  C   UNL     1      -5.141 -18.685 -20.307  1.00  0.00     0.197 A 
ATOM      4  O   UNL     1      -4.875 -18.793 -21.533  1.00  0.00    -0.289 OA
ATOM      5  C   UNL     1      -5.507 -19.802 -19.518  1.00  0.00     0.107 A 
ATOM      6  C   UNL     1      -5.659 -19.579 -18.128  1.00  0.00     0.146 A 
ATOM      7  O   UNL     1      -5.533 -18.360 -17.614  1.00  0.00    -0.456 OA
ATOM      8  C   UNL     1      -5.939 -20.638 -17.269  1.00  0.00     0.094 A 
ATOM      9  C   UNL     1      -6.046 -21.942 -17.754  1.00  0.00     0.128 A 
ATOM     10  C   UNL     1      -5.894 -22.201 -19.132  1.00  0.00     0.068 A 
ATOM     11  C   UNL     1      -5.701 -21.119 -20.027  1.00  0.00     0.140 A 
ENDROOT
BRANCH   1  12
ATOM     12  C   UNL     1      -5.133 -15.971 -17.657  1.00  0.00     0.021 A 
ATOM     13  C   UNL     1      -5.143 -15.861 -16.254  1.00  0.00     0.016 A 
ATOM     14  C   UNL     1      -5.055 -14.609 -15.641  1.00  0.00     0.051 A 
ATOM     15  C   UNL     1      -4.964 -13.445 -16.415  1.00  0.00     0.157 A 
ATOM     16  C   UNL     1      -5.055 -14.797 -18.428  1.00  0.00     0.062 A 
ATOM     17  C   UNL     1      -4.967 -13.542 -17.816  1.00  0.00     0.158 A 
BRANCH  15  18
ATOM     18  O   UNL     1      -4.875 -12.198 -15.799  1.00  0.00    -0.504 OA
ATOM     19  H   UNL     1      -4.201 -12.015 -15.065  1.00  0.00     0.293 HD
ENDBRANCH  15  18
BRANCH  17  20
ATOM     20  O   UNL     1      -4.883 -12.402 -18.616  1.00  0.00    -0.504 OA
ATOM     21  H   UNL     1      -4.392 -12.402 -19.503  1.00  0.00     0.293 HD
ENDBRANCH  17  20
ENDBRANCH   1  12
BRANCH  11  22
ATOM     22  O   UNL     1      -5.753 -21.389 -21.400  1.00  0.00    -0.506 OA
ATOM     23  H   UNL     1      -5.693 -20.685 -22.121  1.00  0.00     0.293 HD
ENDBRANCH  11  22
BRANCH   9  24
ATOM     24  O   UNL     1      -6.316 -22.983 -16.865  1.00  0.00    -0.507 OA
ATOM     25  H   UNL     1      -7.185 -23.030 -16.346  1.00  0.00     0.293 HD
ENDBRANCH   9  24
BRANCH  10  26
ATOM     26  C   UNL     1      -6.052 -23.629 -19.650  1.00  0.00     0.188 C 
ATOM     27  C   UNL     1      -7.510 -24.156 -19.499  1.00  0.00     0.179 C 
ATOM     28  O   UNL     1      -5.623 -23.706 -20.999  1.00  0.00    -0.362 OA
ATOM     29  C   UNL     1      -7.881 -25.085 -20.681  1.00  0.00     0.177 C 
ATOM     30  C   UNL     1      -5.415 -25.057 -21.389  1.00  0.00     0.176 C 
ATOM     31  C   UNL     1      -6.684 -25.942 -21.152  1.00  0.00     0.177 C 
BRANCH  27  32
ATOM     32  O   UNL     1      -8.434 -23.096 -19.441  1.00  0.00    -0.387 OA
ATOM     33  H   UNL     1      -8.592 -22.904 -18.480  1.00  0.00     0.211 HD
ENDBRANCH  27  32
BRANCH  29  34
ATOM     34  O   UNL     1      -8.999 -25.885 -20.381  1.00  0.00    -0.387 OA
ATOM     35  H   UNL     1      -9.777 -25.283 -20.247  1.00  0.00     0.211 HD
ENDBRANCH  29  34
BRANCH  30  36
ATOM     36  C   UNL     1      -5.005 -25.076 -22.868  1.00  0.00     0.191 C 
BRANCH  36  37
ATOM     37  O   UNL     1      -5.007 -23.777 -23.396  1.00  0.00    -0.394 OA
ATOM     38  H   UNL     1      -5.021 -23.869 -24.385  1.00  0.00     0.210 HD
ENDBRANCH  36  37
ENDBRANCH  30  36
BRANCH  31  39
ATOM     39  O   UNL     1      -6.406 -26.983 -20.244  1.00  0.00    -0.388 OA
ATOM     40  H   UNL     1      -7.250 -27.216 -19.777  1.00  0.00     0.211 HD
ENDBRANCH  31  39
ENDBRANCH  10  26
TORSDOF 11
ENDMDL
