MODEL 1
REMARK VINA RESULT:    -2.273      0.000      0.000
REMARK INTER + INTRA:          -4.708
REMARK INTER:                  -3.868
REMARK INTRA:                  -0.841
REMARK UNBOUND:                -0.841
REMARK SMILES CCCCCCCCCCCCCC(=O)[O-]
REMARK SMILES IDX 8 1 9 2 10 3 11 4 12 5 13 6 14 7 15 8 16 9 7 10 6 11 5 12
REMARK SMILES IDX 4 13 3 14 2 15 1 16
REMARK H PARENT
REMARK Flexibility Score: inf
ROOT
ATOM      1  C   UNL     1       4.023  43.788  12.066  1.00  0.00     0.000 C 
ENDROOT
BRANCH   1   2
ATOM      2  C   UNL     1       4.788  45.041  11.603  1.00  0.00     0.000 C 
BRANCH   2   3
ATOM      3  C   UNL     1       5.116  45.021  10.103  1.00  0.00     0.000 C 
BRANCH   3   4
ATOM      4  C   UNL     1       6.634  44.950   9.875  1.00  0.00     0.000 C 
BRANCH   4   5
ATOM      5  C   UNL     1       7.431  44.871  11.189  1.00  0.00     0.006 C 
BRANCH   5   6
ATOM      6  C   UNL     1       8.355  43.646  11.295  1.00  0.00     0.053 C 
BRANCH   6   7
ATOM      7  C   UNL     1       7.649  42.457  11.869  1.00  0.00     0.041 C 
ATOM      8  O   UNL     1       7.014  42.559  12.951  1.00  0.00    -0.550 OA
ATOM      9  O   UNL     1       7.664  41.245  11.190  1.00  0.00    -0.550 OA
ENDBRANCH   6   7
ENDBRANCH   5   6
ENDBRANCH   4   5
ENDBRANCH   3   4
ENDBRANCH   2   3
ENDBRANCH   1   2
BRANCH   1  10
ATOM     10  C   UNL     1       3.117  43.142  10.997  1.00  0.00     0.000 C 
BRANCH  10  11
ATOM     11  C   UNL     1       1.606  43.348  11.210  1.00  0.00    -0.000 C 
BRANCH  11  12
ATOM     12  C   UNL     1       1.232  44.138  12.478  1.00  0.00    -0.000 C 
BRANCH  12  13
ATOM     13  C   UNL     1      -0.123  43.724  13.091  1.00  0.00    -0.000 C 
BRANCH  13  14
ATOM     14  C   UNL     1      -0.550  44.639  14.248  1.00  0.00    -0.000 C 
BRANCH  14  15
ATOM     15  C   UNL     1      -2.050  44.496  14.535  1.00  0.00    -0.003 C 
ATOM     16  C   UNL     1      -2.442  43.031  14.706  1.00  0.00     0.004 C 
ENDBRANCH  14  15
ENDBRANCH  13  14
ENDBRANCH  12  13
ENDBRANCH  11  12
ENDBRANCH  10  11
ENDBRANCH   1  10
TORSDOF 12
ENDMDL
MODEL 2
REMARK VINA RESULT:    -2.130      3.287      6.804
REMARK INTER + INTRA:          -4.464
REMARK INTER:                  -3.848
REMARK INTRA:                  -0.616
REMARK UNBOUND:                -0.841
REMARK SMILES CCCCCCCCCCCCCC(=O)[O-]
REMARK SMILES IDX 8 1 9 2 10 3 11 4 12 5 13 6 14 7 15 8 16 9 7 10 6 11 5 12
REMARK SMILES IDX 4 13 3 14 2 15 1 16
REMARK H PARENT
REMARK Flexibility Score: inf
ROOT
ATOM      1  C   UNL     1       5.608  42.938  13.943  1.00  0.00     0.000 C 
ENDROOT
BRANCH   1   2
ATOM      2  C   UNL     1       5.799  44.254  13.168  1.00  0.00     0.000 C 
BRANCH   2   3
ATOM      3  C   UNL     1       4.627  44.568  12.226  1.00  0.00     0.000 C 
BRANCH   3   4
ATOM      4  C   UNL     1       3.965  43.276  11.725  1.00  0.00     0.000 C 
BRANCH   4   5
ATOM      5  C   UNL     1       3.609  43.328  10.229  1.00  0.00     0.006 C 
BRANCH   5   6
ATOM      6  C   UNL     1       2.177  43.802   9.935  1.00  0.00     0.053 C 
BRANCH   6   7
ATOM      7  C   UNL     1       1.185  43.222  10.896  1.00  0.00     0.041 C 
ATOM      8  O   UNL     1       0.420  42.291  10.532  1.00  0.00    -0.550 OA
ATOM      9  O   UNL     1       1.130  43.687  12.204  1.00  0.00    -0.550 OA
ENDBRANCH   6   7
ENDBRANCH   5   6
ENDBRANCH   4   5
ENDBRANCH   3   4
ENDBRANCH   2   3
ENDBRANCH   1   2
BRANCH   1  10
ATOM     10  C   UNL     1       6.882  42.081  14.102  1.00  0.00     0.000 C 
BRANCH  10  11
ATOM     11  C   UNL     1       7.969  42.323  13.039  1.00  0.00    -0.000 C 
BRANCH  11  12
ATOM     12  C   UNL     1       7.688  41.681  11.667  1.00  0.00    -0.000 C 
BRANCH  12  13
ATOM     13  C   UNL     1       7.540  42.705  10.521  1.00  0.00    -0.000 C 
BRANCH  13  14
ATOM     14  C   UNL     1       8.547  43.859  10.629  1.00  0.00    -0.000 C 
BRANCH  14  15
ATOM     15  C   UNL     1       8.015  45.118   9.935  1.00  0.00    -0.003 C 
ATOM     16  C   UNL     1       6.488  45.125   9.899  1.00  0.00     0.004 C 
ENDBRANCH  14  15
ENDBRANCH  13  14
ENDBRANCH  12  13
ENDBRANCH  11  12
ENDBRANCH  10  11
ENDBRANCH   1  10
TORSDOF 12
ENDMDL
MODEL 3
REMARK VINA RESULT:    -1.877      0.643      1.353
REMARK INTER + INTRA:          -4.034
REMARK INTER:                  -3.396
REMARK INTRA:                  -0.638
REMARK UNBOUND:                -0.841
REMARK SMILES CCCCCCCCCCCCCC(=O)[O-]
REMARK SMILES IDX 8 1 9 2 10 3 11 4 12 5 13 6 14 7 15 8 16 9 7 10 6 11 5 12
REMARK SMILES IDX 4 13 3 14 2 15 1 16
REMARK H PARENT
REMARK Flexibility Score: inf
ROOT
ATOM      1  C   UNL     1       3.159  42.900  10.402  1.00  0.00     0.000 C 
ENDROOT
BRANCH   1   2
ATOM      2  C   UNL     1       4.234  43.798  11.038  1.00  0.00     0.000 C 
BRANCH   2   3
ATOM      3  C   UNL     1       4.638  44.976  10.139  1.00  0.00     0.000 C 
BRANCH   3   4
ATOM      4  C   UNL     1       6.153  44.977   9.883  1.00  0.00     0.000 C 
BRANCH   4   5
ATOM      5  C   UNL     1       6.975  44.798  11.171  1.00  0.00     0.006 C 
BRANCH   5   6
ATOM      6  C   UNL     1       8.101  43.756  11.064  1.00  0.00     0.053 C 
BRANCH   6   7
ATOM      7  C   UNL     1       7.697  42.432  11.635  1.00  0.00     0.041 C 
ATOM      8  O   UNL     1       7.637  41.415  10.896  1.00  0.00    -0.550 OA
ATOM      9  O   UNL     1       7.418  42.316  12.991  1.00  0.00    -0.550 OA
ENDBRANCH   6   7
ENDBRANCH   5   6
ENDBRANCH   4   5
ENDBRANCH   3   4
ENDBRANCH   2   3
ENDBRANCH   1   2
BRANCH   1  10
ATOM     10  C   UNL     1       1.702  43.296  10.722  1.00  0.00     0.000 C 
BRANCH  10  11
ATOM     11  C   UNL     1       1.497  43.992  12.080  1.00  0.00    -0.000 C 
BRANCH  11  12
ATOM     12  C   UNL     1       0.237  43.554  12.850  1.00  0.00    -0.000 C 
BRANCH  12  13
ATOM     13  C   UNL     1      -0.233  44.578  13.905  1.00  0.00    -0.000 C 
BRANCH  13  14
ATOM     14  C   UNL     1      -1.657  44.297  14.405  1.00  0.00    -0.000 C 
BRANCH  14  15
ATOM     15  C   UNL     1      -1.761  42.891  15.006  1.00  0.00    -0.003 C 
ATOM     16  C   UNL     1      -2.945  42.126  14.419  1.00  0.00     0.004 C 
ENDBRANCH  14  15
ENDBRANCH  13  14
ENDBRANCH  12  13
ENDBRANCH  11  12
ENDBRANCH  10  11
ENDBRANCH   1  10
TORSDOF 12
ENDMDL
MODEL 4
REMARK VINA RESULT:    -1.787      2.430      3.319
REMARK INTER + INTRA:          -3.881
REMARK INTER:                  -3.577
REMARK INTRA:                  -0.304
REMARK UNBOUND:                -0.841
REMARK SMILES CCCCCCCCCCCCCC(=O)[O-]
REMARK SMILES IDX 8 1 9 2 10 3 11 4 12 5 13 6 14 7 15 8 16 9 7 10 6 11 5 12
REMARK SMILES IDX 4 13 3 14 2 15 1 16
REMARK H PARENT
REMARK Flexibility Score: inf
ROOT
ATOM      1  C   UNL     1       5.343  42.961   9.971  1.00  0.00     0.000 C 
ENDROOT
BRANCH   1   2
ATOM      2  C   UNL     1       6.842  42.626   9.875  1.00  0.00     0.000 C 
BRANCH   2   3
ATOM      3  C   UNL     1       7.742  43.764  10.379  1.00  0.00     0.000 C 
BRANCH   3   4
ATOM      4  C   UNL     1       8.293  43.447  11.778  1.00  0.00     0.000 C 
BRANCH   4   5
ATOM      5  C   UNL     1       7.867  42.059  12.287  1.00  0.00     0.006 C 
BRANCH   5   6
ATOM      6  C   UNL     1       7.250  42.064  13.696  1.00  0.00     0.053 C 
BRANCH   6   7
ATOM      7  C   UNL     1       6.050  42.956  13.781  1.00  0.00     0.041 C 
ATOM      8  O   UNL     1       5.051  42.611  14.463  1.00  0.00    -0.550 OA
ATOM      9  O   UNL     1       6.051  44.185  13.132  1.00  0.00    -0.550 OA
ENDBRANCH   6   7
ENDBRANCH   5   6
ENDBRANCH   4   5
ENDBRANCH   3   4
ENDBRANCH   2   3
ENDBRANCH   1   2
BRANCH   1  10
ATOM     10  C   UNL     1       5.001  44.464   9.891  1.00  0.00     0.000 C 
BRANCH  10  11
ATOM     11  C   UNL     1       3.520  44.811  10.135  1.00  0.00    -0.000 C 
BRANCH  11  12
ATOM     12  C   UNL     1       3.106  44.883  11.616  1.00  0.00    -0.000 C 
BRANCH  12  13
ATOM     13  C   UNL     1       1.774  44.167  11.924  1.00  0.00    -0.000 C 
BRANCH  13  14
ATOM     14  C   UNL     1       1.711  42.755  11.325  1.00  0.00    -0.000 C 
BRANCH  14  15
ATOM     15  C   UNL     1       0.572  42.641  10.305  1.00  0.00    -0.003 C 
ATOM     16  C   UNL     1      -0.313  41.433  10.600  1.00  0.00     0.004 C 
ENDBRANCH  14  15
ENDBRANCH  13  14
ENDBRANCH  12  13
ENDBRANCH  11  12
ENDBRANCH  10  11
ENDBRANCH   1  10
TORSDOF 12
ENDMDL
MODEL 5
REMARK VINA RESULT:    -1.683      3.368      6.532
REMARK INTER + INTRA:          -3.704
REMARK INTER:                  -2.926
REMARK INTRA:                  -0.778
REMARK UNBOUND:                -0.841
REMARK SMILES CCCCCCCCCCCCCC(=O)[O-]
REMARK SMILES IDX 8 1 9 2 10 3 11 4 12 5 13 6 14 7 15 8 16 9 7 10 6 11 5 12
REMARK SMILES IDX 4 13 3 14 2 15 1 16
REMARK H PARENT
REMARK Flexibility Score: inf
ROOT
ATOM      1  C   UNL     1       4.966  43.391  13.132  1.00  0.00     0.000 C 
ENDROOT
BRANCH   1   2
ATOM      2  C   UNL     1       4.654  44.743  12.467  1.00  0.00     0.000 C 
BRANCH   2   3
ATOM      3  C   UNL     1       5.569  45.046  11.271  1.00  0.00     0.000 C 
BRANCH   3   4
ATOM      4  C   UNL     1       4.775  45.036   9.956  1.00  0.00     0.000 C 
BRANCH   4   5
ATOM      5  C   UNL     1       3.259  44.886  10.176  1.00  0.00     0.006 C 
BRANCH   5   6
ATOM      6  C   UNL     1       2.715  43.477   9.892  1.00  0.00     0.053 C 
BRANCH   6   7
ATOM      7  C   UNL     1       1.604  43.105  10.824  1.00  0.00     0.041 C 
ATOM      8  O   UNL     1       0.771  42.219  10.497  1.00  0.00    -0.550 OA
ATOM      9  O   UNL     1       1.508  43.714  12.069  1.00  0.00    -0.550 OA
ENDBRANCH   6   7
ENDBRANCH   5   6
ENDBRANCH   4   5
ENDBRANCH   3   4
ENDBRANCH   2   3
ENDBRANCH   1   2
BRANCH   1  10
ATOM     10  C   UNL     1       6.388  43.262  13.719  1.00  0.00     0.000 C 
BRANCH  10  11
ATOM     11  C   UNL     1       7.294  42.237  13.014  1.00  0.00    -0.000 C 
BRANCH  11  12
ATOM     12  C   UNL     1       8.368  42.845  12.093  1.00  0.00    -0.000 C 
BRANCH  12  13
ATOM     13  C   UNL     1       8.156  42.529  10.597  1.00  0.00    -0.000 C 
BRANCH  13  14
ATOM     14  C   UNL     1       6.672  42.372  10.233  1.00  0.00    -0.000 C 
BRANCH  14  15
ATOM     15  C   UNL     1       6.346  40.917   9.875  1.00  0.00    -0.003 C 
ATOM     16  C   UNL     1       7.590  40.036   9.962  1.00  0.00     0.004 C 
ENDBRANCH  14  15
ENDBRANCH  13  14
ENDBRANCH  12  13
ENDBRANCH  11  12
ENDBRANCH  10  11
ENDBRANCH   1  10
TORSDOF 12
ENDMDL
MODEL 6
REMARK VINA RESULT:    -1.557      3.407      6.568
REMARK INTER + INTRA:          -3.489
REMARK INTER:                  -3.288
REMARK INTRA:                  -0.201
REMARK UNBOUND:                -0.841
REMARK SMILES CCCCCCCCCCCCCC(=O)[O-]
REMARK SMILES IDX 8 1 9 2 10 3 11 4 12 5 13 6 14 7 15 8 16 9 7 10 6 11 5 12
REMARK SMILES IDX 4 13 3 14 2 15 1 16
REMARK H PARENT
REMARK Flexibility Score: inf
ROOT
ATOM      1  C   UNL     1       5.576  44.578  12.129  1.00  0.00     0.000 C 
ENDROOT
BRANCH   1   2
ATOM      2  C   UNL     1       4.350  45.121  11.374  1.00  0.00     0.000 C 
BRANCH   2   3
ATOM      3  C   UNL     1       4.267  44.616   9.926  1.00  0.00     0.000 C 
BRANCH   3   4
ATOM      4  C   UNL     1       3.785  43.158   9.881  1.00  0.00     0.000 C 
BRANCH   4   5
ATOM      5  C   UNL     1       2.659  42.870  10.889  1.00  0.00     0.006 C 
BRANCH   5   6
ATOM      6  C   UNL     1       1.251  42.840  10.272  1.00  0.00     0.053 C 
BRANCH   6   7
ATOM      7  C   UNL     1       0.204  42.479  11.281  1.00  0.00     0.041 C 
ATOM      8  O   UNL     1       0.027  43.202  12.296  1.00  0.00    -0.550 OA
ATOM      9  O   UNL     1      -0.599  41.363  11.081  1.00  0.00    -0.550 OA
ENDBRANCH   6   7
ENDBRANCH   5   6
ENDBRANCH   4   5
ENDBRANCH   3   4
ENDBRANCH   2   3
ENDBRANCH   1   2
BRANCH   1  10
ATOM     10  C   UNL     1       6.942  45.013  11.559  1.00  0.00     0.000 C 
BRANCH  10  11
ATOM     11  C   UNL     1       7.533  44.074  10.491  1.00  0.00    -0.000 C 
BRANCH  11  12
ATOM     12  C   UNL     1       7.086  42.604  10.600  1.00  0.00    -0.000 C 
BRANCH  12  13
ATOM     13  C   UNL     1       8.007  41.739  11.486  1.00  0.00    -0.000 C 
BRANCH  13  14
ATOM     14  C   UNL     1       8.243  42.358  12.872  1.00  0.00    -0.000 C 
BRANCH  14  15
ATOM     15  C   UNL     1       7.350  41.696  13.928  1.00  0.00    -0.003 C 
ATOM     16  C   UNL     1       6.110  42.541  14.209  1.00  0.00     0.004 C 
ENDBRANCH  14  15
ENDBRANCH  13  14
ENDBRANCH  12  13
ENDBRANCH  11  12
ENDBRANCH  10  11
ENDBRANCH   1  10
TORSDOF 12
ENDMDL
MODEL 7
REMARK VINA RESULT:    -0.720      2.817      7.119
REMARK INTER + INTRA:          -2.066
REMARK INTER:                  -1.402
REMARK INTRA:                  -0.664
REMARK UNBOUND:                -0.841
REMARK SMILES CCCCCCCCCCCCCC(=O)[O-]
REMARK SMILES IDX 8 1 9 2 10 3 11 4 12 5 13 6 14 7 15 8 16 9 7 10 6 11 5 12
REMARK SMILES IDX 4 13 3 14 2 15 1 16
REMARK H PARENT
REMARK Flexibility Score: inf
ROOT
ATOM      1  C   UNL     1       5.094  44.047  12.367  1.00  0.00     0.000 C 
ENDROOT
BRANCH   1   2
ATOM      2  C   UNL     1       3.836  44.188  11.492  1.00  0.00     0.000 C 
BRANCH   2   3
ATOM      3  C   UNL     1       3.828  43.224  10.296  1.00  0.00     0.000 C 
BRANCH   3   4
ATOM      4  C   UNL     1       2.574  42.336  10.318  1.00  0.00     0.000 C 
BRANCH   4   5
ATOM      5  C   UNL     1       1.268  43.149  10.349  1.00  0.00     0.006 C 
BRANCH   5   6
ATOM      6  C   UNL     1       0.255  42.678  11.405  1.00  0.00     0.053 C 
BRANCH   6   7
ATOM      7  C   UNL     1       0.296  43.524  12.640  1.00  0.00     0.041 C 
ATOM      8  O   UNL     1       1.302  44.242  12.883  1.00  0.00    -0.550 OA
ATOM      9  O   UNL     1      -0.790  43.546  13.505  1.00  0.00    -0.550 OA
ENDBRANCH   6   7
ENDBRANCH   5   6
ENDBRANCH   4   5
ENDBRANCH   3   4
ENDBRANCH   2   3
ENDBRANCH   1   2
BRANCH   1  10
ATOM     10  C   UNL     1       6.225  45.050  12.056  1.00  0.00     0.000 C 
BRANCH  10  11
ATOM     11  C   UNL     1       6.643  45.124  10.577  1.00  0.00    -0.000 C 
BRANCH  11  12
ATOM     12  C   UNL     1       7.347  43.866  10.037  1.00  0.00    -0.000 C 
BRANCH  12  13
ATOM     13  C   UNL     1       8.281  43.188  11.062  1.00  0.00    -0.000 C 
BRANCH  13  14
ATOM     14  C   UNL     1       7.834  41.762  11.414  1.00  0.00    -0.000 C 
BRANCH  14  15
ATOM     15  C   UNL     1       7.086  41.117  10.242  1.00  0.00    -0.003 C 
ATOM     16  C   UNL     1       7.674  39.751   9.897  1.00  0.00     0.004 C 
ENDBRANCH  14  15
ENDBRANCH  13  14
ENDBRANCH  12  13
ENDBRANCH  11  12
ENDBRANCH  10  11
ENDBRANCH   1  10
TORSDOF 12
ENDMDL
MODEL 8
REMARK VINA RESULT:    -0.658      3.106      6.211
REMARK INTER + INTRA:          -1.960
REMARK INTER:                  -3.049
REMARK INTRA:                   1.089
REMARK UNBOUND:                -0.841
REMARK SMILES CCCCCCCCCCCCCC(=O)[O-]
REMARK SMILES IDX 8 1 9 2 10 3 11 4 12 5 13 6 14 7 15 8 16 9 7 10 6 11 5 12
REMARK SMILES IDX 4 13 3 14 2 15 1 16
REMARK H PARENT
REMARK Flexibility Score: inf
ROOT
ATOM      1  C   UNL     1       6.629  44.660  11.142  1.00  0.00     0.000 C 
ENDROOT
BRANCH   1   2
ATOM      2  C   UNL     1       5.520  45.116  10.177  1.00  0.00     0.000 C 
BRANCH   2   3
ATOM      3  C   UNL     1       4.125  45.105  10.822  1.00  0.00     0.000 C 
BRANCH   3   4
ATOM      4  C   UNL     1       3.090  44.477   9.875  1.00  0.00     0.000 C 
BRANCH   4   5
ATOM      5  C   UNL     1       3.076  42.940   9.941  1.00  0.00     0.006 C 
BRANCH   5   6
ATOM      6  C   UNL     1       1.673  42.326  10.075  1.00  0.00     0.053 C 
BRANCH   6   7
ATOM      7  C   UNL     1       0.953  42.829  11.288  1.00  0.00     0.041 C 
ATOM      8  O   UNL     1      -0.196  42.397  11.567  1.00  0.00    -0.550 OA
ATOM      9  O   UNL     1       1.565  43.751  12.127  1.00  0.00    -0.550 OA
ENDBRANCH   6   7
ENDBRANCH   5   6
ENDBRANCH   4   5
ENDBRANCH   3   4
ENDBRANCH   2   3
ENDBRANCH   1   2
BRANCH   1  10
ATOM     10  C   UNL     1       7.937  44.200  10.464  1.00  0.00     0.000 C 
BRANCH  10  11
ATOM     11  C   UNL     1       8.229  42.692  10.564  1.00  0.00    -0.000 C 
BRANCH  11  12
ATOM     12  C   UNL     1       7.470  41.957  11.684  1.00  0.00    -0.000 C 
BRANCH  12  13
ATOM     13  C   UNL     1       7.861  42.417  13.105  1.00  0.00    -0.000 C 
BRANCH  13  14
ATOM     14  C   UNL     1       7.044  41.712  14.198  1.00  0.00    -0.000 C 
BRANCH  14  15
ATOM     15  C   UNL     1       5.737  42.463  14.476  1.00  0.00    -0.003 C 
ATOM     16  C   UNL     1       5.575  43.656  13.537  1.00  0.00     0.004 C 
ENDBRANCH  14  15
ENDBRANCH  13  14
ENDBRANCH  12  13
ENDBRANCH  11  12
ENDBRANCH  10  11
ENDBRANCH   1  10
TORSDOF 12
ENDMDL
