MODEL 1
REMARK VINA RESULT:    -1.959      0.000      0.000
REMARK INTER + INTRA:          -2.064
REMARK INTER:                  -2.131
REMARK INTRA:                   0.066
REMARK UNBOUND:                 0.066
REMARK SMILES C[C@@H]1[C@H](C)CC[C@]2(C(=O)[O-])CC[C@]3(C)C(=CC[C@@H]4[C@@]5(C)CC[C@H](O)C(C)(C)[C@H]5CC[C@@]43C)[C@@H]12
REMARK SMILES IDX 7 1 6 2 11 3 33 4 5 5 12 6 15 7 2 8 3 9 13 10 16 11 1 12
REMARK SMILES IDX 4 13 14 14 31 15 17 16 18 17 30 18 32 19 19 20 29 21 28 22
REMARK SMILES IDX 21 23 20 24 25 25 22 26 23 27 26 28 27 29 8 30 9 31 10 32
REMARK SMILES IDX 24 33
REMARK H PARENT 24 34
REMARK Flexibility Score: inf
ROOT
ATOM      1  C   UNL     1      -1.121   3.646  -1.553  1.00  0.00     0.017 C 
ATOM      2  C   UNL     1      -0.011   3.817  -0.459  1.00  0.00     0.014 C 
ATOM      3  C   UNL     1      -0.628   2.589  -2.571  1.00  0.00     0.014 C 
ATOM      4  C   UNL     1      -1.375   4.941  -2.385  1.00  0.00     0.030 C 
ATOM      5  C   UNL     1       0.647   5.198  -0.467  1.00  0.00     0.004 C 
ATOM      6  C   UNL     1      -1.640   2.276  -3.682  1.00  0.00     0.013 C 
ATOM      7  C   UNL     1      -2.515   4.676  -3.389  1.00  0.00    -0.063 C 
ATOM      8  C   UNL     1      -1.416   6.283  -1.545  1.00  0.00    -0.003 C 
ATOM      9  C   UNL     1      -0.452   6.253  -0.306  1.00  0.00    -0.011 C 
ATOM     10  C   UNL     1      -2.384   3.495  -4.360  1.00  0.00    -0.006 C 
ATOM     11  C   UNL     1      -3.534   5.539  -3.529  1.00  0.00    -0.027 C 
ATOM     12  C   UNL     1      -1.113   7.478  -2.490  1.00  0.00     0.008 C 
ATOM     13  C   UNL     1       0.162   7.608   0.092  1.00  0.00     0.008 C 
ATOM     14  C   UNL     1      -1.464   4.006  -5.510  1.00  0.00     0.017 C 
ATOM     15  C   UNL     1      -3.835   3.036  -4.929  1.00  0.00    -0.020 C 
ATOM     16  C   UNL     1      -4.493   5.539  -4.676  1.00  0.00     0.032 C 
ATOM     17  C   UNL     1      -4.582   4.267  -5.596  1.00  0.00     0.006 C 
ATOM     18  C   UNL     1      -4.777   2.534  -3.787  1.00  0.00     0.008 C 
ATOM     19  C   UNL     1      -3.603   1.875  -5.960  1.00  0.00     0.012 C 
ATOM     20  C   UNL     1      -6.102   4.050  -6.085  1.00  0.00    -0.025 C 
ATOM     21  C   UNL     1      -6.224   2.256  -4.225  1.00  0.00     0.005 C 
ATOM     22  C   UNL     1      -6.969   3.447  -4.905  1.00  0.00     0.003 C 
ATOM     23  C   UNL     1      -6.206   3.124  -7.342  1.00  0.00     0.010 C 
ATOM     24  C   UNL     1      -6.635   5.459  -6.549  1.00  0.00     0.012 C 
ATOM     25  C   UNL     1      -8.457   3.039  -5.319  1.00  0.00    -0.006 C 
ATOM     26  C   UNL     1      -7.644   2.780  -7.758  1.00  0.00     0.033 C 
ATOM     27  C   UNL     1      -8.451   2.157  -6.608  1.00  0.00     0.120 C 
ATOM     28  C   UNL     1      -9.142   2.219  -4.187  1.00  0.00     0.014 C 
ATOM     29  C   UNL     1      -9.352   4.296  -5.508  1.00  0.00     0.014 C 
ENDROOT
BRANCH   1  30
ATOM     30  C   UNL     1      -2.392   3.151  -0.871  1.00  0.00     0.048 C 
ATOM     31  O   UNL     1      -2.602   1.919  -0.741  1.00  0.00    -0.550 OA
ATOM     32  O   UNL     1      -3.291   4.042  -0.289  1.00  0.00    -0.550 OA
ENDBRANCH   1  30
BRANCH  27  33
ATOM     33  O   UNL     1      -9.771   1.914  -7.038  1.00  0.00    -0.393 OA
ATOM     34  H   UNL     1      -9.870   2.344  -7.927  1.00  0.00     0.210 HD
ENDBRANCH  27  33
TORSDOF 2
ENDMDL
