MODEL 1
REMARK VINA RESULT:    -3.834      0.000      0.000
REMARK INTER + INTRA:          -6.537
REMARK INTER:                  -6.075
REMARK INTRA:                  -0.462
REMARK UNBOUND:                -0.462
REMARK SMILES CCCCCCCCCCCC(=O)[O-]
REMARK SMILES IDX 7 1 8 2 9 3 10 4 11 5 12 6 13 7 14 8 6 9 5 10 4 11 3 12 2 13
REMARK SMILES IDX 1 14
REMARK H PARENT
REMARK Flexibility Score: inf
ROOT
ATOM      1  C   UNL     1      23.150  10.631   5.827  1.00  0.00     0.000 C 
ENDROOT
BRANCH   1   2
ATOM      2  C   UNL     1      24.666  10.853   5.735  1.00  0.00     0.000 C 
BRANCH   2   3
ATOM      3  C   UNL     1      25.432   9.637   6.280  1.00  0.00     0.000 C 
BRANCH   3   4
ATOM      4  C   UNL     1      26.916   9.942   6.543  1.00  0.00     0.006 C 
BRANCH   4   5
ATOM      5  C   UNL     1      27.595  10.636   5.356  1.00  0.00     0.053 C 
BRANCH   5   6
ATOM      6  C   UNL     1      28.200  11.935   5.788  1.00  0.00     0.041 C 
ATOM      7  O   UNL     1      27.612  12.656   6.637  1.00  0.00    -0.550 OA
ATOM      8  O   UNL     1      29.388  12.373   5.217  1.00  0.00    -0.550 OA
ENDBRANCH   5   6
ENDBRANCH   4   5
ENDBRANCH   3   4
ENDBRANCH   2   3
ENDBRANCH   1   2
BRANCH   1   9
ATOM      9  C   UNL     1      22.640  10.560   7.279  1.00  0.00     0.000 C 
BRANCH   9  10
ATOM     10  C   UNL     1      21.776  11.755   7.725  1.00  0.00    -0.000 C 
BRANCH  10  11
ATOM     11  C   UNL     1      20.325  11.405   8.107  1.00  0.00    -0.000 C 
BRANCH  11  12
ATOM     12  C   UNL     1      20.197  10.114   8.943  1.00  0.00    -0.000 C 
BRANCH  12  13
ATOM     13  C   UNL     1      18.935   9.312   8.594  1.00  0.00    -0.003 C 
ATOM     14  C   UNL     1      18.807   8.076   9.479  1.00  0.00     0.004 C 
ENDBRANCH  12  13
ENDBRANCH  11  12
ENDBRANCH  10  11
ENDBRANCH   9  10
ENDBRANCH   1   9
TORSDOF 10
ENDMDL
MODEL 2
REMARK VINA RESULT:    -3.604     15.814     18.265
REMARK INTER + INTRA:          -6.173
REMARK INTER:                  -5.725
REMARK INTRA:                  -0.448
REMARK UNBOUND:                -0.462
REMARK SMILES CCCCCCCCCCCC(=O)[O-]
REMARK SMILES IDX 7 1 8 2 9 3 10 4 11 5 12 6 13 7 14 8 6 9 5 10 4 11 3 12 2 13
REMARK SMILES IDX 1 14
REMARK H PARENT
REMARK Flexibility Score: inf
ROOT
ATOM      1  C   UNL     1      15.973  -4.403  13.463  1.00  0.00     0.000 C 
ENDROOT
BRANCH   1   2
ATOM      2  C   UNL     1      15.880  -4.339  14.994  1.00  0.00     0.000 C 
BRANCH   2   3
ATOM      3  C   UNL     1      16.284  -2.949  15.510  1.00  0.00     0.000 C 
BRANCH   3   4
ATOM      4  C   UNL     1      15.548  -1.811  14.785  1.00  0.00     0.006 C 
BRANCH   4   5
ATOM      5  C   UNL     1      16.467  -0.628  14.456  1.00  0.00     0.053 C 
BRANCH   5   6
ATOM      6  C   UNL     1      16.351   0.431  15.506  1.00  0.00     0.041 C 
ATOM      7  O   UNL     1      16.837   0.241  16.652  1.00  0.00    -0.550 OA
ATOM      8  O   UNL     1      15.663   1.607  15.236  1.00  0.00    -0.550 OA
ENDBRANCH   5   6
ENDBRANCH   4   5
ENDBRANCH   3   4
ENDBRANCH   2   3
ENDBRANCH   1   2
BRANCH   1   9
ATOM      9  C   UNL     1      16.567  -5.730  12.953  1.00  0.00     0.000 C 
BRANCH   9  10
ATOM     10  C   UNL     1      15.656  -6.528  12.001  1.00  0.00    -0.000 C 
BRANCH  10  11
ATOM     11  C   UNL     1      15.295  -5.809  10.688  1.00  0.00    -0.000 C 
BRANCH  11  12
ATOM     12  C   UNL     1      15.309  -6.731   9.450  1.00  0.00    -0.000 C 
BRANCH  12  13
ATOM     13  C   UNL     1      16.638  -6.667   8.684  1.00  0.00    -0.003 C 
ATOM     14  C   UNL     1      17.061  -5.222   8.437  1.00  0.00     0.004 C 
ENDBRANCH  12  13
ENDBRANCH  11  12
ENDBRANCH  10  11
ENDBRANCH   9  10
ENDBRANCH   1   9
TORSDOF 10
ENDMDL
MODEL 3
REMARK VINA RESULT:    -3.572      4.804      8.153
REMARK INTER + INTRA:          -6.122
REMARK INTER:                  -5.642
REMARK INTRA:                  -0.480
REMARK UNBOUND:                -0.462
REMARK SMILES CCCCCCCCCCCC(=O)[O-]
REMARK SMILES IDX 7 1 8 2 9 3 10 4 11 5 12 6 13 7 14 8 6 9 5 10 4 11 3 12 2 13
REMARK SMILES IDX 1 14
REMARK H PARENT
REMARK Flexibility Score: inf
ROOT
ATOM      1  C   UNL     1      21.515  11.935   7.848  1.00  0.00     0.000 C 
ENDROOT
BRANCH   1   2
ATOM      2  C   UNL     1      20.422  11.508   8.838  1.00  0.00     0.000 C 
BRANCH   2   3
ATOM      3  C   UNL     1      20.403   9.981   9.009  1.00  0.00     0.000 C 
BRANCH   3   4
ATOM      4  C   UNL     1      19.066   9.354   8.582  1.00  0.00     0.006 C 
BRANCH   4   5
ATOM      5  C   UNL     1      18.640   8.194   9.490  1.00  0.00     0.053 C 
BRANCH   5   6
ATOM      6  C   UNL     1      17.703   8.678  10.551  1.00  0.00     0.041 C 
ATOM      7  O   UNL     1      17.368   7.916  11.496  1.00  0.00    -0.550 OA
ATOM      8  O   UNL     1      17.162   9.955  10.472  1.00  0.00    -0.550 OA
ENDBRANCH   5   6
ENDBRANCH   4   5
ENDBRANCH   3   4
ENDBRANCH   2   3
ENDBRANCH   1   2
BRANCH   1   9
ATOM      9  C   UNL     1      22.353  10.750   7.332  1.00  0.00     0.000 C 
BRANCH   9  10
ATOM     10  C   UNL     1      23.068  10.994   5.989  1.00  0.00    -0.000 C 
BRANCH  10  11
ATOM     11  C   UNL     1      24.343  10.158   5.767  1.00  0.00    -0.000 C 
BRANCH  11  12
ATOM     12  C   UNL     1      25.573  10.996   5.360  1.00  0.00    -0.000 C 
BRANCH  12  13
ATOM     13  C   UNL     1      26.826  10.631   6.168  1.00  0.00    -0.003 C 
ATOM     14  C   UNL     1      26.801   9.165   6.589  1.00  0.00     0.004 C 
ENDBRANCH  12  13
ENDBRANCH  11  12
ENDBRANCH  10  11
ENDBRANCH   9  10
ENDBRANCH   1   9
TORSDOF 10
ENDMDL
MODEL 4
REMARK VINA RESULT:    -3.557     16.248     18.614
REMARK INTER + INTRA:          -6.097
REMARK INTER:                  -5.542
REMARK INTRA:                  -0.555
REMARK UNBOUND:                -0.462
REMARK SMILES CCCCCCCCCCCC(=O)[O-]
REMARK SMILES IDX 7 1 8 2 9 3 10 4 11 5 12 6 13 7 14 8 6 9 5 10 4 11 3 12 2 13
REMARK SMILES IDX 1 14
REMARK H PARENT
REMARK Flexibility Score: inf
ROOT
ATOM      1  C   UNL     1      16.155  -5.434  12.824  1.00  0.00     0.000 C 
ENDROOT
BRANCH   1   2
ATOM      2  C   UNL     1      15.685  -5.598  14.276  1.00  0.00     0.000 C 
BRANCH   2   3
ATOM      3  C   UNL     1      16.033  -4.354  15.109  1.00  0.00     0.000 C 
BRANCH   3   4
ATOM      4  C   UNL     1      15.960  -3.054  14.291  1.00  0.00     0.006 C 
BRANCH   4   5
ATOM      5  C   UNL     1      15.570  -1.840  15.144  1.00  0.00     0.053 C 
BRANCH   5   6
ATOM      6  C   UNL     1      16.671  -0.828  15.145  1.00  0.00     0.041 C 
ATOM      7  O   UNL     1      17.825  -1.148  15.534  1.00  0.00    -0.550 OA
ATOM      8  O   UNL     1      16.413   0.482  14.762  1.00  0.00    -0.550 OA
ENDBRANCH   5   6
ENDBRANCH   4   5
ENDBRANCH   3   4
ENDBRANCH   2   3
ENDBRANCH   1   2
BRANCH   1   9
ATOM      9  C   UNL     1      15.662  -6.565  11.902  1.00  0.00     0.000 C 
BRANCH   9  10
ATOM     10  C   UNL     1      15.145  -6.105  10.526  1.00  0.00    -0.000 C 
BRANCH  10  11
ATOM     11  C   UNL     1      15.339  -7.118   9.383  1.00  0.00    -0.000 C 
BRANCH  11  12
ATOM     12  C   UNL     1      16.133  -6.559   8.183  1.00  0.00    -0.000 C 
BRANCH  12  13
ATOM     13  C   UNL     1      17.043  -5.387   8.576  1.00  0.00    -0.003 C 
ATOM     14  C   UNL     1      18.380  -5.885   9.115  1.00  0.00     0.004 C 
ENDBRANCH  12  13
ENDBRANCH  11  12
ENDBRANCH  10  11
ENDBRANCH   9  10
ENDBRANCH   1   9
TORSDOF 10
ENDMDL
MODEL 5
REMARK VINA RESULT:    -3.545     16.722     18.721
REMARK INTER + INTRA:          -6.079
REMARK INTER:                  -5.477
REMARK INTRA:                  -0.602
REMARK UNBOUND:                -0.462
REMARK SMILES CCCCCCCCCCCC(=O)[O-]
REMARK SMILES IDX 7 1 8 2 9 3 10 4 11 5 12 6 13 7 14 8 6 9 5 10 4 11 3 12 2 13
REMARK SMILES IDX 1 14
REMARK H PARENT
REMARK Flexibility Score: inf
ROOT
ATOM      1  C   UNL     1      16.061  -4.131  15.195  1.00  0.00     0.000 C 
ENDROOT
BRANCH   1   2
ATOM      2  C   UNL     1      16.062  -4.562  13.722  1.00  0.00     0.000 C 
BRANCH   2   3
ATOM      3  C   UNL     1      16.500  -6.029  13.580  1.00  0.00     0.000 C 
BRANCH   3   4
ATOM      4  C   UNL     1      15.934  -6.695  12.316  1.00  0.00     0.006 C 
BRANCH   4   5
ATOM      5  C   UNL     1      15.586  -5.682  11.218  1.00  0.00     0.053 C 
BRANCH   5   6
ATOM      6  C   UNL     1      14.944  -6.371  10.056  1.00  0.00     0.041 C 
ATOM      7  O   UNL     1      13.710  -6.622  10.071  1.00  0.00    -0.550 OA
ATOM      8  O   UNL     1      15.717  -6.782   8.977  1.00  0.00    -0.550 OA
ENDBRANCH   5   6
ENDBRANCH   4   5
ENDBRANCH   3   4
ENDBRANCH   2   3
ENDBRANCH   1   2
BRANCH   1   9
ATOM      9  C   UNL     1      15.342  -2.789  15.427  1.00  0.00     0.000 C 
BRANCH   9  10
ATOM     10  C   UNL     1      15.478  -1.770  14.279  1.00  0.00    -0.000 C 
BRANCH  10  11
ATOM     11  C   UNL     1      16.445  -0.603  14.552  1.00  0.00    -0.000 C 
BRANCH  11  12
ATOM     12  C   UNL     1      16.222   0.083  15.917  1.00  0.00    -0.000 C 
BRANCH  12  13
ATOM     13  C   UNL     1      17.389  -0.148  16.888  1.00  0.00    -0.003 C 
ATOM     14  C   UNL     1      16.903  -0.770  18.193  1.00  0.00     0.004 C 
ENDBRANCH  12  13
ENDBRANCH  11  12
ENDBRANCH  10  11
ENDBRANCH   9  10
ENDBRANCH   1   9
TORSDOF 10
ENDMDL
MODEL 6
REMARK VINA RESULT:    -3.538     16.084     18.257
REMARK INTER + INTRA:          -6.068
REMARK INTER:                  -5.429
REMARK INTRA:                  -0.638
REMARK UNBOUND:                -0.462
REMARK SMILES CCCCCCCCCCCC(=O)[O-]
REMARK SMILES IDX 7 1 8 2 9 3 10 4 11 5 12 6 13 7 14 8 6 9 5 10 4 11 3 12 2 13
REMARK SMILES IDX 1 14
REMARK H PARENT
REMARK Flexibility Score: inf
ROOT
ATOM      1  C   UNL     1      16.711  -6.227  12.309  1.00  0.00     0.000 C 
ENDROOT
BRANCH   1   2
ATOM      2  C   UNL     1      15.724  -5.455  11.422  1.00  0.00     0.000 C 
BRANCH   2   3
ATOM      3  C   UNL     1      15.157  -6.359  10.316  1.00  0.00     0.000 C 
BRANCH   3   4
ATOM      4  C   UNL     1      16.184  -6.660   9.213  1.00  0.00     0.006 C 
BRANCH   4   5
ATOM      5  C   UNL     1      16.866  -5.394   8.678  1.00  0.00     0.053 C 
BRANCH   5   6
ATOM      6  C   UNL     1      18.346  -5.595   8.593  1.00  0.00     0.041 C 
ATOM      7  O   UNL     1      18.952  -5.390   7.509  1.00  0.00    -0.550 OA
ATOM      8  O   UNL     1      19.050  -6.054   9.699  1.00  0.00    -0.550 OA
ENDBRANCH   5   6
ENDBRANCH   4   5
ENDBRANCH   3   4
ENDBRANCH   2   3
ENDBRANCH   1   2
BRANCH   1   9
ATOM      9  C   UNL     1      16.822  -5.644  13.731  1.00  0.00     0.000 C 
BRANCH   9  10
ATOM     10  C   UNL     1      16.011  -4.356  13.972  1.00  0.00    -0.000 C 
BRANCH  10  11
ATOM     11  C   UNL     1      15.740  -4.022  15.451  1.00  0.00    -0.000 C 
BRANCH  11  12
ATOM     12  C   UNL     1      15.514  -2.519  15.717  1.00  0.00    -0.000 C 
BRANCH  12  13
ATOM     13  C   UNL     1      15.495  -1.689  14.426  1.00  0.00    -0.003 C 
ATOM     14  C   UNL     1      16.417  -0.479  14.536  1.00  0.00     0.004 C 
ENDBRANCH  12  13
ENDBRANCH  11  12
ENDBRANCH  10  11
ENDBRANCH   9  10
ENDBRANCH   1   9
TORSDOF 10
ENDMDL
MODEL 7
REMARK VINA RESULT:    -3.533      8.065      9.396
REMARK INTER + INTRA:          -6.060
REMARK INTER:                  -4.470
REMARK INTRA:                  -1.590
REMARK UNBOUND:                -0.462
REMARK SMILES CCCCCCCCCCCC(=O)[O-]
REMARK SMILES IDX 7 1 8 2 9 3 10 4 11 5 12 6 13 7 14 8 6 9 5 10 4 11 3 12 2 13
REMARK SMILES IDX 1 14
REMARK H PARENT
REMARK Flexibility Score: inf
ROOT
ATOM      1  C   UNL     1      19.035   2.926   2.065  1.00  0.00     0.000 C 
ENDROOT
BRANCH   1   2
ATOM      2  C   UNL     1      20.392   2.934   2.783  1.00  0.00     0.000 C 
BRANCH   2   3
ATOM      3  C   UNL     1      20.495   1.763   3.774  1.00  0.00     0.000 C 
BRANCH   3   4
ATOM      4  C   UNL     1      20.864   2.221   5.194  1.00  0.00     0.006 C 
BRANCH   4   5
ATOM      5  C   UNL     1      21.945   3.309   5.203  1.00  0.00     0.053 C 
BRANCH   5   6
ATOM      6  C   UNL     1      23.202   2.790   5.827  1.00  0.00     0.041 C 
ATOM      7  O   UNL     1      24.205   3.540   5.948  1.00  0.00    -0.550 OA
ATOM      8  O   UNL     1      23.282   1.463   6.231  1.00  0.00    -0.550 OA
ENDBRANCH   5   6
ENDBRANCH   4   5
ENDBRANCH   3   4
ENDBRANCH   2   3
ENDBRANCH   1   2
BRANCH   1   9
ATOM      9  C   UNL     1      17.932   2.217   2.873  1.00  0.00     0.000 C 
BRANCH   9  10
ATOM     10  C   UNL     1      16.733   3.105   3.257  1.00  0.00    -0.000 C 
BRANCH  10  11
ATOM     11  C   UNL     1      17.100   4.484   3.835  1.00  0.00    -0.000 C 
BRANCH  11  12
ATOM     12  C   UNL     1      17.781   4.417   5.219  1.00  0.00    -0.000 C 
BRANCH  12  13
ATOM     13  C   UNL     1      18.913   5.444   5.367  1.00  0.00    -0.003 C 
ATOM     14  C   UNL     1      19.136   6.209   4.066  1.00  0.00     0.004 C 
ENDBRANCH  12  13
ENDBRANCH  11  12
ENDBRANCH  10  11
ENDBRANCH   9  10
ENDBRANCH   1   9
TORSDOF 10
ENDMDL
MODEL 8
REMARK VINA RESULT:    -3.524     15.445     18.164
REMARK INTER + INTRA:          -6.045
REMARK INTER:                  -5.503
REMARK INTRA:                  -0.542
REMARK UNBOUND:                -0.462
REMARK SMILES CCCCCCCCCCCC(=O)[O-]
REMARK SMILES IDX 7 1 8 2 9 3 10 4 11 5 12 6 13 7 14 8 6 9 5 10 4 11 3 12 2 13
REMARK SMILES IDX 1 14
REMARK H PARENT
REMARK Flexibility Score: inf
ROOT
ATOM      1  C   UNL     1      15.613  -2.775  13.898  1.00  0.00     0.000 C 
ENDROOT
BRANCH   1   2
ATOM      2  C   UNL     1      16.079  -3.919  14.810  1.00  0.00     0.000 C 
BRANCH   2   3
ATOM      3  C   UNL     1      15.895  -5.280  14.120  1.00  0.00     0.000 C 
BRANCH   3   4
ATOM      4  C   UNL     1      15.954  -5.180  12.588  1.00  0.00     0.006 C 
BRANCH   4   5
ATOM      5  C   UNL     1      15.567  -6.492  11.894  1.00  0.00     0.053 C 
BRANCH   5   6
ATOM      6  C   UNL     1      15.176  -6.235  10.473  1.00  0.00     0.041 C 
ATOM      7  O   UNL     1      15.986  -5.683   9.683  1.00  0.00    -0.550 OA
ATOM      8  O   UNL     1      13.899  -6.561  10.033  1.00  0.00    -0.550 OA
ENDBRANCH   5   6
ENDBRANCH   4   5
ENDBRANCH   3   4
ENDBRANCH   2   3
ENDBRANCH   1   2
BRANCH   1   9
ATOM      9  C   UNL     1      15.591  -1.410  14.611  1.00  0.00     0.000 C 
BRANCH   9  10
ATOM     10  C   UNL     1      16.680  -1.218  15.684  1.00  0.00    -0.000 C 
BRANCH  10  11
ATOM     11  C   UNL     1      16.862   0.230  16.178  1.00  0.00    -0.000 C 
BRANCH  11  12
ATOM     12  C   UNL     1      15.638   0.787  16.935  1.00  0.00    -0.000 C 
BRANCH  12  13
ATOM     13  C   UNL     1      14.960   1.943  16.186  1.00  0.00    -0.003 C 
ATOM     14  C   UNL     1      15.780   2.367  14.971  1.00  0.00     0.004 C 
ENDBRANCH  12  13
ENDBRANCH  11  12
ENDBRANCH  10  11
ENDBRANCH   9  10
ENDBRANCH   1   9
TORSDOF 10
ENDMDL
MODEL 9
REMARK VINA RESULT:    -3.493     12.938     15.310
REMARK INTER + INTRA:          -5.996
REMARK INTER:                  -5.389
REMARK INTRA:                  -0.607
REMARK UNBOUND:                -0.462
REMARK SMILES CCCCCCCCCCCC(=O)[O-]
REMARK SMILES IDX 7 1 8 2 9 3 10 4 11 5 12 6 13 7 14 8 6 9 5 10 4 11 3 12 2 13
REMARK SMILES IDX 1 14
REMARK H PARENT
REMARK Flexibility Score: inf
ROOT
ATOM      1  C   UNL     1      15.352   3.376  15.620  1.00  0.00     0.000 C 
ENDROOT
BRANCH   1   2
ATOM      2  C   UNL     1      15.309   1.905  16.056  1.00  0.00     0.000 C 
BRANCH   2   3
ATOM      3  C   UNL     1      16.061   1.014  15.055  1.00  0.00     0.000 C 
BRANCH   3   4
ATOM      4  C   UNL     1      16.148  -0.450  15.516  1.00  0.00     0.006 C 
BRANCH   4   5
ATOM      5  C   UNL     1      15.751  -1.441  14.414  1.00  0.00     0.053 C 
BRANCH   5   6
ATOM      6  C   UNL     1      16.178  -2.827  14.781  1.00  0.00     0.041 C 
ATOM      7  O   UNL     1      16.838  -3.028  15.835  1.00  0.00    -0.550 OA
ATOM      8  O   UNL     1      15.890  -3.891  13.936  1.00  0.00    -0.550 OA
ENDBRANCH   5   6
ENDBRANCH   4   5
ENDBRANCH   3   4
ENDBRANCH   2   3
ENDBRANCH   1   2
BRANCH   1   9
ATOM      9  C   UNL     1      16.070   3.582  14.273  1.00  0.00     0.000 C 
BRANCH   9  10
ATOM     10  C   UNL     1      16.864   4.897  14.152  1.00  0.00    -0.000 C 
BRANCH  10  11
ATOM     11  C   UNL     1      16.481   5.986  15.172  1.00  0.00    -0.000 C 
BRANCH  11  12
ATOM     12  C   UNL     1      15.879   7.255  14.531  1.00  0.00    -0.000 C 
BRANCH  12  13
ATOM     13  C   UNL     1      15.658   7.101  13.019  1.00  0.00    -0.003 C 
ATOM     14  C   UNL     1      14.179   6.918  12.695  1.00  0.00     0.004 C 
ENDBRANCH  12  13
ENDBRANCH  11  12
ENDBRANCH  10  11
ENDBRANCH   9  10
ENDBRANCH   1   9
TORSDOF 10
ENDMDL
