MODEL 1
REMARK VINA RESULT:    -5.058      0.000      0.000
REMARK INTER + INTRA:          -9.671
REMARK INTER:                  -9.197
REMARK INTRA:                  -0.474
REMARK UNBOUND:                -0.474
REMARK SMILES CCCCCCCCCCCCCCCC(=O)[O-]
REMARK SMILES IDX 9 1 10 2 11 3 12 4 13 5 14 6 15 7 16 8 17 9 18 10 8 11 7 12
REMARK SMILES IDX 6 13 5 14 4 15 3 16 2 17 1 18
REMARK H PARENT
REMARK Flexibility Score: inf
ROOT
ATOM      1  C   UNL     1       2.729   9.245  15.904  1.00  0.00     0.000 C 
ENDROOT
BRANCH   1   2
ATOM      2  C   UNL     1       3.651  10.024  14.944  1.00  0.00     0.000 C 
BRANCH   2   3
ATOM      3  C   UNL     1       5.149   9.685  15.055  1.00  0.00     0.000 C 
BRANCH   3   4
ATOM      4  C   UNL     1       6.019  10.914  15.374  1.00  0.00     0.000 C 
BRANCH   4   5
ATOM      5  C   UNL     1       7.525  10.575  15.410  1.00  0.00     0.000 C 
BRANCH   5   6
ATOM      6  C   UNL     1       8.196  10.873  16.762  1.00  0.00     0.006 C 
BRANCH   6   7
ATOM      7  C   UNL     1       8.473  12.364  16.977  1.00  0.00     0.053 C 
BRANCH   7   8
ATOM      8  C   UNL     1       9.005  12.605  18.355  1.00  0.00     0.041 C 
ATOM      9  O   UNL     1       9.555  11.670  18.994  1.00  0.00    -0.550 OA
ATOM     10  O   UNL     1       8.850  13.849  18.952  1.00  0.00    -0.550 OA
ENDBRANCH   7   8
ENDBRANCH   6   7
ENDBRANCH   5   6
ENDBRANCH   4   5
ENDBRANCH   3   4
ENDBRANCH   2   3
ENDBRANCH   1   2
BRANCH   1  11
ATOM     11  C   UNL     1       1.636   8.402  15.222  1.00  0.00     0.000 C 
BRANCH  11  12
ATOM     12  C   UNL     1       0.373   8.250  16.082  1.00  0.00    -0.000 C 
BRANCH  12  13
ATOM     13  C   UNL     1       0.290   9.365  17.134  1.00  0.00    -0.000 C 
BRANCH  13  14
ATOM     14  C   UNL     1      -1.120   9.525  17.729  1.00  0.00    -0.000 C 
BRANCH  14  15
ATOM     15  C   UNL     1      -1.281  10.699  18.715  1.00  0.00    -0.000 C 
BRANCH  15  16
ATOM     16  C   UNL     1      -2.637  10.694  19.435  1.00  0.00    -0.000 C 
BRANCH  16  17
ATOM     17  C   UNL     1      -2.763   9.477  20.359  1.00  0.00    -0.003 C 
ATOM     18  C   UNL     1      -1.550   9.354  21.277  1.00  0.00     0.004 C 
ENDBRANCH  16  17
ENDBRANCH  15  16
ENDBRANCH  14  15
ENDBRANCH  13  14
ENDBRANCH  12  13
ENDBRANCH  11  12
ENDBRANCH   1  11
TORSDOF 14
ENDMDL
MODEL 2
REMARK VINA RESULT:    -5.008      4.208      8.990
REMARK INTER + INTRA:          -9.580
REMARK INTER:                  -9.067
REMARK INTRA:                  -0.513
REMARK UNBOUND:                -0.474
REMARK SMILES CCCCCCCCCCCCCCCC(=O)[O-]
REMARK SMILES IDX 9 1 10 2 11 3 12 4 13 5 14 6 15 7 16 8 17 9 18 10 8 11 7 12
REMARK SMILES IDX 6 13 5 14 4 15 3 16 2 17 1 18
REMARK H PARENT
REMARK Flexibility Score: inf
ROOT
ATOM      1  C   UNL     1       3.148   9.489  15.832  1.00  0.00     0.000 C 
ENDROOT
BRANCH   1   2
ATOM      2  C   UNL     1       2.072   8.639  15.125  1.00  0.00     0.000 C 
BRANCH   2   3
ATOM      3  C   UNL     1       0.753   8.475  15.902  1.00  0.00     0.000 C 
BRANCH   3   4
ATOM      4  C   UNL     1       0.660   9.399  17.128  1.00  0.00     0.000 C 
BRANCH   4   5
ATOM      5  C   UNL     1      -0.721   9.329  17.815  1.00  0.00     0.000 C 
BRANCH   5   6
ATOM      6  C   UNL     1      -1.203  10.675  18.381  1.00  0.00     0.006 C 
BRANCH   6   7
ATOM      7  C   UNL     1      -1.180  10.723  19.912  1.00  0.00     0.053 C 
BRANCH   7   8
ATOM      8  C   UNL     1      -2.066   9.660  20.483  1.00  0.00     0.041 C 
ATOM      9  O   UNL     1      -1.633   8.887  21.377  1.00  0.00    -0.550 OA
ATOM     10  O   UNL     1      -3.354   9.493  19.992  1.00  0.00    -0.550 OA
ENDBRANCH   7   8
ENDBRANCH   6   7
ENDBRANCH   5   6
ENDBRANCH   4   5
ENDBRANCH   3   4
ENDBRANCH   2   3
ENDBRANCH   1   2
BRANCH   1  11
ATOM     11  C   UNL     1       4.208  10.107  14.902  1.00  0.00     0.000 C 
BRANCH  11  12
ATOM     12  C   UNL     1       5.637   9.654  15.238  1.00  0.00    -0.000 C 
BRANCH  12  13
ATOM     13  C   UNL     1       6.268  10.572  16.294  1.00  0.00    -0.000 C 
BRANCH  13  14
ATOM     14  C   UNL     1       7.089  11.719  15.679  1.00  0.00    -0.000 C 
BRANCH  14  15
ATOM     15  C   UNL     1       8.415  12.029  16.400  1.00  0.00    -0.000 C 
BRANCH  15  16
ATOM     16  C   UNL     1       8.256  12.130  17.925  1.00  0.00    -0.000 C 
BRANCH  16  17
ATOM     17  C   UNL     1       9.457  12.845  18.554  1.00  0.00    -0.003 C 
ATOM     18  C   UNL     1       9.017  14.083  19.331  1.00  0.00     0.004 C 
ENDBRANCH  16  17
ENDBRANCH  15  16
ENDBRANCH  14  15
ENDBRANCH  13  14
ENDBRANCH  12  13
ENDBRANCH  11  12
ENDBRANCH   1  11
TORSDOF 14
ENDMDL
MODEL 3
REMARK VINA RESULT:    -5.001     15.208     17.713
REMARK INTER + INTRA:          -9.568
REMARK INTER:                  -8.756
REMARK INTRA:                  -0.812
REMARK UNBOUND:                -0.474
REMARK SMILES CCCCCCCCCCCCCCCC(=O)[O-]
REMARK SMILES IDX 9 1 10 2 11 3 12 4 13 5 14 6 15 7 16 8 17 9 18 10 8 11 7 12
REMARK SMILES IDX 6 13 5 14 4 15 3 16 2 17 1 18
REMARK H PARENT
REMARK Flexibility Score: inf
ROOT
ATOM      1  C   UNL     1       1.563  20.217  32.590  1.00  0.00     0.000 C 
ENDROOT
BRANCH   1   2
ATOM      2  C   UNL     1       1.656  19.178  33.727  1.00  0.00     0.000 C 
BRANCH   2   3
ATOM      3  C   UNL     1       2.690  19.496  34.822  1.00  0.00     0.000 C 
BRANCH   3   4
ATOM      4  C   UNL     1       4.068  19.874  34.253  1.00  0.00     0.000 C 
BRANCH   4   5
ATOM      5  C   UNL     1       5.215  19.073  34.907  1.00  0.00     0.000 C 
BRANCH   5   6
ATOM      6  C   UNL     1       5.178  17.568  34.594  1.00  0.00     0.006 C 
BRANCH   6   7
ATOM      7  C   UNL     1       5.210  17.268  33.092  1.00  0.00     0.053 C 
BRANCH   7   8
ATOM      8  C   UNL     1       6.622  17.114  32.619  1.00  0.00     0.041 C 
ATOM      9  O   UNL     1       7.050  15.986  32.261  1.00  0.00    -0.550 OA
ATOM     10  O   UNL     1       7.478  18.207  32.620  1.00  0.00    -0.550 OA
ENDBRANCH   7   8
ENDBRANCH   6   7
ENDBRANCH   5   6
ENDBRANCH   4   5
ENDBRANCH   3   4
ENDBRANCH   2   3
ENDBRANCH   1   2
BRANCH   1  11
ATOM     11  C   UNL     1       0.600  21.389  32.853  1.00  0.00     0.000 C 
BRANCH  11  12
ATOM     12  C   UNL     1      -0.571  21.436  31.860  1.00  0.00    -0.000 C 
BRANCH  12  13
ATOM     13  C   UNL     1      -0.465  20.299  30.834  1.00  0.00    -0.000 C 
BRANCH  13  14
ATOM     14  C   UNL     1      -1.626  20.290  29.825  1.00  0.00    -0.000 C 
BRANCH  14  15
ATOM     15  C   UNL     1      -1.525  19.215  28.726  1.00  0.00    -0.000 C 
BRANCH  15  16
ATOM     16  C   UNL     1      -2.693  19.265  27.730  1.00  0.00    -0.000 C 
BRANCH  16  17
ATOM     17  C   UNL     1      -2.691  20.584  26.949  1.00  0.00    -0.003 C 
ATOM     18  C   UNL     1      -1.372  20.784  26.208  1.00  0.00     0.004 C 
ENDBRANCH  16  17
ENDBRANCH  15  16
ENDBRANCH  14  15
ENDBRANCH  13  14
ENDBRANCH  12  13
ENDBRANCH  11  12
ENDBRANCH   1  11
TORSDOF 14
ENDMDL
MODEL 4
REMARK VINA RESULT:    -4.839     15.171     17.777
REMARK INTER + INTRA:          -9.273
REMARK INTER:                  -8.681
REMARK INTRA:                  -0.592
REMARK UNBOUND:                -0.474
REMARK SMILES CCCCCCCCCCCCCCCC(=O)[O-]
REMARK SMILES IDX 9 1 10 2 11 3 12 4 13 5 14 6 15 7 16 8 17 9 18 10 8 11 7 12
REMARK SMILES IDX 6 13 5 14 4 15 3 16 2 17 1 18
REMARK H PARENT
REMARK Flexibility Score: inf
ROOT
ATOM      1  C   UNL     1      -0.076  21.547  33.420  1.00  0.00     0.000 C 
ENDROOT
BRANCH   1   2
ATOM      2  C   UNL     1       1.368  21.047  33.628  1.00  0.00     0.000 C 
BRANCH   2   3
ATOM      3  C   UNL     1       1.508  19.805  34.528  1.00  0.00     0.000 C 
BRANCH   3   4
ATOM      4  C   UNL     1       2.065  18.582  33.780  1.00  0.00     0.000 C 
BRANCH   4   5
ATOM      5  C   UNL     1       2.720  17.558  34.731  1.00  0.00     0.000 C 
BRANCH   5   6
ATOM      6  C   UNL     1       4.253  17.662  34.797  1.00  0.00     0.006 C 
BRANCH   6   7
ATOM      7  C   UNL     1       4.854  18.409  33.602  1.00  0.00     0.053 C 
BRANCH   7   8
ATOM      8  C   UNL     1       5.939  17.596  32.968  1.00  0.00     0.041 C 
ATOM      9  O   UNL     1       5.791  16.357  32.808  1.00  0.00    -0.550 OA
ATOM     10  O   UNL     1       7.133  18.201  32.597  1.00  0.00    -0.550 OA
ENDBRANCH   7   8
ENDBRANCH   6   7
ENDBRANCH   5   6
ENDBRANCH   4   5
ENDBRANCH   3   4
ENDBRANCH   2   3
ENDBRANCH   1   2
BRANCH   1  11
ATOM     11  C   UNL     1      -0.511  21.692  31.950  1.00  0.00     0.000 C 
BRANCH  11  12
ATOM     12  C   UNL     1      -0.540  20.353  31.200  1.00  0.00    -0.000 C 
BRANCH  12  13
ATOM     13  C   UNL     1      -1.448  20.437  29.965  1.00  0.00    -0.000 C 
BRANCH  13  14
ATOM     14  C   UNL     1      -1.347  19.196  29.059  1.00  0.00    -0.000 C 
BRANCH  14  15
ATOM     15  C   UNL     1      -2.501  19.031  28.052  1.00  0.00    -0.000 C 
BRANCH  15  16
ATOM     16  C   UNL     1      -3.300  20.326  27.840  1.00  0.00    -0.000 C 
BRANCH  16  17
ATOM     17  C   UNL     1      -2.875  21.026  26.545  1.00  0.00    -0.003 C 
ATOM     18  C   UNL     1      -1.406  20.760  26.230  1.00  0.00     0.004 C 
ENDBRANCH  16  17
ENDBRANCH  15  16
ENDBRANCH  14  15
ENDBRANCH  13  14
ENDBRANCH  12  13
ENDBRANCH  11  12
ENDBRANCH   1  11
TORSDOF 14
ENDMDL
MODEL 5
REMARK VINA RESULT:    -4.813     15.597     18.994
REMARK INTER + INTRA:          -9.226
REMARK INTER:                  -8.393
REMARK INTRA:                  -0.833
REMARK UNBOUND:                -0.474
REMARK SMILES CCCCCCCCCCCCCCCC(=O)[O-]
REMARK SMILES IDX 9 1 10 2 11 3 12 4 13 5 14 6 15 7 16 8 17 9 18 10 8 11 7 12
REMARK SMILES IDX 6 13 5 14 4 15 3 16 2 17 1 18
REMARK H PARENT
REMARK Flexibility Score: inf
ROOT
ATOM      1  C   UNL     1       0.828  20.331  34.118  1.00  0.00     0.000 C 
ENDROOT
BRANCH   1   2
ATOM      2  C   UNL     1       0.582  21.778  33.643  1.00  0.00     0.000 C 
BRANCH   2   3
ATOM      3  C   UNL     1      -0.382  21.922  32.451  1.00  0.00     0.000 C 
BRANCH   3   4
ATOM      4  C   UNL     1      -0.467  20.648  31.593  1.00  0.00     0.000 C 
BRANCH   4   5
ATOM      5  C   UNL     1      -1.189  20.891  30.250  1.00  0.00     0.000 C 
BRANCH   5   6
ATOM      6  C   UNL     1      -1.478  19.605  29.458  1.00  0.00     0.006 C 
BRANCH   6   7
ATOM      7  C   UNL     1      -1.613  19.848  27.951  1.00  0.00     0.053 C 
BRANCH   7   8
ATOM      8  C   UNL     1      -3.049  19.778  27.535  1.00  0.00     0.041 C 
ATOM      9  O   UNL     1      -3.525  18.706  27.078  1.00  0.00    -0.550 OA
ATOM     10  O   UNL     1      -3.848  20.911  27.607  1.00  0.00    -0.550 OA
ENDBRANCH   7   8
ENDBRANCH   6   7
ENDBRANCH   5   6
ENDBRANCH   4   5
ENDBRANCH   3   4
ENDBRANCH   2   3
ENDBRANCH   1   2
BRANCH   1  11
ATOM     11  C   UNL     1       2.303  19.892  34.140  1.00  0.00     0.000 C 
BRANCH  11  12
ATOM     12  C   UNL     1       2.941  19.870  32.744  1.00  0.00    -0.000 C 
BRANCH  12  13
ATOM     13  C   UNL     1       4.323  19.202  32.785  1.00  0.00    -0.000 C 
BRANCH  13  14
ATOM     14  C   UNL     1       4.721  18.729  34.194  1.00  0.00    -0.000 C 
BRANCH  14  15
ATOM     15  C   UNL     1       5.186  17.263  34.281  1.00  0.00    -0.000 C 
BRANCH  15  16
ATOM     16  C   UNL     1       5.510  16.656  32.907  1.00  0.00    -0.000 C 
BRANCH  16  17
ATOM     17  C   UNL     1       7.025  16.560  32.695  1.00  0.00    -0.003 C 
ATOM     18  C   UNL     1       7.367  15.546  31.607  1.00  0.00     0.004 C 
ENDBRANCH  16  17
ENDBRANCH  15  16
ENDBRANCH  14  15
ENDBRANCH  13  14
ENDBRANCH  12  13
ENDBRANCH  11  12
ENDBRANCH   1  11
TORSDOF 14
ENDMDL
MODEL 6
REMARK VINA RESULT:    -4.611     15.000     17.619
REMARK INTER + INTRA:          -8.859
REMARK INTER:                  -8.050
REMARK INTRA:                  -0.809
REMARK UNBOUND:                -0.474
REMARK SMILES CCCCCCCCCCCCCCCC(=O)[O-]
REMARK SMILES IDX 9 1 10 2 11 3 12 4 13 5 14 6 15 7 16 8 17 9 18 10 8 11 7 12
REMARK SMILES IDX 6 13 5 14 4 15 3 16 2 17 1 18
REMARK H PARENT
REMARK Flexibility Score: inf
ROOT
ATOM      1  C   UNL     1      -0.207  20.616  31.075  1.00  0.00     0.000 C 
ENDROOT
BRANCH   1   2
ATOM      2  C   UNL     1      -0.570  21.708  32.102  1.00  0.00     0.000 C 
BRANCH   2   3
ATOM      3  C   UNL     1       0.286  21.715  33.382  1.00  0.00     0.000 C 
BRANCH   3   4
ATOM      4  C   UNL     1       0.570  20.302  33.920  1.00  0.00     0.000 C 
BRANCH   4   5
ATOM      5  C   UNL     1       1.714  20.287  34.957  1.00  0.00     0.000 C 
BRANCH   5   6
ATOM      6  C   UNL     1       3.115  20.424  34.338  1.00  0.00     0.006 C 
BRANCH   6   7
ATOM      7  C   UNL     1       3.332  19.500  33.135  1.00  0.00     0.053 C 
BRANCH   7   8
ATOM      8  C   UNL     1       4.380  18.478  33.442  1.00  0.00     0.041 C 
ATOM      9  O   UNL     1       4.361  17.859  34.538  1.00  0.00    -0.550 OA
ATOM     10  O   UNL     1       5.408  18.244  32.537  1.00  0.00    -0.550 OA
ENDBRANCH   7   8
ENDBRANCH   6   7
ENDBRANCH   5   6
ENDBRANCH   4   5
ENDBRANCH   3   4
ENDBRANCH   2   3
ENDBRANCH   1   2
BRANCH   1  11
ATOM     11  C   UNL     1      -1.320  20.267  30.070  1.00  0.00     0.000 C 
BRANCH  11  12
ATOM     12  C   UNL     1      -0.921  19.147  29.099  1.00  0.00    -0.000 C 
BRANCH  12  13
ATOM     13  C   UNL     1      -2.119  18.237  28.791  1.00  0.00    -0.000 C 
BRANCH  13  14
ATOM     14  C   UNL     1      -2.813  18.588  27.463  1.00  0.00    -0.000 C 
BRANCH  14  15
ATOM     15  C   UNL     1      -3.703  19.845  27.507  1.00  0.00    -0.000 C 
BRANCH  15  16
ATOM     16  C   UNL     1      -3.067  21.054  26.804  1.00  0.00    -0.000 C 
BRANCH  16  17
ATOM     17  C   UNL     1      -1.679  20.700  26.257  1.00  0.00    -0.003 C 
ATOM     18  C   UNL     1      -1.098  21.852  25.442  1.00  0.00     0.004 C 
ENDBRANCH  16  17
ENDBRANCH  15  16
ENDBRANCH  14  15
ENDBRANCH  13  14
ENDBRANCH  12  13
ENDBRANCH  11  12
ENDBRANCH   1  11
TORSDOF 14
ENDMDL
MODEL 7
REMARK VINA RESULT:    -4.610     15.734     19.092
REMARK INTER + INTRA:          -8.858
REMARK INTER:                  -8.071
REMARK INTRA:                  -0.786
REMARK UNBOUND:                -0.474
REMARK SMILES CCCCCCCCCCCCCCCC(=O)[O-]
REMARK SMILES IDX 9 1 10 2 11 3 12 4 13 5 14 6 15 7 16 8 17 9 18 10 8 11 7 12
REMARK SMILES IDX 6 13 5 14 4 15 3 16 2 17 1 18
REMARK H PARENT
REMARK Flexibility Score: inf
ROOT
ATOM      1  C   UNL     1       0.674  21.847  34.216  1.00  0.00     0.000 C 
ENDROOT
BRANCH   1   2
ATOM      2  C   UNL     1      -0.052  22.033  32.868  1.00  0.00     0.000 C 
BRANCH   2   3
ATOM      3  C   UNL     1      -0.211  20.753  32.026  1.00  0.00     0.000 C 
BRANCH   3   4
ATOM      4  C   UNL     1      -0.648  21.038  30.579  1.00  0.00     0.000 C 
BRANCH   4   5
ATOM      5  C   UNL     1      -1.618  19.967  30.036  1.00  0.00     0.000 C 
BRANCH   5   6
ATOM      6  C   UNL     1      -1.150  19.312  28.725  1.00  0.00     0.006 C 
BRANCH   6   7
ATOM      7  C   UNL     1      -2.285  19.120  27.714  1.00  0.00     0.053 C 
BRANCH   7   8
ATOM      8  C   UNL     1      -2.493  20.368  26.915  1.00  0.00     0.041 C 
ATOM      9  O   UNL     1      -1.614  20.753  26.101  1.00  0.00    -0.550 OA
ATOM     10  O   UNL     1      -3.636  21.133  27.108  1.00  0.00    -0.550 OA
ENDBRANCH   7   8
ENDBRANCH   6   7
ENDBRANCH   5   6
ENDBRANCH   4   5
ENDBRANCH   3   4
ENDBRANCH   2   3
ENDBRANCH   1   2
BRANCH   1  11
ATOM     11  C   UNL     1       0.445  20.487  34.899  1.00  0.00     0.000 C 
BRANCH  11  12
ATOM     12  C   UNL     1       1.710  19.619  34.946  1.00  0.00    -0.000 C 
BRANCH  12  13
ATOM     13  C   UNL     1       2.906  20.360  34.331  1.00  0.00    -0.000 C 
BRANCH  13  14
ATOM     14  C   UNL     1       3.618  19.548  33.236  1.00  0.00    -0.000 C 
BRANCH  14  15
ATOM     15  C   UNL     1       4.623  18.501  33.752  1.00  0.00    -0.000 C 
BRANCH  15  16
ATOM     16  C   UNL     1       5.519  17.932  32.642  1.00  0.00    -0.000 C 
BRANCH  16  17
ATOM     17  C   UNL     1       6.057  16.549  33.026  1.00  0.00    -0.003 C 
ATOM     18  C   UNL     1       6.550  16.532  34.471  1.00  0.00     0.004 C 
ENDBRANCH  16  17
ENDBRANCH  15  16
ENDBRANCH  14  15
ENDBRANCH  13  14
ENDBRANCH  12  13
ENDBRANCH  11  12
ENDBRANCH   1  11
TORSDOF 14
ENDMDL
MODEL 8
REMARK VINA RESULT:    -4.193     14.825     18.264
REMARK INTER + INTRA:          -8.098
REMARK INTER:                  -7.582
REMARK INTRA:                  -0.516
REMARK UNBOUND:                -0.474
REMARK SMILES CCCCCCCCCCCCCCCC(=O)[O-]
REMARK SMILES IDX 9 1 10 2 11 3 12 4 13 5 14 6 15 7 16 8 17 9 18 10 8 11 7 12
REMARK SMILES IDX 6 13 5 14 4 15 3 16 2 17 1 18
REMARK H PARENT
REMARK Flexibility Score: inf
ROOT
ATOM      1  C   UNL     1      -0.357  20.632  32.115  1.00  0.00     0.000 C 
ENDROOT
BRANCH   1   2
ATOM      2  C   UNL     1      -0.618  21.032  30.648  1.00  0.00     0.000 C 
BRANCH   2   3
ATOM      3  C   UNL     1      -1.700  20.208  29.927  1.00  0.00     0.000 C 
BRANCH   3   4
ATOM      4  C   UNL     1      -1.114  19.178  28.946  1.00  0.00     0.000 C 
BRANCH   4   5
ATOM      5  C   UNL     1      -2.127  18.072  28.580  1.00  0.00     0.000 C 
BRANCH   5   6
ATOM      6  C   UNL     1      -3.309  18.567  27.730  1.00  0.00     0.006 C 
BRANCH   6   7
ATOM      7  C   UNL     1      -2.868  19.222  26.417  1.00  0.00     0.053 C 
BRANCH   7   8
ATOM      8  C   UNL     1      -2.857  20.712  26.554  1.00  0.00     0.041 C 
ATOM      9  O   UNL     1      -3.766  21.296  27.199  1.00  0.00    -0.550 OA
ATOM     10  O   UNL     1      -1.869  21.460  25.926  1.00  0.00    -0.550 OA
ENDBRANCH   7   8
ENDBRANCH   6   7
ENDBRANCH   5   6
ENDBRANCH   4   5
ENDBRANCH   3   4
ENDBRANCH   2   3
ENDBRANCH   1   2
BRANCH   1  11
ATOM     11  C   UNL     1       1.069  20.908  32.624  1.00  0.00     0.000 C 
BRANCH  11  12
ATOM     12  C   UNL     1       1.934  19.641  32.697  1.00  0.00    -0.000 C 
BRANCH  12  13
ATOM     13  C   UNL     1       3.229  19.906  33.479  1.00  0.00    -0.000 C 
BRANCH  13  14
ATOM     14  C   UNL     1       4.338  18.886  33.168  1.00  0.00    -0.000 C 
BRANCH  14  15
ATOM     15  C   UNL     1       4.358  17.648  34.085  1.00  0.00    -0.000 C 
BRANCH  15  16
ATOM     16  C   UNL     1       5.769  17.076  34.287  1.00  0.00    -0.000 C 
BRANCH  16  17
ATOM     17  C   UNL     1       6.644  17.329  33.054  1.00  0.00    -0.003 C 
ATOM     18  C   UNL     1       6.705  16.096  32.158  1.00  0.00     0.004 C 
ENDBRANCH  16  17
ENDBRANCH  15  16
ENDBRANCH  14  15
ENDBRANCH  13  14
ENDBRANCH  12  13
ENDBRANCH  11  12
ENDBRANCH   1  11
TORSDOF 14
ENDMDL
MODEL 9
REMARK VINA RESULT:    -4.049     14.784     17.489
REMARK INTER + INTRA:          -7.837
REMARK INTER:                  -6.949
REMARK INTRA:                  -0.888
REMARK UNBOUND:                -0.474
REMARK SMILES CCCCCCCCCCCCCCCC(=O)[O-]
REMARK SMILES IDX 9 1 10 2 11 3 12 4 13 5 14 6 15 7 16 8 17 9 18 10 8 11 7 12
REMARK SMILES IDX 6 13 5 14 4 15 3 16 2 17 1 18
REMARK H PARENT
REMARK Flexibility Score: inf
ROOT
ATOM      1  C   UNL     1      -0.573  21.046  31.584  1.00  0.00     0.000 C 
ENDROOT
BRANCH   1   2
ATOM      2  C   UNL     1       0.673  20.860  32.475  1.00  0.00     0.000 C 
BRANCH   2   3
ATOM      3  C   UNL     1       0.708  21.734  33.742  1.00  0.00     0.000 C 
BRANCH   3   4
ATOM      4  C   UNL     1       1.291  20.998  34.961  1.00  0.00     0.000 C 
BRANCH   4   5
ATOM      5  C   UNL     1       1.760  19.568  34.616  1.00  0.00     0.000 C 
BRANCH   5   6
ATOM      6  C   UNL     1       3.283  19.374  34.710  1.00  0.00     0.006 C 
BRANCH   6   7
ATOM      7  C   UNL     1       3.942  19.140  33.347  1.00  0.00     0.053 C 
BRANCH   7   8
ATOM      8  C   UNL     1       5.018  18.107  33.455  1.00  0.00     0.041 C 
ATOM      9  O   UNL     1       4.984  17.251  34.378  1.00  0.00    -0.550 OA
ATOM     10  O   UNL     1       6.085  18.119  32.566  1.00  0.00    -0.550 OA
ENDBRANCH   7   8
ENDBRANCH   6   7
ENDBRANCH   5   6
ENDBRANCH   4   5
ENDBRANCH   3   4
ENDBRANCH   2   3
ENDBRANCH   1   2
BRANCH   1  11
ATOM     11  C   UNL     1      -0.568  20.232  30.277  1.00  0.00     0.000 C 
BRANCH  11  12
ATOM     12  C   UNL     1      -1.913  20.282  29.536  1.00  0.00    -0.000 C 
BRANCH  12  13
ATOM     13  C   UNL     1      -1.700  20.495  28.031  1.00  0.00    -0.000 C 
BRANCH  13  14
ATOM     14  C   UNL     1      -3.018  20.531  27.237  1.00  0.00    -0.000 C 
BRANCH  14  15
ATOM     15  C   UNL     1      -3.895  19.272  27.374  1.00  0.00    -0.000 C 
BRANCH  15  16
ATOM     16  C   UNL     1      -3.304  18.050  26.654  1.00  0.00    -0.000 C 
BRANCH  16  17
ATOM     17  C   UNL     1      -3.223  16.845  27.598  1.00  0.00    -0.003 C 
ATOM     18  C   UNL     1      -2.029  16.963  28.542  1.00  0.00     0.004 C 
ENDBRANCH  16  17
ENDBRANCH  15  16
ENDBRANCH  14  15
ENDBRANCH  13  14
ENDBRANCH  12  13
ENDBRANCH  11  12
ENDBRANCH   1  11
TORSDOF 14
ENDMDL
