MODEL 1
REMARK VINA RESULT:    -8.170      0.000      0.000
REMARK INTER + INTRA:         -12.823
REMARK INTER:                 -11.753
REMARK INTRA:                  -1.070
REMARK UNBOUND:                -1.070
REMARK SMILES O=c1cc(-c2ccc(O)c(O)c2)oc2cc(O[C@H]3O[C@@H](CO)[C@@H](O)[C@H](O)[C@H]3O)cc(O)c12
REMARK SMILES IDX 17 1 16 2 4 3 3 4 13 5 2 6 14 7 1 8 32 9 15 10 30 11 29 12
REMARK SMILES IDX 5 13 6 14 7 15 8 16 12 17 10 18 9 19 11 21 31 23 18 25 27 26
REMARK SMILES IDX 19 27 25 28 20 29 23 30 28 31 26 33 21 35 22 36 24 38
REMARK H PARENT 9 20 11 22 31 24 28 32 26 34 22 37 24 39
REMARK Flexibility Score: inf
ROOT
ATOM      1  O   UNL     1     -29.179 -48.137  23.474  1.00  0.00    -0.462 OA
ENDROOT
BRANCH   1   2
ATOM      2  C   UNL     1     -30.200 -47.178  23.529  1.00  0.00     0.130 A 
ATOM      3  C   UNL     1     -33.224 -44.875  26.407  1.00  0.00     0.138 A 
ATOM      4  C   UNL     1     -33.343 -43.807  25.502  1.00  0.00     0.100 A 
ATOM      5  O   UNL     1     -32.446 -45.904  26.117  1.00  0.00    -0.456 OA
ATOM      6  C   UNL     1     -32.694 -43.870  24.275  1.00  0.00     0.197 A 
ATOM      7  C   UNL     1     -31.763 -45.974  24.978  1.00  0.00     0.146 A 
ATOM      8  O   UNL     1     -33.050 -43.045  23.381  1.00  0.00    -0.289 OA
ATOM      9  C   UNL     1     -31.855 -44.949  24.004  1.00  0.00     0.107 A 
ATOM     10  C   UNL     1     -30.897 -47.073  24.734  1.00  0.00     0.094 A 
ATOM     11  C   UNL     1     -31.170 -45.091  22.769  1.00  0.00     0.134 A 
ATOM     12  C   UNL     1     -30.417 -46.253  22.508  1.00  0.00     0.093 A 
BRANCH   3  13
ATOM     13  C   UNL     1     -34.002 -44.855  27.671  1.00  0.00     0.021 A 
ATOM     14  C   UNL     1     -33.347 -44.735  28.921  1.00  0.00     0.016 A 
ATOM     15  C   UNL     1     -34.062 -44.821  30.122  1.00  0.00     0.051 A 
ATOM     16  C   UNL     1     -35.453 -45.037  30.096  1.00  0.00     0.157 A 
ATOM     17  C   UNL     1     -35.405 -45.024  27.657  1.00  0.00     0.062 A 
ATOM     18  C   UNL     1     -36.129 -45.112  28.863  1.00  0.00     0.158 A 
BRANCH  16  19
ATOM     19  O   UNL     1     -36.172 -45.103  31.291  1.00  0.00    -0.504 OA
ATOM     20  H   UNL     1     -36.825 -44.376  31.593  1.00  0.00     0.293 HD
ENDBRANCH  16  19
BRANCH  18  21
ATOM     21  O   UNL     1     -37.512 -45.210  28.864  1.00  0.00    -0.504 OA
ATOM     22  H   UNL     1     -38.032 -45.238  29.710  1.00  0.00     0.293 HD
ENDBRANCH  18  21
ENDBRANCH   3  13
BRANCH  11  23
ATOM     23  O   UNL     1     -31.037 -44.025  21.886  1.00  0.00    -0.507 OA
ATOM     24  H   UNL     1     -31.314 -43.077  22.142  1.00  0.00     0.293 HD
ENDBRANCH  11  23
ENDBRANCH   1   2
BRANCH   1  25
ATOM     25  C   UNL     1     -28.814 -49.121  24.468  1.00  0.00     0.339 C 
ATOM     26  C   UNL     1     -27.255 -49.302  24.545  1.00  0.00     0.214 C 
ATOM     27  O   UNL     1     -29.440 -50.375  24.223  1.00  0.00    -0.332 OA
ATOM     28  C   UNL     1     -26.693 -50.098  23.316  1.00  0.00     0.180 C 
ATOM     29  C   UNL     1     -29.068 -51.056  23.018  1.00  0.00     0.179 C 
ATOM     30  C   UNL     1     -27.782 -50.463  22.311  1.00  0.00     0.177 C 
BRANCH  26  31
ATOM     31  O   UNL     1     -26.616 -48.038  24.699  1.00  0.00    -0.384 OA
ATOM     32  H   UNL     1     -26.152 -48.061  25.583  1.00  0.00     0.211 HD
ENDBRANCH  26  31
BRANCH  28  33
ATOM     33  O   UNL     1     -26.080 -51.278  23.772  1.00  0.00    -0.387 OA
ATOM     34  H   UNL     1     -26.775 -51.826  24.217  1.00  0.00     0.211 HD
ENDBRANCH  28  33
BRANCH  29  35
ATOM     35  C   UNL     1     -30.313 -51.164  22.063  1.00  0.00     0.191 C 
BRANCH  35  36
ATOM     36  O   UNL     1     -29.995 -51.608  20.743  1.00  0.00    -0.394 OA
ATOM     37  H   UNL     1     -30.867 -51.588  20.238  1.00  0.00     0.210 HD
ENDBRANCH  35  36
ENDBRANCH  29  35
BRANCH  30  38
ATOM     38  O   UNL     1     -28.153 -49.398  21.447  1.00  0.00    -0.387 OA
ATOM     39  H   UNL     1     -28.990 -48.930  21.761  1.00  0.00     0.211 HD
ENDBRANCH  30  38
ENDBRANCH   1  25
TORSDOF 11
ENDMDL
MODEL 2
REMARK VINA RESULT:    -8.165      7.492     12.918
REMARK INTER + INTRA:         -12.816
REMARK INTER:                 -11.748
REMARK INTRA:                  -1.068
REMARK UNBOUND:                -1.070
REMARK SMILES O=c1cc(-c2ccc(O)c(O)c2)oc2cc(O[C@H]3O[C@@H](CO)[C@@H](O)[C@H](O)[C@H]3O)cc(O)c12
REMARK SMILES IDX 17 1 16 2 4 3 3 4 13 5 2 6 14 7 1 8 32 9 15 10 30 11 29 12
REMARK SMILES IDX 5 13 6 14 7 15 8 16 12 17 10 18 9 19 11 21 31 23 18 25 27 26
REMARK SMILES IDX 19 27 25 28 20 29 23 30 28 31 26 33 21 35 22 36 24 38
REMARK H PARENT 9 20 11 22 31 24 28 32 26 34 22 37 24 39
REMARK Flexibility Score: inf
ROOT
ATOM      1  O   UNL     1     -29.765 -47.738  34.569  1.00  0.00    -0.462 OA
ENDROOT
BRANCH   1   2
ATOM      2  C   UNL     1     -28.686 -48.633  34.533  1.00  0.00     0.130 A 
ATOM      3  C   UNL     1     -25.989 -51.364  31.704  1.00  0.00     0.138 A 
ATOM      4  C   UNL     1     -24.927 -51.345  32.623  1.00  0.00     0.100 A 
ATOM      5  O   UNL     1     -27.110 -50.717  31.977  1.00  0.00    -0.456 OA
ATOM      6  C   UNL     1     -25.086 -50.701  33.845  1.00  0.00     0.197 A 
ATOM      7  C   UNL     1     -27.280 -50.042  33.110  1.00  0.00     0.146 A 
ATOM      8  O   UNL     1     -24.234 -50.948  34.751  1.00  0.00    -0.289 OA
ATOM      9  C   UNL     1     -26.264 -50.002  34.097  1.00  0.00     0.107 A 
ATOM     10  C   UNL     1     -28.480 -49.317  33.335  1.00  0.00     0.094 A 
ATOM     11  C   UNL     1     -26.505 -49.333  35.326  1.00  0.00     0.134 A 
ATOM     12  C   UNL     1     -27.755 -48.728  35.567  1.00  0.00     0.093 A 
BRANCH   3  13
ATOM     13  C   UNL     1     -25.857 -52.140  30.447  1.00  0.00     0.021 A 
ATOM     14  C   UNL     1     -25.744 -51.480  29.199  1.00  0.00     0.016 A 
ATOM     15  C   UNL     1     -25.724 -52.202  27.999  1.00  0.00     0.051 A 
ATOM     16  C   UNL     1     -25.825 -53.606  28.024  1.00  0.00     0.157 A 
ATOM     17  C   UNL     1     -25.909 -53.553  30.462  1.00  0.00     0.062 A 
ATOM     18  C   UNL     1     -25.891 -54.283  29.257  1.00  0.00     0.158 A 
BRANCH  16  19
ATOM     19  O   UNL     1     -25.786 -54.331  26.832  1.00  0.00    -0.504 OA
ATOM     20  H   UNL     1     -25.608 -53.901  25.921  1.00  0.00     0.293 HD
ENDBRANCH  16  19
BRANCH  18  21
ATOM     21  O   UNL     1     -25.874 -55.670  29.259  1.00  0.00    -0.504 OA
ATOM     22  H   UNL     1     -26.662 -56.202  28.969  1.00  0.00     0.293 HD
ENDBRANCH  18  21
ENDBRANCH   3  13
BRANCH  11  23
ATOM     23  O   UNL     1     -25.475 -49.064  36.221  1.00  0.00    -0.507 OA
ATOM     24  H   UNL     1     -24.824 -48.292  36.075  1.00  0.00     0.293 HD
ENDBRANCH  11  23
ENDBRANCH   1   2
BRANCH   1  25
ATOM     25  C   UNL     1     -30.815 -47.554  33.593  1.00  0.00     0.339 C 
ATOM     26  C   UNL     1     -31.192 -46.037  33.441  1.00  0.00     0.214 C 
ATOM     27  O   UNL     1     -31.973 -48.315  33.915  1.00  0.00    -0.332 OA
ATOM     28  C   UNL     1     -32.016 -45.508  34.665  1.00  0.00     0.180 C 
ATOM     29  C   UNL     1     -32.660 -47.962  35.122  1.00  0.00     0.179 C 
ATOM     30  C   UNL     1     -32.213 -46.575  35.739  1.00  0.00     0.177 C 
BRANCH  26  31
ATOM     31  O   UNL     1     -30.023 -45.256  33.207  1.00  0.00    -0.384 OA
ATOM     32  H   UNL     1     -29.645 -45.036  34.104  1.00  0.00     0.211 HD
ENDBRANCH  26  31
BRANCH  28  33
ATOM     33  O   UNL     1     -33.276 -45.073  34.220  1.00  0.00    -0.387 OA
ATOM     34  H   UNL     1     -33.166 -44.722  33.300  1.00  0.00     0.211 HD
ENDBRANCH  28  33
BRANCH  29  35
ATOM     35  C   UNL     1     -32.584 -49.154  36.145  1.00  0.00     0.191 C 
BRANCH  35  36
ATOM     36  O   UNL     1     -33.009 -48.815  37.466  1.00  0.00    -0.394 OA
ATOM     37  H   UNL     1     -32.168 -48.565  37.961  1.00  0.00     0.210 HD
ENDBRANCH  35  36
ENDBRANCH  29  35
BRANCH  30  38
ATOM     38  O   UNL     1     -31.085 -46.762  36.583  1.00  0.00    -0.387 OA
ATOM     39  H   UNL     1     -30.576 -47.602  36.353  1.00  0.00     0.211 HD
ENDBRANCH  30  38
ENDBRANCH   1  25
TORSDOF 11
ENDMDL
MODEL 3
REMARK VINA RESULT:    -8.147      4.067      9.146
REMARK INTER + INTRA:         -12.789
REMARK INTER:                 -11.725
REMARK INTRA:                  -1.063
REMARK UNBOUND:                -1.070
REMARK SMILES O=c1cc(-c2ccc(O)c(O)c2)oc2cc(O[C@H]3O[C@@H](CO)[C@@H](O)[C@H](O)[C@H]3O)cc(O)c12
REMARK SMILES IDX 17 1 16 2 4 3 3 4 13 5 2 6 14 7 1 8 32 9 15 10 30 11 29 12
REMARK SMILES IDX 5 13 6 14 7 15 8 16 12 17 10 18 9 19 11 21 31 23 18 25 27 26
REMARK SMILES IDX 19 27 25 28 20 29 23 30 28 31 26 33 21 35 22 36 24 38
REMARK H PARENT 9 20 11 22 31 24 28 32 26 34 22 37 24 39
REMARK Flexibility Score: inf
ROOT
ATOM      1  O   UNL     1     -31.564 -49.877  23.466  1.00  0.00    -0.462 OA
ENDROOT
BRANCH   1   2
ATOM      2  C   UNL     1     -30.542 -50.834  23.530  1.00  0.00     0.130 A 
ATOM      3  C   UNL     1     -27.554 -53.145  26.438  1.00  0.00     0.138 A 
ATOM      4  C   UNL     1     -27.420 -54.209  25.530  1.00  0.00     0.100 A 
ATOM      5  O   UNL     1     -28.330 -52.117  26.142  1.00  0.00    -0.456 OA
ATOM      6  C   UNL     1     -28.053 -54.141  24.294  1.00  0.00     0.197 A 
ATOM      7  C   UNL     1     -28.997 -52.042  24.994  1.00  0.00     0.146 A 
ATOM      8  O   UNL     1     -27.682 -54.961  23.401  1.00  0.00    -0.289 OA
ATOM      9  C   UNL     1     -28.889 -53.062  24.017  1.00  0.00     0.107 A 
ATOM     10  C   UNL     1     -29.862 -50.944  24.744  1.00  0.00     0.094 A 
ATOM     11  C   UNL     1     -29.558 -52.916  22.773  1.00  0.00     0.134 A 
ATOM     12  C   UNL     1     -30.310 -51.754  22.507  1.00  0.00     0.093 A 
BRANCH   3  13
ATOM     13  C   UNL     1     -26.793 -53.170  27.712  1.00  0.00     0.021 A 
ATOM     14  C   UNL     1     -27.459 -53.357  28.948  1.00  0.00     0.016 A 
ATOM     15  C   UNL     1     -26.766 -53.277  30.162  1.00  0.00     0.051 A 
ATOM     16  C   UNL     1     -25.385 -52.999  30.163  1.00  0.00     0.157 A 
ATOM     17  C   UNL     1     -25.399 -52.940  27.724  1.00  0.00     0.062 A 
ATOM     18  C   UNL     1     -24.696 -52.857  28.944  1.00  0.00     0.158 A 
BRANCH  16  19
ATOM     19  O   UNL     1     -24.687 -52.939  31.371  1.00  0.00    -0.504 OA
ATOM     20  H   UNL     1     -23.715 -52.628  31.441  1.00  0.00     0.293 HD
ENDBRANCH  16  19
BRANCH  18  21
ATOM     21  O   UNL     1     -23.319 -52.699  28.969  1.00  0.00    -0.504 OA
ATOM     22  H   UNL     1     -22.750 -53.185  29.623  1.00  0.00     0.293 HD
ENDBRANCH  18  21
ENDBRANCH   3  13
BRANCH  11  23
ATOM     23  O   UNL     1     -29.677 -53.977  21.883  1.00  0.00    -0.507 OA
ATOM     24  H   UNL     1     -29.487 -54.940  22.165  1.00  0.00     0.293 HD
ENDBRANCH  11  23
ENDBRANCH   1   2
BRANCH   1  25
ATOM     25  C   UNL     1     -31.953 -48.907  24.464  1.00  0.00     0.339 C 
ATOM     26  C   UNL     1     -33.516 -48.780  24.557  1.00  0.00     0.214 C 
ATOM     27  O   UNL     1     -31.374 -47.631  24.213  1.00  0.00    -0.332 OA
ATOM     28  C   UNL     1     -34.119 -48.004  23.335  1.00  0.00     0.180 C 
ATOM     29  C   UNL     1     -31.782 -46.963  23.013  1.00  0.00     0.179 C 
ATOM     30  C   UNL     1     -33.053 -47.601  22.319  1.00  0.00     0.177 C 
BRANCH  26  31
ATOM     31  O   UNL     1     -34.110 -50.065  24.718  1.00  0.00    -0.384 OA
ATOM     32  H   UNL     1     -35.001 -50.024  24.272  1.00  0.00     0.211 HD
ENDBRANCH  26  31
BRANCH  28  33
ATOM     33  O   UNL     1     -34.767 -46.846  23.798  1.00  0.00    -0.387 OA
ATOM     34  H   UNL     1     -35.675 -46.831  23.404  1.00  0.00     0.211 HD
ENDBRANCH  28  33
BRANCH  29  35
ATOM     35  C   UNL     1     -30.552 -46.812  22.045  1.00  0.00     0.191 C 
BRANCH  35  36
ATOM     36  O   UNL     1     -30.900 -46.391  20.725  1.00  0.00    -0.394 OA
ATOM     37  H   UNL     1     -30.570 -47.124  20.116  1.00  0.00     0.210 HD
ENDBRANCH  35  36
ENDBRANCH  29  35
BRANCH  30  38
ATOM     38  O   UNL     1     -32.655 -48.652  21.450  1.00  0.00    -0.387 OA
ATOM     39  H   UNL     1     -33.330 -49.402  21.430  1.00  0.00     0.211 HD
ENDBRANCH  30  38
ENDBRANCH   1  25
TORSDOF 11
ENDMDL
MODEL 4
REMARK VINA RESULT:    -8.135      3.747      6.878
REMARK INTER + INTRA:         -12.772
REMARK INTER:                 -11.955
REMARK INTRA:                  -0.817
REMARK UNBOUND:                -1.070
REMARK SMILES O=c1cc(-c2ccc(O)c(O)c2)oc2cc(O[C@H]3O[C@@H](CO)[C@@H](O)[C@H](O)[C@H]3O)cc(O)c12
REMARK SMILES IDX 17 1 16 2 4 3 3 4 13 5 2 6 14 7 1 8 32 9 15 10 30 11 29 12
REMARK SMILES IDX 5 13 6 14 7 15 8 16 12 17 10 18 9 19 11 21 31 23 18 25 27 26
REMARK SMILES IDX 19 27 25 28 20 29 23 30 28 31 26 33 21 35 22 36 24 38
REMARK H PARENT 9 20 11 22 31 24 28 32 26 34 22 37 24 39
REMARK Flexibility Score: inf
ROOT
ATOM      1  O   UNL     1     -26.276 -51.830  27.398  1.00  0.00    -0.462 OA
ENDROOT
BRANCH   1   2
ATOM      2  C   UNL     1     -26.882 -51.431  26.198  1.00  0.00     0.130 A 
ATOM      3  C   UNL     1     -29.099 -47.851  23.963  1.00  0.00     0.138 A 
ATOM      4  C   UNL     1     -28.748 -48.361  22.702  1.00  0.00     0.100 A 
ATOM      5  O   UNL     1     -28.724 -48.487  25.060  1.00  0.00    -0.456 OA
ATOM      6  C   UNL     1     -28.064 -49.569  22.614  1.00  0.00     0.197 A 
ATOM      7  C   UNL     1     -28.020 -49.614  25.019  1.00  0.00     0.146 A 
ATOM      8  O   UNL     1     -28.022 -50.136  21.481  1.00  0.00    -0.289 OA
ATOM      9  C   UNL     1     -27.653 -50.203  23.784  1.00  0.00     0.107 A 
ATOM     10  C   UNL     1     -27.592 -50.230  26.225  1.00  0.00     0.094 A 
ATOM     11  C   UNL     1     -26.964 -51.445  23.776  1.00  0.00     0.134 A 
ATOM     12  C   UNL     1     -26.663 -52.093  24.990  1.00  0.00     0.093 A 
BRANCH   3  13
ATOM     13  C   UNL     1     -29.921 -46.619  24.051  1.00  0.00     0.021 A 
ATOM     14  C   UNL     1     -30.605 -46.291  25.247  1.00  0.00     0.016 A 
ATOM     15  C   UNL     1     -31.466 -45.188  25.308  1.00  0.00     0.051 A 
ATOM     16  C   UNL     1     -31.666 -44.391  24.165  1.00  0.00     0.157 A 
ATOM     17  C   UNL     1     -30.092 -45.783  22.924  1.00  0.00     0.062 A 
ATOM     18  C   UNL     1     -30.959 -44.673  22.980  1.00  0.00     0.158 A 
BRANCH  16  19
ATOM     19  O   UNL     1     -32.507 -43.279  24.228  1.00  0.00    -0.504 OA
ATOM     20  H   UNL     1     -32.780 -42.735  23.406  1.00  0.00     0.293 HD
ENDBRANCH  16  19
BRANCH  18  21
ATOM     21  O   UNL     1     -31.085 -43.807  21.905  1.00  0.00    -0.504 OA
ATOM     22  H   UNL     1     -31.689 -44.007  21.143  1.00  0.00     0.293 HD
ENDBRANCH  18  21
ENDBRANCH   3  13
BRANCH  11  23
ATOM     23  O   UNL     1     -26.381 -51.944  22.617  1.00  0.00    -0.507 OA
ATOM     24  H   UNL     1     -26.942 -52.314  21.849  1.00  0.00     0.293 HD
ENDBRANCH  11  23
ENDBRANCH   1   2
BRANCH   1  25
ATOM     25  C   UNL     1     -26.895 -52.083  28.679  1.00  0.00     0.339 C 
ATOM     26  C   UNL     1     -25.848 -52.612  29.724  1.00  0.00     0.214 C 
ATOM     27  O   UNL     1     -27.980 -52.997  28.569  1.00  0.00    -0.332 OA
ATOM     28  C   UNL     1     -25.439 -54.100  29.447  1.00  0.00     0.180 C 
ATOM     29  C   UNL     1     -27.658 -54.331  28.156  1.00  0.00     0.179 C 
ATOM     30  C   UNL     1     -26.113 -54.666  28.200  1.00  0.00     0.177 C 
BRANCH  26  31
ATOM     31  O   UNL     1     -24.716 -51.748  29.774  1.00  0.00    -0.384 OA
ATOM     32  H   UNL     1     -23.913 -52.323  29.636  1.00  0.00     0.211 HD
ENDBRANCH  26  31
BRANCH  28  33
ATOM     33  O   UNL     1     -25.794 -54.889  30.555  1.00  0.00    -0.387 OA
ATOM     34  H   UNL     1     -25.116 -55.606  30.643  1.00  0.00     0.211 HD
ENDBRANCH  28  33
BRANCH  29  35
ATOM     35  C   UNL     1     -28.323 -54.630  26.763  1.00  0.00     0.191 C 
BRANCH  35  36
ATOM     36  O   UNL     1     -27.746 -55.737  26.070  1.00  0.00    -0.394 OA
ATOM     37  H   UNL     1     -26.815 -55.830  26.444  1.00  0.00     0.210 HD
ENDBRANCH  35  36
ENDBRANCH  29  35
BRANCH  30  38
ATOM     38  O   UNL     1     -25.497 -54.274  26.982  1.00  0.00    -0.387 OA
ATOM     39  H   UNL     1     -25.514 -53.272  26.854  1.00  0.00     0.211 HD
ENDBRANCH  30  38
ENDBRANCH   1  25
TORSDOF 11
ENDMDL
MODEL 5
REMARK VINA RESULT:    -8.059      6.745     10.237
REMARK INTER + INTRA:         -12.663
REMARK INTER:                 -11.606
REMARK INTRA:                  -1.056
REMARK UNBOUND:                -1.070
REMARK SMILES O=c1cc(-c2ccc(O)c(O)c2)oc2cc(O[C@H]3O[C@@H](CO)[C@@H](O)[C@H](O)[C@H]3O)cc(O)c12
REMARK SMILES IDX 17 1 16 2 4 3 3 4 13 5 2 6 14 7 1 8 32 9 15 10 30 11 29 12
REMARK SMILES IDX 5 13 6 14 7 15 8 16 12 17 10 18 9 19 11 21 31 23 18 25 27 26
REMARK SMILES IDX 19 27 25 28 20 29 23 30 28 31 26 33 21 35 22 36 24 38
REMARK H PARENT 9 20 11 22 31 24 28 32 26 34 22 37 24 39
REMARK Flexibility Score: inf
ROOT
ATOM      1  O   UNL     1     -31.136 -50.202  34.657  1.00  0.00    -0.462 OA
ENDROOT
BRANCH   1   2
ATOM      2  C   UNL     1     -32.254 -49.360  34.566  1.00  0.00     0.130 A 
ATOM      3  C   UNL     1     -34.932 -46.757  31.603  1.00  0.00     0.138 A 
ATOM      4  C   UNL     1     -36.039 -46.829  32.466  1.00  0.00     0.100 A 
ATOM      5  O   UNL     1     -33.797 -47.348  31.933  1.00  0.00    -0.456 OA
ATOM      6  C   UNL     1     -35.911 -47.468  33.694  1.00  0.00     0.197 A 
ATOM      7  C   UNL     1     -33.653 -48.018  33.073  1.00  0.00     0.146 A 
ATOM      8  O   UNL     1     -36.819 -47.265  34.556  1.00  0.00    -0.289 OA
ATOM      9  C   UNL     1     -34.715 -48.110  34.006  1.00  0.00     0.107 A 
ATOM     10  C   UNL     1     -32.432 -48.683  33.359  1.00  0.00     0.094 A 
ATOM     11  C   UNL     1     -34.505 -48.770  35.246  1.00  0.00     0.134 A 
ATOM     12  C   UNL     1     -33.241 -49.314  35.551  1.00  0.00     0.093 A 
BRANCH   3  13
ATOM     13  C   UNL     1     -35.038 -45.984  30.340  1.00  0.00     0.021 A 
ATOM     14  C   UNL     1     -35.118 -46.648  29.092  1.00  0.00     0.016 A 
ATOM     15  C   UNL     1     -35.112 -45.930  27.890  1.00  0.00     0.051 A 
ATOM     16  C   UNL     1     -35.017 -44.525  27.913  1.00  0.00     0.157 A 
ATOM     17  C   UNL     1     -34.992 -44.572  30.353  1.00  0.00     0.062 A 
ATOM     18  C   UNL     1     -34.984 -43.844  29.145  1.00  0.00     0.158 A 
BRANCH  16  19
ATOM     19  O   UNL     1     -35.031 -43.804  26.718  1.00  0.00    -0.504 OA
ATOM     20  H   UNL     1     -34.183 -43.555  26.203  1.00  0.00     0.293 HD
ENDBRANCH  16  19
BRANCH  18  21
ATOM     21  O   UNL     1     -35.007 -42.458  29.143  1.00  0.00    -0.504 OA
ATOM     22  H   UNL     1     -34.189 -41.922  29.322  1.00  0.00     0.293 HD
ENDBRANCH  18  21
ENDBRANCH   3  13
BRANCH  11  23
ATOM     23  O   UNL     1     -35.564 -49.091  36.087  1.00  0.00    -0.507 OA
ATOM     24  H   UNL     1     -35.493 -49.002  37.101  1.00  0.00     0.293 HD
ENDBRANCH  11  23
ENDBRANCH   1   2
BRANCH   1  25
ATOM     25  C   UNL     1     -30.118 -50.457  33.664  1.00  0.00     0.339 C 
ATOM     26  C   UNL     1     -29.845 -51.996  33.510  1.00  0.00     0.214 C 
ATOM     27  O   UNL     1     -28.907 -49.773  33.963  1.00  0.00    -0.332 OA
ATOM     28  C   UNL     1     -29.036 -52.575  34.722  1.00  0.00     0.180 C 
ATOM     29  C   UNL     1     -28.223 -50.168  35.159  1.00  0.00     0.179 C 
ATOM     30  C   UNL     1     -28.750 -51.521  35.788  1.00  0.00     0.177 C 
BRANCH  26  31
ATOM     31  O   UNL     1     -31.067 -52.698  33.300  1.00  0.00    -0.384 OA
ATOM     32  H   UNL     1     -30.824 -53.573  32.887  1.00  0.00     0.211 HD
ENDBRANCH  26  31
BRANCH  28  33
ATOM     33  O   UNL     1     -27.816 -53.093  34.256  1.00  0.00    -0.387 OA
ATOM     34  H   UNL     1     -27.879 -54.082  34.282  1.00  0.00     0.211 HD
ENDBRANCH  28  33
BRANCH  29  35
ATOM     35  C   UNL     1     -28.203 -48.971  36.179  1.00  0.00     0.191 C 
BRANCH  35  36
ATOM     36  O   UNL     1     -27.803 -49.340  37.499  1.00  0.00    -0.394 OA
ATOM     37  H   UNL     1     -26.940 -48.845  37.664  1.00  0.00     0.210 HD
ENDBRANCH  35  36
ENDBRANCH  29  35
BRANCH  30  38
ATOM     38  O   UNL     1     -29.848 -51.258  36.651  1.00  0.00    -0.387 OA
ATOM     39  H   UNL     1     -29.604 -50.613  37.388  1.00  0.00     0.211 HD
ENDBRANCH  30  38
ENDBRANCH   1  25
TORSDOF 11
ENDMDL
MODEL 6
REMARK VINA RESULT:    -8.054      7.883     12.941
REMARK INTER + INTRA:         -12.656
REMARK INTER:                 -11.411
REMARK INTRA:                  -1.245
REMARK UNBOUND:                -1.070
REMARK SMILES O=c1cc(-c2ccc(O)c(O)c2)oc2cc(O[C@H]3O[C@@H](CO)[C@@H](O)[C@H](O)[C@H]3O)cc(O)c12
REMARK SMILES IDX 17 1 16 2 4 3 3 4 13 5 2 6 14 7 1 8 32 9 15 10 30 11 29 12
REMARK SMILES IDX 5 13 6 14 7 15 8 16 12 17 10 18 9 19 11 21 31 23 18 25 27 26
REMARK SMILES IDX 19 27 25 28 20 29 23 30 28 31 26 33 21 35 22 36 24 38
REMARK H PARENT 9 20 11 22 31 24 28 32 26 34 22 37 24 39
REMARK Flexibility Score: inf
ROOT
ATOM      1  O   UNL     1     -29.996 -47.989  34.904  1.00  0.00    -0.462 OA
ENDROOT
BRANCH   1   2
ATOM      2  C   UNL     1     -28.863 -48.804  34.773  1.00  0.00     0.130 A 
ATOM      3  C   UNL     1     -26.210 -51.312  31.707  1.00  0.00     0.138 A 
ATOM      4  C   UNL     1     -25.082 -51.225  32.541  1.00  0.00     0.100 A 
ATOM      5  O   UNL     1     -27.349 -50.749  32.074  1.00  0.00    -0.456 OA
ATOM      6  C   UNL     1     -25.190 -50.604  33.780  1.00  0.00     0.197 A 
ATOM      7  C   UNL     1     -27.476 -50.097  33.226  1.00  0.00     0.146 A 
ATOM      8  O   UNL     1     -24.255 -50.797  34.614  1.00  0.00    -0.289 OA
ATOM      9  C   UNL     1     -26.392 -49.993  34.132  1.00  0.00     0.107 A 
ATOM     10  C   UNL     1     -28.703 -49.462  33.553  1.00  0.00     0.094 A 
ATOM     11  C   UNL     1     -26.583 -49.353  35.385  1.00  0.00     0.134 A 
ATOM     12  C   UNL     1     -27.849 -48.840  35.730  1.00  0.00     0.093 A 
BRANCH   3  13
ATOM     13  C   UNL     1     -26.121 -52.067  30.432  1.00  0.00     0.021 A 
ATOM     14  C   UNL     1     -27.231 -52.802  29.949  1.00  0.00     0.016 A 
ATOM     15  C   UNL     1     -27.126 -53.601  28.804  1.00  0.00     0.051 A 
ATOM     16  C   UNL     1     -25.898 -53.687  28.121  1.00  0.00     0.157 A 
ATOM     17  C   UNL     1     -24.907 -52.124  29.710  1.00  0.00     0.062 A 
ATOM     18  C   UNL     1     -24.796 -52.928  28.558  1.00  0.00     0.158 A 
BRANCH  16  19
ATOM     19  O   UNL     1     -25.794 -54.467  26.967  1.00  0.00    -0.504 OA
ATOM     20  H   UNL     1     -24.969 -54.468  26.364  1.00  0.00     0.293 HD
ENDBRANCH  16  19
BRANCH  18  21
ATOM     21  O   UNL     1     -23.634 -52.941  27.802  1.00  0.00    -0.504 OA
ATOM     22  H   UNL     1     -22.765 -52.636  28.176  1.00  0.00     0.293 HD
ENDBRANCH  18  21
ENDBRANCH   3  13
BRANCH  11  23
ATOM     23  O   UNL     1     -25.508 -49.018  36.201  1.00  0.00    -0.507 OA
ATOM     24  H   UNL     1     -25.228 -49.604  36.988  1.00  0.00     0.293 HD
ENDBRANCH  11  23
ENDBRANCH   1   2
BRANCH   1  25
ATOM     25  C   UNL     1     -30.812 -47.762  36.075  1.00  0.00     0.339 C 
ATOM     26  C   UNL     1     -31.957 -48.830  36.189  1.00  0.00     0.214 C 
ATOM     27  O   UNL     1     -31.364 -46.451  36.087  1.00  0.00    -0.332 OA
ATOM     28  C   UNL     1     -33.101 -48.581  35.146  1.00  0.00     0.180 C 
ATOM     29  C   UNL     1     -32.295 -46.135  35.044  1.00  0.00     0.179 C 
ATOM     30  C   UNL     1     -32.808 -47.393  34.233  1.00  0.00     0.177 C 
BRANCH  26  31
ATOM     31  O   UNL     1     -31.420 -50.146  36.087  1.00  0.00    -0.384 OA
ATOM     32  H   UNL     1     -32.123 -50.767  36.427  1.00  0.00     0.211 HD
ENDBRANCH  26  31
BRANCH  28  33
ATOM     33  O   UNL     1     -34.305 -48.344  35.830  1.00  0.00    -0.387 OA
ATOM     34  H   UNL     1     -34.716 -49.223  36.032  1.00  0.00     0.211 HD
ENDBRANCH  28  33
BRANCH  29  35
ATOM     35  C   UNL     1     -31.702 -45.001  34.128  1.00  0.00     0.191 C 
BRANCH  35  36
ATOM     36  O   UNL     1     -30.377 -45.263  33.665  1.00  0.00    -0.394 OA
ATOM     37  H   UNL     1     -30.290 -46.268  33.658  1.00  0.00     0.210 HD
ENDBRANCH  35  36
ENDBRANCH  29  35
BRANCH  30  38
ATOM     38  O   UNL     1     -31.910 -47.686  33.173  1.00  0.00    -0.387 OA
ATOM     39  H   UNL     1     -32.333 -48.275  32.471  1.00  0.00     0.211 HD
ENDBRANCH  30  38
ENDBRANCH   1  25
TORSDOF 11
ENDMDL
MODEL 7
REMARK VINA RESULT:    -7.938      0.857      2.295
REMARK INTER + INTRA:         -12.488
REMARK INTER:                 -11.240
REMARK INTRA:                  -1.248
REMARK UNBOUND:                -1.070
REMARK SMILES O=c1cc(-c2ccc(O)c(O)c2)oc2cc(O[C@H]3O[C@@H](CO)[C@@H](O)[C@H](O)[C@H]3O)cc(O)c12
REMARK SMILES IDX 17 1 16 2 4 3 3 4 13 5 2 6 14 7 1 8 32 9 15 10 30 11 29 12
REMARK SMILES IDX 5 13 6 14 7 15 8 16 12 17 10 18 9 19 11 21 31 23 18 25 27 26
REMARK SMILES IDX 19 27 25 28 20 29 23 30 28 31 26 33 21 35 22 36 24 38
REMARK H PARENT 9 20 11 22 31 24 28 32 26 34 22 37 24 39
REMARK Flexibility Score: inf
ROOT
ATOM      1  O   UNL     1     -29.567 -48.444  23.257  1.00  0.00    -0.462 OA
ENDROOT
BRANCH   1   2
ATOM      2  C   UNL     1     -30.492 -47.396  23.372  1.00  0.00     0.130 A 
ATOM      3  C   UNL     1     -33.251 -44.957  26.400  1.00  0.00     0.138 A 
ATOM      4  C   UNL     1     -33.278 -43.840  25.547  1.00  0.00     0.100 A 
ATOM      5  O   UNL     1     -32.577 -46.040  26.050  1.00  0.00    -0.456 OA
ATOM      6  C   UNL     1     -32.650 -43.906  24.308  1.00  0.00     0.197 A 
ATOM      7  C   UNL     1     -31.917 -46.120  24.898  1.00  0.00     0.146 A 
ATOM      8  O   UNL     1     -32.937 -43.009  23.459  1.00  0.00    -0.289 OA
ATOM      9  C   UNL     1     -31.922 -45.046  23.975  1.00  0.00     0.107 A 
ATOM     10  C   UNL     1     -31.162 -47.283  24.591  1.00  0.00     0.094 A 
ATOM     11  C   UNL     1     -31.267 -45.193  22.723  1.00  0.00     0.134 A 
ATOM     12  C   UNL     1     -30.630 -46.407  22.398  1.00  0.00     0.093 A 
BRANCH   3  13
ATOM     13  C   UNL     1     -34.010 -44.923  27.674  1.00  0.00     0.021 A 
ATOM     14  C   UNL     1     -33.336 -44.785  28.913  1.00  0.00     0.016 A 
ATOM     15  C   UNL     1     -34.032 -44.858  30.125  1.00  0.00     0.051 A 
ATOM     16  C   UNL     1     -35.423 -45.079  30.123  1.00  0.00     0.157 A 
ATOM     17  C   UNL     1     -35.412 -45.096  27.684  1.00  0.00     0.062 A 
ATOM     18  C   UNL     1     -36.117 -45.172  28.902  1.00  0.00     0.158 A 
BRANCH  16  19
ATOM     19  O   UNL     1     -36.123 -45.132  31.330  1.00  0.00    -0.504 OA
ATOM     20  H   UNL     1     -36.062 -45.919  31.980  1.00  0.00     0.293 HD
ENDBRANCH  16  19
BRANCH  18  21
ATOM     21  O   UNL     1     -37.499 -45.274  28.926  1.00  0.00    -0.504 OA
ATOM     22  H   UNL     1     -38.009 -45.640  28.155  1.00  0.00     0.293 HD
ENDBRANCH  18  21
ENDBRANCH   3  13
BRANCH  11  23
ATOM     23  O   UNL     1     -31.042 -44.104  21.889  1.00  0.00    -0.507 OA
ATOM     24  H   UNL     1     -30.665 -43.224  22.243  1.00  0.00     0.293 HD
ENDBRANCH  11  23
ENDBRANCH   1   2
BRANCH   1  25
ATOM     25  C   UNL     1     -29.162 -49.162  22.071  1.00  0.00     0.339 C 
ATOM     26  C   UNL     1     -30.014 -50.467  21.873  1.00  0.00     0.214 C 
ATOM     27  O   UNL     1     -27.776 -49.483  22.096  1.00  0.00    -0.332 OA
ATOM     28  C   UNL     1     -29.610 -51.592  22.888  1.00  0.00     0.180 C 
ATOM     29  C   UNL     1     -27.343 -50.387  23.121  1.00  0.00     0.179 C 
ATOM     30  C   UNL     1     -28.524 -51.139  23.859  1.00  0.00     0.177 C 
BRANCH  26  31
ATOM     31  O   UNL     1     -31.405 -50.165  21.937  1.00  0.00    -0.384 OA
ATOM     32  H   UNL     1     -31.531 -49.305  21.447  1.00  0.00     0.211 HD
ENDBRANCH  26  31
BRANCH  28  33
ATOM     33  O   UNL     1     -29.146 -52.710  22.174  1.00  0.00    -0.387 OA
ATOM     34  H   UNL     1     -29.545 -53.518  22.586  1.00  0.00     0.211 HD
ENDBRANCH  28  33
BRANCH  29  35
ATOM     35  C   UNL     1     -26.362 -49.648  24.103  1.00  0.00     0.191 C 
BRANCH  35  36
ATOM     36  O   UNL     1     -26.885 -48.431  24.639  1.00  0.00    -0.394 OA
ATOM     37  H   UNL     1     -26.273 -47.706  24.299  1.00  0.00     0.210 HD
ENDBRANCH  35  36
ENDBRANCH  29  35
BRANCH  30  38
ATOM     38  O   UNL     1     -29.004 -50.346  24.936  1.00  0.00    -0.387 OA
ATOM     39  H   UNL     1     -28.255 -50.018  25.527  1.00  0.00     0.211 HD
ENDBRANCH  30  38
ENDBRANCH   1  25
TORSDOF 11
ENDMDL
MODEL 8
REMARK VINA RESULT:    -7.912      3.940      8.998
REMARK INTER + INTRA:         -12.450
REMARK INTER:                 -11.200
REMARK INTRA:                  -1.250
REMARK UNBOUND:                -1.070
REMARK SMILES O=c1cc(-c2ccc(O)c(O)c2)oc2cc(O[C@H]3O[C@@H](CO)[C@@H](O)[C@H](O)[C@H]3O)cc(O)c12
REMARK SMILES IDX 17 1 16 2 4 3 3 4 13 5 2 6 14 7 1 8 32 9 15 10 30 11 29 12
REMARK SMILES IDX 5 13 6 14 7 15 8 16 12 17 10 18 9 19 11 21 31 23 18 25 27 26
REMARK SMILES IDX 19 27 25 28 20 29 23 30 28 31 26 33 21 35 22 36 24 38
REMARK H PARENT 9 20 11 22 31 24 28 32 26 34 22 37 24 39
REMARK Flexibility Score: inf
ROOT
ATOM      1  O   UNL     1     -31.217 -49.605  23.192  1.00  0.00    -0.462 OA
ENDROOT
BRANCH   1   2
ATOM      2  C   UNL     1     -30.288 -50.649  23.306  1.00  0.00     0.130 A 
ATOM      3  C   UNL     1     -27.514 -53.076  26.330  1.00  0.00     0.138 A 
ATOM      4  C   UNL     1     -27.484 -54.192  25.478  1.00  0.00     0.100 A 
ATOM      5  O   UNL     1     -28.192 -51.995  25.980  1.00  0.00    -0.456 OA
ATOM      6  C   UNL     1     -28.114 -54.130  24.240  1.00  0.00     0.197 A 
ATOM      7  C   UNL     1     -28.855 -51.918  24.831  1.00  0.00     0.146 A 
ATOM      8  O   UNL     1     -27.826 -55.027  23.392  1.00  0.00    -0.289 OA
ATOM      9  C   UNL     1     -28.848 -52.993  23.908  1.00  0.00     0.107 A 
ATOM     10  C   UNL     1     -29.615 -50.759  24.523  1.00  0.00     0.094 A 
ATOM     11  C   UNL     1     -29.506 -52.850  22.658  1.00  0.00     0.134 A 
ATOM     12  C   UNL     1     -30.148 -51.638  22.332  1.00  0.00     0.093 A 
BRANCH   3  13
ATOM     13  C   UNL     1     -26.752 -53.105  27.603  1.00  0.00     0.021 A 
ATOM     14  C   UNL     1     -27.420 -53.271  28.841  1.00  0.00     0.016 A 
ATOM     15  C   UNL     1     -26.724 -53.195  30.053  1.00  0.00     0.051 A 
ATOM     16  C   UNL     1     -25.338 -52.943  30.052  1.00  0.00     0.157 A 
ATOM     17  C   UNL     1     -25.353 -52.901  27.612  1.00  0.00     0.062 A 
ATOM     18  C   UNL     1     -24.649 -52.822  28.830  1.00  0.00     0.158 A 
BRANCH  16  19
ATOM     19  O   UNL     1     -24.637 -52.887  31.258  1.00  0.00    -0.504 OA
ATOM     20  H   UNL     1     -23.645 -52.648  31.319  1.00  0.00     0.293 HD
ENDBRANCH  16  19
BRANCH  18  21
ATOM     21  O   UNL     1     -23.269 -52.690  28.853  1.00  0.00    -0.504 OA
ATOM     22  H   UNL     1     -22.722 -52.780  28.028  1.00  0.00     0.293 HD
ENDBRANCH  18  21
ENDBRANCH   3  13
BRANCH  11  23
ATOM     23  O   UNL     1     -29.728 -53.941  21.825  1.00  0.00    -0.507 OA
ATOM     24  H   UNL     1     -29.513 -53.908  20.827  1.00  0.00     0.293 HD
ENDBRANCH  11  23
ENDBRANCH   1   2
BRANCH   1  25
ATOM     25  C   UNL     1     -31.550 -48.819  22.027  1.00  0.00     0.339 C 
ATOM     26  C   UNL     1     -30.725 -47.483  21.984  1.00  0.00     0.214 C 
ATOM     27  O   UNL     1     -32.943 -48.534  21.963  1.00  0.00    -0.332 OA
ATOM     28  C   UNL     1     -31.239 -46.439  23.034  1.00  0.00     0.180 C 
ATOM     29  C   UNL     1     -33.480 -47.712  23.007  1.00  0.00     0.179 C 
ATOM     30  C   UNL     1     -32.384 -46.983  23.885  1.00  0.00     0.177 C 
BRANCH  26  31
ATOM     31  O   UNL     1     -29.335 -47.754  22.137  1.00  0.00    -0.384 OA
ATOM     32  H   UNL     1     -28.959 -47.009  22.684  1.00  0.00     0.211 HD
ENDBRANCH  26  31
BRANCH  28  33
ATOM     33  O   UNL     1     -31.680 -45.287  22.361  1.00  0.00    -0.387 OA
ATOM     34  H   UNL     1     -30.890 -44.711  22.199  1.00  0.00     0.211 HD
ENDBRANCH  28  33
BRANCH  29  35
ATOM     35  C   UNL     1     -34.512 -48.540  23.858  1.00  0.00     0.191 C 
BRANCH  35  36
ATOM     36  O   UNL     1     -34.032 -49.822  24.266  1.00  0.00    -0.394 OA
ATOM     37  H   UNL     1     -34.048 -49.803  25.274  1.00  0.00     0.210 HD
ENDBRANCH  35  36
ENDBRANCH  29  35
BRANCH  30  38
ATOM     38  O   UNL     1     -31.965 -47.835  24.942  1.00  0.00    -0.387 OA
ATOM     39  H   UNL     1     -31.843 -48.788  24.634  1.00  0.00     0.211 HD
ENDBRANCH  30  38
ENDBRANCH   1  25
TORSDOF 11
ENDMDL
MODEL 9
REMARK VINA RESULT:    -7.886      6.750     10.042
REMARK INTER + INTRA:         -12.413
REMARK INTER:                 -11.165
REMARK INTRA:                  -1.248
REMARK UNBOUND:                -1.070
REMARK SMILES O=c1cc(-c2ccc(O)c(O)c2)oc2cc(O[C@H]3O[C@@H](CO)[C@@H](O)[C@H](O)[C@H]3O)cc(O)c12
REMARK SMILES IDX 17 1 16 2 4 3 3 4 13 5 2 6 14 7 1 8 32 9 15 10 30 11 29 12
REMARK SMILES IDX 5 13 6 14 7 15 8 16 12 17 10 18 9 19 11 21 31 23 18 25 27 26
REMARK SMILES IDX 19 27 25 28 20 29 23 30 28 31 26 33 21 35 22 36 24 38
REMARK H PARENT 9 20 11 22 31 24 28 32 26 34 22 37 24 39
REMARK Flexibility Score: inf
ROOT
ATOM      1  O   UNL     1     -30.741 -49.897  34.964  1.00  0.00    -0.462 OA
ENDROOT
BRANCH   1   2
ATOM      2  C   UNL     1     -31.904 -49.130  34.801  1.00  0.00     0.130 A 
ATOM      3  C   UNL     1     -34.595 -46.767  31.653  1.00  0.00     0.138 A 
ATOM      4  C   UNL     1     -35.734 -46.891  32.466  1.00  0.00     0.100 A 
ATOM      5  O   UNL     1     -33.442 -47.278  32.050  1.00  0.00    -0.456 OA
ATOM      6  C   UNL     1     -35.626 -47.492  33.714  1.00  0.00     0.197 A 
ATOM      7  C   UNL     1     -33.311 -47.912  33.211  1.00  0.00     0.146 A 
ATOM      8  O   UNL     1     -36.585 -47.329  34.528  1.00  0.00    -0.289 OA
ATOM      9  C   UNL     1     -34.408 -48.051  34.097  1.00  0.00     0.107 A 
ATOM     10  C   UNL     1     -32.066 -48.493  33.570  1.00  0.00     0.094 A 
ATOM     11  C   UNL     1     -34.216 -48.668  35.361  1.00  0.00     0.134 A 
ATOM     12  C   UNL     1     -32.938 -49.125  35.737  1.00  0.00     0.093 A 
BRANCH   3  13
ATOM     13  C   UNL     1     -34.688 -46.031  30.368  1.00  0.00     0.021 A 
ATOM     14  C   UNL     1     -33.569 -45.333  29.852  1.00  0.00     0.016 A 
ATOM     15  C   UNL     1     -33.676 -44.549  28.697  1.00  0.00     0.051 A 
ATOM     16  C   UNL     1     -34.914 -44.442  28.035  1.00  0.00     0.157 A 
ATOM     17  C   UNL     1     -35.914 -45.954  29.668  1.00  0.00     0.062 A 
ATOM     18  C   UNL     1     -36.027 -45.165  28.505  1.00  0.00     0.158 A 
BRANCH  16  19
ATOM     19  O   UNL     1     -35.020 -43.678  26.871  1.00  0.00    -0.504 OA
ATOM     20  H   UNL     1     -35.521 -43.994  26.037  1.00  0.00     0.293 HD
ENDBRANCH  16  19
BRANCH  18  21
ATOM     21  O   UNL     1     -37.202 -45.134  27.771  1.00  0.00    -0.504 OA
ATOM     22  H   UNL     1     -38.023 -44.696  28.119  1.00  0.00     0.293 HD
ENDBRANCH  18  21
ENDBRANCH   3  13
BRANCH  11  23
ATOM     23  O   UNL     1     -35.293 -49.037  36.160  1.00  0.00    -0.507 OA
ATOM     24  H   UNL     1     -35.709 -49.968  36.106  1.00  0.00     0.293 HD
ENDBRANCH  11  23
ENDBRANCH   1   2
BRANCH   1  25
ATOM     25  C   UNL     1     -29.950 -50.089  36.157  1.00  0.00     0.339 C 
ATOM     26  C   UNL     1     -28.830 -48.995  36.282  1.00  0.00     0.214 C 
ATOM     27  O   UNL     1     -29.371 -51.388  36.202  1.00  0.00    -0.332 OA
ATOM     28  C   UNL     1     -27.656 -49.235  35.270  1.00  0.00     0.180 C 
ATOM     29  C   UNL     1     -28.409 -51.700  35.186  1.00  0.00     0.179 C 
ATOM     30  C   UNL     1     -27.902 -50.443  34.369  1.00  0.00     0.177 C 
BRANCH  26  31
ATOM     31  O   UNL     1     -29.392 -47.693  36.148  1.00  0.00    -0.384 OA
ATOM     32  H   UNL     1     -29.288 -47.246  37.034  1.00  0.00     0.211 HD
ENDBRANCH  26  31
BRANCH  28  33
ATOM     33  O   UNL     1     -26.464 -49.437  35.986  1.00  0.00    -0.387 OA
ATOM     34  H   UNL     1     -25.726 -49.509  35.330  1.00  0.00     0.211 HD
ENDBRANCH  28  33
BRANCH  29  35
ATOM     35  C   UNL     1     -28.956 -52.858  34.273  1.00  0.00     0.191 C 
BRANCH  35  36
ATOM     36  O   UNL     1     -30.215 -52.572  33.664  1.00  0.00    -0.394 OA
ATOM     37  H   UNL     1     -30.516 -51.700  34.071  1.00  0.00     0.210 HD
ENDBRANCH  35  36
ENDBRANCH  29  35
BRANCH  30  38
ATOM     38  O   UNL     1     -28.781 -50.184  33.283  1.00  0.00    -0.387 OA
ATOM     39  H   UNL     1     -28.282 -49.906  32.451  1.00  0.00     0.211 HD
ENDBRANCH  30  38
ENDBRANCH   1  25
TORSDOF 11
ENDMDL
