MODEL 1
REMARK VINA RESULT:    -2.061      0.000      0.000
REMARK INTER + INTRA:          -6.033
REMARK INTER:                  -5.195
REMARK INTRA:                  -0.838
REMARK UNBOUND:                -0.838
REMARK SMILES CCCCCCCCCCCCCCCCCCCCCCCCCCCC(=O)[O-]
REMARK SMILES IDX 15 1 16 2 17 3 18 4 19 5 20 6 21 7 22 8 23 9 24 10 25 11
REMARK SMILES IDX 26 12 27 13 28 14 29 15 30 16 14 17 13 18 12 19 11 20 10 21
REMARK SMILES IDX 9 22 8 23 7 24 6 25 5 26 4 27 3 28 2 29 1 30
REMARK H PARENT
REMARK Flexibility Score: inf
ROOT
ATOM      1  C   UNL     1      -2.097  -1.671   9.463  1.00  0.00     0.000 C 
ENDROOT
BRANCH   1   2
ATOM      2  C   UNL     1      -3.626  -1.794   9.322  1.00  0.00     0.000 C 
BRANCH   2   3
ATOM      3  C   UNL     1      -4.069  -3.213   8.932  1.00  0.00     0.000 C 
BRANCH   3   4
ATOM      4  C   UNL     1      -4.622  -4.010  10.125  1.00  0.00     0.000 C 
BRANCH   4   5
ATOM      5  C   UNL     1      -5.873  -4.825   9.757  1.00  0.00     0.000 C 
BRANCH   5   6
ATOM      6  C   UNL     1      -6.803  -4.072   8.788  1.00  0.00     0.000 C 
BRANCH   6   7
ATOM      7  C   UNL     1      -8.234  -4.630   8.788  1.00  0.00     0.000 C 
BRANCH   7   8
ATOM      8  C   UNL     1      -8.349  -5.960   9.556  1.00  0.00     0.000 C 
BRANCH   8   9
ATOM      9  C   UNL     1      -7.709  -7.135   8.801  1.00  0.00     0.000 C 
BRANCH   9  10
ATOM     10  C   UNL     1      -8.598  -8.388   8.794  1.00  0.00     0.000 C 
BRANCH  10  11
ATOM     11  C   UNL     1      -7.940  -9.532   9.579  1.00  0.00     0.000 C 
BRANCH  11  12
ATOM     12  C   UNL     1      -6.615  -9.999   8.956  1.00  0.00     0.006 C 
BRANCH  12  13
ATOM     13  C   UNL     1      -5.482 -10.106   9.983  1.00  0.00     0.053 C 
BRANCH  13  14
ATOM     14  C   UNL     1      -4.305  -9.283   9.561  1.00  0.00     0.041 C 
ATOM     15  O   UNL     1      -3.236  -9.845   9.204  1.00  0.00    -0.550 OA
ATOM     16  O   UNL     1      -4.391  -7.895   9.554  1.00  0.00    -0.550 OA
ENDBRANCH  13  14
ENDBRANCH  12  13
ENDBRANCH  11  12
ENDBRANCH  10  11
ENDBRANCH   9  10
ENDBRANCH   8   9
ENDBRANCH   7   8
ENDBRANCH   6   7
ENDBRANCH   5   6
ENDBRANCH   4   5
ENDBRANCH   3   4
ENDBRANCH   2   3
ENDBRANCH   1   2
BRANCH   1  17
ATOM     17  C   UNL     1      -1.648  -0.241   9.798  1.00  0.00     0.000 C 
BRANCH  17  18
ATOM     18  C   UNL     1      -0.130  -0.126  10.003  1.00  0.00     0.000 C 
BRANCH  18  19
ATOM     19  C   UNL     1       0.294   1.348  10.104  1.00  0.00     0.000 C 
BRANCH  19  20
ATOM     20  C   UNL     1       1.611   1.641   9.369  1.00  0.00     0.000 C 
BRANCH  20  21
ATOM     21  C   UNL     1       2.759   0.716   9.814  1.00  0.00     0.000 C 
BRANCH  21  22
ATOM     22  C   UNL     1       4.072   1.478  10.092  1.00  0.00    -0.000 C 
BRANCH  22  23
ATOM     23  C   UNL     1       3.928   3.012  10.070  1.00  0.00    -0.000 C 
BRANCH  23  24
ATOM     24  C   UNL     1       5.251   3.798  10.125  1.00  0.00    -0.000 C 
BRANCH  24  25
ATOM     25  C   UNL     1       5.147   5.287   9.730  1.00  0.00    -0.000 C 
BRANCH  25  26
ATOM     26  C   UNL     1       6.474   5.942   9.307  1.00  0.00    -0.000 C 
BRANCH  26  27
ATOM     27  C   UNL     1       6.406   6.583   7.913  1.00  0.00    -0.000 C 
BRANCH  27  28
ATOM     28  C   UNL     1       7.643   7.457   7.651  1.00  0.00    -0.000 C 
BRANCH  28  29
ATOM     29  C   UNL     1       7.993   8.359   8.843  1.00  0.00    -0.003 C 
ATOM     30  C   UNL     1       9.299   7.955   9.529  1.00  0.00     0.004 C 
ENDBRANCH  28  29
ENDBRANCH  27  28
ENDBRANCH  26  27
ENDBRANCH  25  26
ENDBRANCH  24  25
ENDBRANCH  23  24
ENDBRANCH  22  23
ENDBRANCH  21  22
ENDBRANCH  20  21
ENDBRANCH  19  20
ENDBRANCH  18  19
ENDBRANCH  17  18
ENDBRANCH   1  17
TORSDOF 26
ENDMDL
MODEL 2
REMARK VINA RESULT:    -0.689     20.516     22.311
REMARK INTER + INTRA:          -2.575
REMARK INTER:                  -1.416
REMARK INTRA:                  -1.160
REMARK UNBOUND:                -0.838
REMARK SMILES CCCCCCCCCCCCCCCCCCCCCCCCCCCC(=O)[O-]
REMARK SMILES IDX 15 1 16 2 17 3 18 4 19 5 20 6 21 7 22 8 23 9 24 10 25 11
REMARK SMILES IDX 26 12 27 13 28 14 29 15 30 16 14 17 13 18 12 19 11 20 10 21
REMARK SMILES IDX 9 22 8 23 7 24 6 25 5 26 4 27 3 28 2 29 1 30
REMARK H PARENT
REMARK Flexibility Score: inf
ROOT
ATOM      1  C   UNL     1      -0.829   1.221  -8.746  1.00  0.00     0.000 C 
ENDROOT
BRANCH   1   2
ATOM      2  C   UNL     1       0.348   1.184  -9.738  1.00  0.00     0.000 C 
BRANCH   2   3
ATOM      3  C   UNL     1       0.748  -0.249 -10.124  1.00  0.00     0.000 C 
BRANCH   3   4
ATOM      4  C   UNL     1       2.132  -0.644  -9.582  1.00  0.00     0.000 C 
BRANCH   4   5
ATOM      5  C   UNL     1       2.421  -2.145  -9.751  1.00  0.00     0.000 C 
BRANCH   5   6
ATOM      6  C   UNL     1       3.918  -2.438  -9.959  1.00  0.00     0.000 C 
BRANCH   6   7
ATOM      7  C   UNL     1       4.339  -3.802  -9.390  1.00  0.00     0.000 C 
BRANCH   7   8
ATOM      8  C   UNL     1       5.627  -4.340 -10.040  1.00  0.00     0.000 C 
BRANCH   8   9
ATOM      9  C   UNL     1       6.887  -3.610  -9.548  1.00  0.00     0.000 C 
BRANCH   9  10
ATOM     10  C   UNL     1       8.123  -4.521  -9.517  1.00  0.00     0.000 C 
BRANCH  10  11
ATOM     11  C   UNL     1       7.729  -5.971  -9.199  1.00  0.00     0.000 C 
BRANCH  11  12
ATOM     12  C   UNL     1       8.914  -6.946  -9.288  1.00  0.00     0.006 C 
BRANCH  12  13
ATOM     13  C   UNL     1       8.657  -8.260  -8.541  1.00  0.00     0.053 C 
BRANCH  13  14
ATOM     14  C   UNL     1       8.750  -9.426  -9.473  1.00  0.00     0.041 C 
ATOM     15  O   UNL     1       9.872  -9.923  -9.755  1.00  0.00    -0.550 OA
ATOM     16  O   UNL     1       7.596  -9.972 -10.025  1.00  0.00    -0.550 OA
ENDBRANCH  13  14
ENDBRANCH  12  13
ENDBRANCH  11  12
ENDBRANCH  10  11
ENDBRANCH   9  10
ENDBRANCH   8   9
ENDBRANCH   7   8
ENDBRANCH   6   7
ENDBRANCH   5   6
ENDBRANCH   4   5
ENDBRANCH   3   4
ENDBRANCH   2   3
ENDBRANCH   1   2
BRANCH   1  17
ATOM     17  C   UNL     1      -1.951   0.242  -9.122  1.00  0.00     0.000 C 
BRANCH  17  18
ATOM     18  C   UNL     1      -3.343   0.889  -9.087  1.00  0.00     0.000 C 
BRANCH  18  19
ATOM     19  C   UNL     1      -3.364   2.177  -9.926  1.00  0.00     0.000 C 
BRANCH  19  20
ATOM     20  C   UNL     1      -4.779   2.749 -10.105  1.00  0.00     0.000 C 
BRANCH  20  21
ATOM     21  C   UNL     1      -4.799   4.289 -10.125  1.00  0.00     0.000 C 
BRANCH  21  22
ATOM     22  C   UNL     1      -3.653   4.916  -9.305  1.00  0.00    -0.000 C 
BRANCH  22  23
ATOM     23  C   UNL     1      -3.698   6.455  -9.231  1.00  0.00    -0.000 C 
BRANCH  23  24
ATOM     24  C   UNL     1      -4.902   7.111  -9.933  1.00  0.00    -0.000 C 
BRANCH  24  25
ATOM     25  C   UNL     1      -5.290   8.508  -9.401  1.00  0.00    -0.000 C 
BRANCH  25  26
ATOM     26  C   UNL     1      -6.804   8.779  -9.328  1.00  0.00    -0.000 C 
BRANCH  26  27
ATOM     27  C   UNL     1      -7.491   8.024  -8.180  1.00  0.00    -0.000 C 
BRANCH  27  28
ATOM     28  C   UNL     1      -8.509   7.010  -8.725  1.00  0.00    -0.000 C 
BRANCH  28  29
ATOM     29  C   UNL     1      -9.287   7.545  -9.936  1.00  0.00    -0.003 C 
ATOM     30  C   UNL     1     -10.019   8.854  -9.639  1.00  0.00     0.004 C 
ENDBRANCH  28  29
ENDBRANCH  27  28
ENDBRANCH  26  27
ENDBRANCH  25  26
ENDBRANCH  24  25
ENDBRANCH  23  24
ENDBRANCH  22  23
ENDBRANCH  21  22
ENDBRANCH  20  21
ENDBRANCH  19  20
ENDBRANCH  18  19
ENDBRANCH  17  18
ENDBRANCH   1  17
TORSDOF 26
ENDMDL
MODEL 3
REMARK VINA RESULT:    -0.521      5.837     16.766
REMARK INTER + INTRA:          -2.152
REMARK INTER:                  -1.886
REMARK INTRA:                  -0.266
REMARK UNBOUND:                -0.838
REMARK SMILES CCCCCCCCCCCCCCCCCCCCCCCCCCCC(=O)[O-]
REMARK SMILES IDX 15 1 16 2 17 3 18 4 19 5 20 6 21 7 22 8 23 9 24 10 25 11
REMARK SMILES IDX 26 12 27 13 28 14 29 15 30 16 14 17 13 18 12 19 11 20 10 21
REMARK SMILES IDX 9 22 8 23 7 24 6 25 5 26 4 27 3 28 2 29 1 30
REMARK H PARENT
REMARK Flexibility Score: inf
ROOT
ATOM      1  C   UNL     1       0.198  -0.324   9.595  1.00  0.00     0.000 C 
ENDROOT
BRANCH   1   2
ATOM      2  C   UNL     1       1.719  -0.416   9.815  1.00  0.00     0.000 C 
BRANCH   2   3
ATOM      3  C   UNL     1       2.383   0.965   9.934  1.00  0.00     0.000 C 
BRANCH   3   4
ATOM      4  C   UNL     1       3.912   0.902   9.785  1.00  0.00     0.000 C 
BRANCH   4   5
ATOM      5  C   UNL     1       4.581   2.265  10.030  1.00  0.00     0.000 C 
BRANCH   5   6
ATOM      6  C   UNL     1       4.140   3.330   9.011  1.00  0.00     0.000 C 
BRANCH   6   7
ATOM      7  C   UNL     1       3.435   4.525   9.671  1.00  0.00     0.000 C 
BRANCH   7   8
ATOM      8  C   UNL     1       4.420   5.627  10.104  1.00  0.00     0.000 C 
BRANCH   8   9
ATOM      9  C   UNL     1       5.545   5.849   9.081  1.00  0.00     0.000 C 
BRANCH   9  10
ATOM     10  C   UNL     1       6.662   4.800   9.193  1.00  0.00     0.000 C 
BRANCH  10  11
ATOM     11  C   UNL     1       7.930   5.414   9.804  1.00  0.00     0.000 C 
BRANCH  11  12
ATOM     12  C   UNL     1       7.838   6.939   9.966  1.00  0.00     0.006 C 
BRANCH  12  13
ATOM     13  C   UNL     1       8.622   7.697   8.888  1.00  0.00     0.053 C 
BRANCH  13  14
ATOM     14  C   UNL     1       8.631   9.166   9.175  1.00  0.00     0.041 C 
ATOM     15  O   UNL     1       7.577   9.842   9.051  1.00  0.00    -0.550 OA
ATOM     16  O   UNL     1       9.805   9.788   9.588  1.00  0.00    -0.550 OA
ENDBRANCH  13  14
ENDBRANCH  12  13
ENDBRANCH  11  12
ENDBRANCH  10  11
ENDBRANCH   9  10
ENDBRANCH   8   9
ENDBRANCH   7   8
ENDBRANCH   6   7
ENDBRANCH   5   6
ENDBRANCH   4   5
ENDBRANCH   3   4
ENDBRANCH   2   3
ENDBRANCH   1   2
BRANCH   1  17
ATOM     17  C   UNL     1      -0.493  -1.694   9.659  1.00  0.00     0.000 C 
BRANCH  17  18
ATOM     18  C   UNL     1      -2.016  -1.586   9.824  1.00  0.00     0.000 C 
BRANCH  18  19
ATOM     19  C   UNL     1      -2.739  -2.263   8.648  1.00  0.00     0.000 C 
BRANCH  19  20
ATOM     20  C   UNL     1      -2.959  -3.767   8.871  1.00  0.00     0.000 C 
BRANCH  20  21
ATOM     21  C   UNL     1      -3.942  -4.060  10.020  1.00  0.00     0.000 C 
BRANCH  21  22
ATOM     22  C   UNL     1      -4.318  -5.553  10.125  1.00  0.00    -0.000 C 
BRANCH  22  23
ATOM     23  C   UNL     1      -5.101  -6.092   8.912  1.00  0.00    -0.000 C 
BRANCH  23  24
ATOM     24  C   UNL     1      -5.092  -7.623   8.751  1.00  0.00    -0.000 C 
BRANCH  24  25
ATOM     25  C   UNL     1      -6.472  -8.304   8.871  1.00  0.00    -0.000 C 
BRANCH  25  26
ATOM     26  C   UNL     1      -7.565  -7.448   9.536  1.00  0.00    -0.000 C 
BRANCH  26  27
ATOM     27  C   UNL     1      -8.689  -7.055   8.565  1.00  0.00    -0.000 C 
BRANCH  27  28
ATOM     28  C   UNL     1     -10.066  -7.404   9.152  1.00  0.00    -0.000 C 
BRANCH  28  29
ATOM     29  C   UNL     1     -10.057  -8.727   9.933  1.00  0.00    -0.003 C 
ATOM     30  C   UNL     1      -9.562  -9.906   9.096  1.00  0.00     0.004 C 
ENDBRANCH  28  29
ENDBRANCH  27  28
ENDBRANCH  26  27
ENDBRANCH  25  26
ENDBRANCH  24  25
ENDBRANCH  23  24
ENDBRANCH  22  23
ENDBRANCH  21  22
ENDBRANCH  20  21
ENDBRANCH  19  20
ENDBRANCH  18  19
ENDBRANCH  17  18
ENDBRANCH   1  17
TORSDOF 26
ENDMDL
MODEL 4
REMARK VINA RESULT:     0.375     20.436     22.253
REMARK INTER + INTRA:           0.107
REMARK INTER:                  -2.125
REMARK INTRA:                   2.232
REMARK UNBOUND:                -0.838
REMARK SMILES CCCCCCCCCCCCCCCCCCCCCCCCCCCC(=O)[O-]
REMARK SMILES IDX 15 1 16 2 17 3 18 4 19 5 20 6 21 7 22 8 23 9 24 10 25 11
REMARK SMILES IDX 26 12 27 13 28 14 29 15 30 16 14 17 13 18 12 19 11 20 10 21
REMARK SMILES IDX 9 22 8 23 7 24 6 25 5 26 4 27 3 28 2 29 1 30
REMARK H PARENT
REMARK Flexibility Score: inf
ROOT
ATOM      1  C   UNL     1       0.526  -2.273  -9.865  1.00  0.00     0.000 C 
ENDROOT
BRANCH   1   2
ATOM      2  C   UNL     1       1.701  -3.053  -9.247  1.00  0.00     0.000 C 
BRANCH   2   3
ATOM      3  C   UNL     1       3.009  -2.866 -10.031  1.00  0.00     0.000 C 
BRANCH   3   4
ATOM      4  C   UNL     1       3.899  -4.120 -10.008  1.00  0.00     0.000 C 
BRANCH   4   5
ATOM      5  C   UNL     1       5.395  -3.781 -10.124  1.00  0.00     0.000 C 
BRANCH   5   6
ATOM      6  C   UNL     1       6.275  -4.687  -9.244  1.00  0.00     0.000 C 
BRANCH   6   7
ATOM      7  C   UNL     1       7.474  -5.269 -10.008  1.00  0.00     0.000 C 
BRANCH   7   8
ATOM      8  C   UNL     1       8.694  -5.506  -9.099  1.00  0.00     0.000 C 
BRANCH   8   9
ATOM      9  C   UNL     1       9.533  -6.716  -9.539  1.00  0.00     0.000 C 
BRANCH   9  10
ATOM     10  C   UNL     1       8.668  -7.893 -10.016  1.00  0.00     0.000 C 
BRANCH  10  11
ATOM     11  C   UNL     1       7.192  -7.480 -10.124  1.00  0.00     0.000 C 
BRANCH  11  12
ATOM     12  C   UNL     1       6.225  -8.627  -9.790  1.00  0.00     0.006 C 
BRANCH  12  13
ATOM     13  C   UNL     1       4.754  -8.215  -9.911  1.00  0.00     0.053 C 
BRANCH  13  14
ATOM     14  C   UNL     1       4.363  -7.309  -8.786  1.00  0.00     0.041 C 
ATOM     15  O   UNL     1       3.153  -7.011  -8.605  1.00  0.00    -0.550 OA
ATOM     16  O   UNL     1       5.334  -6.800  -7.931  1.00  0.00    -0.550 OA
ENDBRANCH  13  14
ENDBRANCH  12  13
ENDBRANCH  11  12
ENDBRANCH  10  11
ENDBRANCH   9  10
ENDBRANCH   8   9
ENDBRANCH   7   8
ENDBRANCH   6   7
ENDBRANCH   5   6
ENDBRANCH   4   5
ENDBRANCH   3   4
ENDBRANCH   2   3
ENDBRANCH   1   2
BRANCH   1  17
ATOM     17  C   UNL     1       0.141  -1.034  -9.042  1.00  0.00     0.000 C 
BRANCH  17  18
ATOM     18  C   UNL     1      -1.123  -0.339  -9.568  1.00  0.00     0.000 C 
BRANCH  18  19
ATOM     19  C   UNL     1      -1.011   1.186  -9.408  1.00  0.00     0.000 C 
BRANCH  19  20
ATOM     20  C   UNL     1      -2.138   1.945 -10.125  1.00  0.00     0.000 C 
BRANCH  20  21
ATOM     21  C   UNL     1      -3.537   1.411  -9.763  1.00  0.00     0.000 C 
BRANCH  21  22
ATOM     22  C   UNL     1      -4.645   2.474  -9.919  1.00  0.00    -0.000 C 
BRANCH  22  23
ATOM     23  C   UNL     1      -4.197   3.907  -9.573  1.00  0.00    -0.000 C 
BRANCH  23  24
ATOM     24  C   UNL     1      -5.131   5.027 -10.070  1.00  0.00    -0.000 C 
BRANCH  24  25
ATOM     25  C   UNL     1      -6.635   4.678 -10.063  1.00  0.00    -0.000 C 
BRANCH  25  26
ATOM     26  C   UNL     1      -7.582   5.881  -9.901  1.00  0.00    -0.000 C 
BRANCH  26  27
ATOM     27  C   UNL     1      -7.858   6.230  -8.431  1.00  0.00    -0.000 C 
BRANCH  27  28
ATOM     28  C   UNL     1      -8.378   7.670  -8.300  1.00  0.00    -0.000 C 
BRANCH  28  29
ATOM     29  C   UNL     1      -9.665   7.910  -9.102  1.00  0.00    -0.003 C 
ATOM     30  C   UNL     1      -9.645   9.231  -9.872  1.00  0.00     0.004 C 
ENDBRANCH  28  29
ENDBRANCH  27  28
ENDBRANCH  26  27
ENDBRANCH  25  26
ENDBRANCH  24  25
ENDBRANCH  23  24
ENDBRANCH  22  23
ENDBRANCH  21  22
ENDBRANCH  20  21
ENDBRANCH  19  20
ENDBRANCH  18  19
ENDBRANCH  17  18
ENDBRANCH   1  17
TORSDOF 26
ENDMDL
MODEL 5
REMARK VINA RESULT:     0.786      2.101      3.025
REMARK INTER + INTRA:           1.144
REMARK INTER:                   1.527
REMARK INTRA:                  -0.383
REMARK UNBOUND:                -0.838
REMARK SMILES CCCCCCCCCCCCCCCCCCCCCCCCCCCC(=O)[O-]
REMARK SMILES IDX 15 1 16 2 17 3 18 4 19 5 20 6 21 7 22 8 23 9 24 10 25 11
REMARK SMILES IDX 26 12 27 13 28 14 29 15 30 16 14 17 13 18 12 19 11 20 10 21
REMARK SMILES IDX 9 22 8 23 7 24 6 25 5 26 4 27 3 28 2 29 1 30
REMARK H PARENT
REMARK Flexibility Score: inf
ROOT
ATOM      1  C   UNL     1       0.097  -1.017   9.098  1.00  0.00     0.000 C 
ENDROOT
BRANCH   1   2
ATOM      2  C   UNL     1      -0.425  -2.045  10.119  1.00  0.00     0.000 C 
BRANCH   2   3
ATOM      3  C   UNL     1      -1.955  -2.181  10.088  1.00  0.00     0.000 C 
BRANCH   3   4
ATOM      4  C   UNL     1      -2.418  -3.646  10.013  1.00  0.00     0.000 C 
BRANCH   4   5
ATOM      5  C   UNL     1      -2.970  -4.016   8.627  1.00  0.00     0.000 C 
BRANCH   5   6
ATOM      6  C   UNL     1      -4.506  -3.935   8.563  1.00  0.00     0.000 C 
BRANCH   6   7
ATOM      7  C   UNL     1      -5.159  -3.973   9.953  1.00  0.00     0.000 C 
BRANCH   7   8
ATOM      8  C   UNL     1      -6.285  -5.019  10.048  1.00  0.00     0.000 C 
BRANCH   8   9
ATOM      9  C   UNL     1      -5.751  -6.458  10.125  1.00  0.00     0.000 C 
BRANCH   9  10
ATOM     10  C   UNL     1      -6.328  -7.363   9.026  1.00  0.00     0.000 C 
BRANCH  10  11
ATOM     11  C   UNL     1      -7.491  -6.670   8.300  1.00  0.00     0.000 C 
BRANCH  11  12
ATOM     12  C   UNL     1      -8.102  -7.537   7.188  1.00  0.00     0.006 C 
BRANCH  12  13
ATOM     13  C   UNL     1      -9.409  -8.214   7.616  1.00  0.00     0.053 C 
BRANCH  13  14
ATOM     14  C   UNL     1      -9.539  -8.220   9.107  1.00  0.00     0.041 C 
ATOM     15  O   UNL     1      -9.524  -9.309   9.739  1.00  0.00    -0.550 OA
ATOM     16  O   UNL     1      -9.667  -7.022   9.801  1.00  0.00    -0.550 OA
ENDBRANCH  13  14
ENDBRANCH  12  13
ENDBRANCH  11  12
ENDBRANCH  10  11
ENDBRANCH   9  10
ENDBRANCH   8   9
ENDBRANCH   7   8
ENDBRANCH   6   7
ENDBRANCH   5   6
ENDBRANCH   4   5
ENDBRANCH   3   4
ENDBRANCH   2   3
ENDBRANCH   1   2
BRANCH   1  17
ATOM     17  C   UNL     1      -0.641   0.327   9.182  1.00  0.00     0.000 C 
BRANCH  17  18
ATOM     18  C   UNL     1       0.135   1.385   9.980  1.00  0.00     0.000 C 
BRANCH  18  19
ATOM     19  C   UNL     1       1.510   1.645   9.344  1.00  0.00     0.000 C 
BRANCH  19  20
ATOM     20  C   UNL     1       2.343   2.673  10.124  1.00  0.00     0.000 C 
BRANCH  20  21
ATOM     21  C   UNL     1       3.804   2.743   9.641  1.00  0.00     0.000 C 
BRANCH  21  22
ATOM     22  C   UNL     1       4.502   4.063  10.028  1.00  0.00    -0.000 C 
BRANCH  22  23
ATOM     23  C   UNL     1       4.155   5.253   9.112  1.00  0.00    -0.000 C 
BRANCH  23  24
ATOM     24  C   UNL     1       5.138   6.436   9.169  1.00  0.00    -0.000 C 
BRANCH  24  25
ATOM     25  C   UNL     1       6.552   6.142   8.621  1.00  0.00    -0.000 C 
BRANCH  25  26
ATOM     26  C   UNL     1       7.569   5.659   9.671  1.00  0.00    -0.000 C 
BRANCH  26  27
ATOM     27  C   UNL     1       8.540   6.764  10.115  1.00  0.00    -0.000 C 
BRANCH  27  28
ATOM     28  C   UNL     1       7.901   8.152   9.950  1.00  0.00    -0.000 C 
BRANCH  28  29
ATOM     29  C   UNL     1       8.421   8.899   8.713  1.00  0.00    -0.003 C 
ATOM     30  C   UNL     1       9.872   9.355   8.863  1.00  0.00     0.004 C 
ENDBRANCH  28  29
ENDBRANCH  27  28
ENDBRANCH  26  27
ENDBRANCH  25  26
ENDBRANCH  24  25
ENDBRANCH  23  24
ENDBRANCH  22  23
ENDBRANCH  21  22
ENDBRANCH  20  21
ENDBRANCH  19  20
ENDBRANCH  18  19
ENDBRANCH  17  18
ENDBRANCH   1  17
TORSDOF 26
ENDMDL
