MODEL 1
REMARK VINA RESULT:    20.397      0.000      0.000
REMARK INTER + INTRA:          52.954
REMARK INTER:                  53.785
REMARK INTRA:                  -0.831
REMARK UNBOUND:                -0.831
REMARK SMILES CCCCCCCCCCCCCCCCCCCCCCCCCCCCCC(=O)[O-]
REMARK SMILES IDX 16 1 17 2 18 3 19 4 20 5 21 6 22 7 23 8 24 9 25 10 26 11
REMARK SMILES IDX 27 12 28 13 29 14 30 15 31 16 32 17 15 18 14 19 13 20 12 21
REMARK SMILES IDX 11 22 10 23 9 24 8 25 7 26 6 27 5 28 4 29 3 30 2 31 1 32
REMARK H PARENT
REMARK Flexibility Score: inf
ROOT
ATOM      1  C   UNL     1       2.754  -3.946  10.148  1.00  0.00     0.000 C 
ENDROOT
BRANCH   1   2
ATOM      2  C   UNL     1       2.841  -2.560   9.487  1.00  0.00     0.000 C 
BRANCH   2   3
ATOM      3  C   UNL     1       2.073  -1.478  10.268  1.00  0.00     0.000 C 
BRANCH   3   4
ATOM      4  C   UNL     1       1.609  -0.271   9.428  1.00  0.00     0.000 C 
BRANCH   4   5
ATOM      5  C   UNL     1       0.556   0.632  10.100  1.00  0.00     0.000 C 
BRANCH   5   6
ATOM      6  C   UNL     1      -0.064   1.650   9.128  1.00  0.00     0.000 C 
BRANCH   6   7
ATOM      7  C   UNL     1       0.846   2.866   8.885  1.00  0.00     0.000 C 
BRANCH   7   8
ATOM      8  C   UNL     1       2.065   2.890   9.822  1.00  0.00     0.000 C 
BRANCH   8   9
ATOM      9  C   UNL     1       2.986   4.099   9.575  1.00  0.00     0.000 C 
BRANCH   9  10
ATOM     10  C   UNL     1       3.606   4.719  10.840  1.00  0.00     0.000 C 
BRANCH  10  11
ATOM     11  C   UNL     1       2.991   6.082  11.200  1.00  0.00     0.000 C 
BRANCH  11  12
ATOM     12  C   UNL     1       3.550   6.653  12.515  1.00  0.00     0.000 C 
BRANCH  12  13
ATOM     13  C   UNL     1       3.462   5.649  13.678  1.00  0.00     0.006 C 
BRANCH  13  14
ATOM     14  C   UNL     1       3.267   6.344  15.032  1.00  0.00     0.053 C 
BRANCH  14  15
ATOM     15  C   UNL     1       4.525   7.000  15.512  1.00  0.00     0.041 C 
ATOM     16  O   UNL     1       4.654   8.251  15.441  1.00  0.00    -0.550 OA
ATOM     17  O   UNL     1       5.549   6.232  16.054  1.00  0.00    -0.550 OA
ENDBRANCH  14  15
ENDBRANCH  13  14
ENDBRANCH  12  13
ENDBRANCH  11  12
ENDBRANCH  10  11
ENDBRANCH   9  10
ENDBRANCH   8   9
ENDBRANCH   7   8
ENDBRANCH   6   7
ENDBRANCH   5   6
ENDBRANCH   4   5
ENDBRANCH   3   4
ENDBRANCH   2   3
ENDBRANCH   1   2
BRANCH   1  18
ATOM     18  C   UNL     1       1.839  -4.910   9.376  1.00  0.00     0.000 C 
BRANCH  18  19
ATOM     19  C   UNL     1       0.735  -5.513  10.265  1.00  0.00     0.000 C 
BRANCH  19  20
ATOM     20  C   UNL     1      -0.020  -6.661   9.577  1.00  0.00     0.000 C 
BRANCH  20  21
ATOM     21  C   UNL     1      -0.534  -7.710  10.579  1.00  0.00     0.000 C 
BRANCH  21  22
ATOM     22  C   UNL     1       0.134  -7.592  11.959  1.00  0.00     0.000 C 
BRANCH  22  23
ATOM     23  C   UNL     1       1.537  -8.224  12.060  1.00  0.00     0.000 C 
BRANCH  23  24
ATOM     24  C   UNL     1       2.284  -8.295  10.712  1.00  0.00    -0.000 C 
BRANCH  24  25
ATOM     25  C   UNL     1       3.787  -8.560  10.890  1.00  0.00    -0.000 C 
BRANCH  25  26
ATOM     26  C   UNL     1       4.248  -8.175  12.301  1.00  0.00    -0.000 C 
BRANCH  26  27
ATOM     27  C   UNL     1       4.782  -6.734  12.333  1.00  0.00    -0.000 C 
BRANCH  27  28
ATOM     28  C   UNL     1       6.313  -6.679  12.205  1.00  0.00    -0.000 C 
BRANCH  28  29
ATOM     29  C   UNL     1       7.027  -7.086  13.508  1.00  0.00    -0.000 C 
BRANCH  29  30
ATOM     30  C   UNL     1       8.310  -6.262  13.746  1.00  0.00    -0.000 C 
BRANCH  30  31
ATOM     31  C   UNL     1       8.197  -5.280  14.925  1.00  0.00    -0.003 C 
ATOM     32  C   UNL     1       6.758  -5.068  15.390  1.00  0.00     0.004 C 
ENDBRANCH  30  31
ENDBRANCH  29  30
ENDBRANCH  28  29
ENDBRANCH  27  28
ENDBRANCH  26  27
ENDBRANCH  25  26
ENDBRANCH  24  25
ENDBRANCH  23  24
ENDBRANCH  22  23
ENDBRANCH  21  22
ENDBRANCH  20  21
ENDBRANCH  19  20
ENDBRANCH  18  19
ENDBRANCH   1  18
TORSDOF 28
ENDMDL
MODEL 2
REMARK VINA RESULT:    20.456      0.741      1.769
REMARK INTER + INTRA:          53.109
REMARK INTER:                  54.753
REMARK INTRA:                  -1.644
REMARK UNBOUND:                -0.831
REMARK SMILES CCCCCCCCCCCCCCCCCCCCCCCCCCCCCC(=O)[O-]
REMARK SMILES IDX 16 1 17 2 18 3 19 4 20 5 21 6 22 7 23 8 24 9 25 10 26 11
REMARK SMILES IDX 27 12 28 13 29 14 30 15 31 16 32 17 15 18 14 19 13 20 12 21
REMARK SMILES IDX 11 22 10 23 9 24 8 25 7 26 6 27 5 28 4 29 3 30 2 31 1 32
REMARK H PARENT
REMARK Flexibility Score: inf
ROOT
ATOM      1  C   UNL     1       2.846  -2.395  10.033  1.00  0.00     0.000 C 
ENDROOT
BRANCH   1   2
ATOM      2  C   UNL     1       1.512  -1.637   9.934  1.00  0.00     0.000 C 
BRANCH   2   3
ATOM      3  C   UNL     1       1.697  -0.111   9.860  1.00  0.00     0.000 C 
BRANCH   3   4
ATOM      4  C   UNL     1       0.396   0.712   9.964  1.00  0.00     0.000 C 
BRANCH   4   5
ATOM      5  C   UNL     1       0.191   1.760   8.854  1.00  0.00     0.000 C 
BRANCH   5   6
ATOM      6  C   UNL     1       0.644   3.169   9.273  1.00  0.00     0.000 C 
BRANCH   6   7
ATOM      7  C   UNL     1       2.092   3.474   8.854  1.00  0.00     0.000 C 
BRANCH   7   8
ATOM      8  C   UNL     1       2.803   4.427   9.830  1.00  0.00     0.000 C 
BRANCH   8   9
ATOM      9  C   UNL     1       3.774   3.698  10.776  1.00  0.00     0.000 C 
BRANCH   9  10
ATOM     10  C   UNL     1       4.600   4.613  11.698  1.00  0.00     0.000 C 
BRANCH  10  11
ATOM     11  C   UNL     1       3.937   5.982  11.931  1.00  0.00     0.000 C 
BRANCH  11  12
ATOM     12  C   UNL     1       2.811   5.922  12.978  1.00  0.00     0.000 C 
BRANCH  12  13
ATOM     13  C   UNL     1       3.297   5.382  14.336  1.00  0.00     0.006 C 
BRANCH  13  14
ATOM     14  C   UNL     1       3.272   6.458  15.430  1.00  0.00     0.053 C 
BRANCH  14  15
ATOM     15  C   UNL     1       4.604   7.123  15.593  1.00  0.00     0.041 C 
ATOM     16  O   UNL     1       5.631   6.433  15.832  1.00  0.00    -0.550 OA
ATOM     17  O   UNL     1       4.715   8.503  15.467  1.00  0.00    -0.550 OA
ENDBRANCH  14  15
ENDBRANCH  13  14
ENDBRANCH  12  13
ENDBRANCH  11  12
ENDBRANCH  10  11
ENDBRANCH   9  10
ENDBRANCH   8   9
ENDBRANCH   7   8
ENDBRANCH   6   7
ENDBRANCH   5   6
ENDBRANCH   4   5
ENDBRANCH   3   4
ENDBRANCH   2   3
ENDBRANCH   1   2
BRANCH   1  18
ATOM     18  C   UNL     1       2.708  -3.880   9.659  1.00  0.00     0.000 C 
BRANCH  18  19
ATOM     19  C   UNL     1       1.368  -4.482  10.122  1.00  0.00     0.000 C 
BRANCH  19  20
ATOM     20  C   UNL     1       0.844  -5.569   9.170  1.00  0.00     0.000 C 
BRANCH  20  21
ATOM     21  C   UNL     1      -0.556  -6.070   9.565  1.00  0.00     0.000 C 
BRANCH  21  22
ATOM     22  C   UNL     1      -0.667  -7.604   9.544  1.00  0.00     0.000 C 
BRANCH  22  23
ATOM     23  C   UNL     1      -0.208  -8.309  10.835  1.00  0.00     0.000 C 
BRANCH  23  24
ATOM     24  C   UNL     1       0.311  -7.343  11.920  1.00  0.00    -0.000 C 
BRANCH  24  25
ATOM     25  C   UNL     1       1.795  -7.572  12.246  1.00  0.00    -0.000 C 
BRANCH  25  26
ATOM     26  C   UNL     1       2.636  -7.619  10.965  1.00  0.00    -0.000 C 
BRANCH  26  27
ATOM     27  C   UNL     1       3.854  -8.541  11.136  1.00  0.00    -0.000 C 
BRANCH  27  28
ATOM     28  C   UNL     1       4.740  -8.118  12.319  1.00  0.00    -0.000 C 
BRANCH  28  29
ATOM     29  C   UNL     1       5.887  -7.186  11.890  1.00  0.00    -0.000 C 
BRANCH  29  30
ATOM     30  C   UNL     1       6.187  -6.110  12.955  1.00  0.00    -0.000 C 
BRANCH  30  31
ATOM     31  C   UNL     1       7.433  -6.417  13.803  1.00  0.00    -0.003 C 
ATOM     32  C   UNL     1       7.576  -5.496  15.012  1.00  0.00     0.004 C 
ENDBRANCH  30  31
ENDBRANCH  29  30
ENDBRANCH  28  29
ENDBRANCH  27  28
ENDBRANCH  26  27
ENDBRANCH  25  26
ENDBRANCH  24  25
ENDBRANCH  23  24
ENDBRANCH  22  23
ENDBRANCH  21  22
ENDBRANCH  20  21
ENDBRANCH  19  20
ENDBRANCH  18  19
ENDBRANCH   1  18
TORSDOF 28
ENDMDL
MODEL 3
REMARK VINA RESULT:    20.647      3.196     11.479
REMARK INTER + INTRA:          53.612
REMARK INTER:                  55.076
REMARK INTRA:                  -1.464
REMARK UNBOUND:                -0.831
REMARK SMILES CCCCCCCCCCCCCCCCCCCCCCCCCCCCCC(=O)[O-]
REMARK SMILES IDX 16 1 17 2 18 3 19 4 20 5 21 6 22 7 23 8 24 9 25 10 26 11
REMARK SMILES IDX 27 12 28 13 29 14 30 15 31 16 32 17 15 18 14 19 13 20 12 21
REMARK SMILES IDX 11 22 10 23 9 24 8 25 7 26 6 27 5 28 4 29 3 30 2 31 1 32
REMARK H PARENT
REMARK Flexibility Score: inf
ROOT
ATOM      1  C   UNL     1       1.466  -1.099  10.130  1.00  0.00     0.000 C 
ENDROOT
BRANCH   1   2
ATOM      2  C   UNL     1       2.749  -1.948  10.116  1.00  0.00     0.000 C 
BRANCH   2   3
ATOM      3  C   UNL     1       2.530  -3.349   9.517  1.00  0.00     0.000 C 
BRANCH   3   4
ATOM      4  C   UNL     1       2.688  -4.518  10.512  1.00  0.00     0.000 C 
BRANCH   4   5
ATOM      5  C   UNL     1       1.761  -5.722  10.263  1.00  0.00     0.000 C 
BRANCH   5   6
ATOM      6  C   UNL     1       1.433  -6.497  11.551  1.00  0.00     0.000 C 
BRANCH   6   7
ATOM      7  C   UNL     1       1.081  -7.970  11.281  1.00  0.00     0.000 C 
BRANCH   7   8
ATOM      8  C   UNL     1       2.238  -8.745  10.625  1.00  0.00     0.000 C 
BRANCH   8   9
ATOM      9  C   UNL     1       3.621  -8.283  11.115  1.00  0.00     0.000 C 
BRANCH   9  10
ATOM     10  C   UNL     1       3.847  -8.391  12.634  1.00  0.00     0.000 C 
BRANCH  10  11
ATOM     11  C   UNL     1       5.207  -7.825  13.078  1.00  0.00     0.000 C 
BRANCH  11  12
ATOM     12  C   UNL     1       5.830  -6.890  12.026  1.00  0.00     0.000 C 
BRANCH  12  13
ATOM     13  C   UNL     1       7.231  -6.397  12.431  1.00  0.00     0.006 C 
BRANCH  13  14
ATOM     14  C   UNL     1       7.555  -6.711  13.897  1.00  0.00     0.053 C 
BRANCH  14  15
ATOM     15  C   UNL     1       7.935  -5.483  14.664  1.00  0.00     0.041 C 
ATOM     16  O   UNL     1       9.138  -5.113  14.712  1.00  0.00    -0.550 OA
ATOM     17  O   UNL     1       6.959  -4.736  15.314  1.00  0.00    -0.550 OA
ENDBRANCH  14  15
ENDBRANCH  13  14
ENDBRANCH  12  13
ENDBRANCH  11  12
ENDBRANCH  10  11
ENDBRANCH   9  10
ENDBRANCH   8   9
ENDBRANCH   7   8
ENDBRANCH   6   7
ENDBRANCH   5   6
ENDBRANCH   4   5
ENDBRANCH   3   4
ENDBRANCH   2   3
ENDBRANCH   1   2
BRANCH   1  18
ATOM     18  C   UNL     1       1.635   0.234   9.383  1.00  0.00     0.000 C 
BRANCH  18  19
ATOM     19  C   UNL     1       0.373   1.113   9.455  1.00  0.00     0.000 C 
BRANCH  19  20
ATOM     20  C   UNL     1       0.478   2.374   8.582  1.00  0.00     0.000 C 
BRANCH  20  21
ATOM     21  C   UNL     1       1.016   3.586   9.363  1.00  0.00     0.000 C 
BRANCH  21  22
ATOM     22  C   UNL     1       2.544   3.733   9.255  1.00  0.00     0.000 C 
BRANCH  22  23
ATOM     23  C   UNL     1       3.344   3.072  10.394  1.00  0.00     0.000 C 
BRANCH  23  24
ATOM     24  C   UNL     1       4.625   3.840  10.781  1.00  0.00    -0.000 C 
BRANCH  24  25
ATOM     25  C   UNL     1       4.320   5.205  11.415  1.00  0.00    -0.000 C 
BRANCH  25  26
ATOM     26  C   UNL     1       3.705   5.035  12.810  1.00  0.00    -0.000 C 
BRANCH  26  27
ATOM     27  C   UNL     1       3.133   6.364  13.327  1.00  0.00    -0.000 C 
BRANCH  27  28
ATOM     28  C   UNL     1       2.420   6.203  14.679  1.00  0.00    -0.000 C 
BRANCH  28  29
ATOM     29  C   UNL     1       3.393   6.277  15.870  1.00  0.00    -0.000 C 
BRANCH  29  30
ATOM     30  C   UNL     1       4.728   6.949  15.486  1.00  0.00    -0.000 C 
BRANCH  30  31
ATOM     31  C   UNL     1       4.929   8.327  16.139  1.00  0.00    -0.003 C 
ATOM     32  C   UNL     1       4.501   9.483  15.239  1.00  0.00     0.004 C 
ENDBRANCH  30  31
ENDBRANCH  29  30
ENDBRANCH  28  29
ENDBRANCH  27  28
ENDBRANCH  26  27
ENDBRANCH  25  26
ENDBRANCH  24  25
ENDBRANCH  23  24
ENDBRANCH  22  23
ENDBRANCH  21  22
ENDBRANCH  20  21
ENDBRANCH  19  20
ENDBRANCH  18  19
ENDBRANCH   1  18
TORSDOF 28
ENDMDL
MODEL 4
REMARK VINA RESULT:    20.868      0.886      2.578
REMARK INTER + INTRA:          54.195
REMARK INTER:                  54.824
REMARK INTRA:                  -0.629
REMARK UNBOUND:                -0.831
REMARK SMILES CCCCCCCCCCCCCCCCCCCCCCCCCCCCCC(=O)[O-]
REMARK SMILES IDX 16 1 17 2 18 3 19 4 20 5 21 6 22 7 23 8 24 9 25 10 26 11
REMARK SMILES IDX 27 12 28 13 29 14 30 15 31 16 32 17 15 18 14 19 13 20 12 21
REMARK SMILES IDX 11 22 10 23 9 24 8 25 7 26 6 27 5 28 4 29 3 30 2 31 1 32
REMARK H PARENT
REMARK Flexibility Score: inf
ROOT
ATOM      1  C   UNL     1       2.111  -0.878  10.353  1.00  0.00     0.000 C 
ENDROOT
BRANCH   1   2
ATOM      2  C   UNL     1       1.513  -0.026   9.221  1.00  0.00     0.000 C 
BRANCH   2   3
ATOM      3  C   UNL     1       0.545   1.055   9.735  1.00  0.00     0.000 C 
BRANCH   3   4
ATOM      4  C   UNL     1       0.351   2.261   8.793  1.00  0.00     0.000 C 
BRANCH   4   5
ATOM      5  C   UNL     1       1.151   3.523   9.168  1.00  0.00     0.000 C 
BRANCH   5   6
ATOM      6  C   UNL     1       2.657   3.252   9.317  1.00  0.00     0.000 C 
BRANCH   6   7
ATOM      7  C   UNL     1       3.101   3.170  10.787  1.00  0.00     0.000 C 
BRANCH   7   8
ATOM      8  C   UNL     1       4.591   3.501  10.976  1.00  0.00     0.000 C 
BRANCH   8   9
ATOM      9  C   UNL     1       4.821   4.893  11.591  1.00  0.00     0.000 C 
BRANCH   9  10
ATOM     10  C   UNL     1       3.743   5.941  11.260  1.00  0.00     0.000 C 
BRANCH  10  11
ATOM     11  C   UNL     1       3.112   6.566  12.517  1.00  0.00     0.000 C 
BRANCH  11  12
ATOM     12  C   UNL     1       3.229   5.656  13.752  1.00  0.00     0.000 C 
BRANCH  12  13
ATOM     13  C   UNL     1       2.446   6.200  14.961  1.00  0.00     0.006 C 
BRANCH  13  14
ATOM     14  C   UNL     1       3.357   6.474  16.165  1.00  0.00     0.053 C 
BRANCH  14  15
ATOM     15  C   UNL     1       4.641   7.129  15.761  1.00  0.00     0.041 C 
ATOM     16  O   UNL     1       5.688   6.441  15.627  1.00  0.00    -0.550 OA
ATOM     17  O   UNL     1       4.680   8.497  15.515  1.00  0.00    -0.550 OA
ENDBRANCH  14  15
ENDBRANCH  13  14
ENDBRANCH  12  13
ENDBRANCH  11  12
ENDBRANCH  10  11
ENDBRANCH   9  10
ENDBRANCH   8   9
ENDBRANCH   7   8
ENDBRANCH   6   7
ENDBRANCH   5   6
ENDBRANCH   4   5
ENDBRANCH   3   4
ENDBRANCH   2   3
ENDBRANCH   1   2
BRANCH   1  18
ATOM     18  C   UNL     1       2.781  -2.160   9.833  1.00  0.00     0.000 C 
BRANCH  18  19
ATOM     19  C   UNL     1       1.890  -3.403  10.010  1.00  0.00     0.000 C 
BRANCH  19  20
ATOM     20  C   UNL     1       2.703  -4.696  10.185  1.00  0.00     0.000 C 
BRANCH  20  21
ATOM     21  C   UNL     1       1.932  -5.772  10.970  1.00  0.00     0.000 C 
BRANCH  21  22
ATOM     22  C   UNL     1       0.811  -6.424  10.144  1.00  0.00     0.000 C 
BRANCH  22  23
ATOM     23  C   UNL     1      -0.275  -7.141  10.969  1.00  0.00     0.000 C 
BRANCH  23  24
ATOM     24  C   UNL     1      -0.315  -8.667  10.750  1.00  0.00    -0.000 C 
BRANCH  24  25
ATOM     25  C   UNL     1       1.032  -9.225  10.267  1.00  0.00    -0.000 C 
BRANCH  25  26
ATOM     26  C   UNL     1       2.182  -8.713  11.144  1.00  0.00    -0.000 C 
BRANCH  26  27
ATOM     27  C   UNL     1       3.545  -9.051  10.520  1.00  0.00    -0.000 C 
BRANCH  27  28
ATOM     28  C   UNL     1       4.571  -7.924  10.719  1.00  0.00    -0.000 C 
BRANCH  28  29
ATOM     29  C   UNL     1       4.862  -7.650  12.206  1.00  0.00    -0.000 C 
BRANCH  29  30
ATOM     30  C   UNL     1       5.888  -6.513  12.395  1.00  0.00    -0.000 C 
BRANCH  30  31
ATOM     31  C   UNL     1       7.251  -6.999  12.916  1.00  0.00    -0.003 C 
ATOM     32  C   UNL     1       7.774  -6.169  14.086  1.00  0.00     0.004 C 
ENDBRANCH  30  31
ENDBRANCH  29  30
ENDBRANCH  28  29
ENDBRANCH  27  28
ENDBRANCH  26  27
ENDBRANCH  25  26
ENDBRANCH  24  25
ENDBRANCH  23  24
ENDBRANCH  22  23
ENDBRANCH  21  22
ENDBRANCH  20  21
ENDBRANCH  19  20
ENDBRANCH  18  19
ENDBRANCH   1  18
TORSDOF 28
ENDMDL
MODEL 5
REMARK VINA RESULT:    20.966      3.671     11.676
REMARK INTER + INTRA:          54.453
REMARK INTER:                  54.411
REMARK INTRA:                   0.041
REMARK UNBOUND:                -0.831
REMARK SMILES CCCCCCCCCCCCCCCCCCCCCCCCCCCCCC(=O)[O-]
REMARK SMILES IDX 16 1 17 2 18 3 19 4 20 5 21 6 22 7 23 8 24 9 25 10 26 11
REMARK SMILES IDX 27 12 28 13 29 14 30 15 31 16 32 17 15 18 14 19 13 20 12 21
REMARK SMILES IDX 11 22 10 23 9 24 8 25 7 26 6 27 5 28 4 29 3 30 2 31 1 32
REMARK H PARENT
REMARK Flexibility Score: inf
ROOT
ATOM      1  C   UNL     1       2.068  -0.933   9.404  1.00  0.00     0.000 C 
ENDROOT
BRANCH   1   2
ATOM      2  C   UNL     1       2.540  -2.089  10.303  1.00  0.00     0.000 C 
BRANCH   2   3
ATOM      3  C   UNL     1       2.574  -3.440   9.567  1.00  0.00     0.000 C 
BRANCH   3   4
ATOM      4  C   UNL     1       2.487  -4.683  10.478  1.00  0.00     0.000 C 
BRANCH   4   5
ATOM      5  C   UNL     1       1.352  -5.668  10.138  1.00  0.00     0.000 C 
BRANCH   5   6
ATOM      6  C   UNL     1       1.069  -6.665  11.274  1.00  0.00     0.000 C 
BRANCH   6   7
ATOM      7  C   UNL     1      -0.411  -7.078  11.343  1.00  0.00     0.000 C 
BRANCH   7   8
ATOM      8  C   UNL     1      -0.654  -8.504  10.820  1.00  0.00     0.000 C 
BRANCH   8   9
ATOM      9  C   UNL     1       0.521  -9.043   9.984  1.00  0.00     0.000 C 
BRANCH   9  10
ATOM     10  C   UNL     1       1.826  -9.278  10.766  1.00  0.00     0.000 C 
BRANCH  10  11
ATOM     11  C   UNL     1       3.057  -8.671  10.070  1.00  0.00     0.000 C 
BRANCH  11  12
ATOM     12  C   UNL     1       4.335  -8.792  10.918  1.00  0.00     0.000 C 
BRANCH  12  13
ATOM     13  C   UNL     1       4.151  -8.241  12.343  1.00  0.00     0.006 C 
BRANCH  13  14
ATOM     14  C   UNL     1       4.635  -6.791  12.472  1.00  0.00     0.053 C 
BRANCH  14  15
ATOM     15  C   UNL     1       6.125  -6.706  12.593  1.00  0.00     0.041 C 
ATOM     16  O   UNL     1       6.860  -7.037  11.625  1.00  0.00    -0.550 OA
ATOM     17  O   UNL     1       6.704  -6.245  13.771  1.00  0.00    -0.550 OA
ENDBRANCH  14  15
ENDBRANCH  13  14
ENDBRANCH  12  13
ENDBRANCH  11  12
ENDBRANCH  10  11
ENDBRANCH   9  10
ENDBRANCH   8   9
ENDBRANCH   7   8
ENDBRANCH   6   7
ENDBRANCH   5   6
ENDBRANCH   4   5
ENDBRANCH   3   4
ENDBRANCH   2   3
ENDBRANCH   1   2
BRANCH   1  18
ATOM     18  C   UNL     1       1.223   0.099  10.169  1.00  0.00     0.000 C 
BRANCH  18  19
ATOM     19  C   UNL     1       0.047   0.635   9.332  1.00  0.00     0.000 C 
BRANCH  19  20
ATOM     20  C   UNL     1      -0.121   2.158   9.450  1.00  0.00     0.000 C 
BRANCH  20  21
ATOM     21  C   UNL     1       1.130   2.924   8.986  1.00  0.00     0.000 C 
BRANCH  21  22
ATOM     22  C   UNL     1       2.334   2.721   9.921  1.00  0.00     0.000 C 
BRANCH  22  23
ATOM     23  C   UNL     1       3.350   3.880   9.938  1.00  0.00     0.000 C 
BRANCH  23  24
ATOM     24  C   UNL     1       4.447   3.730  11.012  1.00  0.00    -0.000 C 
BRANCH  24  25
ATOM     25  C   UNL     1       4.846   5.077  11.633  1.00  0.00    -0.000 C 
BRANCH  25  26
ATOM     26  C   UNL     1       3.610   5.850  12.108  1.00  0.00    -0.000 C 
BRANCH  26  27
ATOM     27  C   UNL     1       3.091   5.296  13.444  1.00  0.00    -0.000 C 
BRANCH  27  28
ATOM     28  C   UNL     1       2.420   6.380  14.301  1.00  0.00    -0.000 C 
BRANCH  28  29
ATOM     29  C   UNL     1       2.956   6.404  15.745  1.00  0.00    -0.000 C 
BRANCH  29  30
ATOM     30  C   UNL     1       4.458   6.057  15.810  1.00  0.00    -0.000 C 
BRANCH  30  31
ATOM     31  C   UNL     1       5.373   7.294  15.795  1.00  0.00    -0.003 C 
ATOM     32  C   UNL     1       4.620   8.591  15.509  1.00  0.00     0.004 C 
ENDBRANCH  30  31
ENDBRANCH  29  30
ENDBRANCH  28  29
ENDBRANCH  27  28
ENDBRANCH  26  27
ENDBRANCH  25  26
ENDBRANCH  24  25
ENDBRANCH  23  24
ENDBRANCH  22  23
ENDBRANCH  21  22
ENDBRANCH  20  21
ENDBRANCH  19  20
ENDBRANCH  18  19
ENDBRANCH   1  18
TORSDOF 28
ENDMDL
MODEL 6
REMARK VINA RESULT:    21.029      1.826      3.254
REMARK INTER + INTRA:          54.620
REMARK INTER:                  56.074
REMARK INTRA:                  -1.454
REMARK UNBOUND:                -0.831
REMARK SMILES CCCCCCCCCCCCCCCCCCCCCCCCCCCCCC(=O)[O-]
REMARK SMILES IDX 16 1 17 2 18 3 19 4 20 5 21 6 22 7 23 8 24 9 25 10 26 11
REMARK SMILES IDX 27 12 28 13 29 14 30 15 31 16 32 17 15 18 14 19 13 20 12 21
REMARK SMILES IDX 11 22 10 23 9 24 8 25 7 26 6 27 5 28 4 29 3 30 2 31 1 32
REMARK H PARENT
REMARK Flexibility Score: inf
ROOT
ATOM      1  C   UNL     1       1.812  -0.311   9.369  1.00  0.00     0.000 C 
ENDROOT
BRANCH   1   2
ATOM      2  C   UNL     1       0.680   0.431  10.100  1.00  0.00     0.000 C 
BRANCH   2   3
ATOM      3  C   UNL     1       0.016   1.512   9.229  1.00  0.00     0.000 C 
BRANCH   3   4
ATOM      4  C   UNL     1       0.841   2.802   9.046  1.00  0.00     0.000 C 
BRANCH   4   5
ATOM      5  C   UNL     1       2.104   2.905   9.922  1.00  0.00     0.000 C 
BRANCH   5   6
ATOM      6  C   UNL     1       3.134   3.903   9.369  1.00  0.00     0.000 C 
BRANCH   6   7
ATOM      7  C   UNL     1       4.396   3.996  10.243  1.00  0.00     0.000 C 
BRANCH   7   8
ATOM      8  C   UNL     1       4.071   4.129  11.741  1.00  0.00     0.000 C 
BRANCH   8   9
ATOM      9  C   UNL     1       3.812   5.584  12.170  1.00  0.00     0.000 C 
BRANCH   9  10
ATOM     10  C   UNL     1       3.140   5.751  13.545  1.00  0.00     0.000 C 
BRANCH  10  11
ATOM     11  C   UNL     1       3.834   6.805  14.425  1.00  0.00     0.000 C 
BRANCH  11  12
ATOM     12  C   UNL     1       4.008   6.339  15.881  1.00  0.00     0.000 C 
BRANCH  12  13
ATOM     13  C   UNL     1       2.663   6.038  16.567  1.00  0.00     0.006 C 
BRANCH  13  14
ATOM     14  C   UNL     1       2.686   4.707  17.330  1.00  0.00     0.053 C 
BRANCH  14  15
ATOM     15  C   UNL     1       1.678   4.677  18.437  1.00  0.00     0.041 C 
ATOM     16  O   UNL     1       1.332   5.745  19.008  1.00  0.00    -0.550 OA
ATOM     17  O   UNL     1       1.108   3.470  18.828  1.00  0.00    -0.550 OA
ENDBRANCH  14  15
ENDBRANCH  13  14
ENDBRANCH  12  13
ENDBRANCH  11  12
ENDBRANCH  10  11
ENDBRANCH   9  10
ENDBRANCH   8   9
ENDBRANCH   7   8
ENDBRANCH   6   7
ENDBRANCH   5   6
ENDBRANCH   4   5
ENDBRANCH   3   4
ENDBRANCH   2   3
ENDBRANCH   1   2
BRANCH   1  18
ATOM     18  C   UNL     1       2.432  -1.427  10.226  1.00  0.00     0.000 C 
BRANCH  18  19
ATOM     19  C   UNL     1       1.926  -2.826   9.827  1.00  0.00     0.000 C 
BRANCH  19  20
ATOM     20  C   UNL     1       2.954  -3.933  10.112  1.00  0.00     0.000 C 
BRANCH  20  21
ATOM     21  C   UNL     1       2.318  -5.168  10.773  1.00  0.00     0.000 C 
BRANCH  21  22
ATOM     22  C   UNL     1       1.286  -5.862   9.868  1.00  0.00     0.000 C 
BRANCH  22  23
ATOM     23  C   UNL     1       0.355  -6.859  10.586  1.00  0.00     0.000 C 
BRANCH  23  24
ATOM     24  C   UNL     1       1.103  -7.903  11.440  1.00  0.00    -0.000 C 
BRANCH  24  25
ATOM     25  C   UNL     1       2.125  -8.706  10.621  1.00  0.00    -0.000 C 
BRANCH  25  26
ATOM     26  C   UNL     1       3.558  -8.367  11.049  1.00  0.00    -0.000 C 
BRANCH  26  27
ATOM     27  C   UNL     1       3.614  -7.981  12.535  1.00  0.00    -0.000 C 
BRANCH  27  28
ATOM     28  C   UNL     1       5.056  -7.785  13.030  1.00  0.00    -0.000 C 
BRANCH  28  29
ATOM     29  C   UNL     1       5.892  -6.913  12.076  1.00  0.00    -0.000 C 
BRANCH  29  30
ATOM     30  C   UNL     1       7.243  -6.504  12.700  1.00  0.00    -0.000 C 
BRANCH  30  31
ATOM     31  C   UNL     1       7.151  -6.183  14.201  1.00  0.00    -0.003 C 
ATOM     32  C   UNL     1       8.286  -5.286  14.691  1.00  0.00     0.004 C 
ENDBRANCH  30  31
ENDBRANCH  29  30
ENDBRANCH  28  29
ENDBRANCH  27  28
ENDBRANCH  26  27
ENDBRANCH  25  26
ENDBRANCH  24  25
ENDBRANCH  23  24
ENDBRANCH  22  23
ENDBRANCH  21  22
ENDBRANCH  20  21
ENDBRANCH  19  20
ENDBRANCH  18  19
ENDBRANCH   1  18
TORSDOF 28
ENDMDL
MODEL 7
REMARK VINA RESULT:    21.116      0.959      2.411
REMARK INTER + INTRA:          54.848
REMARK INTER:                  54.828
REMARK INTRA:                   0.020
REMARK UNBOUND:                -0.831
REMARK SMILES CCCCCCCCCCCCCCCCCCCCCCCCCCCCCC(=O)[O-]
REMARK SMILES IDX 16 1 17 2 18 3 19 4 20 5 21 6 22 7 23 8 24 9 25 10 26 11
REMARK SMILES IDX 27 12 28 13 29 14 30 15 31 16 32 17 15 18 14 19 13 20 12 21
REMARK SMILES IDX 11 22 10 23 9 24 8 25 7 26 6 27 5 28 4 29 3 30 2 31 1 32
REMARK H PARENT
REMARK Flexibility Score: inf
ROOT
ATOM      1  C   UNL     1       1.569  -0.483   9.369  1.00  0.00     0.000 C 
ENDROOT
BRANCH   1   2
ATOM      2  C   UNL     1       0.360   0.072  10.140  1.00  0.00     0.000 C 
BRANCH   2   3
ATOM      3  C   UNL     1      -0.352   1.214   9.392  1.00  0.00     0.000 C 
BRANCH   3   4
ATOM      4  C   UNL     1       0.585   2.237   8.718  1.00  0.00     0.000 C 
BRANCH   4   5
ATOM      5  C   UNL     1       1.606   2.910   9.656  1.00  0.00     0.000 C 
BRANCH   5   6
ATOM      6  C   UNL     1       2.177   1.944  10.707  1.00  0.00     0.000 C 
BRANCH   6   7
ATOM      7  C   UNL     1       3.114   2.644  11.706  1.00  0.00     0.000 C 
BRANCH   7   8
ATOM      8  C   UNL     1       4.593   2.558  11.292  1.00  0.00     0.000 C 
BRANCH   8   9
ATOM      9  C   UNL     1       5.184   3.923  10.896  1.00  0.00     0.000 C 
BRANCH   9  10
ATOM     10  C   UNL     1       4.902   5.069  11.884  1.00  0.00     0.000 C 
BRANCH  10  11
ATOM     11  C   UNL     1       3.496   5.672  11.715  1.00  0.00     0.000 C 
BRANCH  11  12
ATOM     12  C   UNL     1       3.039   6.460  12.954  1.00  0.00     0.000 C 
BRANCH  12  13
ATOM     13  C   UNL     1       3.138   5.633  14.249  1.00  0.00     0.006 C 
BRANCH  13  14
ATOM     14  C   UNL     1       3.210   6.520  15.500  1.00  0.00     0.053 C 
BRANCH  14  15
ATOM     15  C   UNL     1       4.550   7.171  15.650  1.00  0.00     0.041 C 
ATOM     16  O   UNL     1       4.654   8.426  15.594  1.00  0.00    -0.550 OA
ATOM     17  O   UNL     1       5.682   6.395  15.869  1.00  0.00    -0.550 OA
ENDBRANCH  14  15
ENDBRANCH  13  14
ENDBRANCH  12  13
ENDBRANCH  11  12
ENDBRANCH  10  11
ENDBRANCH   9  10
ENDBRANCH   8   9
ENDBRANCH   7   8
ENDBRANCH   6   7
ENDBRANCH   5   6
ENDBRANCH   4   5
ENDBRANCH   3   4
ENDBRANCH   2   3
ENDBRANCH   1   2
BRANCH   1  18
ATOM     18  C   UNL     1       2.409  -1.456  10.213  1.00  0.00     0.000 C 
BRANCH  18  19
ATOM     19  C   UNL     1       2.634  -2.806   9.507  1.00  0.00     0.000 C 
BRANCH  19  20
ATOM     20  C   UNL     1       2.446  -4.006  10.448  1.00  0.00     0.000 C 
BRANCH  20  21
ATOM     21  C   UNL     1       2.310  -5.335   9.685  1.00  0.00     0.000 C 
BRANCH  21  22
ATOM     22  C   UNL     1       1.053  -6.126  10.084  1.00  0.00     0.000 C 
BRANCH  22  23
ATOM     23  C   UNL     1       1.106  -6.772  11.482  1.00  0.00     0.000 C 
BRANCH  23  24
ATOM     24  C   UNL     1       1.444  -8.278  11.458  1.00  0.00    -0.000 C 
BRANCH  24  25
ATOM     25  C   UNL     1       2.531  -8.617  10.428  1.00  0.00    -0.000 C 
BRANCH  25  26
ATOM     26  C   UNL     1       3.924  -8.588  11.071  1.00  0.00    -0.000 C 
BRANCH  26  27
ATOM     27  C   UNL     1       3.826  -8.393  12.592  1.00  0.00    -0.000 C 
BRANCH  27  28
ATOM     28  C   UNL     1       4.934  -7.474  13.131  1.00  0.00    -0.000 C 
BRANCH  28  29
ATOM     29  C   UNL     1       5.605  -6.646  12.019  1.00  0.00    -0.000 C 
BRANCH  29  30
ATOM     30  C   UNL     1       7.140  -6.609  12.173  1.00  0.00    -0.000 C 
BRANCH  30  31
ATOM     31  C   UNL     1       7.619  -6.901  13.605  1.00  0.00    -0.003 C 
ATOM     32  C   UNL     1       7.742  -5.645  14.463  1.00  0.00     0.004 C 
ENDBRANCH  30  31
ENDBRANCH  29  30
ENDBRANCH  28  29
ENDBRANCH  27  28
ENDBRANCH  26  27
ENDBRANCH  25  26
ENDBRANCH  24  25
ENDBRANCH  23  24
ENDBRANCH  22  23
ENDBRANCH  21  22
ENDBRANCH  20  21
ENDBRANCH  19  20
ENDBRANCH  18  19
ENDBRANCH   1  18
TORSDOF 28
ENDMDL
MODEL 8
REMARK VINA RESULT:    21.214      2.341      4.972
REMARK INTER + INTRA:          55.109
REMARK INTER:                  56.736
REMARK INTRA:                  -1.627
REMARK UNBOUND:                -0.831
REMARK SMILES CCCCCCCCCCCCCCCCCCCCCCCCCCCCCC(=O)[O-]
REMARK SMILES IDX 16 1 17 2 18 3 19 4 20 5 21 6 22 7 23 8 24 9 25 10 26 11
REMARK SMILES IDX 27 12 28 13 29 14 30 15 31 16 32 17 15 18 14 19 13 20 12 21
REMARK SMILES IDX 11 22 10 23 9 24 8 25 7 26 6 27 5 28 4 29 3 30 2 31 1 32
REMARK H PARENT
REMARK Flexibility Score: inf
ROOT
ATOM      1  C   UNL     1       0.362   1.601   9.505  1.00  0.00     0.000 C 
ENDROOT
BRANCH   1   2
ATOM      2  C   UNL     1       0.989   2.933   9.063  1.00  0.00     0.000 C 
BRANCH   2   3
ATOM      3  C   UNL     1       2.508   2.987   9.306  1.00  0.00     0.000 C 
BRANCH   3   4
ATOM      4  C   UNL     1       2.999   4.208  10.111  1.00  0.00     0.000 C 
BRANCH   4   5
ATOM      5  C   UNL     1       4.426   4.090  10.678  1.00  0.00     0.000 C 
BRANCH   5   6
ATOM      6  C   UNL     1       4.636   4.937  11.945  1.00  0.00     0.000 C 
BRANCH   6   7
ATOM      7  C   UNL     1       3.371   5.709  12.356  1.00  0.00     0.000 C 
BRANCH   7   8
ATOM      8  C   UNL     1       3.055   5.575  13.856  1.00  0.00     0.000 C 
BRANCH   8   9
ATOM      9  C   UNL     1       4.098   6.266  14.751  1.00  0.00     0.000 C 
BRANCH   9  10
ATOM     10  C   UNL     1       3.641   6.543  16.195  1.00  0.00     0.000 C 
BRANCH  10  11
ATOM     11  C   UNL     1       2.921   5.343  16.834  1.00  0.00     0.000 C 
BRANCH  11  12
ATOM     12  C   UNL     1       1.790   5.770  17.784  1.00  0.00     0.000 C 
BRANCH  12  13
ATOM     13  C   UNL     1       1.631   4.813  18.980  1.00  0.00     0.006 C 
BRANCH  13  14
ATOM     14  C   UNL     1       1.701   3.340  18.557  1.00  0.00     0.053 C 
BRANCH  14  15
ATOM     15  C   UNL     1       2.803   2.607  19.258  1.00  0.00     0.041 C 
ATOM     16  O   UNL     1       2.637   2.188  20.434  1.00  0.00    -0.550 OA
ATOM     17  O   UNL     1       4.008   2.371  18.606  1.00  0.00    -0.550 OA
ENDBRANCH  14  15
ENDBRANCH  13  14
ENDBRANCH  12  13
ENDBRANCH  11  12
ENDBRANCH  10  11
ENDBRANCH   9  10
ENDBRANCH   8   9
ENDBRANCH   7   8
ENDBRANCH   6   7
ENDBRANCH   5   6
ENDBRANCH   4   5
ENDBRANCH   3   4
ENDBRANCH   2   3
ENDBRANCH   1   2
BRANCH   1  18
ATOM     18  C   UNL     1       1.198   0.385   9.073  1.00  0.00     0.000 C 
BRANCH  18  19
ATOM     19  C   UNL     1       1.798  -0.373  10.272  1.00  0.00     0.000 C 
BRANCH  19  20
ATOM     20  C   UNL     1       2.634  -1.591   9.846  1.00  0.00     0.000 C 
BRANCH  20  21
ATOM     21  C   UNL     1       1.855  -2.912   9.977  1.00  0.00     0.000 C 
BRANCH  21  22
ATOM     22  C   UNL     1       2.769  -4.148   9.933  1.00  0.00     0.000 C 
BRANCH  22  23
ATOM     23  C   UNL     1       2.326  -5.319  10.831  1.00  0.00     0.000 C 
BRANCH  23  24
ATOM     24  C   UNL     1       1.215  -6.192  10.211  1.00  0.00    -0.000 C 
BRANCH  24  25
ATOM     25  C   UNL     1       0.588  -7.153  11.233  1.00  0.00    -0.000 C 
BRANCH  25  26
ATOM     26  C   UNL     1       1.577  -8.257  11.626  1.00  0.00    -0.000 C 
BRANCH  26  27
ATOM     27  C   UNL     1       2.552  -8.560  10.478  1.00  0.00    -0.000 C 
BRANCH  27  28
ATOM     28  C   UNL     1       4.015  -8.588  10.950  1.00  0.00    -0.000 C 
BRANCH  28  29
ATOM     29  C   UNL     1       4.154  -8.278  12.452  1.00  0.00    -0.000 C 
BRANCH  29  30
ATOM     30  C   UNL     1       4.836  -6.917  12.701  1.00  0.00    -0.000 C 
BRANCH  30  31
ATOM     31  C   UNL     1       6.231  -6.805  12.062  1.00  0.00    -0.003 C 
ATOM     32  C   UNL     1       7.363  -6.860  13.084  1.00  0.00     0.004 C 
ENDBRANCH  30  31
ENDBRANCH  29  30
ENDBRANCH  28  29
ENDBRANCH  27  28
ENDBRANCH  26  27
ENDBRANCH  25  26
ENDBRANCH  24  25
ENDBRANCH  23  24
ENDBRANCH  22  23
ENDBRANCH  21  22
ENDBRANCH  20  21
ENDBRANCH  19  20
ENDBRANCH  18  19
ENDBRANCH   1  18
TORSDOF 28
ENDMDL
MODEL 9
REMARK VINA RESULT:    21.289      3.443     11.226
REMARK INTER + INTRA:          55.305
REMARK INTER:                  56.354
REMARK INTRA:                  -1.049
REMARK UNBOUND:                -0.831
REMARK SMILES CCCCCCCCCCCCCCCCCCCCCCCCCCCCCC(=O)[O-]
REMARK SMILES IDX 16 1 17 2 18 3 19 4 20 5 21 6 22 7 23 8 24 9 25 10 26 11
REMARK SMILES IDX 27 12 28 13 29 14 30 15 31 16 32 17 15 18 14 19 13 20 12 21
REMARK SMILES IDX 11 22 10 23 9 24 8 25 7 26 6 27 5 28 4 29 3 30 2 31 1 32
REMARK H PARENT
REMARK Flexibility Score: inf
ROOT
ATOM      1  C   UNL     1       2.881  -2.004  10.108  1.00  0.00     0.000 C 
ENDROOT
BRANCH   1   2
ATOM      2  C   UNL     1       1.996  -3.211   9.753  1.00  0.00     0.000 C 
BRANCH   2   3
ATOM      3  C   UNL     1       2.588  -4.547  10.237  1.00  0.00     0.000 C 
BRANCH   3   4
ATOM      4  C   UNL     1       1.556  -5.663  10.498  1.00  0.00     0.000 C 
BRANCH   4   5
ATOM      5  C   UNL     1       0.440  -5.786   9.442  1.00  0.00     0.000 C 
BRANCH   5   6
ATOM      6  C   UNL     1      -0.680  -6.751   9.868  1.00  0.00     0.000 C 
BRANCH   6   7
ATOM      7  C   UNL     1      -0.318  -7.558  11.126  1.00  0.00     0.000 C 
BRANCH   7   8
ATOM      8  C   UNL     1       0.125  -8.995  10.802  1.00  0.00     0.000 C 
BRANCH   8   9
ATOM      9  C   UNL     1       1.595  -9.080  10.352  1.00  0.00     0.000 C 
BRANCH   9  10
ATOM     10  C   UNL     1       2.559  -8.127  11.082  1.00  0.00     0.000 C 
BRANCH  10  11
ATOM     11  C   UNL     1       3.900  -8.791  11.437  1.00  0.00     0.000 C 
BRANCH  11  12
ATOM     12  C   UNL     1       4.573  -8.145  12.661  1.00  0.00     0.000 C 
BRANCH  12  13
ATOM     13  C   UNL     1       5.054  -6.710  12.380  1.00  0.00     0.006 C 
BRANCH  13  14
ATOM     14  C   UNL     1       6.559  -6.649  12.090  1.00  0.00     0.053 C 
BRANCH  14  15
ATOM     15  C   UNL     1       7.368  -6.530  13.344  1.00  0.00     0.041 C 
ATOM     16  O   UNL     1       7.041  -5.698  14.233  1.00  0.00    -0.550 OA
ATOM     17  O   UNL     1       8.475  -7.348  13.541  1.00  0.00    -0.550 OA
ENDBRANCH  14  15
ENDBRANCH  13  14
ENDBRANCH  12  13
ENDBRANCH  11  12
ENDBRANCH  10  11
ENDBRANCH   9  10
ENDBRANCH   8   9
ENDBRANCH   7   8
ENDBRANCH   6   7
ENDBRANCH   5   6
ENDBRANCH   4   5
ENDBRANCH   3   4
ENDBRANCH   2   3
ENDBRANCH   1   2
BRANCH   1  18
ATOM     18  C   UNL     1       2.276  -0.672   9.634  1.00  0.00     0.000 C 
BRANCH  18  19
ATOM     19  C   UNL     1       0.805  -0.508  10.060  1.00  0.00     0.000 C 
BRANCH  19  20
ATOM     20  C   UNL     1       0.451   0.942  10.425  1.00  0.00     0.000 C 
BRANCH  20  21
ATOM     21  C   UNL     1      -0.305   1.664   9.297  1.00  0.00     0.000 C 
BRANCH  21  22
ATOM     22  C   UNL     1       0.496   2.829   8.692  1.00  0.00     0.000 C 
BRANCH  22  23
ATOM     23  C   UNL     1       2.028   2.670   8.758  1.00  0.00     0.000 C 
BRANCH  23  24
ATOM     24  C   UNL     1       2.742   3.830   9.482  1.00  0.00    -0.000 C 
BRANCH  24  25
ATOM     25  C   UNL     1       3.503   3.359  10.731  1.00  0.00    -0.000 C 
BRANCH  25  26
ATOM     26  C   UNL     1       4.752   4.218  10.968  1.00  0.00    -0.000 C 
BRANCH  26  27
ATOM     27  C   UNL     1       4.646   4.994  12.290  1.00  0.00    -0.000 C 
BRANCH  27  28
ATOM     28  C   UNL     1       3.463   5.975  12.295  1.00  0.00    -0.000 C 
BRANCH  28  29
ATOM     29  C   UNL     1       2.710   5.981  13.638  1.00  0.00    -0.000 C 
BRANCH  29  30
ATOM     30  C   UNL     1       3.356   6.941  14.659  1.00  0.00    -0.000 C 
BRANCH  30  31
ATOM     31  C   UNL     1       4.508   6.302  15.455  1.00  0.00    -0.003 C 
ATOM     32  C   UNL     1       5.329   7.322  16.241  1.00  0.00     0.004 C 
ENDBRANCH  30  31
ENDBRANCH  29  30
ENDBRANCH  28  29
ENDBRANCH  27  28
ENDBRANCH  26  27
ENDBRANCH  25  26
ENDBRANCH  24  25
ENDBRANCH  23  24
ENDBRANCH  22  23
ENDBRANCH  21  22
ENDBRANCH  20  21
ENDBRANCH  19  20
ENDBRANCH  18  19
ENDBRANCH   1  18
TORSDOF 28
ENDMDL
