MODEL 1
REMARK VINA RESULT:    -4.606      0.000      0.000
REMARK INTER + INTRA:         -11.278
REMARK INTER:                  -8.645
REMARK INTRA:                  -2.634
REMARK UNBOUND:                -2.634
REMARK SMILES CCCCCCCCC=CCCCCCCCC(=O)[O-]
REMARK SMILES IDX 10 1 9 2 11 3 12 4 13 5 14 6 15 7 16 8 17 9 18 10 19 11
REMARK SMILES IDX 20 12 8 13 7 14 6 15 5 16 4 17 3 18 2 19 1 20
REMARK H PARENT
REMARK Flexibility Score: inf
ROOT
ATOM      1  C   UNL     1       7.033  28.983  20.020  1.00  0.00    -0.031 C 
ATOM      2  C   UNL     1       8.236  29.415  19.612  1.00  0.00    -0.031 C 
ENDROOT
BRANCH   1   3
ATOM      3  C   UNL     1       6.236  27.990  19.217  1.00  0.00     0.027 C 
BRANCH   3   4
ATOM      4  C   UNL     1       6.213  28.331  17.720  1.00  0.00     0.004 C 
BRANCH   4   5
ATOM      5  C   UNL     1       5.685  27.164  16.868  1.00  0.00     0.000 C 
BRANCH   5   6
ATOM      6  C   UNL     1       5.098  27.627  15.525  1.00  0.00     0.000 C 
BRANCH   6   7
ATOM      7  C   UNL     1       5.119  29.158  15.368  1.00  0.00     0.000 C 
BRANCH   7   8
ATOM      8  C   UNL     1       3.710  29.751  15.211  1.00  0.00     0.006 C 
BRANCH   8   9
ATOM      9  C   UNL     1       3.517  31.039  16.025  1.00  0.00     0.053 C 
BRANCH   9  10
ATOM     10  C   UNL     1       2.820  30.741  17.315  1.00  0.00     0.041 C 
ATOM     11  O   UNL     1       3.489  30.567  18.369  1.00  0.00    -0.550 OA
ATOM     12  O   UNL     1       1.438  30.611  17.348  1.00  0.00    -0.550 OA
ENDBRANCH   9  10
ENDBRANCH   8   9
ENDBRANCH   7   8
ENDBRANCH   6   7
ENDBRANCH   5   6
ENDBRANCH   4   5
ENDBRANCH   3   4
ENDBRANCH   1   3
BRANCH   2  13
ATOM     13  C   UNL     1       9.034  30.402  20.419  1.00  0.00     0.027 C 
BRANCH  13  14
ATOM     14  C   UNL     1       8.116  31.295  21.264  1.00  0.00     0.004 C 
BRANCH  14  15
ATOM     15  C   UNL     1       8.085  32.728  20.712  1.00  0.00     0.000 C 
BRANCH  15  16
ATOM     16  C   UNL     1       6.678  33.157  20.265  1.00  0.00     0.000 C 
BRANCH  16  17
ATOM     17  C   UNL     1       6.585  33.380  18.745  1.00  0.00    -0.000 C 
BRANCH  17  18
ATOM     18  C   UNL     1       6.485  32.064  17.953  1.00  0.00    -0.000 C 
BRANCH  18  19
ATOM     19  C   UNL     1       7.099  32.116  16.542  1.00  0.00    -0.003 C 
ATOM     20  C   UNL     1       8.227  31.103  16.341  1.00  0.00     0.004 C 
ENDBRANCH  18  19
ENDBRANCH  17  18
ENDBRANCH  16  17
ENDBRANCH  15  16
ENDBRANCH  14  15
ENDBRANCH  13  14
ENDBRANCH   2  13
TORSDOF 15
ENDMDL
MODEL 2
REMARK VINA RESULT:    -4.551      2.269      3.968
REMARK INTER + INTRA:         -11.176
REMARK INTER:                  -8.285
REMARK INTRA:                  -2.891
REMARK UNBOUND:                -2.634
REMARK SMILES CCCCCCCCC=CCCCCCCCC(=O)[O-]
REMARK SMILES IDX 10 1 9 2 11 3 12 4 13 5 14 6 15 7 16 8 17 9 18 10 19 11
REMARK SMILES IDX 20 12 8 13 7 14 6 15 5 16 4 17 3 18 2 19 1 20
REMARK H PARENT
REMARK Flexibility Score: inf
ROOT
ATOM      1  C   UNL     1       8.325  31.163  16.215  1.00  0.00    -0.031 C 
ATOM      2  C   UNL     1       8.095  30.622  17.421  1.00  0.00    -0.031 C 
ENDROOT
BRANCH   1   3
ATOM      3  C   UNL     1       7.213  31.389  15.226  1.00  0.00     0.027 C 
BRANCH   3   4
ATOM      4  C   UNL     1       6.391  32.646  15.545  1.00  0.00     0.004 C 
BRANCH   4   5
ATOM      5  C   UNL     1       5.129  32.321  16.362  1.00  0.00     0.000 C 
BRANCH   5   6
ATOM      6  C   UNL     1       4.006  31.714  15.505  1.00  0.00     0.000 C 
BRANCH   6   7
ATOM      7  C   UNL     1       3.576  30.320  15.997  1.00  0.00     0.000 C 
BRANCH   7   8
ATOM      8  C   UNL     1       4.248  29.186  15.206  1.00  0.00     0.006 C 
BRANCH   8   9
ATOM      9  C   UNL     1       5.232  28.372  16.059  1.00  0.00     0.053 C 
BRANCH   9  10
ATOM     10  C   UNL     1       5.500  27.044  15.423  1.00  0.00     0.041 C 
ATOM     11  O   UNL     1       5.519  25.998  16.125  1.00  0.00    -0.550 OA
ATOM     12  O   UNL     1       5.773  26.965  14.063  1.00  0.00    -0.550 OA
ENDBRANCH   9  10
ENDBRANCH   8   9
ENDBRANCH   7   8
ENDBRANCH   6   7
ENDBRANCH   5   6
ENDBRANCH   4   5
ENDBRANCH   3   4
ENDBRANCH   1   3
BRANCH   2  13
ATOM     13  C   UNL     1       9.206  30.402  18.410  1.00  0.00     0.027 C 
BRANCH  13  14
ATOM     14  C   UNL     1       8.807  30.891  19.808  1.00  0.00     0.004 C 
BRANCH  14  15
ATOM     15  C   UNL     1       7.657  31.905  19.726  1.00  0.00     0.000 C 
BRANCH  15  16
ATOM     16  C   UNL     1       6.478  31.535  20.641  1.00  0.00     0.000 C 
BRANCH  16  17
ATOM     17  C   UNL     1       5.164  31.347  19.862  1.00  0.00    -0.000 C 
BRANCH  17  18
ATOM     18  C   UNL     1       4.898  29.878  19.486  1.00  0.00    -0.000 C 
BRANCH  18  19
ATOM     19  C   UNL     1       5.664  28.848  20.337  1.00  0.00    -0.003 C 
ATOM     20  C   UNL     1       6.534  27.908  19.501  1.00  0.00     0.004 C 
ENDBRANCH  18  19
ENDBRANCH  17  18
ENDBRANCH  16  17
ENDBRANCH  15  16
ENDBRANCH  14  15
ENDBRANCH  13  14
ENDBRANCH   2  13
TORSDOF 15
ENDMDL
MODEL 3
REMARK VINA RESULT:    -4.543      2.692      3.887
REMARK INTER + INTRA:         -11.160
REMARK INTER:                  -8.179
REMARK INTRA:                  -2.981
REMARK UNBOUND:                -2.634
REMARK SMILES CCCCCCCCC=CCCCCCCCC(=O)[O-]
REMARK SMILES IDX 10 1 9 2 11 3 12 4 13 5 14 6 15 7 16 8 17 9 18 10 19 11
REMARK SMILES IDX 20 12 8 13 7 14 6 15 5 16 4 17 3 18 2 19 1 20
REMARK H PARENT
REMARK Flexibility Score: inf
ROOT
ATOM      1  C   UNL     1       6.772  29.344  19.628  1.00  0.00    -0.031 C 
ATOM      2  C   UNL     1       8.058  29.413  19.250  1.00  0.00    -0.031 C 
ENDROOT
BRANCH   1   3
ATOM      3  C   UNL     1       5.870  28.234  19.160  1.00  0.00     0.027 C 
BRANCH   3   4
ATOM      4  C   UNL     1       6.109  27.865  17.689  1.00  0.00     0.004 C 
BRANCH   4   5
ATOM      5  C   UNL     1       5.320  28.773  16.729  1.00  0.00     0.000 C 
BRANCH   5   6
ATOM      6  C   UNL     1       6.221  29.763  15.973  1.00  0.00     0.000 C 
BRANCH   6   7
ATOM      7  C   UNL     1       6.004  31.219  16.421  1.00  0.00     0.000 C 
BRANCH   7   8
ATOM      8  C   UNL     1       7.308  32.032  16.426  1.00  0.00     0.006 C 
BRANCH   8   9
ATOM      9  C   UNL     1       8.526  31.200  15.998  1.00  0.00     0.053 C 
BRANCH   9  10
ATOM     10  C   UNL     1       9.220  31.848  14.842  1.00  0.00     0.041 C 
ATOM     11  O   UNL     1      10.430  32.187  14.940  1.00  0.00    -0.550 OA
ATOM     12  O   UNL     1       8.522  32.120  13.672  1.00  0.00    -0.550 OA
ENDBRANCH   9  10
ENDBRANCH   8   9
ENDBRANCH   7   8
ENDBRANCH   6   7
ENDBRANCH   5   6
ENDBRANCH   4   5
ENDBRANCH   3   4
ENDBRANCH   1   3
BRANCH   2  13
ATOM     13  C   UNL     1       8.960  30.521  19.723  1.00  0.00     0.027 C 
BRANCH  13  14
ATOM     14  C   UNL     1       8.434  31.145  21.021  1.00  0.00     0.004 C 
BRANCH  14  15
ATOM     15  C   UNL     1       8.529  32.677  20.970  1.00  0.00     0.000 C 
BRANCH  15  16
ATOM     16  C   UNL     1       7.337  33.317  20.239  1.00  0.00     0.000 C 
BRANCH  16  17
ATOM     17  C   UNL     1       5.997  32.654  20.605  1.00  0.00    -0.000 C 
BRANCH  17  18
ATOM     18  C   UNL     1       5.034  32.554  19.409  1.00  0.00    -0.000 C 
BRANCH  18  19
ATOM     19  C   UNL     1       3.625  32.042  19.760  1.00  0.00    -0.003 C 
ATOM     20  C   UNL     1       3.135  30.941  18.818  1.00  0.00     0.004 C 
ENDBRANCH  18  19
ENDBRANCH  17  18
ENDBRANCH  16  17
ENDBRANCH  15  16
ENDBRANCH  14  15
ENDBRANCH  13  14
ENDBRANCH   2  13
TORSDOF 15
ENDMDL
MODEL 4
REMARK VINA RESULT:    -4.533      1.889      2.255
REMARK INTER + INTRA:         -11.142
REMARK INTER:                  -8.754
REMARK INTRA:                  -2.388
REMARK UNBOUND:                -2.634
REMARK SMILES CCCCCCCCC=CCCCCCCCC(=O)[O-]
REMARK SMILES IDX 10 1 9 2 11 3 12 4 13 5 14 6 15 7 16 8 17 9 18 10 19 11
REMARK SMILES IDX 20 12 8 13 7 14 6 15 5 16 4 17 3 18 2 19 1 20
REMARK H PARENT
REMARK Flexibility Score: inf
ROOT
ATOM      1  C   UNL     1       7.268  28.826  19.784  1.00  0.00    -0.031 C 
ATOM      2  C   UNL     1       8.121  29.666  19.177  1.00  0.00    -0.031 C 
ENDROOT
BRANCH   1   3
ATOM      3  C   UNL     1       6.358  27.920  18.998  1.00  0.00     0.027 C 
BRANCH   3   4
ATOM      4  C   UNL     1       5.960  28.521  17.642  1.00  0.00     0.004 C 
BRANCH   4   5
ATOM      5  C   UNL     1       5.517  27.443  16.638  1.00  0.00     0.000 C 
BRANCH   5   6
ATOM      6  C   UNL     1       5.414  27.977  15.200  1.00  0.00     0.000 C 
BRANCH   6   7
ATOM      7  C   UNL     1       5.641  29.497  15.117  1.00  0.00     0.000 C 
BRANCH   7   8
ATOM      8  C   UNL     1       4.376  30.256  14.686  1.00  0.00     0.006 C 
BRANCH   8   9
ATOM      9  C   UNL     1       4.668  31.353  13.652  1.00  0.00     0.053 C 
BRANCH   9  10
ATOM     10  C   UNL     1       4.812  32.681  14.326  1.00  0.00     0.041 C 
ATOM     11  O   UNL     1       3.877  33.134  15.039  1.00  0.00    -0.550 OA
ATOM     12  O   UNL     1       5.960  33.440  14.133  1.00  0.00    -0.550 OA
ENDBRANCH   9  10
ENDBRANCH   8   9
ENDBRANCH   7   8
ENDBRANCH   6   7
ENDBRANCH   5   6
ENDBRANCH   4   5
ENDBRANCH   3   4
ENDBRANCH   1   3
BRANCH   2  13
ATOM     13  C   UNL     1       9.033  30.567  19.963  1.00  0.00     0.027 C 
BRANCH  13  14
ATOM     14  C   UNL     1       8.261  31.317  21.055  1.00  0.00     0.004 C 
BRANCH  14  15
ATOM     15  C   UNL     1       8.543  32.826  20.989  1.00  0.00     0.000 C 
BRANCH  15  16
ATOM     16  C   UNL     1       7.326  33.632  20.509  1.00  0.00     0.000 C 
BRANCH  16  17
ATOM     17  C   UNL     1       6.036  32.793  20.486  1.00  0.00    -0.000 C 
BRANCH  17  18
ATOM     18  C   UNL     1       5.189  33.035  19.223  1.00  0.00    -0.000 C 
BRANCH  18  19
ATOM     19  C   UNL     1       5.463  32.054  18.069  1.00  0.00    -0.003 C 
ATOM     20  C   UNL     1       6.782  32.332  17.346  1.00  0.00     0.004 C 
ENDBRANCH  18  19
ENDBRANCH  17  18
ENDBRANCH  16  17
ENDBRANCH  15  16
ENDBRANCH  14  15
ENDBRANCH  13  14
ENDBRANCH   2  13
TORSDOF 15
ENDMDL
MODEL 5
REMARK VINA RESULT:    -4.500      9.557     11.596
REMARK INTER + INTRA:         -11.080
REMARK INTER:                  -8.254
REMARK INTRA:                  -2.826
REMARK UNBOUND:                -2.634
REMARK SMILES CCCCCCCCC=CCCCCCCCC(=O)[O-]
REMARK SMILES IDX 10 1 9 2 11 3 12 4 13 5 14 6 15 7 16 8 17 9 18 10 19 11
REMARK SMILES IDX 20 12 8 13 7 14 6 15 5 16 4 17 3 18 2 19 1 20
REMARK H PARENT
REMARK Flexibility Score: inf
ROOT
ATOM      1  C   UNL     1       1.884  41.270  20.158  1.00  0.00    -0.031 C 
ATOM      2  C   UNL     1       2.563  42.407  19.939  1.00  0.00    -0.031 C 
ENDROOT
BRANCH   1   3
ATOM      3  C   UNL     1       0.590  41.258  20.927  1.00  0.00     0.027 C 
BRANCH   3   4
ATOM      4  C   UNL     1      -0.104  39.889  20.885  1.00  0.00     0.004 C 
BRANCH   4   5
ATOM      5  C   UNL     1       0.843  38.774  20.409  1.00  0.00     0.000 C 
BRANCH   5   6
ATOM      6  C   UNL     1       0.589  37.435  21.122  1.00  0.00     0.000 C 
BRANCH   6   7
ATOM      7  C   UNL     1       0.244  37.615  22.611  1.00  0.00     0.000 C 
BRANCH   7   8
ATOM      8  C   UNL     1       1.496  37.686  23.500  1.00  0.00     0.006 C 
BRANCH   8   9
ATOM      9  C   UNL     1       1.488  38.904  24.436  1.00  0.00     0.053 C 
BRANCH   9  10
ATOM     10  C   UNL     1       2.084  38.546  25.761  1.00  0.00     0.041 C 
ATOM     11  O   UNL     1       2.407  37.353  26.008  1.00  0.00    -0.550 OA
ATOM     12  O   UNL     1       2.241  39.518  26.741  1.00  0.00    -0.550 OA
ENDBRANCH   9  10
ENDBRANCH   8   9
ENDBRANCH   7   8
ENDBRANCH   6   7
ENDBRANCH   5   6
ENDBRANCH   4   5
ENDBRANCH   3   4
ENDBRANCH   1   3
BRANCH   2  13
ATOM     13  C   UNL     1       3.854  42.418  19.167  1.00  0.00     0.027 C 
BRANCH  13  14
ATOM     14  C   UNL     1       4.083  41.079  18.455  1.00  0.00     0.004 C 
BRANCH  14  15
ATOM     15  C   UNL     1       5.568  40.689  18.485  1.00  0.00     0.000 C 
BRANCH  15  16
ATOM     16  C   UNL     1       6.315  41.309  19.677  1.00  0.00     0.000 C 
BRANCH  16  17
ATOM     17  C   UNL     1       6.441  40.336  20.864  1.00  0.00    -0.000 C 
BRANCH  17  18
ATOM     18  C   UNL     1       5.489  40.681  22.023  1.00  0.00    -0.000 C 
BRANCH  18  19
ATOM     19  C   UNL     1       4.318  39.698  22.206  1.00  0.00    -0.003 C 
ATOM     20  C   UNL     1       4.351  38.534  21.215  1.00  0.00     0.004 C 
ENDBRANCH  18  19
ENDBRANCH  17  18
ENDBRANCH  16  17
ENDBRANCH  15  16
ENDBRANCH  14  15
ENDBRANCH  13  14
ENDBRANCH   2  13
TORSDOF 15
ENDMDL
MODEL 6
REMARK VINA RESULT:    -4.460      1.838      4.422
REMARK INTER + INTRA:         -11.005
REMARK INTER:                  -8.310
REMARK INTRA:                  -2.695
REMARK UNBOUND:                -2.634
REMARK SMILES CCCCCCCCC=CCCCCCCCC(=O)[O-]
REMARK SMILES IDX 10 1 9 2 11 3 12 4 13 5 14 6 15 7 16 8 17 9 18 10 19 11
REMARK SMILES IDX 20 12 8 13 7 14 6 15 5 16 4 17 3 18 2 19 1 20
REMARK H PARENT
REMARK Flexibility Score: inf
ROOT
ATOM      1  C   UNL     1       6.133  32.706  20.158  1.00  0.00    -0.031 C 
ATOM      2  C   UNL     1       7.383  33.189  20.247  1.00  0.00    -0.031 C 
ENDROOT
BRANCH   1   3
ATOM      3  C   UNL     1       5.028  33.492  19.506  1.00  0.00     0.027 C 
BRANCH   3   4
ATOM      4  C   UNL     1       4.893  33.182  18.007  1.00  0.00     0.004 C 
BRANCH   4   5
ATOM      5  C   UNL     1       5.585  34.242  17.133  1.00  0.00     0.000 C 
BRANCH   5   6
ATOM      6  C   UNL     1       6.651  33.640  16.203  1.00  0.00     0.000 C 
BRANCH   6   7
ATOM      7  C   UNL     1       7.016  32.193  16.581  1.00  0.00     0.000 C 
BRANCH   7   8
ATOM      8  C   UNL     1       7.160  31.282  15.352  1.00  0.00     0.006 C 
BRANCH   8   9
ATOM      9  C   UNL     1       6.047  30.228  15.264  1.00  0.00     0.053 C 
BRANCH   9  10
ATOM     10  C   UNL     1       4.810  30.823  14.669  1.00  0.00     0.041 C 
ATOM     11  O   UNL     1       4.790  31.162  13.456  1.00  0.00    -0.550 OA
ATOM     12  O   UNL     1       3.693  31.047  15.464  1.00  0.00    -0.550 OA
ENDBRANCH   9  10
ENDBRANCH   8   9
ENDBRANCH   7   8
ENDBRANCH   6   7
ENDBRANCH   5   6
ENDBRANCH   4   5
ENDBRANCH   3   4
ENDBRANCH   1   3
BRANCH   2  13
ATOM     13  C   UNL     1       8.488  32.401  20.894  1.00  0.00     0.027 C 
BRANCH  13  14
ATOM     14  C   UNL     1       7.983  31.035  21.375  1.00  0.00     0.004 C 
BRANCH  14  15
ATOM     15  C   UNL     1       8.677  29.895  20.614  1.00  0.00     0.000 C 
BRANCH  15  16
ATOM     16  C   UNL     1       8.325  29.888  19.117  1.00  0.00     0.000 C 
BRANCH  16  17
ATOM     17  C   UNL     1       6.946  29.264  18.839  1.00  0.00    -0.000 C 
BRANCH  17  18
ATOM     18  C   UNL     1       6.690  27.989  19.663  1.00  0.00    -0.000 C 
BRANCH  18  19
ATOM     19  C   UNL     1       5.447  28.049  20.569  1.00  0.00    -0.003 C 
ATOM     20  C   UNL     1       4.723  29.395  20.507  1.00  0.00     0.004 C 
ENDBRANCH  18  19
ENDBRANCH  17  18
ENDBRANCH  16  17
ENDBRANCH  15  16
ENDBRANCH  14  15
ENDBRANCH  13  14
ENDBRANCH   2  13
TORSDOF 15
ENDMDL
MODEL 7
REMARK VINA RESULT:    -4.455      8.447     11.078
REMARK INTER + INTRA:         -10.995
REMARK INTER:                  -8.014
REMARK INTRA:                  -2.981
REMARK UNBOUND:                -2.634
REMARK SMILES CCCCCCCCC=CCCCCCCCC(=O)[O-]
REMARK SMILES IDX 10 1 9 2 11 3 12 4 13 5 14 6 15 7 16 8 17 9 18 10 19 11
REMARK SMILES IDX 20 12 8 13 7 14 6 15 5 16 4 17 3 18 2 19 1 20
REMARK H PARENT
REMARK Flexibility Score: inf
ROOT
ATOM      1  C   UNL     1       5.118  37.959  20.412  1.00  0.00    -0.031 C 
ATOM      2  C   UNL     1       4.358  37.666  19.345  1.00  0.00    -0.031 C 
ENDROOT
BRANCH   1   3
ATOM      3  C   UNL     1       6.613  38.089  20.304  1.00  0.00     0.027 C 
BRANCH   3   4
ATOM      4  C   UNL     1       7.100  39.515  20.601  1.00  0.00     0.004 C 
BRANCH   4   5
ATOM      5  C   UNL     1       6.105  40.297  21.474  1.00  0.00     0.000 C 
BRANCH   5   6
ATOM      6  C   UNL     1       5.633  41.603  20.813  1.00  0.00     0.000 C 
BRANCH   6   7
ATOM      7  C   UNL     1       4.166  41.535  20.353  1.00  0.00     0.000 C 
BRANCH   7   8
ATOM      8  C   UNL     1       3.988  41.976  18.892  1.00  0.00     0.006 C 
BRANCH   8   9
ATOM      9  C   UNL     1       5.143  41.516  17.991  1.00  0.00     0.053 C 
BRANCH   9  10
ATOM     10  C   UNL     1       4.624  41.090  16.653  1.00  0.00     0.041 C 
ATOM     11  O   UNL     1       3.384  40.957  16.469  1.00  0.00    -0.550 OA
ATOM     12  O   UNL     1       5.508  40.795  15.623  1.00  0.00    -0.550 OA
ENDBRANCH   9  10
ENDBRANCH   8   9
ENDBRANCH   7   8
ENDBRANCH   6   7
ENDBRANCH   5   6
ENDBRANCH   4   5
ENDBRANCH   3   4
ENDBRANCH   1   3
BRANCH   2  13
ATOM     13  C   UNL     1       2.863  37.541  19.453  1.00  0.00     0.027 C 
BRANCH  13  14
ATOM     14  C   UNL     1       2.161  38.750  18.822  1.00  0.00     0.004 C 
BRANCH  14  15
ATOM     15  C   UNL     1       0.637  38.555  18.811  1.00  0.00     0.000 C 
BRANCH  15  16
ATOM     16  C   UNL     1      -0.019  38.967  20.139  1.00  0.00     0.000 C 
BRANCH  16  17
ATOM     17  C   UNL     1       0.288  40.427  20.519  1.00  0.00    -0.000 C 
BRANCH  17  18
ATOM     18  C   UNL     1       0.947  40.558  21.904  1.00  0.00    -0.000 C 
BRANCH  18  19
ATOM     19  C   UNL     1       1.417  39.228  22.519  1.00  0.00    -0.003 C 
ATOM     20  C   UNL     1       2.867  39.270  23.003  1.00  0.00     0.004 C 
ENDBRANCH  18  19
ENDBRANCH  17  18
ENDBRANCH  16  17
ENDBRANCH  15  16
ENDBRANCH  14  15
ENDBRANCH  13  14
ENDBRANCH   2  13
TORSDOF 15
ENDMDL
MODEL 8
REMARK VINA RESULT:    -4.428      1.691      4.997
REMARK INTER + INTRA:         -10.944
REMARK INTER:                  -8.341
REMARK INTRA:                  -2.603
REMARK UNBOUND:                -2.634
REMARK SMILES CCCCCCCCC=CCCCCCCCC(=O)[O-]
REMARK SMILES IDX 10 1 9 2 11 3 12 4 13 5 14 6 15 7 16 8 17 9 18 10 19 11
REMARK SMILES IDX 20 12 8 13 7 14 6 15 5 16 4 17 3 18 2 19 1 20
REMARK H PARENT
REMARK Flexibility Score: inf
ROOT
ATOM      1  C   UNL     1       6.805  33.497  19.534  1.00  0.00    -0.031 C 
ATOM      2  C   UNL     1       6.420  33.198  18.283  1.00  0.00    -0.031 C 
ENDROOT
BRANCH   1   3
ATOM      3  C   UNL     1       6.994  32.431  20.578  1.00  0.00     0.027 C 
BRANCH   3   4
ATOM      4  C   UNL     1       8.476  32.125  20.842  1.00  0.00     0.004 C 
BRANCH   4   5
ATOM      5  C   UNL     1       8.856  30.695  20.423  1.00  0.00     0.000 C 
BRANCH   5   6
ATOM      6  C   UNL     1       8.909  30.518  18.896  1.00  0.00     0.000 C 
BRANCH   6   7
ATOM      7  C   UNL     1       7.752  29.656  18.361  1.00  0.00     0.000 C 
BRANCH   7   8
ATOM      8  C   UNL     1       7.183  28.708  19.430  1.00  0.00     0.006 C 
BRANCH   8   9
ATOM      9  C   UNL     1       5.649  28.646  19.408  1.00  0.00     0.053 C 
BRANCH   9  10
ATOM     10  C   UNL     1       5.092  29.039  20.741  1.00  0.00     0.041 C 
ATOM     11  O   UNL     1       3.856  29.241  20.875  1.00  0.00    -0.550 OA
ATOM     12  O   UNL     1       5.942  29.227  21.824  1.00  0.00    -0.550 OA
ENDBRANCH   9  10
ENDBRANCH   8   9
ENDBRANCH   7   8
ENDBRANCH   6   7
ENDBRANCH   5   6
ENDBRANCH   4   5
ENDBRANCH   3   4
ENDBRANCH   1   3
BRANCH   2  13
ATOM     13  C   UNL     1       6.236  34.265  17.239  1.00  0.00     0.027 C 
BRANCH  13  14
ATOM     14  C   UNL     1       6.126  33.653  15.837  1.00  0.00     0.004 C 
BRANCH  14  15
ATOM     15  C   UNL     1       7.371  32.817  15.504  1.00  0.00     0.000 C 
BRANCH  15  16
ATOM     16  C   UNL     1       7.025  31.363  15.146  1.00  0.00     0.000 C 
BRANCH  16  17
ATOM     17  C   UNL     1       5.511  31.140  14.987  1.00  0.00    -0.000 C 
BRANCH  17  18
ATOM     18  C   UNL     1       4.948  30.117  15.991  1.00  0.00    -0.000 C 
BRANCH  18  19
ATOM     19  C   UNL     1       4.499  28.784  15.365  1.00  0.00    -0.003 C 
ATOM     20  C   UNL     1       5.337  27.591  15.830  1.00  0.00     0.004 C 
ENDBRANCH  18  19
ENDBRANCH  17  18
ENDBRANCH  16  17
ENDBRANCH  15  16
ENDBRANCH  14  15
ENDBRANCH  13  14
ENDBRANCH   2  13
TORSDOF 15
ENDMDL
MODEL 9
REMARK VINA RESULT:    -4.364      1.559      5.288
REMARK INTER + INTRA:         -10.825
REMARK INTER:                  -8.356
REMARK INTRA:                  -2.468
REMARK UNBOUND:                -2.634
REMARK SMILES CCCCCCCCC=CCCCCCCCC(=O)[O-]
REMARK SMILES IDX 10 1 9 2 11 3 12 4 13 5 14 6 15 7 16 8 17 9 18 10 19 11
REMARK SMILES IDX 20 12 8 13 7 14 6 15 5 16 4 17 3 18 2 19 1 20
REMARK H PARENT
REMARK Flexibility Score: inf
ROOT
ATOM      1  C   UNL     1       7.904  30.616  16.897  1.00  0.00    -0.031 C 
ATOM      2  C   UNL     1       8.280  31.371  15.853  1.00  0.00    -0.031 C 
ENDROOT
BRANCH   1   3
ATOM      3  C   UNL     1       8.861  30.268  18.006  1.00  0.00     0.027 C 
BRANCH   3   4
ATOM      4  C   UNL     1       8.143  29.737  19.255  1.00  0.00     0.004 C 
BRANCH   4   5
ATOM      5  C   UNL     1       8.879  30.116  20.551  1.00  0.00     0.000 C 
BRANCH   5   6
ATOM      6  C   UNL     1       8.151  31.209  21.351  1.00  0.00     0.000 C 
BRANCH   6   7
ATOM      7  C   UNL     1       8.211  32.583  20.661  1.00  0.00     0.000 C 
BRANCH   7   8
ATOM      8  C   UNL     1       6.817  33.197  20.453  1.00  0.00     0.006 C 
BRANCH   8   9
ATOM      9  C   UNL     1       6.297  33.013  19.020  1.00  0.00     0.053 C 
BRANCH   9  10
ATOM     10  C   UNL     1       5.046  32.192  19.021  1.00  0.00     0.041 C 
ATOM     11  O   UNL     1       4.043  32.566  18.356  1.00  0.00    -0.550 OA
ATOM     12  O   UNL     1       4.969  31.039  19.792  1.00  0.00    -0.550 OA
ENDBRANCH   9  10
ENDBRANCH   8   9
ENDBRANCH   7   8
ENDBRANCH   6   7
ENDBRANCH   5   6
ENDBRANCH   4   5
ENDBRANCH   3   4
ENDBRANCH   1   3
BRANCH   2  13
ATOM     13  C   UNL     1       7.322  31.722  14.749  1.00  0.00     0.027 C 
BRANCH  13  14
ATOM     14  C   UNL     1       6.274  32.734  15.228  1.00  0.00     0.004 C 
BRANCH  14  15
ATOM     15  C   UNL     1       4.851  32.206  14.990  1.00  0.00     0.000 C 
BRANCH  15  16
ATOM     16  C   UNL     1       4.809  31.081  13.943  1.00  0.00     0.000 C 
BRANCH  16  17
ATOM     17  C   UNL     1       4.014  29.855  14.427  1.00  0.00    -0.000 C 
BRANCH  17  18
ATOM     18  C   UNL     1       4.400  29.418  15.851  1.00  0.00    -0.000 C 
BRANCH  18  19
ATOM     19  C   UNL     1       5.339  28.200  15.917  1.00  0.00    -0.003 C 
ATOM     20  C   UNL     1       5.469  27.469  14.579  1.00  0.00     0.004 C 
ENDBRANCH  18  19
ENDBRANCH  17  18
ENDBRANCH  16  17
ENDBRANCH  15  16
ENDBRANCH  14  15
ENDBRANCH  13  14
ENDBRANCH   2  13
TORSDOF 15
ENDMDL
