MODEL 1
REMARK VINA RESULT:    -3.335      0.000      0.000
REMARK INTER + INTRA:         -11.963
REMARK INTER:                  -7.624
REMARK INTRA:                  -4.339
REMARK UNBOUND:                -4.339
REMARK SMILES CCCCCCCCCCCCCCCCCCCCCCCC(=O)[O-]
REMARK SMILES IDX 13 1 14 2 15 3 16 4 17 5 18 6 19 7 20 8 21 9 22 10 23 11
REMARK SMILES IDX 24 12 25 13 26 14 12 15 11 16 10 17 9 18 8 19 7 20 6 21 5 22
REMARK SMILES IDX 4 23 3 24 2 25 1 26
REMARK H PARENT
REMARK Flexibility Score: inf
ROOT
ATOM      1  C   UNL     1     -18.132  22.898  43.179  1.00  0.00     0.000 C 
ENDROOT
BRANCH   1   2
ATOM      2  C   UNL     1     -17.216  23.937  42.512  1.00  0.00     0.000 C 
BRANCH   2   3
ATOM      3  C   UNL     1     -16.646  24.946  43.526  1.00  0.00     0.000 C 
BRANCH   3   4
ATOM      4  C   UNL     1     -16.771  24.457  44.978  1.00  0.00     0.000 C 
BRANCH   4   5
ATOM      5  C   UNL     1     -15.404  24.287  45.665  1.00  0.00     0.000 C 
BRANCH   5   6
ATOM      6  C   UNL     1     -15.402  23.142  46.692  1.00  0.00     0.000 C 
BRANCH   6   7
ATOM      7  C   UNL     1     -14.474  21.986  46.281  1.00  0.00     0.000 C 
BRANCH   7   8
ATOM      8  C   UNL     1     -13.486  22.393  45.177  1.00  0.00     0.000 C 
BRANCH   8   9
ATOM      9  C   UNL     1     -13.666  21.564  43.891  1.00  0.00     0.000 C 
BRANCH   9  10
ATOM     10  C   UNL     1     -13.851  22.435  42.634  1.00  0.00     0.006 C 
BRANCH  10  11
ATOM     11  C   UNL     1     -13.020  23.730  42.644  1.00  0.00     0.053 C 
BRANCH  11  12
ATOM     12  C   UNL     1     -13.396  24.663  41.536  1.00  0.00     0.041 C 
ATOM     13  O   UNL     1     -13.421  24.256  40.345  1.00  0.00    -0.550 OA
ATOM     14  O   UNL     1     -13.704  25.989  41.814  1.00  0.00    -0.550 OA
ENDBRANCH  11  12
ENDBRANCH  10  11
ENDBRANCH   9  10
ENDBRANCH   8   9
ENDBRANCH   7   8
ENDBRANCH   6   7
ENDBRANCH   5   6
ENDBRANCH   4   5
ENDBRANCH   3   4
ENDBRANCH   2   3
ENDBRANCH   1   2
BRANCH   1  15
ATOM     15  C   UNL     1     -17.608  21.461  43.013  1.00  0.00     0.000 C 
BRANCH  15  16
ATOM     16  C   UNL     1     -17.190  20.829  44.357  1.00  0.00     0.000 C 
BRANCH  16  17
ATOM     17  C   UNL     1     -18.284  19.967  45.010  1.00  0.00     0.000 C 
BRANCH  17  18
ATOM     18  C   UNL     1     -18.755  20.513  46.365  1.00  0.00    -0.000 C 
BRANCH  18  19
ATOM     19  C   UNL     1     -20.086  21.266  46.221  1.00  0.00    -0.000 C 
BRANCH  19  20
ATOM     20  C   UNL     1     -19.940  22.785  46.399  1.00  0.00    -0.000 C 
BRANCH  20  21
ATOM     21  C   UNL     1     -20.928  23.582  45.532  1.00  0.00    -0.000 C 
BRANCH  21  22
ATOM     22  C   UNL     1     -20.415  24.990  45.182  1.00  0.00    -0.000 C 
BRANCH  22  23
ATOM     23  C   UNL     1     -20.862  25.478  43.787  1.00  0.00    -0.000 C 
BRANCH  23  24
ATOM     24  C   UNL     1     -19.898  26.528  43.204  1.00  0.00    -0.000 C 
BRANCH  24  25
ATOM     25  C   UNL     1     -20.602  27.848  42.856  1.00  0.00    -0.003 C 
ATOM     26  C   UNL     1     -19.650  28.883  42.258  1.00  0.00     0.004 C 
ENDBRANCH  24  25
ENDBRANCH  23  24
ENDBRANCH  22  23
ENDBRANCH  21  22
ENDBRANCH  20  21
ENDBRANCH  19  20
ENDBRANCH  18  19
ENDBRANCH  17  18
ENDBRANCH  16  17
ENDBRANCH  15  16
ENDBRANCH   1  15
TORSDOF 22
ENDMDL
MODEL 2
REMARK VINA RESULT:    -3.297      2.541      7.114
REMARK INTER + INTRA:         -11.876
REMARK INTER:                  -8.596
REMARK INTRA:                  -3.280
REMARK UNBOUND:                -4.339
REMARK SMILES CCCCCCCCCCCCCCCCCCCCCCCC(=O)[O-]
REMARK SMILES IDX 13 1 14 2 15 3 16 4 17 5 18 6 19 7 20 8 21 9 22 10 23 11
REMARK SMILES IDX 24 12 25 13 26 14 12 15 11 16 10 17 9 18 8 19 7 20 6 21 5 22
REMARK SMILES IDX 4 23 3 24 2 25 1 26
REMARK H PARENT
REMARK Flexibility Score: inf
ROOT
ATOM      1  C   UNL     1     -19.641  20.898  45.987  1.00  0.00     0.000 C 
ENDROOT
BRANCH   1   2
ATOM      2  C   UNL     1     -20.704  21.991  46.191  1.00  0.00     0.000 C 
BRANCH   2   3
ATOM      3  C   UNL     1     -21.942  21.464  46.940  1.00  0.00     0.000 C 
BRANCH   3   4
ATOM      4  C   UNL     1     -22.816  22.596  47.503  1.00  0.00     0.000 C 
BRANCH   4   5
ATOM      5  C   UNL     1     -24.294  22.461  47.093  1.00  0.00     0.000 C 
BRANCH   5   6
ATOM      6  C   UNL     1     -24.480  22.444  45.567  1.00  0.00     0.000 C 
BRANCH   6   7
ATOM      7  C   UNL     1     -24.702  23.852  44.987  1.00  0.00     0.000 C 
BRANCH   7   8
ATOM      8  C   UNL     1     -23.439  24.412  44.312  1.00  0.00     0.000 C 
BRANCH   8   9
ATOM      9  C   UNL     1     -22.790  25.545  45.128  1.00  0.00     0.000 C 
BRANCH   9  10
ATOM     10  C   UNL     1     -21.257  25.421  45.218  1.00  0.00     0.006 C 
BRANCH  10  11
ATOM     11  C   UNL     1     -20.573  25.171  43.863  1.00  0.00     0.053 C 
BRANCH  11  12
ATOM     12  C   UNL     1     -20.044  26.428  43.246  1.00  0.00     0.041 C 
ATOM     13  O   UNL     1     -20.037  27.502  43.903  1.00  0.00    -0.550 OA
ATOM     14  O   UNL     1     -19.573  26.420  41.939  1.00  0.00    -0.550 OA
ENDBRANCH  11  12
ENDBRANCH  10  11
ENDBRANCH   9  10
ENDBRANCH   8   9
ENDBRANCH   7   8
ENDBRANCH   6   7
ENDBRANCH   5   6
ENDBRANCH   4   5
ENDBRANCH   3   4
ENDBRANCH   2   3
ENDBRANCH   1   2
BRANCH   1  15
ATOM     15  C   UNL     1     -18.289  21.474  45.531  1.00  0.00     0.000 C 
BRANCH  15  16
ATOM     16  C   UNL     1     -17.664  20.662  44.377  1.00  0.00     0.000 C 
BRANCH  16  17
ATOM     17  C   UNL     1     -17.063  21.529  43.257  1.00  0.00     0.000 C 
BRANCH  17  18
ATOM     18  C   UNL     1     -18.031  22.601  42.736  1.00  0.00    -0.000 C 
BRANCH  18  19
ATOM     19  C   UNL     1     -17.274  23.875  42.334  1.00  0.00    -0.000 C 
BRANCH  19  20
ATOM     20  C   UNL     1     -16.597  24.574  43.524  1.00  0.00    -0.000 C 
BRANCH  20  21
ATOM     21  C   UNL     1     -16.269  26.048  43.237  1.00  0.00    -0.000 C 
BRANCH  21  22
ATOM     22  C   UNL     1     -14.773  26.370  43.403  1.00  0.00    -0.000 C 
BRANCH  22  23
ATOM     23  C   UNL     1     -13.931  26.043  42.151  1.00  0.00    -0.000 C 
BRANCH  23  24
ATOM     24  C   UNL     1     -12.925  24.906  42.410  1.00  0.00    -0.000 C 
BRANCH  24  25
ATOM     25  C   UNL     1     -13.420  23.549  41.888  1.00  0.00    -0.003 C 
ATOM     26  C   UNL     1     -13.455  22.477  42.976  1.00  0.00     0.004 C 
ENDBRANCH  24  25
ENDBRANCH  23  24
ENDBRANCH  22  23
ENDBRANCH  21  22
ENDBRANCH  20  21
ENDBRANCH  19  20
ENDBRANCH  18  19
ENDBRANCH  17  18
ENDBRANCH  16  17
ENDBRANCH  15  16
ENDBRANCH   1  15
TORSDOF 22
ENDMDL
MODEL 3
REMARK VINA RESULT:    -3.249      2.411      6.454
REMARK INTER + INTRA:         -11.767
REMARK INTER:                  -7.677
REMARK INTRA:                  -4.090
REMARK UNBOUND:                -4.339
REMARK SMILES CCCCCCCCCCCCCCCCCCCCCCCC(=O)[O-]
REMARK SMILES IDX 13 1 14 2 15 3 16 4 17 5 18 6 19 7 20 8 21 9 22 10 23 11
REMARK SMILES IDX 24 12 25 13 26 14 12 15 11 16 10 17 9 18 8 19 7 20 6 21 5 22
REMARK SMILES IDX 4 23 3 24 2 25 1 26
REMARK H PARENT
REMARK Flexibility Score: inf
ROOT
ATOM      1  C   UNL     1     -19.032  22.725  46.293  1.00  0.00     0.000 C 
ENDROOT
BRANCH   1   2
ATOM      2  C   UNL     1     -20.346  23.159  46.964  1.00  0.00     0.000 C 
BRANCH   2   3
ATOM      3  C   UNL     1     -21.580  22.547  46.276  1.00  0.00     0.000 C 
BRANCH   3   4
ATOM      4  C   UNL     1     -22.423  23.596  45.534  1.00  0.00     0.000 C 
BRANCH   4   5
ATOM      5  C   UNL     1     -22.442  24.956  46.253  1.00  0.00     0.000 C 
BRANCH   5   6
ATOM      6  C   UNL     1     -22.052  26.117  45.323  1.00  0.00     0.000 C 
BRANCH   6   7
ATOM      7  C   UNL     1     -20.646  26.665  45.625  1.00  0.00     0.000 C 
BRANCH   7   8
ATOM      8  C   UNL     1     -19.566  26.024  44.738  1.00  0.00     0.000 C 
BRANCH   8   9
ATOM      9  C   UNL     1     -20.128  25.531  43.392  1.00  0.00     0.000 C 
BRANCH   9  10
ATOM     10  C   UNL     1     -19.864  26.511  42.233  1.00  0.00     0.006 C 
BRANCH  10  11
ATOM     11  C   UNL     1     -18.724  27.508  42.509  1.00  0.00     0.053 C 
BRANCH  11  12
ATOM     12  C   UNL     1     -19.156  28.932  42.348  1.00  0.00     0.041 C 
ATOM     13  O   UNL     1     -18.932  29.545  41.271  1.00  0.00    -0.550 OA
ATOM     14  O   UNL     1     -19.791  29.591  43.393  1.00  0.00    -0.550 OA
ENDBRANCH  11  12
ENDBRANCH  10  11
ENDBRANCH   9  10
ENDBRANCH   8   9
ENDBRANCH   7   8
ENDBRANCH   6   7
ENDBRANCH   5   6
ENDBRANCH   4   5
ENDBRANCH   3   4
ENDBRANCH   2   3
ENDBRANCH   1   2
BRANCH   1  15
ATOM     15  C   UNL     1     -19.269  21.812  45.078  1.00  0.00     0.000 C 
BRANCH  15  16
ATOM     16  C   UNL     1     -18.030  20.961  44.732  1.00  0.00     0.000 C 
BRANCH  16  17
ATOM     17  C   UNL     1     -17.210  21.501  43.548  1.00  0.00     0.000 C 
BRANCH  17  18
ATOM     18  C   UNL     1     -18.011  22.443  42.637  1.00  0.00    -0.000 C 
BRANCH  18  19
ATOM     19  C   UNL     1     -17.267  23.770  42.431  1.00  0.00    -0.000 C 
BRANCH  19  20
ATOM     20  C   UNL     1     -16.459  24.205  43.664  1.00  0.00    -0.000 C 
BRANCH  20  21
ATOM     21  C   UNL     1     -15.794  25.580  43.482  1.00  0.00    -0.000 C 
BRANCH  21  22
ATOM     22  C   UNL     1     -14.281  25.481  43.223  1.00  0.00    -0.000 C 
BRANCH  22  23
ATOM     23  C   UNL     1     -13.931  25.075  41.775  1.00  0.00    -0.000 C 
BRANCH  23  24
ATOM     24  C   UNL     1     -13.282  23.679  41.706  1.00  0.00    -0.000 C 
BRANCH  24  25
ATOM     25  C   UNL     1     -12.890  23.141  43.089  1.00  0.00    -0.003 C 
ATOM     26  C   UNL     1     -13.592  21.827  43.430  1.00  0.00     0.004 C 
ENDBRANCH  24  25
ENDBRANCH  23  24
ENDBRANCH  22  23
ENDBRANCH  21  22
ENDBRANCH  20  21
ENDBRANCH  19  20
ENDBRANCH  18  19
ENDBRANCH  17  18
ENDBRANCH  16  17
ENDBRANCH  15  16
ENDBRANCH   1  15
TORSDOF 22
ENDMDL
MODEL 4
REMARK VINA RESULT:    -3.243      2.140      4.268
REMARK INTER + INTRA:         -11.754
REMARK INTER:                  -6.876
REMARK INTRA:                  -4.878
REMARK UNBOUND:                -4.339
REMARK SMILES CCCCCCCCCCCCCCCCCCCCCCCC(=O)[O-]
REMARK SMILES IDX 13 1 14 2 15 3 16 4 17 5 18 6 19 7 20 8 21 9 22 10 23 11
REMARK SMILES IDX 24 12 25 13 26 14 12 15 11 16 10 17 9 18 8 19 7 20 6 21 5 22
REMARK SMILES IDX 4 23 3 24 2 25 1 26
REMARK H PARENT
REMARK Flexibility Score: inf
ROOT
ATOM      1  C   UNL     1     -17.073  21.001  44.002  1.00  0.00     0.000 C 
ENDROOT
BRANCH   1   2
ATOM      2  C   UNL     1     -15.637  21.047  44.551  1.00  0.00     0.000 C 
BRANCH   2   3
ATOM      3  C   UNL     1     -14.622  21.502  43.486  1.00  0.00     0.000 C 
BRANCH   3   4
ATOM      4  C   UNL     1     -13.415  22.232  44.096  1.00  0.00     0.000 C 
BRANCH   4   5
ATOM      5  C   UNL     1     -12.806  23.270  43.137  1.00  0.00     0.000 C 
BRANCH   5   6
ATOM      6  C   UNL     1     -13.487  23.267  41.759  1.00  0.00     0.000 C 
BRANCH   6   7
ATOM      7  C   UNL     1     -13.460  24.651  41.086  1.00  0.00     0.000 C 
BRANCH   7   8
ATOM      8  C   UNL     1     -12.635  25.673  41.885  1.00  0.00     0.000 C 
BRANCH   8   9
ATOM      9  C   UNL     1     -13.432  26.952  42.203  1.00  0.00     0.000 C 
BRANCH   9  10
ATOM     10  C   UNL     1     -12.885  27.713  43.425  1.00  0.00     0.006 C 
BRANCH  10  11
ATOM     11  C   UNL     1     -12.756  26.849  44.691  1.00  0.00     0.053 C 
BRANCH  11  12
ATOM     12  C   UNL     1     -13.630  27.331  45.807  1.00  0.00     0.041 C 
ATOM     13  O   UNL     1     -14.634  28.050  45.561  1.00  0.00    -0.550 OA
ATOM     14  O   UNL     1     -13.329  27.000  47.122  1.00  0.00    -0.550 OA
ENDBRANCH  11  12
ENDBRANCH  10  11
ENDBRANCH   9  10
ENDBRANCH   8   9
ENDBRANCH   7   8
ENDBRANCH   6   7
ENDBRANCH   5   6
ENDBRANCH   4   5
ENDBRANCH   3   4
ENDBRANCH   2   3
ENDBRANCH   1   2
BRANCH   1  15
ATOM     15  C   UNL     1     -18.006  20.141  44.871  1.00  0.00     0.000 C 
BRANCH  15  16
ATOM     16  C   UNL     1     -19.069  20.985  45.604  1.00  0.00     0.000 C 
BRANCH  16  17
ATOM     17  C   UNL     1     -19.280  22.385  45.003  1.00  0.00     0.000 C 
BRANCH  17  18
ATOM     18  C   UNL     1     -19.064  23.518  46.016  1.00  0.00    -0.000 C 
BRANCH  18  19
ATOM     19  C   UNL     1     -18.025  23.117  47.073  1.00  0.00    -0.000 C 
BRANCH  19  20
ATOM     20  C   UNL     1     -16.637  23.724  46.814  1.00  0.00    -0.000 C 
BRANCH  20  21
ATOM     21  C   UNL     1     -16.692  24.964  45.907  1.00  0.00    -0.000 C 
BRANCH  21  22
ATOM     22  C   UNL     1     -15.859  24.803  44.624  1.00  0.00    -0.000 C 
BRANCH  22  23
ATOM     23  C   UNL     1     -16.570  25.331  43.359  1.00  0.00    -0.000 C 
BRANCH  23  24
ATOM     24  C   UNL     1     -17.110  24.189  42.479  1.00  0.00    -0.000 C 
BRANCH  24  25
ATOM     25  C   UNL     1     -18.594  24.367  42.126  1.00  0.00    -0.003 C 
ATOM     26  C   UNL     1     -19.147  25.720  42.570  1.00  0.00     0.004 C 
ENDBRANCH  24  25
ENDBRANCH  23  24
ENDBRANCH  22  23
ENDBRANCH  21  22
ENDBRANCH  20  21
ENDBRANCH  19  20
ENDBRANCH  18  19
ENDBRANCH  17  18
ENDBRANCH  16  17
ENDBRANCH  15  16
ENDBRANCH   1  15
TORSDOF 22
ENDMDL
MODEL 5
REMARK VINA RESULT:    -3.235      2.118      4.158
REMARK INTER + INTRA:         -11.734
REMARK INTER:                  -7.744
REMARK INTRA:                  -3.990
REMARK UNBOUND:                -4.339
REMARK SMILES CCCCCCCCCCCCCCCCCCCCCCCC(=O)[O-]
REMARK SMILES IDX 13 1 14 2 15 3 16 4 17 5 18 6 19 7 20 8 21 9 22 10 23 11
REMARK SMILES IDX 24 12 25 13 26 14 12 15 11 16 10 17 9 18 8 19 7 20 6 21 5 22
REMARK SMILES IDX 4 23 3 24 2 25 1 26
REMARK H PARENT
REMARK Flexibility Score: inf
ROOT
ATOM      1  C   UNL     1     -20.583  21.846  46.212  1.00  0.00     0.000 C 
ENDROOT
BRANCH   1   2
ATOM      2  C   UNL     1     -20.029  23.095  45.506  1.00  0.00     0.000 C 
BRANCH   2   3
ATOM      3  C   UNL     1     -18.730  23.603  46.159  1.00  0.00     0.000 C 
BRANCH   3   4
ATOM      4  C   UNL     1     -17.987  22.501  46.930  1.00  0.00     0.000 C 
BRANCH   4   5
ATOM      5  C   UNL     1     -16.797  21.926  46.141  1.00  0.00     0.000 C 
BRANCH   5   6
ATOM      6  C   UNL     1     -17.093  20.532  45.565  1.00  0.00     0.000 C 
BRANCH   6   7
ATOM      7  C   UNL     1     -17.639  20.593  44.128  1.00  0.00     0.000 C 
BRANCH   7   8
ATOM      8  C   UNL     1     -16.994  21.718  43.304  1.00  0.00     0.000 C 
BRANCH   8   9
ATOM      9  C   UNL     1     -18.029  22.528  42.501  1.00  0.00     0.000 C 
BRANCH   9  10
ATOM     10  C   UNL     1     -17.692  24.029  42.426  1.00  0.00     0.006 C 
BRANCH  10  11
ATOM     11  C   UNL     1     -16.509  24.447  43.315  1.00  0.00     0.053 C 
BRANCH  11  12
ATOM     12  C   UNL     1     -16.406  25.933  43.473  1.00  0.00     0.041 C 
ATOM     13  O   UNL     1     -17.207  26.547  44.226  1.00  0.00    -0.550 OA
ATOM     14  O   UNL     1     -15.437  26.643  42.776  1.00  0.00    -0.550 OA
ENDBRANCH  11  12
ENDBRANCH  10  11
ENDBRANCH   9  10
ENDBRANCH   8   9
ENDBRANCH   7   8
ENDBRANCH   6   7
ENDBRANCH   5   6
ENDBRANCH   4   5
ENDBRANCH   3   4
ENDBRANCH   2   3
ENDBRANCH   1   2
BRANCH   1  15
ATOM     15  C   UNL     1     -21.686  22.188  47.228  1.00  0.00     0.000 C 
BRANCH  15  16
ATOM     16  C   UNL     1     -23.098  22.110  46.611  1.00  0.00     0.000 C 
BRANCH  16  17
ATOM     17  C   UNL     1     -23.707  23.480  46.267  1.00  0.00     0.000 C 
BRANCH  17  18
ATOM     18  C   UNL     1     -23.961  23.669  44.764  1.00  0.00    -0.000 C 
BRANCH  18  19
ATOM     19  C   UNL     1     -23.053  24.764  44.187  1.00  0.00    -0.000 C 
BRANCH  19  20
ATOM     20  C   UNL     1     -22.640  25.815  45.230  1.00  0.00    -0.000 C 
BRANCH  20  21
ATOM     21  C   UNL     1     -21.342  26.547  44.853  1.00  0.00    -0.000 C 
BRANCH  21  22
ATOM     22  C   UNL     1     -20.606  25.888  43.673  1.00  0.00    -0.000 C 
BRANCH  22  23
ATOM     23  C   UNL     1     -20.338  26.855  42.499  1.00  0.00    -0.000 C 
BRANCH  23  24
ATOM     24  C   UNL     1     -21.549  27.760  42.206  1.00  0.00    -0.000 C 
BRANCH  24  25
ATOM     25  C   UNL     1     -21.203  29.254  42.286  1.00  0.00    -0.003 C 
ATOM     26  C   UNL     1     -22.432  30.133  42.511  1.00  0.00     0.004 C 
ENDBRANCH  24  25
ENDBRANCH  23  24
ENDBRANCH  22  23
ENDBRANCH  21  22
ENDBRANCH  20  21
ENDBRANCH  19  20
ENDBRANCH  18  19
ENDBRANCH  17  18
ENDBRANCH  16  17
ENDBRANCH  15  16
ENDBRANCH   1  15
TORSDOF 22
ENDMDL
MODEL 6
REMARK VINA RESULT:    -3.225      2.624      6.176
REMARK INTER + INTRA:         -11.712
REMARK INTER:                  -7.198
REMARK INTRA:                  -4.514
REMARK UNBOUND:                -4.339
REMARK SMILES CCCCCCCCCCCCCCCCCCCCCCCC(=O)[O-]
REMARK SMILES IDX 13 1 14 2 15 3 16 4 17 5 18 6 19 7 20 8 21 9 22 10 23 11
REMARK SMILES IDX 24 12 25 13 26 14 12 15 11 16 10 17 9 18 8 19 7 20 6 21 5 22
REMARK SMILES IDX 4 23 3 24 2 25 1 26
REMARK H PARENT
REMARK Flexibility Score: inf
ROOT
ATOM      1  C   UNL     1     -13.112  22.694  43.162  1.00  0.00     0.000 C 
ENDROOT
BRANCH   1   2
ATOM      2  C   UNL     1     -13.500  23.261  41.786  1.00  0.00     0.000 C 
BRANCH   2   3
ATOM      3  C   UNL     1     -13.195  24.765  41.670  1.00  0.00     0.000 C 
BRANCH   3   4
ATOM      4  C   UNL     1     -12.547  25.336  42.942  1.00  0.00     0.000 C 
BRANCH   4   5
ATOM      5  C   UNL     1     -13.274  26.588  43.466  1.00  0.00     0.000 C 
BRANCH   5   6
ATOM      6  C   UNL     1     -13.940  27.394  42.338  1.00  0.00     0.000 C 
BRANCH   6   7
ATOM      7  C   UNL     1     -15.109  28.257  42.844  1.00  0.00     0.000 C 
BRANCH   7   8
ATOM      8  C   UNL     1     -16.001  28.762  41.699  1.00  0.00     0.000 C 
BRANCH   8   9
ATOM      9  C   UNL     1     -17.418  29.131  42.177  1.00  0.00     0.000 C 
BRANCH   9  10
ATOM     10  C   UNL     1     -18.121  27.980  42.921  1.00  0.00     0.006 C 
BRANCH  10  11
ATOM     11  C   UNL     1     -19.047  27.135  42.029  1.00  0.00     0.053 C 
BRANCH  11  12
ATOM     12  C   UNL     1     -20.358  26.833  42.685  1.00  0.00     0.041 C 
ATOM     13  O   UNL     1     -21.386  27.496  42.382  1.00  0.00    -0.550 OA
ATOM     14  O   UNL     1     -20.445  25.831  43.643  1.00  0.00    -0.550 OA
ENDBRANCH  11  12
ENDBRANCH  10  11
ENDBRANCH   9  10
ENDBRANCH   8   9
ENDBRANCH   7   8
ENDBRANCH   6   7
ENDBRANCH   5   6
ENDBRANCH   4   5
ENDBRANCH   3   4
ENDBRANCH   2   3
ENDBRANCH   1   2
BRANCH   1  15
ATOM     15  C   UNL     1     -14.247  21.874  43.800  1.00  0.00     0.000 C 
BRANCH  15  16
ATOM     16  C   UNL     1     -14.559  22.324  45.242  1.00  0.00     0.000 C 
BRANCH  16  17
ATOM     17  C   UNL     1     -14.913  23.816  45.369  1.00  0.00     0.000 C 
BRANCH  17  18
ATOM     18  C   UNL     1     -16.356  24.058  45.835  1.00  0.00    -0.000 C 
BRANCH  18  19
ATOM     19  C   UNL     1     -17.152  24.831  44.774  1.00  0.00    -0.000 C 
BRANCH  19  20
ATOM     20  C   UNL     1     -16.457  24.863  43.404  1.00  0.00    -0.000 C 
BRANCH  20  21
ATOM     21  C   UNL     1     -17.154  23.972  42.363  1.00  0.00    -0.000 C 
BRANCH  21  22
ATOM     22  C   UNL     1     -18.283  23.119  42.967  1.00  0.00    -0.000 C 
BRANCH  22  23
ATOM     23  C   UNL     1     -17.863  21.662  43.260  1.00  0.00    -0.000 C 
BRANCH  23  24
ATOM     24  C   UNL     1     -18.246  21.225  44.687  1.00  0.00    -0.000 C 
BRANCH  24  25
ATOM     25  C   UNL     1     -17.911  19.752  44.963  1.00  0.00    -0.003 C 
ATOM     26  C   UNL     1     -16.964  19.576  46.149  1.00  0.00     0.004 C 
ENDBRANCH  24  25
ENDBRANCH  23  24
ENDBRANCH  22  23
ENDBRANCH  21  22
ENDBRANCH  20  21
ENDBRANCH  19  20
ENDBRANCH  18  19
ENDBRANCH  17  18
ENDBRANCH  16  17
ENDBRANCH  15  16
ENDBRANCH   1  15
TORSDOF 22
ENDMDL
MODEL 7
REMARK VINA RESULT:    -3.222      1.790      4.666
REMARK INTER + INTRA:         -11.705
REMARK INTER:                  -7.307
REMARK INTRA:                  -4.398
REMARK UNBOUND:                -4.339
REMARK SMILES CCCCCCCCCCCCCCCCCCCCCCCC(=O)[O-]
REMARK SMILES IDX 13 1 14 2 15 3 16 4 17 5 18 6 19 7 20 8 21 9 22 10 23 11
REMARK SMILES IDX 24 12 25 13 26 14 12 15 11 16 10 17 9 18 8 19 7 20 6 21 5 22
REMARK SMILES IDX 4 23 3 24 2 25 1 26
REMARK H PARENT
REMARK Flexibility Score: inf
ROOT
ATOM      1  C   UNL     1     -17.145  21.376  43.241  1.00  0.00     0.000 C 
ENDROOT
BRANCH   1   2
ATOM      2  C   UNL     1     -16.210  21.056  44.419  1.00  0.00     0.000 C 
BRANCH   2   3
ATOM      3  C   UNL     1     -16.928  20.275  45.535  1.00  0.00     0.000 C 
BRANCH   3   4
ATOM      4  C   UNL     1     -18.333  19.810  45.120  1.00  0.00     0.000 C 
BRANCH   4   5
ATOM      5  C   UNL     1     -19.434  20.355  46.047  1.00  0.00     0.000 C 
BRANCH   5   6
ATOM      6  C   UNL     1     -19.824  21.803  45.707  1.00  0.00     0.000 C 
BRANCH   6   7
ATOM      7  C   UNL     1     -19.496  22.782  46.848  1.00  0.00     0.000 C 
BRANCH   7   8
ATOM      8  C   UNL     1     -18.611  23.949  46.380  1.00  0.00     0.000 C 
BRANCH   8   9
ATOM      9  C   UNL     1     -17.140  23.777  46.802  1.00  0.00     0.000 C 
BRANCH   9  10
ATOM     10  C   UNL     1     -16.159  24.541  45.893  1.00  0.00     0.006 C 
BRANCH  10  11
ATOM     11  C   UNL     1     -14.722  23.992  45.925  1.00  0.00     0.053 C 
BRANCH  11  12
ATOM     12  C   UNL     1     -13.866  24.558  44.835  1.00  0.00     0.041 C 
ATOM     13  O   UNL     1     -12.649  24.801  45.047  1.00  0.00    -0.550 OA
ATOM     14  O   UNL     1     -14.414  24.834  43.589  1.00  0.00    -0.550 OA
ENDBRANCH  11  12
ENDBRANCH  10  11
ENDBRANCH   9  10
ENDBRANCH   8   9
ENDBRANCH   7   8
ENDBRANCH   6   7
ENDBRANCH   5   6
ENDBRANCH   4   5
ENDBRANCH   3   4
ENDBRANCH   2   3
ENDBRANCH   1   2
BRANCH   1  15
ATOM     15  C   UNL     1     -17.239  22.886  42.961  1.00  0.00     0.000 C 
BRANCH  15  16
ATOM     16  C   UNL     1     -18.665  23.324  42.569  1.00  0.00     0.000 C 
BRANCH  16  17
ATOM     17  C   UNL     1     -18.778  24.807  42.175  1.00  0.00     0.000 C 
BRANCH  17  18
ATOM     18  C   UNL     1     -18.135  25.755  43.198  1.00  0.00    -0.000 C 
BRANCH  18  19
ATOM     19  C   UNL     1     -18.881  27.095  43.248  1.00  0.00    -0.000 C 
BRANCH  19  20
ATOM     20  C   UNL     1     -20.254  27.046  42.559  1.00  0.00    -0.000 C 
BRANCH  20  21
ATOM     21  C   UNL     1     -21.421  27.141  43.556  1.00  0.00    -0.000 C 
BRANCH  21  22
ATOM     22  C   UNL     1     -21.208  26.273  44.809  1.00  0.00    -0.000 C 
BRANCH  22  23
ATOM     23  C   UNL     1     -21.736  24.830  44.655  1.00  0.00    -0.000 C 
BRANCH  23  24
ATOM     24  C   UNL     1     -23.184  24.797  44.130  1.00  0.00    -0.000 C 
BRANCH  24  25
ATOM     25  C   UNL     1     -24.012  23.664  44.754  1.00  0.00    -0.003 C 
ATOM     26  C   UNL     1     -23.323  23.025  45.959  1.00  0.00     0.004 C 
ENDBRANCH  24  25
ENDBRANCH  23  24
ENDBRANCH  22  23
ENDBRANCH  21  22
ENDBRANCH  20  21
ENDBRANCH  19  20
ENDBRANCH  18  19
ENDBRANCH  17  18
ENDBRANCH  16  17
ENDBRANCH  15  16
ENDBRANCH   1  15
TORSDOF 22
ENDMDL
MODEL 8
REMARK VINA RESULT:    -3.205      2.070      5.985
REMARK INTER + INTRA:         -11.666
REMARK INTER:                  -7.026
REMARK INTRA:                  -4.640
REMARK UNBOUND:                -4.339
REMARK SMILES CCCCCCCCCCCCCCCCCCCCCCCC(=O)[O-]
REMARK SMILES IDX 13 1 14 2 15 3 16 4 17 5 18 6 19 7 20 8 21 9 22 10 23 11
REMARK SMILES IDX 24 12 25 13 26 14 12 15 11 16 10 17 9 18 8 19 7 20 6 21 5 22
REMARK SMILES IDX 4 23 3 24 2 25 1 26
REMARK H PARENT
REMARK Flexibility Score: inf
ROOT
ATOM      1  C   UNL     1     -16.674  24.248  46.463  1.00  0.00     0.000 C 
ENDROOT
BRANCH   1   2
ATOM      2  C   UNL     1     -18.147  23.861  46.249  1.00  0.00     0.000 C 
BRANCH   2   3
ATOM      3  C   UNL     1     -18.426  22.399  46.643  1.00  0.00     0.000 C 
BRANCH   3   4
ATOM      4  C   UNL     1     -19.104  21.603  45.516  1.00  0.00     0.000 C 
BRANCH   4   5
ATOM      5  C   UNL     1     -18.213  20.471  44.972  1.00  0.00     0.000 C 
BRANCH   5   6
ATOM      6  C   UNL     1     -17.261  20.954  43.866  1.00  0.00     0.000 C 
BRANCH   6   7
ATOM      7  C   UNL     1     -17.919  21.985  42.933  1.00  0.00     0.000 C 
BRANCH   7   8
ATOM      8  C   UNL     1     -17.115  23.293  42.848  1.00  0.00     0.000 C 
BRANCH   8   9
ATOM      9  C   UNL     1     -17.878  24.404  42.102  1.00  0.00     0.000 C 
BRANCH   9  10
ATOM     10  C   UNL     1     -19.184  24.815  42.807  1.00  0.00     0.006 C 
BRANCH  10  11
ATOM     11  C   UNL     1     -19.759  26.157  42.321  1.00  0.00     0.053 C 
BRANCH  11  12
ATOM     12  C   UNL     1     -18.838  27.306  42.587  1.00  0.00     0.041 C 
ATOM     13  O   UNL     1     -18.285  27.910  41.630  1.00  0.00    -0.550 OA
ATOM     14  O   UNL     1     -18.575  27.703  43.892  1.00  0.00    -0.550 OA
ENDBRANCH  11  12
ENDBRANCH  10  11
ENDBRANCH   9  10
ENDBRANCH   8   9
ENDBRANCH   7   8
ENDBRANCH   6   7
ENDBRANCH   5   6
ENDBRANCH   4   5
ENDBRANCH   3   4
ENDBRANCH   2   3
ENDBRANCH   1   2
BRANCH   1  15
ATOM     15  C   UNL     1     -15.746  23.022  46.502  1.00  0.00     0.000 C 
BRANCH  15  16
ATOM     16  C   UNL     1     -14.563  23.149  45.520  1.00  0.00     0.000 C 
BRANCH  16  17
ATOM     17  C   UNL     1     -13.932  21.803  45.123  1.00  0.00     0.000 C 
BRANCH  17  18
ATOM     18  C   UNL     1     -13.511  21.744  43.648  1.00  0.00    -0.000 C 
BRANCH  18  19
ATOM     19  C   UNL     1     -13.245  23.152  43.097  1.00  0.00    -0.000 C 
BRANCH  19  20
ATOM     20  C   UNL     1     -13.623  23.299  41.615  1.00  0.00    -0.000 C 
BRANCH  20  21
ATOM     21  C   UNL     1     -13.088  24.599  40.992  1.00  0.00    -0.000 C 
BRANCH  21  22
ATOM     22  C   UNL     1     -12.228  25.419  41.969  1.00  0.00    -0.000 C 
BRANCH  22  23
ATOM     23  C   UNL     1     -12.910  26.720  42.447  1.00  0.00    -0.000 C 
BRANCH  23  24
ATOM     24  C   UNL     1     -12.806  26.901  43.973  1.00  0.00    -0.000 C 
BRANCH  24  25
ATOM     25  C   UNL     1     -14.162  26.757  44.679  1.00  0.00    -0.003 C 
ATOM     26  C   UNL     1     -15.293  26.404  43.715  1.00  0.00     0.004 C 
ENDBRANCH  24  25
ENDBRANCH  23  24
ENDBRANCH  22  23
ENDBRANCH  21  22
ENDBRANCH  20  21
ENDBRANCH  19  20
ENDBRANCH  18  19
ENDBRANCH  17  18
ENDBRANCH  16  17
ENDBRANCH  15  16
ENDBRANCH   1  15
TORSDOF 22
ENDMDL
MODEL 9
REMARK VINA RESULT:    -3.171      3.345      7.158
REMARK INTER + INTRA:         -11.589
REMARK INTER:                  -7.274
REMARK INTRA:                  -4.315
REMARK UNBOUND:                -4.339
REMARK SMILES CCCCCCCCCCCCCCCCCCCCCCCC(=O)[O-]
REMARK SMILES IDX 13 1 14 2 15 3 16 4 17 5 18 6 19 7 20 8 21 9 22 10 23 11
REMARK SMILES IDX 24 12 25 13 26 14 12 15 11 16 10 17 9 18 8 19 7 20 6 21 5 22
REMARK SMILES IDX 4 23 3 24 2 25 1 26
REMARK H PARENT
REMARK Flexibility Score: inf
ROOT
ATOM      1  C   UNL     1     -17.734  20.896  45.205  1.00  0.00     0.000 C 
ENDROOT
BRANCH   1   2
ATOM      2  C   UNL     1     -17.425  20.979  43.700  1.00  0.00     0.000 C 
BRANCH   2   3
ATOM      3  C   UNL     1     -17.058  22.409  43.261  1.00  0.00     0.000 C 
BRANCH   3   4
ATOM      4  C   UNL     1     -17.997  22.951  42.172  1.00  0.00     0.000 C 
BRANCH   4   5
ATOM      5  C   UNL     1     -19.033  23.945  42.726  1.00  0.00     0.000 C 
BRANCH   5   6
ATOM      6  C   UNL     1     -18.936  25.327  42.059  1.00  0.00     0.000 C 
BRANCH   6   7
ATOM      7  C   UNL     1     -19.871  26.361  42.710  1.00  0.00     0.000 C 
BRANCH   7   8
ATOM      8  C   UNL     1     -20.562  25.813  43.969  1.00  0.00     0.000 C 
BRANCH   8   9
ATOM      9  C   UNL     1     -21.468  26.860  44.644  1.00  0.00     0.000 C 
BRANCH   9  10
ATOM     10  C   UNL     1     -22.581  26.228  45.503  1.00  0.00     0.006 C 
BRANCH  10  11
ATOM     11  C   UNL     1     -22.284  24.785  45.944  1.00  0.00     0.053 C 
BRANCH  11  12
ATOM     12  C   UNL     1     -23.309  23.811  45.452  1.00  0.00     0.041 C 
ATOM     13  O   UNL     1     -23.657  22.839  46.172  1.00  0.00    -0.550 OA
ATOM     14  O   UNL     1     -23.870  23.966  44.190  1.00  0.00    -0.550 OA
ENDBRANCH  11  12
ENDBRANCH  10  11
ENDBRANCH   9  10
ENDBRANCH   8   9
ENDBRANCH   7   8
ENDBRANCH   6   7
ENDBRANCH   5   6
ENDBRANCH   4   5
ENDBRANCH   3   4
ENDBRANCH   2   3
ENDBRANCH   1   2
BRANCH   1  15
ATOM     15  C   UNL     1     -19.222  21.135  45.511  1.00  0.00     0.000 C 
BRANCH  15  16
ATOM     16  C   UNL     1     -19.493  22.559  46.038  1.00  0.00     0.000 C 
BRANCH  16  17
ATOM     17  C   UNL     1     -18.271  23.228  46.690  1.00  0.00     0.000 C 
BRANCH  17  18
ATOM     18  C   UNL     1     -18.072  24.685  46.250  1.00  0.00    -0.000 C 
BRANCH  18  19
ATOM     19  C   UNL     1     -16.694  24.879  45.601  1.00  0.00    -0.000 C 
BRANCH  19  20
ATOM     20  C   UNL     1     -16.564  26.214  44.852  1.00  0.00    -0.000 C 
BRANCH  20  21
ATOM     21  C   UNL     1     -15.752  26.090  43.553  1.00  0.00    -0.000 C 
BRANCH  21  22
ATOM     22  C   UNL     1     -14.653  25.015  43.636  1.00  0.00    -0.000 C 
BRANCH  22  23
ATOM     23  C   UNL     1     -14.096  24.598  42.258  1.00  0.00    -0.000 C 
BRANCH  23  24
ATOM     24  C   UNL     1     -13.615  23.135  42.246  1.00  0.00    -0.000 C 
BRANCH  24  25
ATOM     25  C   UNL     1     -13.093  22.674  43.615  1.00  0.00    -0.003 C 
ATOM     26  C   UNL     1     -13.619  21.296  44.013  1.00  0.00     0.004 C 
ENDBRANCH  24  25
ENDBRANCH  23  24
ENDBRANCH  22  23
ENDBRANCH  21  22
ENDBRANCH  20  21
ENDBRANCH  19  20
ENDBRANCH  18  19
ENDBRANCH  17  18
ENDBRANCH  16  17
ENDBRANCH  15  16
ENDBRANCH   1  15
TORSDOF 22
ENDMDL
