MODEL 1
REMARK VINA RESULT:    -4.093      0.000      0.000
REMARK INTER + INTRA:         -11.219
REMARK INTER:                  -8.878
REMARK INTRA:                  -2.341
REMARK UNBOUND:                -2.341
REMARK SMILES CCCCCCCCCCCCCCCCCCCCCC(=O)[O-]
REMARK SMILES IDX 12 1 11 2 10 3 9 4 8 5 7 6 6 7 5 8 4 9 3 10 2 11 1 12 13 13
REMARK SMILES IDX 14 14 15 15 16 16 17 17 18 18 19 19 20 20 21 21 22 22 23 23
REMARK SMILES IDX 24 24
REMARK H PARENT
REMARK Flexibility Score: inf
ROOT
ATOM      1  C   UNL     1       4.270  27.760  55.799  1.00  0.00     0.000 C 
ENDROOT
BRANCH   1   2
ATOM      2  C   UNL     1       3.690  28.553  56.983  1.00  0.00     0.000 C 
BRANCH   2   3
ATOM      3  C   UNL     1       2.281  28.114  57.430  1.00  0.00     0.000 C 
BRANCH   3   4
ATOM      4  C   UNL     1       1.245  29.252  57.546  1.00  0.00    -0.000 C 
BRANCH   4   5
ATOM      5  C   UNL     1      -0.018  29.080  56.683  1.00  0.00    -0.000 C 
BRANCH   5   6
ATOM      6  C   UNL     1       0.281  29.081  55.174  1.00  0.00    -0.000 C 
BRANCH   6   7
ATOM      7  C   UNL     1       0.151  30.476  54.536  1.00  0.00    -0.000 C 
BRANCH   7   8
ATOM      8  C   UNL     1       1.391  30.973  53.772  1.00  0.00    -0.000 C 
BRANCH   8   9
ATOM      9  C   UNL     1       1.190  32.356  53.131  1.00  0.00    -0.000 C 
BRANCH   9  10
ATOM     10  C   UNL     1       1.907  32.500  51.776  1.00  0.00    -0.000 C 
BRANCH  10  11
ATOM     11  C   UNL     1       3.440  32.612  51.857  1.00  0.00    -0.003 C 
ATOM     12  C   UNL     1       4.110  32.664  50.485  1.00  0.00     0.004 C 
ENDBRANCH  10  11
ENDBRANCH   9  10
ENDBRANCH   8   9
ENDBRANCH   7   8
ENDBRANCH   6   7
ENDBRANCH   5   6
ENDBRANCH   4   5
ENDBRANCH   3   4
ENDBRANCH   2   3
ENDBRANCH   1   2
BRANCH   1  13
ATOM     13  C   UNL     1       3.878  28.349  54.436  1.00  0.00     0.000 C 
BRANCH  13  14
ATOM     14  C   UNL     1       4.820  29.497  54.045  1.00  0.00     0.000 C 
BRANCH  14  15
ATOM     15  C   UNL     1       5.217  29.472  52.558  1.00  0.00     0.000 C 
BRANCH  15  16
ATOM     16  C   UNL     1       4.427  28.477  51.687  1.00  0.00     0.000 C 
BRANCH  16  17
ATOM     17  C   UNL     1       5.327  27.649  50.753  1.00  0.00     0.000 C 
BRANCH  17  18
ATOM     18  C   UNL     1       4.645  26.356  50.278  1.00  0.00     0.000 C 
BRANCH  18  19
ATOM     19  C   UNL     1       4.653  26.212  48.746  1.00  0.00     0.000 C 
BRANCH  19  20
ATOM     20  C   UNL     1       4.961  27.538  48.033  1.00  0.00     0.006 C 
BRANCH  20  21
ATOM     21  C   UNL     1       3.964  27.845  46.908  1.00  0.00     0.053 C 
BRANCH  21  22
ATOM     22  C   UNL     1       2.927  28.815  47.381  1.00  0.00     0.041 C 
ATOM     23  O   UNL     1       2.286  28.590  48.442  1.00  0.00    -0.550 OA
ATOM     24  O   UNL     1       2.702  29.992  46.676  1.00  0.00    -0.550 OA
ENDBRANCH  21  22
ENDBRANCH  20  21
ENDBRANCH  19  20
ENDBRANCH  18  19
ENDBRANCH  17  18
ENDBRANCH  16  17
ENDBRANCH  15  16
ENDBRANCH  14  15
ENDBRANCH  13  14
ENDBRANCH   1  13
TORSDOF 20
ENDMDL
MODEL 2
REMARK VINA RESULT:    -4.080     12.926     15.008
REMARK INTER + INTRA:         -11.192
REMARK INTER:                  -7.886
REMARK INTRA:                  -3.307
REMARK UNBOUND:                -2.341
REMARK SMILES CCCCCCCCCCCCCCCCCCCCCC(=O)[O-]
REMARK SMILES IDX 12 1 11 2 10 3 9 4 8 5 7 6 6 7 5 8 4 9 3 10 2 11 1 12 13 13
REMARK SMILES IDX 14 14 15 15 16 16 17 17 18 18 19 19 20 20 21 21 22 22 23 23
REMARK SMILES IDX 24 24
REMARK H PARENT
REMARK Flexibility Score: inf
ROOT
ATOM      1  C   UNL     1      -4.953  37.783  43.515  1.00  0.00     0.000 C 
ENDROOT
BRANCH   1   2
ATOM      2  C   UNL     1      -5.450  39.237  43.587  1.00  0.00     0.000 C 
BRANCH   2   3
ATOM      3  C   UNL     1      -6.981  39.396  43.685  1.00  0.00     0.000 C 
BRANCH   3   4
ATOM      4  C   UNL     1      -7.724  38.209  44.332  1.00  0.00    -0.000 C 
BRANCH   4   5
ATOM      5  C   UNL     1      -8.400  38.514  45.681  1.00  0.00    -0.000 C 
BRANCH   5   6
ATOM      6  C   UNL     1      -7.875  39.803  46.337  1.00  0.00    -0.000 C 
BRANCH   6   7
ATOM      7  C   UNL     1      -7.014  39.535  47.585  1.00  0.00    -0.000 C 
BRANCH   7   8
ATOM      8  C   UNL     1      -5.645  38.883  47.317  1.00  0.00    -0.000 C 
BRANCH   8   9
ATOM      9  C   UNL     1      -5.329  37.729  48.283  1.00  0.00    -0.000 C 
BRANCH   9  10
ATOM     10  C   UNL     1      -6.403  36.627  48.275  1.00  0.00    -0.000 C 
BRANCH  10  11
ATOM     11  C   UNL     1      -6.398  35.719  47.031  1.00  0.00    -0.003 C 
ATOM     12  C   UNL     1      -7.730  35.005  46.806  1.00  0.00     0.004 C 
ENDBRANCH  10  11
ENDBRANCH   9  10
ENDBRANCH   8   9
ENDBRANCH   7   8
ENDBRANCH   6   7
ENDBRANCH   5   6
ENDBRANCH   4   5
ENDBRANCH   3   4
ENDBRANCH   2   3
ENDBRANCH   1   2
BRANCH   1  13
ATOM     13  C   UNL     1      -3.691  37.626  42.653  1.00  0.00     0.000 C 
BRANCH  13  14
ATOM     14  C   UNL     1      -4.042  37.660  41.158  1.00  0.00     0.000 C 
BRANCH  14  15
ATOM     15  C   UNL     1      -3.605  36.390  40.406  1.00  0.00     0.000 C 
BRANCH  15  16
ATOM     16  C   UNL     1      -2.632  35.476  41.175  1.00  0.00     0.000 C 
BRANCH  16  17
ATOM     17  C   UNL     1      -3.208  34.075  41.444  1.00  0.00     0.000 C 
BRANCH  17  18
ATOM     18  C   UNL     1      -4.735  34.096  41.625  1.00  0.00     0.000 C 
BRANCH  18  19
ATOM     19  C   UNL     1      -5.153  34.094  43.106  1.00  0.00     0.000 C 
BRANCH  19  20
ATOM     20  C   UNL     1      -6.667  34.282  43.290  1.00  0.00     0.006 C 
BRANCH  20  21
ATOM     21  C   UNL     1      -7.400  32.955  43.527  1.00  0.00     0.053 C 
BRANCH  21  22
ATOM     22  C   UNL     1      -8.680  32.920  42.753  1.00  0.00     0.041 C 
ATOM     23  O   UNL     1      -8.679  33.153  41.515  1.00  0.00    -0.550 OA
ATOM     24  O   UNL     1      -9.869  32.582  43.389  1.00  0.00    -0.550 OA
ENDBRANCH  21  22
ENDBRANCH  20  21
ENDBRANCH  19  20
ENDBRANCH  18  19
ENDBRANCH  17  18
ENDBRANCH  16  17
ENDBRANCH  15  16
ENDBRANCH  14  15
ENDBRANCH  13  14
ENDBRANCH   1  13
TORSDOF 20
ENDMDL
MODEL 3
REMARK VINA RESULT:    -4.008     12.380     15.160
REMARK INTER + INTRA:         -11.034
REMARK INTER:                  -7.156
REMARK INTRA:                  -3.878
REMARK UNBOUND:                -2.341
REMARK SMILES CCCCCCCCCCCCCCCCCCCCCC(=O)[O-]
REMARK SMILES IDX 12 1 11 2 10 3 9 4 8 5 7 6 6 7 5 8 4 9 3 10 2 11 1 12 13 13
REMARK SMILES IDX 14 14 15 15 16 16 17 17 18 18 19 19 20 20 21 21 22 22 23 23
REMARK SMILES IDX 24 24
REMARK H PARENT
REMARK Flexibility Score: inf
ROOT
ATOM      1  C   UNL     1      -8.252  38.548  45.174  1.00  0.00     0.000 C 
ENDROOT
BRANCH   1   2
ATOM      2  C   UNL     1      -7.273  38.398  43.997  1.00  0.00     0.000 C 
BRANCH   2   3
ATOM      3  C   UNL     1      -6.257  39.548  43.848  1.00  0.00     0.000 C 
BRANCH   3   4
ATOM      4  C   UNL     1      -4.887  39.142  43.266  1.00  0.00    -0.000 C 
BRANCH   4   5
ATOM      5  C   UNL     1      -4.887  37.854  42.422  1.00  0.00    -0.000 C 
BRANCH   5   6
ATOM      6  C   UNL     1      -3.777  37.834  41.358  1.00  0.00    -0.000 C 
BRANCH   6   7
ATOM      7  C   UNL     1      -3.881  36.630  40.403  1.00  0.00    -0.000 C 
BRANCH   7   8
ATOM      8  C   UNL     1      -3.746  35.247  41.064  1.00  0.00    -0.000 C 
BRANCH   8   9
ATOM      9  C   UNL     1      -2.516  35.137  41.981  1.00  0.00    -0.000 C 
BRANCH   9  10
ATOM     10  C   UNL     1      -2.496  33.837  42.806  1.00  0.00    -0.000 C 
BRANCH  10  11
ATOM     11  C   UNL     1      -3.660  32.869  42.527  1.00  0.00    -0.003 C 
ATOM     12  C   UNL     1      -3.914  31.892  43.674  1.00  0.00     0.004 C 
ENDBRANCH  10  11
ENDBRANCH   9  10
ENDBRANCH   8   9
ENDBRANCH   7   8
ENDBRANCH   6   7
ENDBRANCH   5   6
ENDBRANCH   4   5
ENDBRANCH   3   4
ENDBRANCH   2   3
ENDBRANCH   1   2
BRANCH   1  13
ATOM     13  C   UNL     1      -7.984  37.543  46.305  1.00  0.00     0.000 C 
BRANCH  13  14
ATOM     14  C   UNL     1      -6.738  37.943  47.109  1.00  0.00     0.000 C 
BRANCH  14  15
ATOM     15  C   UNL     1      -5.722  36.796  47.259  1.00  0.00     0.000 C 
BRANCH  15  16
ATOM     16  C   UNL     1      -4.404  36.984  46.484  1.00  0.00     0.000 C 
BRANCH  16  17
ATOM     17  C   UNL     1      -4.234  35.977  45.334  1.00  0.00     0.000 C 
BRANCH  17  18
ATOM     18  C   UNL     1      -5.393  34.969  45.263  1.00  0.00     0.000 C 
BRANCH  18  19
ATOM     19  C   UNL     1      -6.143  35.026  43.921  1.00  0.00     0.000 C 
BRANCH  19  20
ATOM     20  C   UNL     1      -7.582  34.498  44.029  1.00  0.00     0.006 C 
BRANCH  20  21
ATOM     21  C   UNL     1      -7.692  33.013  43.660  1.00  0.00     0.053 C 
BRANCH  21  22
ATOM     22  C   UNL     1      -8.913  32.769  42.831  1.00  0.00     0.041 C 
ATOM     23  O   UNL     1      -8.888  32.980  41.589  1.00  0.00    -0.550 OA
ATOM     24  O   UNL     1     -10.065  32.262  43.420  1.00  0.00    -0.550 OA
ENDBRANCH  21  22
ENDBRANCH  20  21
ENDBRANCH  19  20
ENDBRANCH  18  19
ENDBRANCH  17  18
ENDBRANCH  16  17
ENDBRANCH  15  16
ENDBRANCH  14  15
ENDBRANCH  13  14
ENDBRANCH   1  13
TORSDOF 20
ENDMDL
MODEL 4
REMARK VINA RESULT:    -3.959     12.864     14.958
REMARK INTER + INTRA:         -10.929
REMARK INTER:                  -7.500
REMARK INTRA:                  -3.429
REMARK UNBOUND:                -2.341
REMARK SMILES CCCCCCCCCCCCCCCCCCCCCC(=O)[O-]
REMARK SMILES IDX 12 1 11 2 10 3 9 4 8 5 7 6 6 7 5 8 4 9 3 10 2 11 1 12 13 13
REMARK SMILES IDX 14 14 15 15 16 16 17 17 18 18 19 19 20 20 21 21 22 22 23 23
REMARK SMILES IDX 24 24
REMARK H PARENT
REMARK Flexibility Score: inf
ROOT
ATOM      1  C   UNL     1      -3.304  38.461  42.212  1.00  0.00     0.000 C 
ENDROOT
BRANCH   1   2
ATOM      2  C   UNL     1      -4.794  38.153  42.444  1.00  0.00     0.000 C 
BRANCH   2   3
ATOM      3  C   UNL     1      -5.383  38.740  43.743  1.00  0.00     0.000 C 
BRANCH   3   4
ATOM      4  C   UNL     1      -6.869  39.145  43.665  1.00  0.00    -0.000 C 
BRANCH   4   5
ATOM      5  C   UNL     1      -7.574  39.321  45.022  1.00  0.00    -0.000 C 
BRANCH   5   6
ATOM      6  C   UNL     1      -8.606  38.218  45.309  1.00  0.00    -0.000 C 
BRANCH   6   7
ATOM      7  C   UNL     1      -8.160  37.252  46.423  1.00  0.00    -0.000 C 
BRANCH   7   8
ATOM      8  C   UNL     1      -6.872  37.650  47.167  1.00  0.00    -0.000 C 
BRANCH   8   9
ATOM      9  C   UNL     1      -5.798  36.549  47.140  1.00  0.00    -0.000 C 
BRANCH   9  10
ATOM     10  C   UNL     1      -4.399  37.085  46.786  1.00  0.00    -0.000 C 
BRANCH  10  11
ATOM     11  C   UNL     1      -4.131  38.541  47.206  1.00  0.00    -0.003 C 
ATOM     12  C   UNL     1      -2.891  39.138  46.543  1.00  0.00     0.004 C 
ENDBRANCH  10  11
ENDBRANCH   9  10
ENDBRANCH   8   9
ENDBRANCH   7   8
ENDBRANCH   6   7
ENDBRANCH   5   6
ENDBRANCH   4   5
ENDBRANCH   3   4
ENDBRANCH   2   3
ENDBRANCH   1   2
BRANCH   1  13
ATOM     13  C   UNL     1      -2.651  37.514  41.194  1.00  0.00     0.000 C 
BRANCH  13  14
ATOM     14  C   UNL     1      -3.621  36.396  40.785  1.00  0.00     0.000 C 
BRANCH  14  15
ATOM     15  C   UNL     1      -2.949  35.013  40.705  1.00  0.00     0.000 C 
BRANCH  15  16
ATOM     16  C   UNL     1      -3.595  33.921  41.578  1.00  0.00     0.000 C 
BRANCH  16  17
ATOM     17  C   UNL     1      -5.071  34.208  41.907  1.00  0.00     0.000 C 
BRANCH  17  18
ATOM     18  C   UNL     1      -5.313  34.364  43.417  1.00  0.00     0.000 C 
BRANCH  18  19
ATOM     19  C   UNL     1      -6.570  35.195  43.730  1.00  0.00     0.000 C 
BRANCH  19  20
ATOM     20  C   UNL     1      -7.635  34.388  44.488  1.00  0.00     0.006 C 
BRANCH  20  21
ATOM     21  C   UNL     1      -7.731  32.937  43.997  1.00  0.00     0.053 C 
BRANCH  21  22
ATOM     22  C   UNL     1      -8.832  32.798  42.993  1.00  0.00     0.041 C 
ATOM     23  O   UNL     1      -9.979  32.425  43.358  1.00  0.00    -0.550 OA
ATOM     24  O   UNL     1      -8.606  33.127  41.662  1.00  0.00    -0.550 OA
ENDBRANCH  21  22
ENDBRANCH  20  21
ENDBRANCH  19  20
ENDBRANCH  18  19
ENDBRANCH  17  18
ENDBRANCH  16  17
ENDBRANCH  15  16
ENDBRANCH  14  15
ENDBRANCH  13  14
ENDBRANCH   1  13
TORSDOF 20
ENDMDL
MODEL 5
REMARK VINA RESULT:    -3.931     12.735     15.758
REMARK INTER + INTRA:         -10.869
REMARK INTER:                  -7.371
REMARK INTRA:                  -3.499
REMARK UNBOUND:                -2.341
REMARK SMILES CCCCCCCCCCCCCCCCCCCCCC(=O)[O-]
REMARK SMILES IDX 12 1 11 2 10 3 9 4 8 5 7 6 6 7 5 8 4 9 3 10 2 11 1 12 13 13
REMARK SMILES IDX 14 14 15 15 16 16 17 17 18 18 19 19 20 20 21 21 22 22 23 23
REMARK SMILES IDX 24 24
REMARK H PARENT
REMARK Flexibility Score: inf
ROOT
ATOM      1  C   UNL     1      -4.763  37.955  43.903  1.00  0.00     0.000 C 
ENDROOT
BRANCH   1   2
ATOM      2  C   UNL     1      -3.326  38.502  43.831  1.00  0.00     0.000 C 
BRANCH   2   3
ATOM      3  C   UNL     1      -2.249  37.453  43.492  1.00  0.00     0.000 C 
BRANCH   3   4
ATOM      4  C   UNL     1      -1.481  37.701  42.177  1.00  0.00    -0.000 C 
BRANCH   4   5
ATOM      5  C   UNL     1      -2.297  38.370  41.057  1.00  0.00    -0.000 C 
BRANCH   5   6
ATOM      6  C   UNL     1      -2.669  37.399  39.923  1.00  0.00    -0.000 C 
BRANCH   6   7
ATOM      7  C   UNL     1      -4.006  36.674  40.167  1.00  0.00    -0.000 C 
BRANCH   7   8
ATOM      8  C   UNL     1      -3.890  35.220  40.658  1.00  0.00    -0.000 C 
BRANCH   8   9
ATOM      9  C   UNL     1      -4.712  34.946  41.928  1.00  0.00    -0.000 C 
BRANCH   9  10
ATOM     10  C   UNL     1      -3.918  34.183  43.004  1.00  0.00    -0.000 C 
BRANCH  10  11
ATOM     11  C   UNL     1      -2.558  33.630  42.543  1.00  0.00    -0.003 C 
ATOM     12  C   UNL     1      -2.517  32.103  42.496  1.00  0.00     0.004 C 
ENDBRANCH  10  11
ENDBRANCH   9  10
ENDBRANCH   8   9
ENDBRANCH   7   8
ENDBRANCH   6   7
ENDBRANCH   5   6
ENDBRANCH   4   5
ENDBRANCH   3   4
ENDBRANCH   2   3
ENDBRANCH   1   2
BRANCH   1  13
ATOM     13  C   UNL     1      -5.721  38.667  42.936  1.00  0.00     0.000 C 
BRANCH  13  14
ATOM     14  C   UNL     1      -6.611  39.668  43.686  1.00  0.00     0.000 C 
BRANCH  14  15
ATOM     15  C   UNL     1      -6.683  39.397  45.199  1.00  0.00     0.000 C 
BRANCH  15  16
ATOM     16  C   UNL     1      -8.105  39.232  45.767  1.00  0.00     0.000 C 
BRANCH  16  17
ATOM     17  C   UNL     1      -8.725  37.860  45.447  1.00  0.00     0.000 C 
BRANCH  17  18
ATOM     18  C   UNL     1      -7.761  36.700  45.746  1.00  0.00     0.000 C 
BRANCH  18  19
ATOM     19  C   UNL     1      -7.646  35.711  44.573  1.00  0.00     0.000 C 
BRANCH  19  20
ATOM     20  C   UNL     1      -7.820  34.250  45.015  1.00  0.00     0.006 C 
BRANCH  20  21
ATOM     21  C   UNL     1      -7.443  33.254  43.911  1.00  0.00     0.053 C 
BRANCH  21  22
ATOM     22  C   UNL     1      -8.607  33.018  43.000  1.00  0.00     0.041 C 
ATOM     23  O   UNL     1      -8.531  33.330  41.782  1.00  0.00    -0.550 OA
ATOM     24  O   UNL     1      -9.759  32.409  43.485  1.00  0.00    -0.550 OA
ENDBRANCH  21  22
ENDBRANCH  20  21
ENDBRANCH  19  20
ENDBRANCH  18  19
ENDBRANCH  17  18
ENDBRANCH  16  17
ENDBRANCH  15  16
ENDBRANCH  14  15
ENDBRANCH  13  14
ENDBRANCH   1  13
TORSDOF 20
ENDMDL
MODEL 6
REMARK VINA RESULT:    -3.833     11.946     14.440
REMARK INTER + INTRA:         -10.656
REMARK INTER:                  -7.280
REMARK INTRA:                  -3.376
REMARK UNBOUND:                -2.341
REMARK SMILES CCCCCCCCCCCCCCCCCCCCCC(=O)[O-]
REMARK SMILES IDX 12 1 11 2 10 3 9 4 8 5 7 6 6 7 5 8 4 9 3 10 2 11 1 12 13 13
REMARK SMILES IDX 14 14 15 15 16 16 17 17 18 18 19 19 20 20 21 21 22 22 23 23
REMARK SMILES IDX 24 24
REMARK H PARENT
REMARK Flexibility Score: inf
ROOT
ATOM      1  C   UNL     1      -7.949  38.663  45.934  1.00  0.00     0.000 C 
ENDROOT
BRANCH   1   2
ATOM      2  C   UNL     1      -7.146  38.846  47.233  1.00  0.00     0.000 C 
BRANCH   2   3
ATOM      3  C   UNL     1      -5.745  39.462  47.047  1.00  0.00     0.000 C 
BRANCH   3   4
ATOM      4  C   UNL     1      -4.566  38.534  47.406  1.00  0.00    -0.000 C 
BRANCH   4   5
ATOM      5  C   UNL     1      -4.243  37.449  46.362  1.00  0.00    -0.000 C 
BRANCH   5   6
ATOM      6  C   UNL     1      -4.652  36.039  46.817  1.00  0.00    -0.000 C 
BRANCH   6   7
ATOM      7  C   UNL     1      -5.468  35.278  45.755  1.00  0.00    -0.000 C 
BRANCH   7   8
ATOM      8  C   UNL     1      -6.992  35.262  45.979  1.00  0.00    -0.000 C 
BRANCH   8   9
ATOM      9  C   UNL     1      -7.775  34.777  44.748  1.00  0.00    -0.000 C 
BRANCH   9  10
ATOM     10  C   UNL     1      -6.898  34.012  43.740  1.00  0.00    -0.000 C 
BRANCH  10  11
ATOM     11  C   UNL     1      -7.646  33.449  42.518  1.00  0.00    -0.003 C 
ATOM     12  C   UNL     1      -8.974  32.786  42.882  1.00  0.00     0.004 C 
ENDBRANCH  10  11
ENDBRANCH   9  10
ENDBRANCH   8   9
ENDBRANCH   7   8
ENDBRANCH   6   7
ENDBRANCH   5   6
ENDBRANCH   4   5
ENDBRANCH   3   4
ENDBRANCH   2   3
ENDBRANCH   1   2
BRANCH   1  13
ATOM     13  C   UNL     1      -7.268  39.303  44.715  1.00  0.00     0.000 C 
BRANCH  13  14
ATOM     14  C   UNL     1      -6.821  38.231  43.711  1.00  0.00     0.000 C 
BRANCH  14  15
ATOM     15  C   UNL     1      -5.416  38.488  43.138  1.00  0.00     0.000 C 
BRANCH  15  16
ATOM     16  C   UNL     1      -4.670  37.232  42.648  1.00  0.00     0.000 C 
BRANCH  16  17
ATOM     17  C   UNL     1      -3.996  37.430  41.279  1.00  0.00     0.000 C 
BRANCH  17  18
ATOM     18  C   UNL     1      -3.984  36.141  40.441  1.00  0.00     0.000 C 
BRANCH  18  19
ATOM     19  C   UNL     1      -4.377  34.900  41.261  1.00  0.00     0.000 C 
BRANCH  19  20
ATOM     20  C   UNL     1      -3.220  33.900  41.404  1.00  0.00     0.006 C 
BRANCH  20  21
ATOM     21  C   UNL     1      -2.012  34.270  40.534  1.00  0.00     0.053 C 
BRANCH  21  22
ATOM     22  C   UNL     1      -0.837  34.621  41.392  1.00  0.00     0.041 C 
ATOM     23  O   UNL     1      -0.292  35.752  41.287  1.00  0.00    -0.550 OA
ATOM     24  O   UNL     1      -0.375  33.718  42.342  1.00  0.00    -0.550 OA
ENDBRANCH  21  22
ENDBRANCH  20  21
ENDBRANCH  19  20
ENDBRANCH  18  19
ENDBRANCH  17  18
ENDBRANCH  16  17
ENDBRANCH  15  16
ENDBRANCH  14  15
ENDBRANCH  13  14
ENDBRANCH   1  13
TORSDOF 20
ENDMDL
MODEL 7
REMARK VINA RESULT:    -3.801     12.369     15.276
REMARK INTER + INTRA:         -10.585
REMARK INTER:                  -6.568
REMARK INTRA:                  -4.017
REMARK UNBOUND:                -2.341
REMARK SMILES CCCCCCCCCCCCCCCCCCCCCC(=O)[O-]
REMARK SMILES IDX 12 1 11 2 10 3 9 4 8 5 7 6 6 7 5 8 4 9 3 10 2 11 1 12 13 13
REMARK SMILES IDX 14 14 15 15 16 16 17 17 18 18 19 19 20 20 21 21 22 22 23 23
REMARK SMILES IDX 24 24
REMARK H PARENT
REMARK Flexibility Score: inf
ROOT
ATOM      1  C   UNL     1      -5.238  39.474  45.150  1.00  0.00     0.000 C 
ENDROOT
BRANCH   1   2
ATOM      2  C   UNL     1      -5.345  39.349  43.620  1.00  0.00     0.000 C 
BRANCH   2   3
ATOM      3  C   UNL     1      -4.109  38.735  42.932  1.00  0.00     0.000 C 
BRANCH   3   4
ATOM      4  C   UNL     1      -4.416  37.652  41.877  1.00  0.00    -0.000 C 
BRANCH   4   5
ATOM      5  C   UNL     1      -3.268  37.344  40.898  1.00  0.00    -0.000 C 
BRANCH   5   6
ATOM      6  C   UNL     1      -3.425  35.985  40.196  1.00  0.00    -0.000 C 
BRANCH   6   7
ATOM      7  C   UNL     1      -4.187  34.953  41.048  1.00  0.00    -0.000 C 
BRANCH   7   8
ATOM      8  C   UNL     1      -3.368  33.725  41.487  1.00  0.00    -0.000 C 
BRANCH   8   9
ATOM      9  C   UNL     1      -3.074  33.707  42.997  1.00  0.00    -0.000 C 
BRANCH   9  10
ATOM     10  C   UNL     1      -1.829  34.529  43.375  1.00  0.00    -0.000 C 
BRANCH  10  11
ATOM     11  C   UNL     1      -2.113  35.816  44.171  1.00  0.00    -0.003 C 
ATOM     12  C   UNL     1      -1.065  36.905  43.943  1.00  0.00     0.004 C 
ENDBRANCH  10  11
ENDBRANCH   9  10
ENDBRANCH   8   9
ENDBRANCH   7   8
ENDBRANCH   6   7
ENDBRANCH   5   6
ENDBRANCH   4   5
ENDBRANCH   3   4
ENDBRANCH   2   3
ENDBRANCH   1   2
BRANCH   1  13
ATOM     13  C   UNL     1      -6.609  39.497  45.843  1.00  0.00     0.000 C 
BRANCH  13  14
ATOM     14  C   UNL     1      -7.726  39.120  44.860  1.00  0.00     0.000 C 
BRANCH  14  15
ATOM     15  C   UNL     1      -8.605  37.959  45.360  1.00  0.00     0.000 C 
BRANCH  15  16
ATOM     16  C   UNL     1      -8.062  37.212  46.593  1.00  0.00     0.000 C 
BRANCH  16  17
ATOM     17  C   UNL     1      -7.634  35.767  46.280  1.00  0.00     0.000 C 
BRANCH  17  18
ATOM     18  C   UNL     1      -6.122  35.646  46.030  1.00  0.00     0.000 C 
BRANCH  18  19
ATOM     19  C   UNL     1      -5.768  35.655  44.533  1.00  0.00     0.000 C 
BRANCH  19  20
ATOM     20  C   UNL     1      -6.874  35.039  43.663  1.00  0.00     0.006 C 
BRANCH  20  21
ATOM     21  C   UNL     1      -6.759  33.512  43.561  1.00  0.00     0.053 C 
BRANCH  21  22
ATOM     22  C   UNL     1      -8.072  32.915  43.163  1.00  0.00     0.041 C 
ATOM     23  O   UNL     1      -8.672  33.330  42.136  1.00  0.00    -0.550 OA
ATOM     24  O   UNL     1      -8.611  31.866  43.898  1.00  0.00    -0.550 OA
ENDBRANCH  21  22
ENDBRANCH  20  21
ENDBRANCH  19  20
ENDBRANCH  18  19
ENDBRANCH  17  18
ENDBRANCH  16  17
ENDBRANCH  15  16
ENDBRANCH  14  15
ENDBRANCH  13  14
ENDBRANCH   1  13
TORSDOF 20
ENDMDL
MODEL 8
REMARK VINA RESULT:    -3.797     13.652     15.563
REMARK INTER + INTRA:         -10.577
REMARK INTER:                  -7.569
REMARK INTRA:                  -3.008
REMARK UNBOUND:                -2.341
REMARK SMILES CCCCCCCCCCCCCCCCCCCCCC(=O)[O-]
REMARK SMILES IDX 12 1 11 2 10 3 9 4 8 5 7 6 6 7 5 8 4 9 3 10 2 11 1 12 13 13
REMARK SMILES IDX 14 14 15 15 16 16 17 17 18 18 19 19 20 20 21 21 22 22 23 23
REMARK SMILES IDX 24 24
REMARK H PARENT
REMARK Flexibility Score: inf
ROOT
ATOM      1  C   UNL     1      -8.493  37.892  45.850  1.00  0.00     0.000 C 
ENDROOT
BRANCH   1   2
ATOM      2  C   UNL     1      -8.014  39.339  46.054  1.00  0.00     0.000 C 
BRANCH   2   3
ATOM      3  C   UNL     1      -7.128  39.895  44.921  1.00  0.00     0.000 C 
BRANCH   3   4
ATOM      4  C   UNL     1      -7.021  38.997  43.671  1.00  0.00    -0.000 C 
BRANCH   4   5
ATOM      5  C   UNL     1      -5.593  38.561  43.296  1.00  0.00    -0.000 C 
BRANCH   5   6
ATOM      6  C   UNL     1      -4.716  38.258  44.523  1.00  0.00    -0.000 C 
BRANCH   6   7
ATOM      7  C   UNL     1      -4.128  36.834  44.506  1.00  0.00    -0.000 C 
BRANCH   7   8
ATOM      8  C   UNL     1      -3.038  36.582  43.449  1.00  0.00    -0.000 C 
BRANCH   8   9
ATOM      9  C   UNL     1      -3.248  35.274  42.667  1.00  0.00    -0.000 C 
BRANCH   9  10
ATOM     10  C   UNL     1      -4.190  35.440  41.461  1.00  0.00    -0.000 C 
BRANCH  10  11
ATOM     11  C   UNL     1      -3.540  36.044  40.203  1.00  0.00    -0.003 C 
ATOM     12  C   UNL     1      -3.694  37.561  40.118  1.00  0.00     0.004 C 
ENDBRANCH  10  11
ENDBRANCH   9  10
ENDBRANCH   8   9
ENDBRANCH   7   8
ENDBRANCH   6   7
ENDBRANCH   5   6
ENDBRANCH   4   5
ENDBRANCH   3   4
ENDBRANCH   2   3
ENDBRANCH   1   2
BRANCH   1  13
ATOM     13  C   UNL     1      -7.563  36.858  46.503  1.00  0.00     0.000 C 
BRANCH  13  14
ATOM     14  C   UNL     1      -7.790  35.462  45.904  1.00  0.00     0.000 C 
BRANCH  14  15
ATOM     15  C   UNL     1      -7.483  35.394  44.397  1.00  0.00     0.000 C 
BRANCH  15  16
ATOM     16  C   UNL     1      -6.559  34.239  43.969  1.00  0.00     0.000 C 
BRANCH  16  17
ATOM     17  C   UNL     1      -7.178  33.346  42.880  1.00  0.00     0.000 C 
BRANCH  17  18
ATOM     18  C   UNL     1      -8.709  33.265  42.990  1.00  0.00     0.000 C 
BRANCH  18  19
ATOM     19  C   UNL     1      -9.234  31.823  42.880  1.00  0.00     0.000 C 
BRANCH  19  20
ATOM     20  C   UNL     1      -9.023  31.019  44.172  1.00  0.00     0.006 C 
BRANCH  20  21
ATOM     21  C   UNL     1      -9.604  31.724  45.404  1.00  0.00     0.053 C 
BRANCH  21  22
ATOM     22  C   UNL     1     -10.872  31.058  45.837  1.00  0.00     0.041 C 
ATOM     23  O   UNL     1     -11.948  31.712  45.884  1.00  0.00    -0.550 OA
ATOM     24  O   UNL     1     -10.877  29.702  46.142  1.00  0.00    -0.550 OA
ENDBRANCH  21  22
ENDBRANCH  20  21
ENDBRANCH  19  20
ENDBRANCH  18  19
ENDBRANCH  17  18
ENDBRANCH  16  17
ENDBRANCH  15  16
ENDBRANCH  14  15
ENDBRANCH  13  14
ENDBRANCH   1  13
TORSDOF 20
ENDMDL
MODEL 9
REMARK VINA RESULT:    -3.793     12.300     15.535
REMARK INTER + INTRA:         -10.570
REMARK INTER:                  -6.465
REMARK INTRA:                  -4.105
REMARK UNBOUND:                -2.341
REMARK SMILES CCCCCCCCCCCCCCCCCCCCCC(=O)[O-]
REMARK SMILES IDX 12 1 11 2 10 3 9 4 8 5 7 6 6 7 5 8 4 9 3 10 2 11 1 12 13 13
REMARK SMILES IDX 14 14 15 15 16 16 17 17 18 18 19 19 20 20 21 21 22 22 23 23
REMARK SMILES IDX 24 24
REMARK H PARENT
REMARK Flexibility Score: inf
ROOT
ATOM      1  C   UNL     1      -4.070  37.066  44.236  1.00  0.00     0.000 C 
ENDROOT
BRANCH   1   2
ATOM      2  C   UNL     1      -5.035  36.170  43.441  1.00  0.00     0.000 C 
BRANCH   2   3
ATOM      3  C   UNL     1      -4.488  34.769  43.102  1.00  0.00     0.000 C 
BRANCH   3   4
ATOM      4  C   UNL     1      -4.389  34.450  41.596  1.00  0.00    -0.000 C 
BRANCH   4   5
ATOM      5  C   UNL     1      -2.959  34.266  41.056  1.00  0.00    -0.000 C 
BRANCH   5   6
ATOM      6  C   UNL     1      -2.524  35.398  40.110  1.00  0.00    -0.000 C 
BRANCH   6   7
ATOM      7  C   UNL     1      -3.630  36.445  39.877  1.00  0.00    -0.000 C 
BRANCH   7   8
ATOM      8  C   UNL     1      -3.387  37.819  40.528  1.00  0.00    -0.000 C 
BRANCH   8   9
ATOM      9  C   UNL     1      -1.896  38.178  40.638  1.00  0.00    -0.000 C 
BRANCH   9  10
ATOM     10  C   UNL     1      -1.435  38.388  42.092  1.00  0.00    -0.000 C 
BRANCH  10  11
ATOM     11  C   UNL     1      -0.262  37.498  42.541  1.00  0.00    -0.003 C 
ATOM     12  C   UNL     1      -0.715  36.220  43.245  1.00  0.00     0.004 C 
ENDBRANCH  10  11
ENDBRANCH   9  10
ENDBRANCH   8   9
ENDBRANCH   7   8
ENDBRANCH   6   7
ENDBRANCH   5   6
ENDBRANCH   4   5
ENDBRANCH   3   4
ENDBRANCH   2   3
ENDBRANCH   1   2
BRANCH   1  13
ATOM     13  C   UNL     1      -4.593  38.501  44.408  1.00  0.00     0.000 C 
BRANCH  13  14
ATOM     14  C   UNL     1      -5.466  38.912  43.213  1.00  0.00     0.000 C 
BRANCH  14  15
ATOM     15  C   UNL     1      -6.831  39.487  43.632  1.00  0.00     0.000 C 
BRANCH  15  16
ATOM     16  C   UNL     1      -6.948  39.876  45.118  1.00  0.00     0.000 C 
BRANCH  16  17
ATOM     17  C   UNL     1      -8.003  39.050  45.874  1.00  0.00     0.000 C 
BRANCH  17  18
ATOM     18  C   UNL     1      -8.515  37.858  45.047  1.00  0.00     0.000 C 
BRANCH  18  19
ATOM     19  C   UNL     1      -7.936  36.516  45.526  1.00  0.00     0.000 C 
BRANCH  19  20
ATOM     20  C   UNL     1      -7.484  36.560  46.994  1.00  0.00     0.006 C 
BRANCH  20  21
ATOM     21  C   UNL     1      -5.996  36.224  47.161  1.00  0.00     0.053 C 
BRANCH  21  22
ATOM     22  C   UNL     1      -5.288  37.329  47.879  1.00  0.00     0.041 C 
ATOM     23  O   UNL     1      -5.930  38.107  48.634  1.00  0.00    -0.550 OA
ATOM     24  O   UNL     1      -3.911  37.471  47.755  1.00  0.00    -0.550 OA
ENDBRANCH  21  22
ENDBRANCH  20  21
ENDBRANCH  19  20
ENDBRANCH  18  19
ENDBRANCH  17  18
ENDBRANCH  16  17
ENDBRANCH  15  16
ENDBRANCH  14  15
ENDBRANCH  13  14
ENDBRANCH   1  13
TORSDOF 20
ENDMDL
