MODEL 1
REMARK VINA RESULT:    -5.073      0.000      0.000
REMARK INTER + INTRA:          -9.645
REMARK INTER:                  -8.632
REMARK INTRA:                  -1.013
REMARK UNBOUND:                -1.013
REMARK SMILES CCCCCCCCCCCCCC(=O)[O-]
REMARK SMILES IDX 8 1 9 2 10 3 11 4 12 5 13 6 14 7 15 8 16 9 7 10 6 11 5 12
REMARK SMILES IDX 4 13 3 14 2 15 1 16
REMARK H PARENT
REMARK Flexibility Score: inf
ROOT
ATOM      1  C   UNL     1      -4.569   7.750   6.870  1.00  0.00     0.000 C 
ENDROOT
BRANCH   1   2
ATOM      2  C   UNL     1      -4.156   7.968   5.403  1.00  0.00     0.000 C 
BRANCH   2   3
ATOM      3  C   UNL     1      -4.065   6.658   4.607  1.00  0.00     0.000 C 
BRANCH   3   4
ATOM      4  C   UNL     1      -2.647   6.446   4.060  1.00  0.00     0.000 C 
BRANCH   4   5
ATOM      5  C   UNL     1      -1.976   5.171   4.605  1.00  0.00     0.006 C 
BRANCH   5   6
ATOM      6  C   UNL     1      -2.779   4.468   5.714  1.00  0.00     0.053 C 
BRANCH   6   7
ATOM      7  C   UNL     1      -2.355   3.047   5.924  1.00  0.00     0.041 C 
ATOM      8  O   UNL     1      -1.689   2.726   6.945  1.00  0.00    -0.550 OA
ATOM      9  O   UNL     1      -2.676   2.078   4.982  1.00  0.00    -0.550 OA
ENDBRANCH   6   7
ENDBRANCH   5   6
ENDBRANCH   4   5
ENDBRANCH   3   4
ENDBRANCH   2   3
ENDBRANCH   1   2
BRANCH   1  10
ATOM     10  C   UNL     1      -5.425   6.494   7.130  1.00  0.00     0.000 C 
BRANCH  10  11
ATOM     11  C   UNL     1      -6.134   6.458   8.495  1.00  0.00    -0.000 C 
BRANCH  11  12
ATOM     12  C   UNL     1      -7.453   7.244   8.502  1.00  0.00    -0.000 C 
BRANCH  12  13
ATOM     13  C   UNL     1      -8.641   6.321   8.805  1.00  0.00    -0.000 C 
BRANCH  13  14
ATOM     14  C   UNL     1      -8.866   5.320   7.662  1.00  0.00    -0.000 C 
BRANCH  14  15
ATOM     15  C   UNL     1      -9.124   3.894   8.169  1.00  0.00    -0.003 C 
ATOM     16  C   UNL     1      -8.183   3.489   9.303  1.00  0.00     0.004 C 
ENDBRANCH  14  15
ENDBRANCH  13  14
ENDBRANCH  12  13
ENDBRANCH  11  12
ENDBRANCH  10  11
ENDBRANCH   1  10
TORSDOF 12
ENDMDL
MODEL 2
REMARK VINA RESULT:    -4.890      1.119      2.086
REMARK INTER + INTRA:          -9.333
REMARK INTER:                  -8.463
REMARK INTRA:                  -0.870
REMARK UNBOUND:                -1.013
REMARK SMILES CCCCCCCCCCCCCC(=O)[O-]
REMARK SMILES IDX 8 1 9 2 10 3 11 4 12 5 13 6 14 7 15 8 16 9 7 10 6 11 5 12
REMARK SMILES IDX 4 13 3 14 2 15 1 16
REMARK H PARENT
REMARK Flexibility Score: inf
ROOT
ATOM      1  C   UNL     1      -4.712   7.539   6.322  1.00  0.00     0.000 C 
ENDROOT
BRANCH   1   2
ATOM      2  C   UNL     1      -3.763   8.387   5.457  1.00  0.00     0.000 C 
BRANCH   2   3
ATOM      3  C   UNL     1      -3.022   7.560   4.397  1.00  0.00     0.000 C 
BRANCH   3   4
ATOM      4  C   UNL     1      -3.477   6.094   4.426  1.00  0.00     0.000 C 
BRANCH   4   5
ATOM      5  C   UNL     1      -2.368   5.128   4.883  1.00  0.00     0.006 C 
BRANCH   5   6
ATOM      6  C   UNL     1      -2.724   4.319   6.144  1.00  0.00     0.053 C 
BRANCH   6   7
ATOM      7  C   UNL     1      -2.246   2.901   6.076  1.00  0.00     0.041 C 
ATOM      8  O   UNL     1      -2.588   2.159   5.117  1.00  0.00    -0.550 OA
ATOM      9  O   UNL     1      -1.439   2.390   7.085  1.00  0.00    -0.550 OA
ENDBRANCH   6   7
ENDBRANCH   5   6
ENDBRANCH   4   5
ENDBRANCH   3   4
ENDBRANCH   2   3
ENDBRANCH   1   2
BRANCH   1  10
ATOM     10  C   UNL     1      -4.795   7.954   7.805  1.00  0.00     0.000 C 
BRANCH  10  11
ATOM     11  C   UNL     1      -5.915   7.274   8.612  1.00  0.00    -0.000 C 
BRANCH  11  12
ATOM     12  C   UNL     1      -6.475   6.025   7.917  1.00  0.00    -0.000 C 
BRANCH  12  13
ATOM     13  C   UNL     1      -7.789   5.575   8.570  1.00  0.00    -0.000 C 
BRANCH  13  14
ATOM     14  C   UNL     1      -8.849   6.683   8.493  1.00  0.00    -0.000 C 
BRANCH  14  15
ATOM     15  C   UNL     1      -9.125   7.332   9.857  1.00  0.00    -0.003 C 
ATOM     16  C   UNL     1      -9.120   8.859   9.798  1.00  0.00     0.004 C 
ENDBRANCH  14  15
ENDBRANCH  13  14
ENDBRANCH  12  13
ENDBRANCH  11  12
ENDBRANCH  10  11
ENDBRANCH   1  10
TORSDOF 12
ENDMDL
MODEL 3
REMARK VINA RESULT:    -4.799      2.160      3.720
REMARK INTER + INTRA:          -9.178
REMARK INTER:                  -8.512
REMARK INTRA:                  -0.666
REMARK UNBOUND:                -1.013
REMARK SMILES CCCCCCCCCCCCCC(=O)[O-]
REMARK SMILES IDX 8 1 9 2 10 3 11 4 12 5 13 6 14 7 15 8 16 9 7 10 6 11 5 12
REMARK SMILES IDX 4 13 3 14 2 15 1 16
REMARK H PARENT
REMARK Flexibility Score: inf
ROOT
ATOM      1  C   UNL     1      -3.409   6.322   4.261  1.00  0.00     0.000 C 
ENDROOT
BRANCH   1   2
ATOM      2  C   UNL     1      -2.393   5.337   4.866  1.00  0.00     0.000 C 
BRANCH   2   3
ATOM      3  C   UNL     1      -3.055   4.081   5.449  1.00  0.00     0.000 C 
BRANCH   3   4
ATOM      4  C   UNL     1      -2.007   3.140   6.060  1.00  0.00     0.000 C 
BRANCH   4   5
ATOM      5  C   UNL     1      -1.973   3.193   7.598  1.00  0.00     0.006 C 
BRANCH   5   6
ATOM      6  C   UNL     1      -0.787   2.435   8.224  1.00  0.00     0.053 C 
BRANCH   6   7
ATOM      7  C   UNL     1      -1.185   1.621   9.417  1.00  0.00     0.041 C 
ATOM      8  O   UNL     1      -2.305   1.801   9.965  1.00  0.00    -0.550 OA
ATOM      9  O   UNL     1      -0.309   0.677   9.938  1.00  0.00    -0.550 OA
ENDBRANCH   6   7
ENDBRANCH   5   6
ENDBRANCH   4   5
ENDBRANCH   3   4
ENDBRANCH   2   3
ENDBRANCH   1   2
BRANCH   1  10
ATOM     10  C   UNL     1      -3.427   7.724   4.905  1.00  0.00     0.000 C 
BRANCH  10  11
ATOM     11  C   UNL     1      -4.266   7.841   6.190  1.00  0.00    -0.000 C 
BRANCH  11  12
ATOM     12  C   UNL     1      -5.211   6.648   6.395  1.00  0.00    -0.000 C 
BRANCH  12  13
ATOM     13  C   UNL     1      -5.531   6.450   7.882  1.00  0.00    -0.000 C 
BRANCH  13  14
ATOM     14  C   UNL     1      -7.019   6.708   8.164  1.00  0.00    -0.000 C 
BRANCH  14  15
ATOM     15  C   UNL     1      -7.250   7.413   9.509  1.00  0.00    -0.003 C 
ATOM     16  C   UNL     1      -6.014   8.164  10.004  1.00  0.00     0.004 C 
ENDBRANCH  14  15
ENDBRANCH  13  14
ENDBRANCH  12  13
ENDBRANCH  11  12
ENDBRANCH  10  11
ENDBRANCH   1  10
TORSDOF 12
ENDMDL
MODEL 4
REMARK VINA RESULT:    -4.792      2.320      5.967
REMARK INTER + INTRA:          -9.166
REMARK INTER:                  -8.300
REMARK INTRA:                  -0.867
REMARK UNBOUND:                -1.013
REMARK SMILES CCCCCCCCCCCCCC(=O)[O-]
REMARK SMILES IDX 8 1 9 2 10 3 11 4 12 5 13 6 14 7 15 8 16 9 7 10 6 11 5 12
REMARK SMILES IDX 4 13 3 14 2 15 1 16
REMARK H PARENT
REMARK Flexibility Score: inf
ROOT
ATOM      1  C   UNL     1      -4.797   7.761   7.291  1.00  0.00     0.000 C 
ENDROOT
BRANCH   1   2
ATOM      2  C   UNL     1      -5.689   6.516   7.438  1.00  0.00     0.000 C 
BRANCH   2   3
ATOM      3  C   UNL     1      -6.726   6.653   8.562  1.00  0.00     0.000 C 
BRANCH   3   4
ATOM      4  C   UNL     1      -8.102   6.150   8.105  1.00  0.00     0.000 C 
BRANCH   4   5
ATOM      5  C   UNL     1      -8.734   5.148   9.090  1.00  0.00     0.006 C 
BRANCH   5   6
ATOM      6  C   UNL     1      -8.713   3.690   8.598  1.00  0.00     0.053 C 
BRANCH   6   7
ATOM      7  C   UNL     1      -7.695   2.853   9.310  1.00  0.00     0.041 C 
ATOM      8  O   UNL     1      -6.680   3.390   9.829  1.00  0.00    -0.550 OA
ATOM      9  O   UNL     1      -7.854   1.475   9.382  1.00  0.00    -0.550 OA
ENDBRANCH   6   7
ENDBRANCH   5   6
ENDBRANCH   4   5
ENDBRANCH   3   4
ENDBRANCH   2   3
ENDBRANCH   1   2
BRANCH   1  10
ATOM     10  C   UNL     1      -4.192   7.973   5.888  1.00  0.00     0.000 C 
BRANCH  10  11
ATOM     11  C   UNL     1      -4.242   6.745   4.963  1.00  0.00    -0.000 C 
BRANCH  11  12
ATOM     12  C   UNL     1      -2.986   6.603   4.093  1.00  0.00    -0.000 C 
BRANCH  12  13
ATOM     13  C   UNL     1      -2.161   5.379   4.513  1.00  0.00    -0.000 C 
BRANCH  13  14
ATOM     14  C   UNL     1      -2.869   4.596   5.630  1.00  0.00    -0.000 C 
BRANCH  14  15
ATOM     15  C   UNL     1      -2.284   3.190   5.826  1.00  0.00    -0.003 C 
ATOM     16  C   UNL     1      -1.759   2.960   7.243  1.00  0.00     0.004 C 
ENDBRANCH  14  15
ENDBRANCH  13  14
ENDBRANCH  12  13
ENDBRANCH  11  12
ENDBRANCH  10  11
ENDBRANCH   1  10
TORSDOF 12
ENDMDL
MODEL 5
REMARK VINA RESULT:    -4.752      3.188      6.066
REMARK INTER + INTRA:          -9.098
REMARK INTER:                  -8.610
REMARK INTRA:                  -0.488
REMARK UNBOUND:                -1.013
REMARK SMILES CCCCCCCCCCCCCC(=O)[O-]
REMARK SMILES IDX 8 1 9 2 10 3 11 4 12 5 13 6 14 7 15 8 16 9 7 10 6 11 5 12
REMARK SMILES IDX 4 13 3 14 2 15 1 16
REMARK H PARENT
REMARK Flexibility Score: inf
ROOT
ATOM      1  C   UNL     1      -3.091   7.292   4.436  1.00  0.00     0.000 C 
ENDROOT
BRANCH   1   2
ATOM      2  C   UNL     1      -4.158   8.201   5.072  1.00  0.00     0.000 C 
BRANCH   2   3
ATOM      3  C   UNL     1      -4.309   7.976   6.583  1.00  0.00     0.000 C 
BRANCH   3   4
ATOM      4  C   UNL     1      -5.401   6.939   6.878  1.00  0.00     0.000 C 
BRANCH   4   5
ATOM      5  C   UNL     1      -5.933   7.019   8.321  1.00  0.00     0.006 C 
BRANCH   5   6
ATOM      6  C   UNL     1      -6.839   5.839   8.720  1.00  0.00     0.053 C 
BRANCH   6   7
ATOM      7  C   UNL     1      -8.190   5.902   8.077  1.00  0.00     0.041 C 
ATOM      8  O   UNL     1      -8.789   7.005   7.963  1.00  0.00    -0.550 OA
ATOM      9  O   UNL     1      -8.799   4.740   7.622  1.00  0.00    -0.550 OA
ENDBRANCH   6   7
ENDBRANCH   5   6
ENDBRANCH   4   5
ENDBRANCH   3   4
ENDBRANCH   2   3
ENDBRANCH   1   2
BRANCH   1  10
ATOM     10  C   UNL     1      -3.428   5.787   4.433  1.00  0.00     0.000 C 
BRANCH  10  11
ATOM     11  C   UNL     1      -2.319   4.868   4.975  1.00  0.00    -0.000 C 
BRANCH  11  12
ATOM     12  C   UNL     1      -2.870   3.611   5.661  1.00  0.00    -0.000 C 
BRANCH  12  13
ATOM     13  C   UNL     1      -1.754   2.847   6.388  1.00  0.00    -0.000 C 
BRANCH  13  14
ATOM     14  C   UNL     1      -1.864   3.029   7.909  1.00  0.00    -0.000 C 
BRANCH  14  15
ATOM     15  C   UNL     1      -0.686   2.395   8.665  1.00  0.00    -0.003 C 
ATOM     16  C   UNL     1      -1.113   1.728   9.972  1.00  0.00     0.004 C 
ENDBRANCH  14  15
ENDBRANCH  13  14
ENDBRANCH  12  13
ENDBRANCH  11  12
ENDBRANCH  10  11
ENDBRANCH   1  10
TORSDOF 12
ENDMDL
MODEL 6
REMARK VINA RESULT:    -4.613      1.532      2.537
REMARK INTER + INTRA:          -8.861
REMARK INTER:                  -8.043
REMARK INTRA:                  -0.818
REMARK UNBOUND:                -1.013
REMARK SMILES CCCCCCCCCCCCCC(=O)[O-]
REMARK SMILES IDX 8 1 9 2 10 3 11 4 12 5 13 6 14 7 15 8 16 9 7 10 6 11 5 12
REMARK SMILES IDX 4 13 3 14 2 15 1 16
REMARK H PARENT
REMARK Flexibility Score: inf
ROOT
ATOM      1  C   UNL     1      -4.272   6.625   4.782  1.00  0.00     0.000 C 
ENDROOT
BRANCH   1   2
ATOM      2  C   UNL     1      -2.818   6.508   4.291  1.00  0.00     0.000 C 
BRANCH   2   3
ATOM      3  C   UNL     1      -2.094   5.278   4.856  1.00  0.00     0.000 C 
BRANCH   3   4
ATOM      4  C   UNL     1      -3.100   4.230   5.356  1.00  0.00     0.000 C 
BRANCH   4   5
ATOM      5  C   UNL     1      -2.750   3.677   6.750  1.00  0.00     0.006 C 
BRANCH   5   6
ATOM      6  C   UNL     1      -1.391   2.956   6.813  1.00  0.00     0.053 C 
BRANCH   6   7
ATOM      7  C   UNL     1      -1.102   2.381   8.165  1.00  0.00     0.041 C 
ATOM      8  O   UNL     1       0.010   1.838   8.401  1.00  0.00    -0.550 OA
ATOM      9  O   UNL     1      -2.070   2.424   9.160  1.00  0.00    -0.550 OA
ENDBRANCH   6   7
ENDBRANCH   5   6
ENDBRANCH   4   5
ENDBRANCH   3   4
ENDBRANCH   2   3
ENDBRANCH   1   2
BRANCH   1  10
ATOM     10  C   UNL     1      -4.453   7.357   6.127  1.00  0.00     0.000 C 
BRANCH  10  11
ATOM     11  C   UNL     1      -5.396   6.663   7.126  1.00  0.00    -0.000 C 
BRANCH  11  12
ATOM     12  C   UNL     1      -5.706   7.531   8.354  1.00  0.00    -0.000 C 
BRANCH  12  13
ATOM     13  C   UNL     1      -6.539   6.753   9.381  1.00  0.00    -0.000 C 
BRANCH  13  14
ATOM     14  C   UNL     1      -7.971   7.304   9.459  1.00  0.00    -0.000 C 
BRANCH  14  15
ATOM     15  C   UNL     1      -8.831   6.883   8.258  1.00  0.00    -0.003 C 
ATOM     16  C   UNL     1      -8.805   5.375   8.011  1.00  0.00     0.004 C 
ENDBRANCH  14  15
ENDBRANCH  13  14
ENDBRANCH  12  13
ENDBRANCH  11  12
ENDBRANCH  10  11
ENDBRANCH   1  10
TORSDOF 12
ENDMDL
MODEL 7
REMARK VINA RESULT:    -4.254     15.704     16.665
REMARK INTER + INTRA:          -8.251
REMARK INTER:                  -7.448
REMARK INTRA:                  -0.803
REMARK UNBOUND:                -1.013
REMARK SMILES CCCCCCCCCCCCCC(=O)[O-]
REMARK SMILES IDX 8 1 9 2 10 3 11 4 12 5 13 6 14 7 15 8 16 9 7 10 6 11 5 12
REMARK SMILES IDX 4 13 3 14 2 15 1 16
REMARK H PARENT
REMARK Flexibility Score: inf
ROOT
ATOM      1  C   UNL     1       6.719   7.689  -2.224  1.00  0.00     0.000 C 
ENDROOT
BRANCH   1   2
ATOM      2  C   UNL     1       7.474   6.538  -1.535  1.00  0.00     0.000 C 
BRANCH   2   3
ATOM      3  C   UNL     1       7.759   5.361  -2.479  1.00  0.00     0.000 C 
BRANCH   3   4
ATOM      4  C   UNL     1       7.047   5.552  -3.825  1.00  0.00     0.000 C 
BRANCH   4   5
ATOM      5  C   UNL     1       7.977   5.336  -5.034  1.00  0.00     0.006 C 
BRANCH   5   6
ATOM      6  C   UNL     1       7.815   6.391  -6.144  1.00  0.00     0.053 C 
BRANCH   6   7
ATOM      7  C   UNL     1       7.480   5.787  -7.473  1.00  0.00     0.041 C 
ATOM      8  O   UNL     1       6.866   6.462  -8.341  1.00  0.00    -0.550 OA
ATOM      9  O   UNL     1       7.827   4.470  -7.746  1.00  0.00    -0.550 OA
ENDBRANCH   6   7
ENDBRANCH   5   6
ENDBRANCH   4   5
ENDBRANCH   3   4
ENDBRANCH   2   3
ENDBRANCH   1   2
BRANCH   1  10
ATOM     10  C   UNL     1       6.981   9.091  -1.636  1.00  0.00     0.000 C 
BRANCH  10  11
ATOM     11  C   UNL     1       8.432   9.355  -1.199  1.00  0.00    -0.000 C 
BRANCH  11  12
ATOM     12  C   UNL     1       8.553   9.694   0.293  1.00  0.00    -0.000 C 
BRANCH  12  13
ATOM     13  C   UNL     1       9.167   8.526   1.075  1.00  0.00    -0.000 C 
BRANCH  13  14
ATOM     14  C   UNL     1       9.166   8.811   2.584  1.00  0.00    -0.000 C 
BRANCH  14  15
ATOM     15  C   UNL     1       9.315   7.536   3.426  1.00  0.00    -0.003 C 
ATOM     16  C   UNL     1       9.505   6.282   2.573  1.00  0.00     0.004 C 
ENDBRANCH  14  15
ENDBRANCH  13  14
ENDBRANCH  12  13
ENDBRANCH  11  12
ENDBRANCH  10  11
ENDBRANCH   1  10
TORSDOF 12
ENDMDL
MODEL 8
REMARK VINA RESULT:    -4.195     17.167     19.021
REMARK INTER + INTRA:          -8.151
REMARK INTER:                  -6.040
REMARK INTRA:                  -2.111
REMARK UNBOUND:                -1.013
REMARK SMILES CCCCCCCCCCCCCC(=O)[O-]
REMARK SMILES IDX 8 1 9 2 10 3 11 4 12 5 13 6 14 7 15 8 16 9 7 10 6 11 5 12
REMARK SMILES IDX 4 13 3 14 2 15 1 16
REMARK H PARENT
REMARK Flexibility Score: inf
ROOT
ATOM      1  C   UNL     1      -0.003  -5.829  -6.177  1.00  0.00     0.000 C 
ENDROOT
BRANCH   1   2
ATOM      2  C   UNL     1       0.756  -4.596  -6.697  1.00  0.00     0.000 C 
BRANCH   2   3
ATOM      3  C   UNL     1       1.910  -4.960  -7.642  1.00  0.00     0.000 C 
BRANCH   3   4
ATOM      4  C   UNL     1       1.763  -4.242  -8.991  1.00  0.00     0.000 C 
BRANCH   4   5
ATOM      5  C   UNL     1       0.426  -3.490  -9.130  1.00  0.00     0.006 C 
BRANCH   5   6
ATOM      6  C   UNL     1       0.574  -1.959  -9.199  1.00  0.00     0.053 C 
BRANCH   6   7
ATOM      7  C   UNL     1      -0.724  -1.241  -8.994  1.00  0.00     0.041 C 
ATOM      8  O   UNL     1      -1.621  -1.283  -9.878  1.00  0.00    -0.550 OA
ATOM      9  O   UNL     1      -0.938  -0.506  -7.835  1.00  0.00    -0.550 OA
ENDBRANCH   6   7
ENDBRANCH   5   6
ENDBRANCH   4   5
ENDBRANCH   3   4
ENDBRANCH   2   3
ENDBRANCH   1   2
BRANCH   1  10
ATOM     10  C   UNL     1       0.258  -7.137  -6.953  1.00  0.00     0.000 C 
BRANCH  10  11
ATOM     11  C   UNL     1      -0.868  -7.564  -7.909  1.00  0.00    -0.000 C 
BRANCH  11  12
ATOM     12  C   UNL     1      -0.710  -6.975  -9.318  1.00  0.00    -0.000 C 
BRANCH  12  13
ATOM     13  C   UNL     1      -2.038  -6.398  -9.825  1.00  0.00    -0.000 C 
BRANCH  13  14
ATOM     14  C   UNL     1      -2.933  -5.966  -8.654  1.00  0.00    -0.000 C 
BRANCH  14  15
ATOM     15  C   UNL     1      -3.138  -4.444  -8.598  1.00  0.00    -0.003 C 
ATOM     16  C   UNL     1      -2.793  -3.851  -7.232  1.00  0.00     0.004 C 
ENDBRANCH  14  15
ENDBRANCH  13  14
ENDBRANCH  12  13
ENDBRANCH  11  12
ENDBRANCH  10  11
ENDBRANCH   1  10
TORSDOF 12
ENDMDL
MODEL 9
REMARK VINA RESULT:    -4.138     16.961     19.078
REMARK INTER + INTRA:          -8.054
REMARK INTER:                  -6.161
REMARK INTRA:                  -1.894
REMARK UNBOUND:                -1.013
REMARK SMILES CCCCCCCCCCCCCC(=O)[O-]
REMARK SMILES IDX 8 1 9 2 10 3 11 4 12 5 13 6 14 7 15 8 16 9 7 10 6 11 5 12
REMARK SMILES IDX 4 13 3 14 2 15 1 16
REMARK H PARENT
REMARK Flexibility Score: inf
ROOT
ATOM      1  C   UNL     1       0.083  -6.095  -6.381  1.00  0.00     0.000 C 
ENDROOT
BRANCH   1   2
ATOM      2  C   UNL     1      -0.165  -6.982  -7.614  1.00  0.00     0.000 C 
BRANCH   2   3
ATOM      3  C   UNL     1      -1.551  -6.764  -8.237  1.00  0.00     0.000 C 
BRANCH   3   4
ATOM      4  C   UNL     1      -1.484  -5.748  -9.386  1.00  0.00     0.000 C 
BRANCH   4   5
ATOM      5  C   UNL     1      -2.412  -4.537  -9.173  1.00  0.00     0.006 C 
BRANCH   5   6
ATOM      6  C   UNL     1      -2.875  -4.354  -7.716  1.00  0.00     0.053 C 
BRANCH   6   7
ATOM      7  C   UNL     1      -4.367  -4.352  -7.579  1.00  0.00     0.041 C 
ATOM      8  O   UNL     1      -5.097  -4.610  -8.572  1.00  0.00    -0.550 OA
ATOM      9  O   UNL     1      -4.953  -4.042  -6.358  1.00  0.00    -0.550 OA
ENDBRANCH   6   7
ENDBRANCH   5   6
ENDBRANCH   4   5
ENDBRANCH   3   4
ENDBRANCH   2   3
ENDBRANCH   1   2
BRANCH   1  10
ATOM     10  C   UNL     1       0.989  -4.871  -6.624  1.00  0.00     0.000 C 
BRANCH  10  11
ATOM     11  C   UNL     1       2.059  -5.057  -7.713  1.00  0.00    -0.000 C 
BRANCH  11  12
ATOM     12  C   UNL     1       1.769  -4.239  -8.980  1.00  0.00    -0.000 C 
BRANCH  12  13
ATOM     13  C   UNL     1       0.900  -3.016  -8.657  1.00  0.00    -0.000 C 
BRANCH  13  14
ATOM     14  C   UNL     1       0.549  -2.238  -9.934  1.00  0.00    -0.000 C 
BRANCH  14  15
ATOM     15  C   UNL     1      -0.341  -1.017  -9.655  1.00  0.00    -0.003 C 
ATOM     16  C   UNL     1      -0.867  -0.984  -8.221  1.00  0.00     0.004 C 
ENDBRANCH  14  15
ENDBRANCH  13  14
ENDBRANCH  12  13
ENDBRANCH  11  12
ENDBRANCH  10  11
ENDBRANCH   1  10
TORSDOF 12
ENDMDL
