MODEL 1
REMARK VINA RESULT:    -5.711      0.000      0.000
REMARK INTER + INTRA:          -7.424
REMARK INTER:                  -7.046
REMARK INTRA:                  -0.378
REMARK UNBOUND:                -0.378
REMARK SMILES Oc1cc(O)c2cc(O)c(-c3cc(O)c(O)c(O)c3)[o+]c2c1
REMARK SMILES IDX 10 1 20 2 21 3 22 4 2 5 3 6 4 7 6 8 7 9 8 10 11 11 12 12
REMARK SMILES IDX 13 13 19 14 15 15 17 16 14 17 16 19 18 21 9 23 1 25 5 27
REMARK H PARENT 14 18 16 20 18 22 9 24 1 26 5 28
REMARK Flexibility Score: inf
ROOT
ATOM      1  C   UNL     1      -8.436 -14.341   6.250  1.00  0.00     0.402 A 
ATOM      2  O   UNL     1      -7.343 -13.584   6.200  1.00  0.00    -0.202 OA
ATOM      3  C   UNL     1      -6.788 -13.030   7.273  1.00  0.00     0.368 A 
ATOM      4  C   UNL     1      -5.641 -12.248   7.118  1.00  0.00     0.162 A 
ATOM      5  C   UNL     1      -5.038 -11.652   8.226  1.00  0.00     0.128 A 
ATOM      6  C   UNL     1      -5.585 -11.837   9.500  1.00  0.00     0.093 A 
ATOM      7  C   UNL     1      -6.735 -12.617   9.682  1.00  0.00     0.136 A 
ATOM      8  C   UNL     1      -7.349 -13.227   8.558  1.00  0.00     0.125 A 
ATOM      9  C   UNL     1      -8.494 -14.034   8.647  1.00  0.00     0.078 A 
ATOM     10  C   UNL     1      -9.041 -14.606   7.494  1.00  0.00     0.223 A 
ENDROOT
BRANCH   1  11
ATOM     11  C   UNL     1      -8.965 -14.894   4.983  1.00  0.00     0.091 A 
ATOM     12  C   UNL     1      -9.851 -14.159   4.177  1.00  0.00     0.068 A 
ATOM     13  C   UNL     1     -10.324 -14.690   2.970  1.00  0.00     0.162 A 
ATOM     14  C   UNL     1      -8.531 -16.155   4.547  1.00  0.00     0.068 A 
ATOM     15  C   UNL     1      -9.901 -15.964   2.551  1.00  0.00     0.200 A 
ATOM     16  C   UNL     1      -8.999 -16.694   3.344  1.00  0.00     0.162 A 
BRANCH  13  17
ATOM     17  O   UNL     1     -11.207 -13.955   2.182  1.00  0.00    -0.504 OA
ATOM     18  H   UNL     1     -10.914 -13.530   1.310  1.00  0.00     0.293 HD
ENDBRANCH  13  17
BRANCH  15  19
ATOM     19  O   UNL     1     -10.366 -16.511   1.354  1.00  0.00    -0.502 OA
ATOM     20  H   UNL     1     -10.612 -15.935   0.558  1.00  0.00     0.293 HD
ENDBRANCH  15  19
BRANCH  16  21
ATOM     21  O   UNL     1      -8.555 -17.957   2.953  1.00  0.00    -0.504 OA
ATOM     22  H   UNL     1      -9.195 -18.692   2.680  1.00  0.00     0.293 HD
ENDBRANCH  16  21
ENDBRANCH   1  11
BRANCH  10  23
ATOM     23  O   UNL     1     -10.148 -15.448   7.587  1.00  0.00    -0.500 OA
ATOM     24  H   UNL     1     -10.066 -16.451   7.465  1.00  0.00     0.294 HD
ENDBRANCH  10  23
BRANCH   5  25
ATOM     25  O   UNL     1      -3.894 -10.875   8.051  1.00  0.00    -0.507 OA
ATOM     26  H   UNL     1      -3.911  -9.871   8.180  1.00  0.00     0.293 HD
ENDBRANCH   5  25
BRANCH   7  27
ATOM     27  O   UNL     1      -7.222 -12.751  10.986  1.00  0.00    -0.507 OA
ATOM     28  H   UNL     1      -7.796 -12.065  11.453  1.00  0.00     0.293 HD
ENDBRANCH   7  27
TORSDOF 7
ENDMDL
MODEL 2
REMARK VINA RESULT:    -5.659      1.255      7.123
REMARK INTER + INTRA:          -7.360
REMARK INTER:                  -7.038
REMARK INTRA:                  -0.321
REMARK UNBOUND:                -0.378
REMARK SMILES Oc1cc(O)c2cc(O)c(-c3cc(O)c(O)c(O)c3)[o+]c2c1
REMARK SMILES IDX 10 1 20 2 21 3 22 4 2 5 3 6 4 7 6 8 7 9 8 10 11 11 12 12
REMARK SMILES IDX 13 13 19 14 15 15 17 16 14 17 16 19 18 21 9 23 1 25 5 27
REMARK H PARENT 14 18 16 20 18 22 9 24 1 26 5 28
REMARK Flexibility Score: inf
ROOT
ATOM      1  C   UNL     1      -7.824 -13.815   6.235  1.00  0.00     0.402 A 
ATOM      2  O   UNL     1      -8.611 -13.056   5.478  1.00  0.00    -0.202 OA
ATOM      3  C   UNL     1      -9.277 -13.517   4.424  1.00  0.00     0.368 A 
ATOM      4  C   UNL     1     -10.077 -12.640   3.688  1.00  0.00     0.162 A 
ATOM      5  C   UNL     1     -10.785 -13.096   2.576  1.00  0.00     0.128 A 
ATOM      6  C   UNL     1     -10.692 -14.438   2.193  1.00  0.00     0.093 A 
ATOM      7  C   UNL     1      -9.896 -15.338   2.914  1.00  0.00     0.136 A 
ATOM      8  C   UNL     1      -9.177 -14.878   4.048  1.00  0.00     0.125 A 
ATOM      9  C   UNL     1      -8.367 -15.710   4.837  1.00  0.00     0.078 A 
ATOM     10  C   UNL     1      -7.691 -15.186   5.943  1.00  0.00     0.223 A 
ENDROOT
BRANCH   1  11
ATOM     11  C   UNL     1      -7.127 -13.182   7.378  1.00  0.00     0.091 A 
ATOM     12  C   UNL     1      -7.558 -13.380   8.700  1.00  0.00     0.068 A 
ATOM     13  C   UNL     1      -6.872 -12.790   9.770  1.00  0.00     0.162 A 
ATOM     14  C   UNL     1      -5.976 -12.413   7.142  1.00  0.00     0.068 A 
ATOM     15  C   UNL     1      -5.733 -12.003   9.524  1.00  0.00     0.200 A 
ATOM     16  C   UNL     1      -5.286 -11.819   8.204  1.00  0.00     0.162 A 
BRANCH  13  17
ATOM     17  O   UNL     1      -7.312 -12.988  11.077  1.00  0.00    -0.504 OA
ATOM     18  H   UNL     1      -7.846 -13.809  11.339  1.00  0.00     0.293 HD
ENDBRANCH  13  17
BRANCH  15  19
ATOM     19  O   UNL     1      -5.040 -11.404  10.576  1.00  0.00    -0.502 OA
ATOM     20  H   UNL     1      -4.145 -11.752  10.900  1.00  0.00     0.293 HD
ENDBRANCH  15  19
BRANCH  16  21
ATOM     21  O   UNL     1      -4.155 -11.051   7.927  1.00  0.00    -0.504 OA
ATOM     22  H   UNL     1      -4.011 -10.610   7.026  1.00  0.00     0.293 HD
ENDBRANCH  16  21
ENDBRANCH   1  11
BRANCH  10  23
ATOM     23  O   UNL     1      -6.925 -16.021   6.756  1.00  0.00    -0.500 OA
ATOM     24  H   UNL     1      -6.949 -15.949   7.767  1.00  0.00     0.294 HD
ENDBRANCH  10  23
BRANCH   5  25
ATOM     25  O   UNL     1     -11.579 -12.205   1.855  1.00  0.00    -0.507 OA
ATOM     26  H   UNL     1     -12.040 -12.482   0.997  1.00  0.00     0.293 HD
ENDBRANCH   5  25
BRANCH   7  27
ATOM     27  O   UNL     1      -9.853 -16.661   2.466  1.00  0.00    -0.507 OA
ATOM     28  H   UNL     1     -10.035 -17.466   3.048  1.00  0.00     0.293 HD
ENDBRANCH   7  27
TORSDOF 7
ENDMDL
MODEL 3
REMARK VINA RESULT:    -5.557      1.895      7.362
REMARK INTER + INTRA:          -7.234
REMARK INTER:                  -7.099
REMARK INTRA:                  -0.135
REMARK UNBOUND:                -0.378
REMARK SMILES Oc1cc(O)c2cc(O)c(-c3cc(O)c(O)c(O)c3)[o+]c2c1
REMARK SMILES IDX 10 1 20 2 21 3 22 4 2 5 3 6 4 7 6 8 7 9 8 10 11 11 12 12
REMARK SMILES IDX 13 13 19 14 15 15 17 16 14 17 16 19 18 21 9 23 1 25 5 27
REMARK H PARENT 14 18 16 20 18 22 9 24 1 26 5 28
REMARK Flexibility Score: inf
ROOT
ATOM      1  C   UNL     1      -8.636 -14.984   4.156  1.00  0.00     0.402 A 
ATOM      2  O   UNL     1      -9.072 -14.086   3.277  1.00  0.00    -0.202 OA
ATOM      3  C   UNL     1      -9.572 -14.411   2.089  1.00  0.00     0.368 A 
ATOM      4  C   UNL     1     -10.002 -13.394   1.232  1.00  0.00     0.162 A 
ATOM      5  C   UNL     1     -10.528 -13.705  -0.023  1.00  0.00     0.128 A 
ATOM      6  C   UNL     1     -10.624 -15.041  -0.426  1.00  0.00     0.093 A 
ATOM      7  C   UNL     1     -10.200 -16.078   0.414  1.00  0.00     0.136 A 
ATOM      8  C   UNL     1      -9.667 -15.766   1.692  1.00  0.00     0.125 A 
ATOM      9  C   UNL     1      -9.230 -16.739   2.605  1.00  0.00     0.078 A 
ATOM     10  C   UNL     1      -8.720 -16.355   3.849  1.00  0.00     0.223 A 
ENDROOT
BRANCH   1  11
ATOM     11  C   UNL     1      -8.091 -14.498   5.444  1.00  0.00     0.091 A 
ATOM     12  C   UNL     1      -8.629 -14.917   6.672  1.00  0.00     0.068 A 
ATOM     13  C   UNL     1      -8.085 -14.463   7.881  1.00  0.00     0.162 A 
ATOM     14  C   UNL     1      -6.978 -13.644   5.442  1.00  0.00     0.068 A 
ATOM     15  C   UNL     1      -6.984 -13.590   7.870  1.00  0.00     0.200 A 
ATOM     16  C   UNL     1      -6.429 -13.184   6.644  1.00  0.00     0.162 A 
BRANCH  13  17
ATOM     17  O   UNL     1      -8.631 -14.881   9.093  1.00  0.00    -0.504 OA
ATOM     18  H   UNL     1      -9.133 -15.757   9.176  1.00  0.00     0.293 HD
ENDBRANCH  13  17
BRANCH  15  19
ATOM     19  O   UNL     1      -6.432 -13.124   9.064  1.00  0.00    -0.502 OA
ATOM     20  H   UNL     1      -5.446 -13.218   9.275  1.00  0.00     0.293 HD
ENDBRANCH  15  19
BRANCH  16  21
ATOM     21  O   UNL     1      -5.332 -12.324   6.599  1.00  0.00    -0.504 OA
ATOM     22  H   UNL     1      -4.385 -12.666   6.485  1.00  0.00     0.293 HD
ENDBRANCH  16  21
ENDBRANCH   1  11
BRANCH  10  23
ATOM     23  O   UNL     1      -8.332 -17.323   4.775  1.00  0.00    -0.500 OA
ATOM     24  H   UNL     1      -7.685 -17.112   5.526  1.00  0.00     0.294 HD
ENDBRANCH  10  23
BRANCH   5  25
ATOM     25  O   UNL     1     -10.952 -12.677  -0.863  1.00  0.00    -0.507 OA
ATOM     26  H   UNL     1     -11.233 -12.857  -1.819  1.00  0.00     0.293 HD
ENDBRANCH   5  25
BRANCH   7  27
ATOM     27  O   UNL     1     -10.327 -17.386  -0.063  1.00  0.00    -0.507 OA
ATOM     28  H   UNL     1      -9.551 -18.009  -0.230  1.00  0.00     0.293 HD
ENDBRANCH   7  27
TORSDOF 7
ENDMDL
MODEL 4
REMARK VINA RESULT:    -5.526     17.356     20.272
REMARK INTER + INTRA:          -7.196
REMARK INTER:                  -6.895
REMARK INTRA:                  -0.301
REMARK UNBOUND:                -0.378
REMARK SMILES Oc1cc(O)c2cc(O)c(-c3cc(O)c(O)c(O)c3)[o+]c2c1
REMARK SMILES IDX 10 1 20 2 21 3 22 4 2 5 3 6 4 7 6 8 7 9 8 10 11 11 12 12
REMARK SMILES IDX 13 13 19 14 15 15 17 16 14 17 16 19 18 21 9 23 1 25 5 27
REMARK H PARENT 14 18 16 20 18 22 9 24 1 26 5 28
REMARK Flexibility Score: inf
ROOT
ATOM      1  C   UNL     1       2.175 -26.337  -5.766  1.00  0.00     0.402 A 
ATOM      2  O   UNL     1       2.231 -27.145  -4.711  1.00  0.00    -0.202 OA
ATOM      3  C   UNL     1       3.371 -27.603  -4.201  1.00  0.00     0.368 A 
ATOM      4  C   UNL     1       3.327 -28.451  -3.091  1.00  0.00     0.162 A 
ATOM      5  C   UNL     1       4.506 -28.948  -2.537  1.00  0.00     0.128 A 
ATOM      6  C   UNL     1       5.740 -28.599  -3.095  1.00  0.00     0.093 A 
ATOM      7  C   UNL     1       5.811 -27.750  -4.208  1.00  0.00     0.136 A 
ATOM      8  C   UNL     1       4.614 -27.240  -4.773  1.00  0.00     0.125 A 
ATOM      9  C   UNL     1       4.589 -26.374  -5.878  1.00  0.00     0.078 A 
ATOM     10  C   UNL     1       3.368 -25.908  -6.377  1.00  0.00     0.223 A 
ENDROOT
BRANCH   1  11
ATOM     11  C   UNL     1       0.844 -25.903  -6.247  1.00  0.00     0.091 A 
ATOM     12  C   UNL     1       0.327 -26.350  -7.474  1.00  0.00     0.068 A 
ATOM     13  C   UNL     1      -0.945 -25.946  -7.901  1.00  0.00     0.162 A 
ATOM     14  C   UNL     1       0.056 -25.071  -5.435  1.00  0.00     0.068 A 
ATOM     15  C   UNL     1      -1.719 -25.095  -7.093  1.00  0.00     0.200 A 
ATOM     16  C   UNL     1      -1.214 -24.661  -5.855  1.00  0.00     0.162 A 
BRANCH  13  17
ATOM     17  O   UNL     1      -1.445 -26.392  -9.123  1.00  0.00    -0.504 OA
ATOM     18  H   UNL     1      -2.217 -25.924  -9.584  1.00  0.00     0.293 HD
ENDBRANCH  13  17
BRANCH  15  19
ATOM     19  O   UNL     1      -2.985 -24.679  -7.505  1.00  0.00    -0.502 OA
ATOM     20  H   UNL     1      -3.826 -25.192  -7.268  1.00  0.00     0.293 HD
ENDBRANCH  15  19
BRANCH  16  21
ATOM     21  O   UNL     1      -1.960 -23.823  -5.027  1.00  0.00    -0.504 OA
ATOM     22  H   UNL     1      -2.271 -22.907  -5.327  1.00  0.00     0.293 HD
ENDBRANCH  16  21
ENDBRANCH   1  11
BRANCH  10  23
ATOM     23  O   UNL     1       3.346 -25.010  -7.443  1.00  0.00    -0.500 OA
ATOM     24  H   UNL     1       3.516 -24.020  -7.309  1.00  0.00     0.294 HD
ENDBRANCH  10  23
BRANCH   5  25
ATOM     25  O   UNL     1       4.442 -29.792  -1.430  1.00  0.00    -0.507 OA
ATOM     26  H   UNL     1       4.106 -29.464  -0.532  1.00  0.00     0.293 HD
ENDBRANCH   5  25
BRANCH   7  27
ATOM     27  O   UNL     1       7.082 -27.450  -4.709  1.00  0.00    -0.507 OA
ATOM     28  H   UNL     1       7.451 -27.810  -5.576  1.00  0.00     0.293 HD
ENDBRANCH   7  27
TORSDOF 7
ENDMDL
MODEL 5
REMARK VINA RESULT:    -5.503      1.244      7.133
REMARK INTER + INTRA:          -7.168
REMARK INTER:                  -6.825
REMARK INTRA:                  -0.342
REMARK UNBOUND:                -0.378
REMARK SMILES Oc1cc(O)c2cc(O)c(-c3cc(O)c(O)c(O)c3)[o+]c2c1
REMARK SMILES IDX 10 1 20 2 21 3 22 4 2 5 3 6 4 7 6 8 7 9 8 10 11 11 12 12
REMARK SMILES IDX 13 13 19 14 15 15 17 16 14 17 16 19 18 21 9 23 1 25 5 27
REMARK H PARENT 14 18 16 20 18 22 9 24 1 26 5 28
REMARK Flexibility Score: inf
ROOT
ATOM      1  C   UNL     1      -8.390 -13.363   6.035  1.00  0.00     0.402 A 
ATOM      2  O   UNL     1      -8.118 -14.450   5.318  1.00  0.00    -0.202 OA
ATOM      3  C   UNL     1      -8.879 -14.871   4.312  1.00  0.00     0.368 A 
ATOM      4  C   UNL     1      -8.511 -16.027   3.619  1.00  0.00     0.162 A 
ATOM      5  C   UNL     1      -9.292 -16.494   2.561  1.00  0.00     0.128 A 
ATOM      6  C   UNL     1     -10.450 -15.802   2.193  1.00  0.00     0.093 A 
ATOM      7  C   UNL     1     -10.840 -14.640   2.871  1.00  0.00     0.136 A 
ATOM      8  C   UNL     1     -10.047 -14.161   3.946  1.00  0.00     0.125 A 
ATOM      9  C   UNL     1     -10.353 -13.000   4.673  1.00  0.00     0.078 A 
ATOM     10  C   UNL     1      -9.520 -12.587   5.718  1.00  0.00     0.223 A 
ENDROOT
BRANCH   1  11
ATOM     11  C   UNL     1      -7.470 -13.003   7.138  1.00  0.00     0.091 A 
ATOM     12  C   UNL     1      -6.253 -12.346   6.892  1.00  0.00     0.068 A 
ATOM     13  C   UNL     1      -5.407 -11.993   7.951  1.00  0.00     0.162 A 
ATOM     14  C   UNL     1      -7.847 -13.270   8.463  1.00  0.00     0.068 A 
ATOM     15  C   UNL     1      -5.780 -12.284   9.274  1.00  0.00     0.200 A 
ATOM     16  C   UNL     1      -7.007 -12.922   9.527  1.00  0.00     0.162 A 
BRANCH  13  17
ATOM     17  O   UNL     1      -4.198 -11.348   7.694  1.00  0.00    -0.504 OA
ATOM     18  H   UNL     1      -3.308 -11.772   7.928  1.00  0.00     0.293 HD
ENDBRANCH  13  17
BRANCH  15  19
ATOM     19  O   UNL     1      -4.948 -11.944  10.341  1.00  0.00    -0.502 OA
ATOM     20  H   UNL     1      -4.171 -11.303  10.236  1.00  0.00     0.293 HD
ENDBRANCH  15  19
BRANCH  16  21
ATOM     21  O   UNL     1      -7.411 -13.218  10.829  1.00  0.00    -0.504 OA
ATOM     22  H   UNL     1      -6.780 -13.627  11.508  1.00  0.00     0.293 HD
ENDBRANCH  16  21
ENDBRANCH   1  11
BRANCH  10  23
ATOM     23  O   UNL     1      -9.796 -11.407   6.408  1.00  0.00    -0.500 OA
ATOM     24  H   UNL     1      -9.072 -10.895   6.898  1.00  0.00     0.294 HD
ENDBRANCH  10  23
BRANCH   5  25
ATOM     25  O   UNL     1      -8.909 -17.649   1.883  1.00  0.00    -0.507 OA
ATOM     26  H   UNL     1      -8.010 -18.087   2.047  1.00  0.00     0.293 HD
ENDBRANCH   5  25
BRANCH   7  27
ATOM     27  O   UNL     1     -12.012 -14.008   2.444  1.00  0.00    -0.507 OA
ATOM     28  H   UNL     1     -12.045 -13.284   1.742  1.00  0.00     0.293 HD
ENDBRANCH   7  27
TORSDOF 7
ENDMDL
MODEL 6
REMARK VINA RESULT:    -5.503     16.722     19.886
REMARK INTER + INTRA:          -7.167
REMARK INTER:                  -6.804
REMARK INTRA:                  -0.363
REMARK UNBOUND:                -0.378
REMARK SMILES Oc1cc(O)c2cc(O)c(-c3cc(O)c(O)c(O)c3)[o+]c2c1
REMARK SMILES IDX 10 1 20 2 21 3 22 4 2 5 3 6 4 7 6 8 7 9 8 10 11 11 12 12
REMARK SMILES IDX 13 13 19 14 15 15 17 16 14 17 16 19 18 21 9 23 1 25 5 27
REMARK H PARENT 14 18 16 20 18 22 9 24 1 26 5 28
REMARK Flexibility Score: inf
ROOT
ATOM      1  C   UNL     1       2.076 -25.762  -4.982  1.00  0.00     0.402 A 
ATOM      2  O   UNL     1       0.858 -25.901  -5.501  1.00  0.00    -0.202 OA
ATOM      3  C   UNL     1       0.069 -24.872  -5.797  1.00  0.00     0.368 A 
ATOM      4  C   UNL     1      -1.196 -25.120  -6.336  1.00  0.00     0.162 A 
ATOM      5  C   UNL     1      -2.046 -24.061  -6.654  1.00  0.00     0.128 A 
ATOM      6  C   UNL     1      -1.632 -22.743  -6.431  1.00  0.00     0.093 A 
ATOM      7  C   UNL     1      -0.368 -22.469  -5.892  1.00  0.00     0.136 A 
ATOM      8  C   UNL     1       0.501 -23.544  -5.569  1.00  0.00     0.125 A 
ATOM      9  C   UNL     1       1.788 -23.363  -5.039  1.00  0.00     0.078 A 
ATOM     10  C   UNL     1       2.589 -24.472  -4.750  1.00  0.00     0.223 A 
ENDROOT
BRANCH   1  11
ATOM     11  C   UNL     1       2.855 -26.986  -4.686  1.00  0.00     0.091 A 
ATOM     12  C   UNL     1       3.814 -27.479  -5.585  1.00  0.00     0.068 A 
ATOM     13  C   UNL     1       4.558 -28.626  -5.277  1.00  0.00     0.162 A 
ATOM     14  C   UNL     1       2.674 -27.636  -3.455  1.00  0.00     0.068 A 
ATOM     15  C   UNL     1       4.355 -29.285  -4.052  1.00  0.00     0.200 A 
ATOM     16  C   UNL     1       3.410 -28.783  -3.140  1.00  0.00     0.162 A 
BRANCH  13  17
ATOM     17  O   UNL     1       5.503 -29.110  -6.180  1.00  0.00    -0.504 OA
ATOM     18  H   UNL     1       6.496 -28.976  -6.032  1.00  0.00     0.293 HD
ENDBRANCH  13  17
BRANCH  15  19
ATOM     19  O   UNL     1       5.083 -30.430  -3.729  1.00  0.00    -0.502 OA
ATOM     20  H   UNL     1       5.709 -30.466  -2.934  1.00  0.00     0.293 HD
ENDBRANCH  15  19
BRANCH  16  21
ATOM     21  O   UNL     1       3.190 -29.408  -1.913  1.00  0.00    -0.504 OA
ATOM     22  H   UNL     1       2.776 -28.922  -1.127  1.00  0.00     0.293 HD
ENDBRANCH  16  21
ENDBRANCH   1  11
BRANCH  10  23
ATOM     23  O   UNL     1       3.886 -24.293  -4.269  1.00  0.00    -0.500 OA
ATOM     24  H   UNL     1       4.696 -24.413  -4.865  1.00  0.00     0.294 HD
ENDBRANCH  10  23
BRANCH   5  25
ATOM     25  O   UNL     1      -3.304 -24.328  -7.191  1.00  0.00    -0.507 OA
ATOM     26  H   UNL     1      -3.619 -25.276  -7.357  1.00  0.00     0.293 HD
ENDBRANCH   5  25
BRANCH   7  27
ATOM     27  O   UNL     1      -0.029 -21.127  -5.696  1.00  0.00    -0.507 OA
ATOM     28  H   UNL     1       0.308 -20.745  -4.824  1.00  0.00     0.293 HD
ENDBRANCH   7  27
TORSDOF 7
ENDMDL
MODEL 7
REMARK VINA RESULT:    -5.398     16.945     20.090
REMARK INTER + INTRA:          -7.038
REMARK INTER:                  -6.665
REMARK INTRA:                  -0.374
REMARK UNBOUND:                -0.378
REMARK SMILES Oc1cc(O)c2cc(O)c(-c3cc(O)c(O)c(O)c3)[o+]c2c1
REMARK SMILES IDX 10 1 20 2 21 3 22 4 2 5 3 6 4 7 6 8 7 9 8 10 11 11 12 12
REMARK SMILES IDX 13 13 19 14 15 15 17 16 14 17 16 19 18 21 9 23 1 25 5 27
REMARK H PARENT 14 18 16 20 18 22 9 24 1 26 5 28
REMARK Flexibility Score: inf
ROOT
ATOM      1  C   UNL     1       1.855 -26.246  -5.641  1.00  0.00     0.402 A 
ATOM      2  O   UNL     1       2.129 -26.744  -4.438  1.00  0.00    -0.202 OA
ATOM      3  C   UNL     1       3.025 -27.704  -4.231  1.00  0.00     0.368 A 
ATOM      4  C   UNL     1       3.241 -28.164  -2.930  1.00  0.00     0.162 A 
ATOM      5  C   UNL     1       4.174 -29.171  -2.683  1.00  0.00     0.128 A 
ATOM      6  C   UNL     1       4.896 -29.727  -3.745  1.00  0.00     0.093 A 
ATOM      7  C   UNL     1       4.698 -29.283  -5.059  1.00  0.00     0.136 A 
ATOM      8  C   UNL     1       3.752 -28.256  -5.313  1.00  0.00     0.125 A 
ATOM      9  C   UNL     1       3.498 -27.740  -6.594  1.00  0.00     0.078 A 
ATOM     10  C   UNL     1       2.553 -26.724  -6.766  1.00  0.00     0.223 A 
ENDROOT
BRANCH   1  11
ATOM     11  C   UNL     1       0.827 -25.186  -5.743  1.00  0.00     0.091 A 
ATOM     12  C   UNL     1       1.152 -23.831  -5.560  1.00  0.00     0.068 A 
ATOM     13  C   UNL     1       0.169 -22.840  -5.684  1.00  0.00     0.162 A 
ATOM     14  C   UNL     1      -0.489 -25.532  -6.087  1.00  0.00     0.068 A 
ATOM     15  C   UNL     1      -1.151 -23.197  -6.006  1.00  0.00     0.200 A 
ATOM     16  C   UNL     1      -1.476 -24.549  -6.211  1.00  0.00     0.162 A 
BRANCH  13  17
ATOM     17  O   UNL     1       0.502 -21.500  -5.494  1.00  0.00    -0.504 OA
ATOM     18  H   UNL     1      -0.099 -20.752  -5.820  1.00  0.00     0.293 HD
ENDBRANCH  13  17
BRANCH  15  19
ATOM     19  O   UNL     1      -2.144 -22.224  -6.129  1.00  0.00    -0.502 OA
ATOM     20  H   UNL     1      -2.130 -21.368  -5.587  1.00  0.00     0.293 HD
ENDBRANCH  15  19
BRANCH  16  21
ATOM     21  O   UNL     1      -2.775 -24.936  -6.539  1.00  0.00    -0.504 OA
ATOM     22  H   UNL     1      -3.132 -24.877  -7.485  1.00  0.00     0.293 HD
ENDBRANCH  16  21
ENDBRANCH   1  11
BRANCH  10  23
ATOM     23  O   UNL     1       2.336 -26.178  -8.030  1.00  0.00    -0.500 OA
ATOM     24  H   UNL     1       2.589 -26.675  -8.876  1.00  0.00     0.294 HD
ENDBRANCH  10  23
BRANCH   5  25
ATOM     25  O   UNL     1       4.375 -29.617  -1.378  1.00  0.00    -0.507 OA
ATOM     26  H   UNL     1       3.598 -29.778  -0.748  1.00  0.00     0.293 HD
ENDBRANCH   5  25
BRANCH   7  27
ATOM     27  O   UNL     1       5.456 -29.890  -6.065  1.00  0.00    -0.507 OA
ATOM     28  H   UNL     1       6.332 -29.530  -6.414  1.00  0.00     0.293 HD
ENDBRANCH   7  27
TORSDOF 7
ENDMDL
MODEL 8
REMARK VINA RESULT:    -5.368      2.094      3.731
REMARK INTER + INTRA:          -7.001
REMARK INTER:                  -6.842
REMARK INTRA:                  -0.159
REMARK UNBOUND:                -0.378
REMARK SMILES Oc1cc(O)c2cc(O)c(-c3cc(O)c(O)c(O)c3)[o+]c2c1
REMARK SMILES IDX 10 1 20 2 21 3 22 4 2 5 3 6 4 7 6 8 7 9 8 10 11 11 12 12
REMARK SMILES IDX 13 13 19 14 15 15 17 16 14 17 16 19 18 21 9 23 1 25 5 27
REMARK H PARENT 14 18 16 20 18 22 9 24 1 26 5 28
REMARK Flexibility Score: inf
ROOT
ATOM      1  C   UNL     1      -8.062 -14.600   3.673  1.00  0.00     0.402 A 
ATOM      2  O   UNL     1      -8.292 -15.037   4.908  1.00  0.00    -0.202 OA
ATOM      3  C   UNL     1      -7.829 -14.429   5.996  1.00  0.00     0.368 A 
ATOM      4  C   UNL     1      -8.122 -14.967   7.252  1.00  0.00     0.162 A 
ATOM      5  C   UNL     1      -7.647 -14.352   8.411  1.00  0.00     0.128 A 
ATOM      6  C   UNL     1      -6.872 -13.191   8.315  1.00  0.00     0.093 A 
ATOM      7  C   UNL     1      -6.565 -12.632   7.068  1.00  0.00     0.136 A 
ATOM      8  C   UNL     1      -7.048 -13.253   5.888  1.00  0.00     0.125 A 
ATOM      9  C   UNL     1      -6.802 -12.757   4.598  1.00  0.00     0.078 A 
ATOM     10  C   UNL     1      -7.316 -13.423   3.480  1.00  0.00     0.223 A 
ENDROOT
BRANCH   1  11
ATOM     11  C   UNL     1      -8.624 -15.371   2.541  1.00  0.00     0.091 A 
ATOM     12  C   UNL     1      -7.807 -15.848   1.502  1.00  0.00     0.068 A 
ATOM     13  C   UNL     1      -8.354 -16.595   0.451  1.00  0.00     0.162 A 
ATOM     14  C   UNL     1      -9.993 -15.682   2.530  1.00  0.00     0.068 A 
ATOM     15  C   UNL     1      -9.729 -16.883   0.436  1.00  0.00     0.200 A 
ATOM     16  C   UNL     1     -10.547 -16.425   1.483  1.00  0.00     0.162 A 
BRANCH  13  17
ATOM     17  O   UNL     1      -7.534 -17.058  -0.577  1.00  0.00    -0.504 OA
ATOM     18  H   UNL     1      -7.224 -16.449  -1.326  1.00  0.00     0.293 HD
ENDBRANCH  13  17
BRANCH  15  19
ATOM     19  O   UNL     1     -10.292 -17.622  -0.606  1.00  0.00    -0.502 OA
ATOM     20  H   UNL     1     -10.363 -17.258  -1.548  1.00  0.00     0.293 HD
ENDBRANCH  15  19
BRANCH  16  21
ATOM     21  O   UNL     1     -11.915 -16.701   1.503  1.00  0.00    -0.504 OA
ATOM     22  H   UNL     1     -12.285 -17.563   1.882  1.00  0.00     0.293 HD
ENDBRANCH  16  21
ENDBRANCH   1  11
BRANCH  10  23
ATOM     23  O   UNL     1      -7.113 -12.903   2.202  1.00  0.00    -0.500 OA
ATOM     24  H   UNL     1      -7.502 -12.010   1.922  1.00  0.00     0.294 HD
ENDBRANCH  10  23
BRANCH   5  25
ATOM     25  O   UNL     1      -7.949 -14.903   9.654  1.00  0.00    -0.507 OA
ATOM     26  H   UNL     1      -7.802 -14.387  10.513  1.00  0.00     0.293 HD
ENDBRANCH   5  25
BRANCH   7  27
ATOM     27  O   UNL     1      -5.783 -11.473   7.057  1.00  0.00    -0.507 OA
ATOM     28  H   UNL     1      -4.865 -11.409   6.643  1.00  0.00     0.293 HD
ENDBRANCH   7  27
TORSDOF 7
ENDMDL
MODEL 9
REMARK VINA RESULT:    -5.303      2.204      7.225
REMARK INTER + INTRA:          -6.921
REMARK INTER:                  -6.560
REMARK INTRA:                  -0.361
REMARK UNBOUND:                -0.378
REMARK SMILES Oc1cc(O)c2cc(O)c(-c3cc(O)c(O)c(O)c3)[o+]c2c1
REMARK SMILES IDX 10 1 20 2 21 3 22 4 2 5 3 6 4 7 6 8 7 9 8 10 11 11 12 12
REMARK SMILES IDX 13 13 19 14 15 15 17 16 14 17 16 19 18 21 9 23 1 25 5 27
REMARK H PARENT 14 18 16 20 18 22 9 24 1 26 5 28
REMARK Flexibility Score: inf
ROOT
ATOM      1  C   UNL     1      -7.349 -13.175   5.404  1.00  0.00     0.402 A 
ATOM      2  O   UNL     1      -7.895 -14.371   5.201  1.00  0.00    -0.202 OA
ATOM      3  C   UNL     1      -7.968 -14.946   4.004  1.00  0.00     0.368 A 
ATOM      4  C   UNL     1      -8.564 -16.204   3.890  1.00  0.00     0.162 A 
ATOM      5  C   UNL     1      -8.657 -16.831   2.647  1.00  0.00     0.128 A 
ATOM      6  C   UNL     1      -8.155 -16.194   1.507  1.00  0.00     0.093 A 
ATOM      7  C   UNL     1      -7.553 -14.932   1.595  1.00  0.00     0.136 A 
ATOM      8  C   UNL     1      -7.453 -14.294   2.858  1.00  0.00     0.125 A 
ATOM      9  C   UNL     1      -6.856 -13.037   3.043  1.00  0.00     0.078 A 
ATOM     10  C   UNL     1      -6.791 -12.472   4.320  1.00  0.00     0.223 A 
ENDROOT
BRANCH   1  11
ATOM     11  C   UNL     1      -7.336 -12.636   6.783  1.00  0.00     0.091 A 
ATOM     12  C   UNL     1      -8.461 -11.997   7.331  1.00  0.00     0.068 A 
ATOM     13  C   UNL     1      -8.437 -11.513   8.645  1.00  0.00     0.162 A 
ATOM     14  C   UNL     1      -6.196 -12.816   7.582  1.00  0.00     0.068 A 
ATOM     15  C   UNL     1      -7.283 -11.677   9.432  1.00  0.00     0.200 A 
ATOM     16  C   UNL     1      -6.163 -12.335   8.895  1.00  0.00     0.162 A 
BRANCH  13  17
ATOM     17  O   UNL     1      -9.557 -10.875   9.176  1.00  0.00    -0.504 OA
ATOM     18  H   UNL     1      -9.502 -10.322  10.023  1.00  0.00     0.293 HD
ENDBRANCH  13  17
BRANCH  15  19
ATOM     19  O   UNL     1      -7.240 -11.198  10.742  1.00  0.00    -0.502 OA
ATOM     20  H   UNL     1      -6.752 -11.690  11.480  1.00  0.00     0.293 HD
ENDBRANCH  15  19
BRANCH  16  21
ATOM     21  O   UNL     1      -5.006 -12.521   9.652  1.00  0.00    -0.504 OA
ATOM     22  H   UNL     1      -4.768 -13.416  10.061  1.00  0.00     0.293 HD
ENDBRANCH  16  21
ENDBRANCH   1  11
BRANCH  10  23
ATOM     23  O   UNL     1      -6.154 -11.246   4.512  1.00  0.00    -0.500 OA
ATOM     24  H   UNL     1      -6.674 -10.403   4.724  1.00  0.00     0.294 HD
ENDBRANCH  10  23
BRANCH   5  25
ATOM     25  O   UNL     1      -9.255 -18.086   2.554  1.00  0.00    -0.507 OA
ATOM     26  H   UNL     1      -9.183 -18.646   1.712  1.00  0.00     0.293 HD
ENDBRANCH   5  25
BRANCH   7  27
ATOM     27  O   UNL     1      -7.078 -14.362   0.410  1.00  0.00    -0.507 OA
ATOM     28  H   UNL     1      -6.308 -14.729  -0.131  1.00  0.00     0.293 HD
ENDBRANCH   7  27
TORSDOF 7
ENDMDL
