MODEL 1
REMARK VINA RESULT:    -3.310      0.000      0.000
REMARK INTER + INTRA:         -11.150
REMARK INTER:                  -8.728
REMARK INTRA:                  -2.421
REMARK UNBOUND:                -2.421
REMARK SMILES CCCCCCCCCCCCCCCCCCCCCCCCCCCCCC(=O)[O-]
REMARK SMILES IDX 16 1 17 2 18 3 19 4 20 5 21 6 22 7 23 8 24 9 25 10 26 11
REMARK SMILES IDX 27 12 28 13 29 14 30 15 31 16 32 17 15 18 14 19 13 20 12 21
REMARK SMILES IDX 11 22 10 23 9 24 8 25 7 26 6 27 5 28 4 29 3 30 2 31 1 32
REMARK H PARENT
REMARK Flexibility Score: inf
ROOT
ATOM      1  C   UNL     1      -6.862  18.814  -8.994  1.00  0.00     0.000 C 
ENDROOT
BRANCH   1   2
ATOM      2  C   UNL     1      -7.205  17.421  -9.541  1.00  0.00     0.000 C 
BRANCH   2   3
ATOM      3  C   UNL     1      -7.047  16.308  -8.496  1.00  0.00     0.000 C 
BRANCH   3   4
ATOM      4  C   UNL     1      -6.208  16.799  -7.309  1.00  0.00     0.000 C 
BRANCH   4   5
ATOM      5  C   UNL     1      -4.701  16.685  -7.598  1.00  0.00     0.000 C 
BRANCH   5   6
ATOM      6  C   UNL     1      -3.885  17.815  -6.946  1.00  0.00     0.000 C 
BRANCH   6   7
ATOM      7  C   UNL     1      -4.740  18.714  -6.036  1.00  0.00     0.000 C 
BRANCH   7   8
ATOM      8  C   UNL     1      -3.892  19.493  -5.005  1.00  0.00     0.000 C 
BRANCH   8   9
ATOM      9  C   UNL     1      -4.304  19.218  -3.543  1.00  0.00     0.000 C 
BRANCH   9  10
ATOM     10  C   UNL     1      -4.312  20.456  -2.630  1.00  0.00     0.000 C 
BRANCH  10  11
ATOM     11  C   UNL     1      -3.931  20.172  -1.162  1.00  0.00     0.000 C 
BRANCH  11  12
ATOM     12  C   UNL     1      -5.095  19.597  -0.329  1.00  0.00     0.000 C 
BRANCH  12  13
ATOM     13  C   UNL     1      -4.789  19.575   1.182  1.00  0.00     0.006 C 
BRANCH  13  14
ATOM     14  C   UNL     1      -5.926  20.190   2.012  1.00  0.00     0.053 C 
BRANCH  14  15
ATOM     15  C   UNL     1      -5.897  19.711   3.429  1.00  0.00     0.041 C 
ATOM     16  O   UNL     1      -5.057  18.844   3.788  1.00  0.00    -0.550 OA
ATOM     17  O   UNL     1      -6.829  20.185   4.343  1.00  0.00    -0.550 OA
ENDBRANCH  14  15
ENDBRANCH  13  14
ENDBRANCH  12  13
ENDBRANCH  11  12
ENDBRANCH  10  11
ENDBRANCH   9  10
ENDBRANCH   8   9
ENDBRANCH   7   8
ENDBRANCH   6   7
ENDBRANCH   5   6
ENDBRANCH   4   5
ENDBRANCH   3   4
ENDBRANCH   2   3
ENDBRANCH   1   2
BRANCH   1  18
ATOM     18  C   UNL     1      -6.358  19.779 -10.083  1.00  0.00     0.000 C 
BRANCH  18  19
ATOM     19  C   UNL     1      -4.913  19.460 -10.524  1.00  0.00     0.000 C 
BRANCH  19  20
ATOM     20  C   UNL     1      -4.707  17.999 -10.966  1.00  0.00     0.000 C 
BRANCH  20  21
ATOM     21  C   UNL     1      -4.278  17.814 -12.434  1.00  0.00     0.000 C 
BRANCH  21  22
ATOM     22  C   UNL     1      -3.979  19.119 -13.198  1.00  0.00     0.000 C 
BRANCH  22  23
ATOM     23  C   UNL     1      -4.848  19.304 -14.450  1.00  0.00     0.000 C 
BRANCH  23  24
ATOM     24  C   UNL     1      -5.606  20.639 -14.393  1.00  0.00    -0.000 C 
BRANCH  24  25
ATOM     25  C   UNL     1      -7.137  20.461 -14.395  1.00  0.00    -0.000 C 
BRANCH  25  26
ATOM     26  C   UNL     1      -7.657  19.332 -13.489  1.00  0.00    -0.000 C 
BRANCH  26  27
ATOM     27  C   UNL     1      -8.703  19.817 -12.471  1.00  0.00    -0.000 C 
BRANCH  27  28
ATOM     28  C   UNL     1     -10.013  20.266 -13.138  1.00  0.00    -0.000 C 
BRANCH  28  29
ATOM     29  C   UNL     1     -10.709  19.131 -13.904  1.00  0.00    -0.000 C 
BRANCH  29  30
ATOM     30  C   UNL     1     -11.883  18.565 -13.093  1.00  0.00    -0.000 C 
BRANCH  30  31
ATOM     31  C   UNL     1     -11.427  17.883 -11.795  1.00  0.00    -0.003 C 
ATOM     32  C   UNL     1     -10.811  16.504 -12.030  1.00  0.00     0.004 C 
ENDBRANCH  30  31
ENDBRANCH  29  30
ENDBRANCH  28  29
ENDBRANCH  27  28
ENDBRANCH  26  27
ENDBRANCH  25  26
ENDBRANCH  24  25
ENDBRANCH  23  24
ENDBRANCH  22  23
ENDBRANCH  21  22
ENDBRANCH  20  21
ENDBRANCH  19  20
ENDBRANCH  18  19
ENDBRANCH   1  18
TORSDOF 28
ENDMDL
MODEL 2
REMARK VINA RESULT:    -3.267      5.114     11.163
REMARK INTER + INTRA:         -11.036
REMARK INTER:                  -8.072
REMARK INTRA:                  -2.965
REMARK UNBOUND:                -2.421
REMARK SMILES CCCCCCCCCCCCCCCCCCCCCCCCCCCCCC(=O)[O-]
REMARK SMILES IDX 16 1 17 2 18 3 19 4 20 5 21 6 22 7 23 8 24 9 25 10 26 11
REMARK SMILES IDX 27 12 28 13 29 14 30 15 31 16 32 17 15 18 14 19 13 20 12 21
REMARK SMILES IDX 11 22 10 23 9 24 8 25 7 26 6 27 5 28 4 29 3 30 2 31 1 32
REMARK H PARENT
REMARK Flexibility Score: inf
ROOT
ATOM      1  C   UNL     1      -5.823  16.250  -8.106  1.00  0.00     0.000 C 
ENDROOT
BRANCH   1   2
ATOM      2  C   UNL     1      -5.621  16.305  -9.628  1.00  0.00     0.000 C 
BRANCH   2   3
ATOM      3  C   UNL     1      -4.272  16.916 -10.034  1.00  0.00     0.000 C 
BRANCH   3   4
ATOM      4  C   UNL     1      -3.895  16.491 -11.459  1.00  0.00     0.000 C 
BRANCH   4   5
ATOM      5  C   UNL     1      -4.032  17.660 -12.450  1.00  0.00     0.000 C 
BRANCH   5   6
ATOM      6  C   UNL     1      -4.069  19.030 -11.752  1.00  0.00     0.000 C 
BRANCH   6   7
ATOM      7  C   UNL     1      -3.875  20.200 -12.732  1.00  0.00     0.000 C 
BRANCH   7   8
ATOM      8  C   UNL     1      -5.214  20.827 -13.181  1.00  0.00     0.000 C 
BRANCH   8   9
ATOM      9  C   UNL     1      -6.381  20.534 -12.213  1.00  0.00     0.000 C 
BRANCH   9  10
ATOM     10  C   UNL     1      -7.393  19.491 -12.717  1.00  0.00     0.000 C 
BRANCH  10  11
ATOM     11  C   UNL     1      -8.812  19.638 -12.130  1.00  0.00     0.000 C 
BRANCH  11  12
ATOM     12  C   UNL     1      -9.594  18.309 -12.083  1.00  0.00     0.000 C 
BRANCH  12  13
ATOM     13  C   UNL     1     -10.547  18.139 -13.284  1.00  0.00     0.006 C 
BRANCH  13  14
ATOM     14  C   UNL     1     -11.990  18.538 -12.938  1.00  0.00     0.053 C 
BRANCH  14  15
ATOM     15  C   UNL     1     -12.601  19.381 -14.012  1.00  0.00     0.041 C 
ATOM     16  O   UNL     1     -11.893  19.815 -14.959  1.00  0.00    -0.550 OA
ATOM     17  O   UNL     1     -13.944  19.731 -13.943  1.00  0.00    -0.550 OA
ENDBRANCH  14  15
ENDBRANCH  13  14
ENDBRANCH  12  13
ENDBRANCH  11  12
ENDBRANCH  10  11
ENDBRANCH   9  10
ENDBRANCH   8   9
ENDBRANCH   7   8
ENDBRANCH   6   7
ENDBRANCH   5   6
ENDBRANCH   4   5
ENDBRANCH   3   4
ENDBRANCH   2   3
ENDBRANCH   1   2
BRANCH   1  18
ATOM     18  C   UNL     1      -6.598  17.463  -7.560  1.00  0.00     0.000 C 
BRANCH  18  19
ATOM     19  C   UNL     1      -6.854  18.531  -8.645  1.00  0.00     0.000 C 
BRANCH  19  20
ATOM     20  C   UNL     1      -6.461  19.957  -8.217  1.00  0.00     0.000 C 
BRANCH  20  21
ATOM     21  C   UNL     1      -5.222  20.535  -8.926  1.00  0.00     0.000 C 
BRANCH  21  22
ATOM     22  C   UNL     1      -3.880  20.273  -8.216  1.00  0.00     0.000 C 
BRANCH  22  23
ATOM     23  C   UNL     1      -3.926  20.550  -6.707  1.00  0.00     0.000 C 
BRANCH  23  24
ATOM     24  C   UNL     1      -3.961  19.235  -5.913  1.00  0.00    -0.000 C 
BRANCH  24  25
ATOM     25  C   UNL     1      -4.463  19.418  -4.468  1.00  0.00    -0.000 C 
BRANCH  25  26
ATOM     26  C   UNL     1      -4.879  20.855  -4.106  1.00  0.00    -0.000 C 
BRANCH  26  27
ATOM     27  C   UNL     1      -5.382  20.984  -2.658  1.00  0.00    -0.000 C 
BRANCH  27  28
ATOM     28  C   UNL     1      -4.790  19.911  -1.730  1.00  0.00    -0.000 C 
BRANCH  28  29
ATOM     29  C   UNL     1      -4.655  20.392  -0.277  1.00  0.00    -0.000 C 
BRANCH  29  30
ATOM     30  C   UNL     1      -5.571  19.583   0.652  1.00  0.00    -0.000 C 
BRANCH  30  31
ATOM     31  C   UNL     1      -5.461  20.025   2.119  1.00  0.00    -0.003 C 
ATOM     32  C   UNL     1      -6.130  19.049   3.087  1.00  0.00     0.004 C 
ENDBRANCH  30  31
ENDBRANCH  29  30
ENDBRANCH  28  29
ENDBRANCH  27  28
ENDBRANCH  26  27
ENDBRANCH  25  26
ENDBRANCH  24  25
ENDBRANCH  23  24
ENDBRANCH  22  23
ENDBRANCH  21  22
ENDBRANCH  20  21
ENDBRANCH  19  20
ENDBRANCH  18  19
ENDBRANCH   1  18
TORSDOF 28
ENDMDL
MODEL 3
REMARK VINA RESULT:    -3.152      4.458     12.790
REMARK INTER + INTRA:         -10.732
REMARK INTER:                  -8.409
REMARK INTRA:                  -2.323
REMARK UNBOUND:                -2.421
REMARK SMILES CCCCCCCCCCCCCCCCCCCCCCCCCCCCCC(=O)[O-]
REMARK SMILES IDX 16 1 17 2 18 3 19 4 20 5 21 6 22 7 23 8 24 9 25 10 26 11
REMARK SMILES IDX 27 12 28 13 29 14 30 15 31 16 32 17 15 18 14 19 13 20 12 21
REMARK SMILES IDX 11 22 10 23 9 24 8 25 7 26 6 27 5 28 4 29 3 30 2 31 1 32
REMARK H PARENT
REMARK Flexibility Score: inf
ROOT
ATOM      1  C   UNL     1      -4.824  18.393  -6.926  1.00  0.00     0.000 C 
ENDROOT
BRANCH   1   2
ATOM      2  C   UNL     1      -6.045  17.465  -7.013  1.00  0.00     0.000 C 
BRANCH   2   3
ATOM      3  C   UNL     1      -6.234  16.848  -8.406  1.00  0.00     0.000 C 
BRANCH   3   4
ATOM      4  C   UNL     1      -4.880  16.671  -9.106  1.00  0.00     0.000 C 
BRANCH   4   5
ATOM      5  C   UNL     1      -4.797  17.507 -10.395  1.00  0.00     0.000 C 
BRANCH   5   6
ATOM      6  C   UNL     1      -6.054  18.363 -10.628  1.00  0.00     0.000 C 
BRANCH   6   7
ATOM      7  C   UNL     1      -5.776  19.598 -11.502  1.00  0.00     0.000 C 
BRANCH   7   8
ATOM      8  C   UNL     1      -5.543  19.236 -12.986  1.00  0.00     0.000 C 
BRANCH   8   9
ATOM      9  C   UNL     1      -5.912  20.377 -13.959  1.00  0.00     0.000 C 
BRANCH   9  10
ATOM     10  C   UNL     1      -7.235  21.095 -13.641  1.00  0.00     0.000 C 
BRANCH  10  11
ATOM     11  C   UNL     1      -8.481  20.463 -14.294  1.00  0.00     0.000 C 
BRANCH  11  12
ATOM     12  C   UNL     1      -9.504  19.930 -13.268  1.00  0.00     0.000 C 
BRANCH  12  13
ATOM     13  C   UNL     1      -9.536  18.390 -13.208  1.00  0.00     0.006 C 
BRANCH  13  14
ATOM     14  C   UNL     1      -9.476  17.866 -11.765  1.00  0.00     0.053 C 
BRANCH  14  15
ATOM     15  C   UNL     1     -10.660  17.013 -11.438  1.00  0.00     0.041 C 
ATOM     16  O   UNL     1     -11.694  17.061 -12.155  1.00  0.00    -0.550 OA
ATOM     17  O   UNL     1     -10.642  16.199 -10.312  1.00  0.00    -0.550 OA
ENDBRANCH  14  15
ENDBRANCH  13  14
ENDBRANCH  12  13
ENDBRANCH  11  12
ENDBRANCH  10  11
ENDBRANCH   9  10
ENDBRANCH   8   9
ENDBRANCH   7   8
ENDBRANCH   6   7
ENDBRANCH   5   6
ENDBRANCH   4   5
ENDBRANCH   3   4
ENDBRANCH   2   3
ENDBRANCH   1   2
BRANCH   1  18
ATOM     18  C   UNL     1      -4.520  18.851  -5.488  1.00  0.00     0.000 C 
BRANCH  18  19
ATOM     19  C   UNL     1      -4.633  20.383  -5.326  1.00  0.00     0.000 C 
BRANCH  19  20
ATOM     20  C   UNL     1      -4.702  20.848  -3.860  1.00  0.00     0.000 C 
BRANCH  20  21
ATOM     21  C   UNL     1      -4.084  19.877  -2.836  1.00  0.00     0.000 C 
BRANCH  21  22
ATOM     22  C   UNL     1      -3.876  20.461  -1.425  1.00  0.00     0.000 C 
BRANCH  22  23
ATOM     23  C   UNL     1      -4.113  19.440  -0.303  1.00  0.00     0.000 C 
BRANCH  23  24
ATOM     24  C   UNL     1      -5.525  19.592   0.282  1.00  0.00    -0.000 C 
BRANCH  24  25
ATOM     25  C   UNL     1      -5.534  20.280   1.660  1.00  0.00    -0.000 C 
BRANCH  25  26
ATOM     26  C   UNL     1      -6.637  19.795   2.617  1.00  0.00    -0.000 C 
BRANCH  26  27
ATOM     27  C   UNL     1      -6.079  19.237   3.937  1.00  0.00    -0.000 C 
BRANCH  27  28
ATOM     28  C   UNL     1      -4.547  19.332   4.019  1.00  0.00    -0.000 C 
BRANCH  28  29
ATOM     29  C   UNL     1      -3.875  17.962   4.199  1.00  0.00    -0.000 C 
BRANCH  29  30
ATOM     30  C   UNL     1      -4.921  16.876   4.482  1.00  0.00    -0.000 C 
BRANCH  30  31
ATOM     31  C   UNL     1      -4.311  15.468   4.532  1.00  0.00    -0.003 C 
ATOM     32  C   UNL     1      -3.941  14.928   3.150  1.00  0.00     0.004 C 
ENDBRANCH  30  31
ENDBRANCH  29  30
ENDBRANCH  28  29
ENDBRANCH  27  28
ENDBRANCH  26  27
ENDBRANCH  25  26
ENDBRANCH  24  25
ENDBRANCH  23  24
ENDBRANCH  22  23
ENDBRANCH  21  22
ENDBRANCH  20  21
ENDBRANCH  19  20
ENDBRANCH  18  19
ENDBRANCH   1  18
TORSDOF 28
ENDMDL
MODEL 4
REMARK VINA RESULT:    -3.039      1.276      2.503
REMARK INTER + INTRA:         -10.436
REMARK INTER:                  -8.171
REMARK INTRA:                  -2.265
REMARK UNBOUND:                -2.421
REMARK SMILES CCCCCCCCCCCCCCCCCCCCCCCCCCCCCC(=O)[O-]
REMARK SMILES IDX 16 1 17 2 18 3 19 4 20 5 21 6 22 7 23 8 24 9 25 10 26 11
REMARK SMILES IDX 27 12 28 13 29 14 30 15 31 16 32 17 15 18 14 19 13 20 12 21
REMARK SMILES IDX 11 22 10 23 9 24 8 25 7 26 6 27 5 28 4 29 3 30 2 31 1 32
REMARK H PARENT
REMARK Flexibility Score: inf
ROOT
ATOM      1  C   UNL     1      -6.741  18.448  -8.158  1.00  0.00     0.000 C 
ENDROOT
BRANCH   1   2
ATOM      2  C   UNL     1      -6.257  17.289  -7.274  1.00  0.00     0.000 C 
BRANCH   2   3
ATOM      3  C   UNL     1      -4.795  16.902  -7.535  1.00  0.00     0.000 C 
BRANCH   3   4
ATOM      4  C   UNL     1      -3.946  17.122  -6.277  1.00  0.00     0.000 C 
BRANCH   4   5
ATOM      5  C   UNL     1      -4.762  17.788  -5.155  1.00  0.00     0.000 C 
BRANCH   5   6
ATOM      6  C   UNL     1      -4.089  19.056  -4.604  1.00  0.00     0.000 C 
BRANCH   6   7
ATOM      7  C   UNL     1      -4.123  19.125  -3.067  1.00  0.00     0.000 C 
BRANCH   7   8
ATOM      8  C   UNL     1      -5.029  20.262  -2.543  1.00  0.00     0.000 C 
BRANCH   8   9
ATOM      9  C   UNL     1      -4.756  20.631  -1.068  1.00  0.00     0.000 C 
BRANCH   9  10
ATOM     10  C   UNL     1      -5.176  19.561  -0.046  1.00  0.00     0.000 C 
BRANCH  10  11
ATOM     11  C   UNL     1      -4.694  19.827   1.395  1.00  0.00     0.000 C 
BRANCH  11  12
ATOM     12  C   UNL     1      -5.817  20.319   2.333  1.00  0.00     0.000 C 
BRANCH  12  13
ATOM     13  C   UNL     1      -6.132  19.312   3.458  1.00  0.00     0.006 C 
BRANCH  13  14
ATOM     14  C   UNL     1      -4.859  18.691   4.054  1.00  0.00     0.053 C 
BRANCH  14  15
ATOM     15  C   UNL     1      -5.072  17.262   4.442  1.00  0.00     0.041 C 
ATOM     16  O   UNL     1      -4.110  16.450   4.422  1.00  0.00    -0.550 OA
ATOM     17  O   UNL     1      -6.343  16.815   4.779  1.00  0.00    -0.550 OA
ENDBRANCH  14  15
ENDBRANCH  13  14
ENDBRANCH  12  13
ENDBRANCH  11  12
ENDBRANCH  10  11
ENDBRANCH   9  10
ENDBRANCH   8   9
ENDBRANCH   7   8
ENDBRANCH   6   7
ENDBRANCH   5   6
ENDBRANCH   4   5
ENDBRANCH   3   4
ENDBRANCH   2   3
ENDBRANCH   1   2
BRANCH   1  18
ATOM     18  C   UNL     1      -6.147  19.807  -7.744  1.00  0.00     0.000 C 
BRANCH  18  19
ATOM     19  C   UNL     1      -6.581  20.948  -8.690  1.00  0.00     0.000 C 
BRANCH  19  20
ATOM     20  C   UNL     1      -5.949  20.866 -10.091  1.00  0.00     0.000 C 
BRANCH  20  21
ATOM     21  C   UNL     1      -4.540  20.246 -10.139  1.00  0.00     0.000 C 
BRANCH  21  22
ATOM     22  C   UNL     1      -4.461  18.848 -10.780  1.00  0.00     0.000 C 
BRANCH  22  23
ATOM     23  C   UNL     1      -4.150  18.884 -12.283  1.00  0.00     0.000 C 
BRANCH  23  24
ATOM     24  C   UNL     1      -5.391  18.502 -13.105  1.00  0.00    -0.000 C 
BRANCH  24  25
ATOM     25  C   UNL     1      -5.445  19.207 -14.474  1.00  0.00    -0.000 C 
BRANCH  25  26
ATOM     26  C   UNL     1      -6.312  20.477 -14.513  1.00  0.00    -0.000 C 
BRANCH  26  27
ATOM     27  C   UNL     1      -7.346  20.530 -13.376  1.00  0.00    -0.000 C 
BRANCH  27  28
ATOM     28  C   UNL     1      -8.777  20.253 -13.865  1.00  0.00    -0.000 C 
BRANCH  28  29
ATOM     29  C   UNL     1      -9.678  19.671 -12.765  1.00  0.00    -0.000 C 
BRANCH  29  30
ATOM     30  C   UNL     1      -9.868  18.160 -12.961  1.00  0.00    -0.000 C 
BRANCH  30  31
ATOM     31  C   UNL     1     -10.840  17.552 -11.939  1.00  0.00    -0.003 C 
ATOM     32  C   UNL     1     -10.151  16.619 -10.943  1.00  0.00     0.004 C 
ENDBRANCH  30  31
ENDBRANCH  29  30
ENDBRANCH  28  29
ENDBRANCH  27  28
ENDBRANCH  26  27
ENDBRANCH  25  26
ENDBRANCH  24  25
ENDBRANCH  23  24
ENDBRANCH  22  23
ENDBRANCH  21  22
ENDBRANCH  20  21
ENDBRANCH  19  20
ENDBRANCH  18  19
ENDBRANCH   1  18
TORSDOF 28
ENDMDL
MODEL 5
REMARK VINA RESULT:    -3.039      4.362     11.374
REMARK INTER + INTRA:         -10.434
REMARK INTER:                  -7.592
REMARK INTRA:                  -2.843
REMARK UNBOUND:                -2.421
REMARK SMILES CCCCCCCCCCCCCCCCCCCCCCCCCCCCCC(=O)[O-]
REMARK SMILES IDX 16 1 17 2 18 3 19 4 20 5 21 6 22 7 23 8 24 9 25 10 26 11
REMARK SMILES IDX 27 12 28 13 29 14 30 15 31 16 32 17 15 18 14 19 13 20 12 21
REMARK SMILES IDX 11 22 10 23 9 24 8 25 7 26 6 27 5 28 4 29 3 30 2 31 1 32
REMARK H PARENT
REMARK Flexibility Score: inf
ROOT
ATOM      1  C   UNL     1      -7.141  17.371  -9.139  1.00  0.00     0.000 C 
ENDROOT
BRANCH   1   2
ATOM      2  C   UNL     1      -7.283  18.886  -9.346  1.00  0.00     0.000 C 
BRANCH   2   3
ATOM      3  C   UNL     1      -5.943  19.586  -9.613  1.00  0.00     0.000 C 
BRANCH   3   4
ATOM      4  C   UNL     1      -6.163  20.900 -10.372  1.00  0.00     0.000 C 
BRANCH   4   5
ATOM      5  C   UNL     1      -7.460  20.863 -11.201  1.00  0.00     0.000 C 
BRANCH   5   6
ATOM      6  C   UNL     1      -7.212  21.094 -12.701  1.00  0.00     0.000 C 
BRANCH   6   7
ATOM      7  C   UNL     1      -6.428  19.944 -13.357  1.00  0.00     0.000 C 
BRANCH   7   8
ATOM      8  C   UNL     1      -6.973  19.574 -14.754  1.00  0.00     0.000 C 
BRANCH   8   9
ATOM      9  C   UNL     1      -8.503  19.367 -14.779  1.00  0.00     0.000 C 
BRANCH   9  10
ATOM     10  C   UNL     1      -9.319  20.624 -15.125  1.00  0.00     0.000 C 
BRANCH  10  11
ATOM     11  C   UNL     1     -10.663  20.742 -14.376  1.00  0.00     0.000 C 
BRANCH  11  12
ATOM     12  C   UNL     1     -10.928  19.568 -13.409  1.00  0.00     0.000 C 
BRANCH  12  13
ATOM     13  C   UNL     1     -10.970  20.013 -11.934  1.00  0.00     0.006 C 
BRANCH  13  14
ATOM     14  C   UNL     1     -10.454  18.922 -10.985  1.00  0.00     0.053 C 
BRANCH  14  15
ATOM     15  C   UNL     1     -10.783  17.552 -11.489  1.00  0.00     0.041 C 
ATOM     16  O   UNL     1     -11.980  17.166 -11.543  1.00  0.00    -0.550 OA
ATOM     17  O   UNL     1      -9.763  16.682 -11.853  1.00  0.00    -0.550 OA
ENDBRANCH  14  15
ENDBRANCH  13  14
ENDBRANCH  12  13
ENDBRANCH  11  12
ENDBRANCH  10  11
ENDBRANCH   9  10
ENDBRANCH   8   9
ENDBRANCH   7   8
ENDBRANCH   6   7
ENDBRANCH   5   6
ENDBRANCH   4   5
ENDBRANCH   3   4
ENDBRANCH   2   3
ENDBRANCH   1   2
BRANCH   1  18
ATOM     18  C   UNL     1      -5.937  16.774  -9.890  1.00  0.00     0.000 C 
BRANCH  18  19
ATOM     19  C   UNL     1      -4.867  16.212  -8.928  1.00  0.00     0.000 C 
BRANCH  19  20
ATOM     20  C   UNL     1      -5.160  16.491  -7.443  1.00  0.00     0.000 C 
BRANCH  20  21
ATOM     21  C   UNL     1      -4.275  17.573  -6.794  1.00  0.00     0.000 C 
BRANCH  21  22
ATOM     22  C   UNL     1      -4.968  18.422  -5.712  1.00  0.00     0.000 C 
BRANCH  22  23
ATOM     23  C   UNL     1      -5.389  19.813  -6.207  1.00  0.00     0.000 C 
BRANCH  23  24
ATOM     24  C   UNL     1      -4.452  20.896  -5.652  1.00  0.00    -0.000 C 
BRANCH  24  25
ATOM     25  C   UNL     1      -3.879  20.541  -4.266  1.00  0.00    -0.000 C 
BRANCH  25  26
ATOM     26  C   UNL     1      -4.808  20.858  -3.082  1.00  0.00    -0.000 C 
BRANCH  26  27
ATOM     27  C   UNL     1      -4.079  20.838  -1.728  1.00  0.00    -0.000 C 
BRANCH  27  28
ATOM     28  C   UNL     1      -4.803  19.977  -0.679  1.00  0.00    -0.000 C 
BRANCH  28  29
ATOM     29  C   UNL     1      -5.106  20.749   0.614  1.00  0.00    -0.000 C 
BRANCH  29  30
ATOM     30  C   UNL     1      -5.875  19.866   1.607  1.00  0.00    -0.000 C 
BRANCH  30  31
ATOM     31  C   UNL     1      -5.724  20.342   3.059  1.00  0.00    -0.003 C 
ATOM     32  C   UNL     1      -6.538  19.509   4.048  1.00  0.00     0.004 C 
ENDBRANCH  30  31
ENDBRANCH  29  30
ENDBRANCH  28  29
ENDBRANCH  27  28
ENDBRANCH  26  27
ENDBRANCH  25  26
ENDBRANCH  24  25
ENDBRANCH  23  24
ENDBRANCH  22  23
ENDBRANCH  21  22
ENDBRANCH  20  21
ENDBRANCH  19  20
ENDBRANCH  18  19
ENDBRANCH   1  18
TORSDOF 28
ENDMDL
MODEL 6
REMARK VINA RESULT:    -2.889      4.646     12.581
REMARK INTER + INTRA:         -10.039
REMARK INTER:                  -8.389
REMARK INTRA:                  -1.650
REMARK UNBOUND:                -2.421
REMARK SMILES CCCCCCCCCCCCCCCCCCCCCCCCCCCCCC(=O)[O-]
REMARK SMILES IDX 16 1 17 2 18 3 19 4 20 5 21 6 22 7 23 8 24 9 25 10 26 11
REMARK SMILES IDX 27 12 28 13 29 14 30 15 31 16 32 17 15 18 14 19 13 20 12 21
REMARK SMILES IDX 11 22 10 23 9 24 8 25 7 26 6 27 5 28 4 29 3 30 2 31 1 32
REMARK H PARENT
REMARK Flexibility Score: inf
ROOT
ATOM      1  C   UNL     1      -5.412  16.435  -7.524  1.00  0.00     0.000 C 
ENDROOT
BRANCH   1   2
ATOM      2  C   UNL     1      -5.811  17.605  -8.436  1.00  0.00     0.000 C 
BRANCH   2   3
ATOM      3  C   UNL     1      -6.410  17.148  -9.774  1.00  0.00     0.000 C 
BRANCH   3   4
ATOM      4  C   UNL     1      -6.841  18.357 -10.613  1.00  0.00     0.000 C 
BRANCH   4   5
ATOM      5  C   UNL     1      -5.626  19.141 -11.138  1.00  0.00     0.000 C 
BRANCH   5   6
ATOM      6  C   UNL     1      -4.859  18.383 -12.236  1.00  0.00     0.000 C 
BRANCH   6   7
ATOM      7  C   UNL     1      -4.100  19.324 -13.187  1.00  0.00     0.000 C 
BRANCH   7   8
ATOM      8  C   UNL     1      -4.237  18.908 -14.669  1.00  0.00     0.000 C 
BRANCH   8   9
ATOM      9  C   UNL     1      -5.700  18.679 -15.107  1.00  0.00     0.000 C 
BRANCH   9  10
ATOM     10  C   UNL     1      -6.575  19.944 -15.124  1.00  0.00     0.000 C 
BRANCH  10  11
ATOM     11  C   UNL     1      -8.087  19.678 -14.978  1.00  0.00     0.000 C 
BRANCH  11  12
ATOM     12  C   UNL     1      -8.503  19.284 -13.545  1.00  0.00     0.000 C 
BRANCH  12  13
ATOM     13  C   UNL     1      -9.017  20.485 -12.725  1.00  0.00     0.006 C 
BRANCH  13  14
ATOM     14  C   UNL     1     -10.471  20.840 -13.067  1.00  0.00     0.053 C 
BRANCH  14  15
ATOM     15  C   UNL     1     -11.421  19.779 -12.607  1.00  0.00     0.041 C 
ATOM     16  O   UNL     1     -11.672  19.642 -11.381  1.00  0.00    -0.550 OA
ATOM     17  O   UNL     1     -11.991  18.909 -13.528  1.00  0.00    -0.550 OA
ENDBRANCH  14  15
ENDBRANCH  13  14
ENDBRANCH  12  13
ENDBRANCH  11  12
ENDBRANCH  10  11
ENDBRANCH   9  10
ENDBRANCH   8   9
ENDBRANCH   7   8
ENDBRANCH   6   7
ENDBRANCH   5   6
ENDBRANCH   4   5
ENDBRANCH   3   4
ENDBRANCH   2   3
ENDBRANCH   1   2
BRANCH   1  18
ATOM     18  C   UNL     1      -4.615  16.885  -6.286  1.00  0.00     0.000 C 
BRANCH  18  19
ATOM     19  C   UNL     1      -4.020  18.300  -6.455  1.00  0.00     0.000 C 
BRANCH  19  20
ATOM     20  C   UNL     1      -5.003  19.433  -6.104  1.00  0.00     0.000 C 
BRANCH  20  21
ATOM     21  C   UNL     1      -4.382  20.631  -5.361  1.00  0.00     0.000 C 
BRANCH  21  22
ATOM     22  C   UNL     1      -3.875  20.327  -3.939  1.00  0.00     0.000 C 
BRANCH  22  23
ATOM     23  C   UNL     1      -4.939  20.547  -2.854  1.00  0.00     0.000 C 
BRANCH  23  24
ATOM     24  C   UNL     1      -4.301  20.543  -1.456  1.00  0.00    -0.000 C 
BRANCH  24  25
ATOM     25  C   UNL     1      -4.928  19.499  -0.513  1.00  0.00    -0.000 C 
BRANCH  25  26
ATOM     26  C   UNL     1      -5.564  20.080   0.762  1.00  0.00    -0.000 C 
BRANCH  26  27
ATOM     27  C   UNL     1      -5.088  19.373   2.043  1.00  0.00    -0.000 C 
BRANCH  27  28
ATOM     28  C   UNL     1      -6.125  19.443   3.176  1.00  0.00    -0.000 C 
BRANCH  28  29
ATOM     29  C   UNL     1      -5.919  18.351   4.237  1.00  0.00    -0.000 C 
BRANCH  29  30
ATOM     30  C   UNL     1      -4.524  17.723   4.109  1.00  0.00    -0.000 C 
BRANCH  30  31
ATOM     31  C   UNL     1      -4.341  16.503   5.023  1.00  0.00    -0.003 C 
ATOM     32  C   UNL     1      -4.697  15.185   4.336  1.00  0.00     0.004 C 
ENDBRANCH  30  31
ENDBRANCH  29  30
ENDBRANCH  28  29
ENDBRANCH  27  28
ENDBRANCH  26  27
ENDBRANCH  25  26
ENDBRANCH  24  25
ENDBRANCH  23  24
ENDBRANCH  22  23
ENDBRANCH  21  22
ENDBRANCH  20  21
ENDBRANCH  19  20
ENDBRANCH  18  19
ENDBRANCH   1  18
TORSDOF 28
ENDMDL
MODEL 7
REMARK VINA RESULT:    -2.841      5.734      9.321
REMARK INTER + INTRA:          -9.913
REMARK INTER:                  -6.382
REMARK INTRA:                  -3.531
REMARK UNBOUND:                -2.421
REMARK SMILES CCCCCCCCCCCCCCCCCCCCCCCCCCCCCC(=O)[O-]
REMARK SMILES IDX 16 1 17 2 18 3 19 4 20 5 21 6 22 7 23 8 24 9 25 10 26 11
REMARK SMILES IDX 27 12 28 13 29 14 30 15 31 16 32 17 15 18 14 19 13 20 12 21
REMARK SMILES IDX 11 22 10 23 9 24 8 25 7 26 6 27 5 28 4 29 3 30 2 31 1 32
REMARK H PARENT
REMARK Flexibility Score: inf
ROOT
ATOM      1  C   UNL     1      -5.957  15.723  -7.799  1.00  0.00     0.000 C 
ENDROOT
BRANCH   1   2
ATOM      2  C   UNL     1      -4.637  16.245  -8.383  1.00  0.00     0.000 C 
BRANCH   2   3
ATOM      3  C   UNL     1      -4.378  15.756  -9.815  1.00  0.00     0.000 C 
BRANCH   3   4
ATOM      4  C   UNL     1      -5.335  16.440 -10.800  1.00  0.00     0.000 C 
BRANCH   4   5
ATOM      5  C   UNL     1      -4.760  17.773 -11.311  1.00  0.00     0.000 C 
BRANCH   5   6
ATOM      6  C   UNL     1      -3.875  17.598 -12.557  1.00  0.00     0.000 C 
BRANCH   6   7
ATOM      7  C   UNL     1      -4.641  17.852 -13.868  1.00  0.00     0.000 C 
BRANCH   7   8
ATOM      8  C   UNL     1      -5.642  19.023 -13.754  1.00  0.00     0.000 C 
BRANCH   8   9
ATOM      9  C   UNL     1      -6.272  19.423 -15.106  1.00  0.00     0.000 C 
BRANCH   9  10
ATOM     10  C   UNL     1      -7.013  20.771 -15.100  1.00  0.00     0.000 C 
BRANCH  10  11
ATOM     11  C   UNL     1      -8.526  20.669 -14.819  1.00  0.00     0.000 C 
BRANCH  11  12
ATOM     12  C   UNL     1      -9.035  19.214 -14.737  1.00  0.00     0.000 C 
BRANCH  12  13
ATOM     13  C   UNL     1     -10.530  19.129 -14.366  1.00  0.00     0.006 C 
BRANCH  13  14
ATOM     14  C   UNL     1     -11.170  20.517 -14.219  1.00  0.00     0.053 C 
BRANCH  14  15
ATOM     15  C   UNL     1     -12.526  20.436 -13.593  1.00  0.00     0.041 C 
ATOM     16  O   UNL     1     -13.559  20.457 -14.313  1.00  0.00    -0.550 OA
ATOM     17  O   UNL     1     -12.653  20.386 -12.211  1.00  0.00    -0.550 OA
ENDBRANCH  14  15
ENDBRANCH  13  14
ENDBRANCH  12  13
ENDBRANCH  11  12
ENDBRANCH  10  11
ENDBRANCH   9  10
ENDBRANCH   8   9
ENDBRANCH   7   8
ENDBRANCH   6   7
ENDBRANCH   5   6
ENDBRANCH   4   5
ENDBRANCH   3   4
ENDBRANCH   2   3
ENDBRANCH   1   2
BRANCH   1  18
ATOM     18  C   UNL     1      -6.912  16.852  -7.371  1.00  0.00     0.000 C 
BRANCH  18  19
ATOM     19  C   UNL     1      -6.611  18.180  -8.099  1.00  0.00     0.000 C 
BRANCH  19  20
ATOM     20  C   UNL     1      -6.062  19.283  -7.177  1.00  0.00     0.000 C 
BRANCH  20  21
ATOM     21  C   UNL     1      -4.528  19.430  -7.174  1.00  0.00     0.000 C 
BRANCH  21  22
ATOM     22  C   UNL     1      -3.969  20.467  -8.167  1.00  0.00     0.000 C 
BRANCH  22  23
ATOM     23  C   UNL     1      -4.275  20.132  -9.634  1.00  0.00     0.000 C 
BRANCH  23  24
ATOM     24  C   UNL     1      -5.303  21.116 -10.213  1.00  0.00    -0.000 C 
BRANCH  24  25
ATOM     25  C   UNL     1      -6.703  20.494 -10.377  1.00  0.00    -0.000 C 
BRANCH  25  26
ATOM     26  C   UNL     1      -7.565  21.125 -11.485  1.00  0.00    -0.000 C 
BRANCH  26  27
ATOM     27  C   UNL     1      -9.069  20.865 -11.293  1.00  0.00    -0.000 C 
BRANCH  27  28
ATOM     28  C   UNL     1      -9.349  19.588 -10.485  1.00  0.00    -0.000 C 
BRANCH  28  29
ATOM     29  C   UNL     1      -8.524  18.386 -10.969  1.00  0.00    -0.000 C 
BRANCH  29  30
ATOM     30  C   UNL     1      -9.421  17.158 -11.176  1.00  0.00    -0.000 C 
BRANCH  30  31
ATOM     31  C   UNL     1     -10.912  17.481 -11.006  1.00  0.00    -0.003 C 
ATOM     32  C   UNL     1     -11.759  17.038 -12.199  1.00  0.00     0.004 C 
ENDBRANCH  30  31
ENDBRANCH  29  30
ENDBRANCH  28  29
ENDBRANCH  27  28
ENDBRANCH  26  27
ENDBRANCH  25  26
ENDBRANCH  24  25
ENDBRANCH  23  24
ENDBRANCH  22  23
ENDBRANCH  21  22
ENDBRANCH  20  21
ENDBRANCH  19  20
ENDBRANCH  18  19
ENDBRANCH   1  18
TORSDOF 28
ENDMDL
MODEL 8
REMARK VINA RESULT:    -2.543      1.699      3.005
REMARK INTER + INTRA:          -9.127
REMARK INTER:                  -7.398
REMARK INTRA:                  -1.729
REMARK UNBOUND:                -2.421
REMARK SMILES CCCCCCCCCCCCCCCCCCCCCCCCCCCCCC(=O)[O-]
REMARK SMILES IDX 16 1 17 2 18 3 19 4 20 5 21 6 22 7 23 8 24 9 25 10 26 11
REMARK SMILES IDX 27 12 28 13 29 14 30 15 31 16 32 17 15 18 14 19 13 20 12 21
REMARK SMILES IDX 11 22 10 23 9 24 8 25 7 26 6 27 5 28 4 29 3 30 2 31 1 32
REMARK H PARENT
REMARK Flexibility Score: inf
ROOT
ATOM      1  C   UNL     1      -6.166  17.386  -7.967  1.00  0.00     0.000 C 
ENDROOT
BRANCH   1   2
ATOM      2  C   UNL     1      -4.700  17.507  -7.527  1.00  0.00     0.000 C 
BRANCH   2   3
ATOM      3  C   UNL     1      -4.205  18.960  -7.477  1.00  0.00     0.000 C 
BRANCH   3   4
ATOM      4  C   UNL     1      -4.625  19.628  -6.162  1.00  0.00     0.000 C 
BRANCH   4   5
ATOM      5  C   UNL     1      -3.881  19.022  -4.959  1.00  0.00     0.000 C 
BRANCH   5   6
ATOM      6  C   UNL     1      -4.613  19.260  -3.627  1.00  0.00     0.000 C 
BRANCH   6   7
ATOM      7  C   UNL     1      -3.941  20.346  -2.768  1.00  0.00     0.000 C 
BRANCH   7   8
ATOM      8  C   UNL     1      -4.932  21.040  -1.807  1.00  0.00     0.000 C 
BRANCH   8   9
ATOM      9  C   UNL     1      -5.399  20.131  -0.648  1.00  0.00     0.000 C 
BRANCH   9  10
ATOM     10  C   UNL     1      -5.205  20.725   0.757  1.00  0.00     0.000 C 
BRANCH  10  11
ATOM     11  C   UNL     1      -4.513  19.781   1.762  1.00  0.00     0.000 C 
BRANCH  11  12
ATOM     12  C   UNL     1      -4.781  20.155   3.235  1.00  0.00     0.000 C 
BRANCH  12  13
ATOM     13  C   UNL     1      -3.875  19.384   4.217  1.00  0.00     0.006 C 
BRANCH  13  14
ATOM     14  C   UNL     1      -4.677  18.440   5.125  1.00  0.00     0.053 C 
BRANCH  14  15
ATOM     15  C   UNL     1      -5.043  17.173   4.418  1.00  0.00     0.041 C 
ATOM     16  O   UNL     1      -4.313  16.729   3.494  1.00  0.00    -0.550 OA
ATOM     17  O   UNL     1      -6.217  16.507   4.747  1.00  0.00    -0.550 OA
ENDBRANCH  14  15
ENDBRANCH  13  14
ENDBRANCH  12  13
ENDBRANCH  11  12
ENDBRANCH  10  11
ENDBRANCH   9  10
ENDBRANCH   8   9
ENDBRANCH   7   8
ENDBRANCH   6   7
ENDBRANCH   5   6
ENDBRANCH   4   5
ENDBRANCH   3   4
ENDBRANCH   2   3
ENDBRANCH   1   2
BRANCH   1  18
ATOM     18  C   UNL     1      -6.420  17.958  -9.373  1.00  0.00     0.000 C 
BRANCH  18  19
ATOM     19  C   UNL     1      -5.774  17.098 -10.481  1.00  0.00     0.000 C 
BRANCH  19  20
ATOM     20  C   UNL     1      -4.279  17.389 -10.700  1.00  0.00     0.000 C 
BRANCH  20  21
ATOM     21  C   UNL     1      -3.966  18.393 -11.827  1.00  0.00     0.000 C 
BRANCH  21  22
ATOM     22  C   UNL     1      -4.814  19.678 -11.812  1.00  0.00     0.000 C 
BRANCH  22  23
ATOM     23  C   UNL     1      -5.280  20.117 -13.208  1.00  0.00     0.000 C 
BRANCH  23  24
ATOM     24  C   UNL     1      -6.607  20.887 -13.122  1.00  0.00    -0.000 C 
BRANCH  24  25
ATOM     25  C   UNL     1      -7.675  20.152 -12.292  1.00  0.00    -0.000 C 
BRANCH  25  26
ATOM     26  C   UNL     1      -8.309  18.934 -12.987  1.00  0.00    -0.000 C 
BRANCH  26  27
ATOM     27  C   UNL     1      -9.720  18.615 -12.463  1.00  0.00    -0.000 C 
BRANCH  27  28
ATOM     28  C   UNL     1     -10.751  19.687 -12.852  1.00  0.00    -0.000 C 
BRANCH  28  29
ATOM     29  C   UNL     1     -11.547  20.209 -11.647  1.00  0.00    -0.000 C 
BRANCH  29  30
ATOM     30  C   UNL     1     -12.704  21.107 -12.106  1.00  0.00    -0.000 C 
BRANCH  30  31
ATOM     31  C   UNL     1     -13.616  20.416 -13.130  1.00  0.00    -0.003 C 
ATOM     32  C   UNL     1     -15.027  21.004 -13.165  1.00  0.00     0.004 C 
ENDBRANCH  30  31
ENDBRANCH  29  30
ENDBRANCH  28  29
ENDBRANCH  27  28
ENDBRANCH  26  27
ENDBRANCH  25  26
ENDBRANCH  24  25
ENDBRANCH  23  24
ENDBRANCH  22  23
ENDBRANCH  21  22
ENDBRANCH  20  21
ENDBRANCH  19  20
ENDBRANCH  18  19
ENDBRANCH   1  18
TORSDOF 28
ENDMDL
