MODEL 1
REMARK VINA RESULT:    -5.362      0.000      0.000
REMARK INTER + INTRA:          -6.581
REMARK INTER:                  -6.303
REMARK INTRA:                  -0.278
REMARK UNBOUND:                -0.278
REMARK SMILES O=C([O-])C=Cc1ccc(O)c(O)c1
REMARK SMILES IDX 6 1 13 2 7 3 11 4 8 5 9 6 5 7 4 8 2 9 1 10 3 11 12 12 10 14
REMARK H PARENT 12 13 10 15
REMARK Flexibility Score: inf
ROOT
ATOM      1  C   UNL     1      19.003  23.996  40.139  1.00  0.00    -0.022 A 
ATOM      2  C   UNL     1      20.011  23.174  40.671  1.00  0.00     0.058 A 
ATOM      3  C   UNL     1      18.615  23.829  38.803  1.00  0.00     0.012 A 
ATOM      4  C   UNL     1      20.587  22.162  39.894  1.00  0.00     0.157 A 
ATOM      5  C   UNL     1      19.188  22.820  38.023  1.00  0.00     0.051 A 
ATOM      6  C   UNL     1      20.170  21.980  38.564  1.00  0.00     0.157 A 
ENDROOT
BRANCH   1   7
ATOM      7  C   UNL     1      18.421  25.102  40.928  1.00  0.00     0.010 C 
ATOM      8  C   UNL     1      18.863  26.369  40.932  1.00  0.00     0.025 C 
BRANCH   8   9
ATOM      9  C   UNL     1      20.113  26.842  40.305  1.00  0.00     0.064 C 
ATOM     10  O   UNL     1      20.054  27.499  39.234  1.00  0.00    -0.545 OA
ATOM     11  O   UNL     1      21.349  26.639  40.907  1.00  0.00    -0.545 OA
ENDBRANCH   8   9
ENDBRANCH   1   7
BRANCH   4  12
ATOM     12  O   UNL     1      21.574  21.353  40.458  1.00  0.00    -0.504 OA
ATOM     13  H   UNL     1      21.383  20.408  40.766  1.00  0.00     0.293 HD
ENDBRANCH   4  12
BRANCH   6  14
ATOM     14  O   UNL     1      20.737  20.973  37.785  1.00  0.00    -0.504 OA
ATOM     15  H   UNL     1      20.729  20.005  38.081  1.00  0.00     0.293 HD
ENDBRANCH   6  14
TORSDOF 4
ENDMDL
MODEL 2
REMARK VINA RESULT:    -5.063      0.879      1.922
REMARK INTER + INTRA:          -6.230
REMARK INTER:                  -5.955
REMARK INTRA:                  -0.275
REMARK UNBOUND:                -0.278
REMARK SMILES O=C([O-])C=Cc1ccc(O)c(O)c1
REMARK SMILES IDX 6 1 13 2 7 3 11 4 8 5 9 6 5 7 4 8 2 9 1 10 3 11 12 12 10 14
REMARK H PARENT 12 13 10 15
REMARK Flexibility Score: inf
ROOT
ATOM      1  C   UNL     1      19.269  23.836  40.170  1.00  0.00    -0.022 A 
ATOM      2  C   UNL     1      18.825  23.751  38.839  1.00  0.00     0.058 A 
ATOM      3  C   UNL     1      20.165  22.876  40.657  1.00  0.00     0.012 A 
ATOM      4  C   UNL     1      19.312  22.748  37.990  1.00  0.00     0.157 A 
ATOM      5  C   UNL     1      20.654  21.875  39.814  1.00  0.00     0.051 A 
ATOM      6  C   UNL     1      20.235  21.808  38.479  1.00  0.00     0.157 A 
ENDROOT
BRANCH   1   7
ATOM      7  C   UNL     1      18.725  24.854  41.093  1.00  0.00     0.010 C 
ATOM      8  C   UNL     1      19.128  26.131  41.164  1.00  0.00     0.025 C 
BRANCH   8   9
ATOM      9  C   UNL     1      20.304  26.698  40.476  1.00  0.00     0.064 C 
ATOM     10  O   UNL     1      20.131  27.486  39.510  1.00  0.00    -0.545 OA
ATOM     11  O   UNL     1      21.597  26.438  40.914  1.00  0.00    -0.545 OA
ENDBRANCH   8   9
ENDBRANCH   1   7
BRANCH   4  12
ATOM     12  O   UNL     1      18.864  22.701  36.670  1.00  0.00    -0.504 OA
ATOM     13  H   UNL     1      19.120  21.950  36.042  1.00  0.00     0.293 HD
ENDBRANCH   4  12
BRANCH   6  14
ATOM     14  O   UNL     1      20.727  20.810  37.639  1.00  0.00    -0.504 OA
ATOM     15  H   UNL     1      20.705  20.905  36.632  1.00  0.00     0.293 HD
ENDBRANCH   6  14
TORSDOF 4
ENDMDL
MODEL 3
REMARK VINA RESULT:    -4.941      1.589      2.721
REMARK INTER + INTRA:          -6.086
REMARK INTER:                  -5.817
REMARK INTRA:                  -0.268
REMARK UNBOUND:                -0.278
REMARK SMILES O=C([O-])C=Cc1ccc(O)c(O)c1
REMARK SMILES IDX 6 1 13 2 7 3 11 4 8 5 9 6 5 7 4 8 2 9 1 10 3 11 12 12 10 14
REMARK H PARENT 12 13 10 15
REMARK Flexibility Score: inf
ROOT
ATOM      1  C   UNL     1      18.605  23.903  38.581  1.00  0.00    -0.022 A 
ATOM      2  C   UNL     1      19.181  22.847  37.854  1.00  0.00     0.058 A 
ATOM      3  C   UNL     1      18.963  24.088  39.923  1.00  0.00     0.012 A 
ATOM      4  C   UNL     1      20.142  22.018  38.445  1.00  0.00     0.157 A 
ATOM      5  C   UNL     1      19.923  23.263  40.517  1.00  0.00     0.051 A 
ATOM      6  C   UNL     1      20.519  22.230  39.783  1.00  0.00     0.157 A 
ENDROOT
BRANCH   1   7
ATOM      7  C   UNL     1      17.551  24.754  37.990  1.00  0.00     0.010 C 
ATOM      8  C   UNL     1      17.763  25.885  37.301  1.00  0.00     0.025 C 
BRANCH   8   9
ATOM      9  C   UNL     1      19.058  26.580  37.172  1.00  0.00     0.064 C 
ATOM     10  O   UNL     1      19.613  26.643  36.045  1.00  0.00    -0.545 OA
ATOM     11  O   UNL     1      19.644  27.228  38.252  1.00  0.00    -0.545 OA
ENDBRANCH   8   9
ENDBRANCH   1   7
BRANCH   4  12
ATOM     12  O   UNL     1      20.706  20.989  37.691  1.00  0.00    -0.504 OA
ATOM     13  H   UNL     1      20.829  21.063  36.689  1.00  0.00     0.293 HD
ENDBRANCH   4  12
BRANCH   6  14
ATOM     14  O   UNL     1      21.478  21.410  40.377  1.00  0.00    -0.504 OA
ATOM     15  H   UNL     1      21.766  20.538  39.954  1.00  0.00     0.293 HD
ENDBRANCH   6  14
TORSDOF 4
ENDMDL
MODEL 4
REMARK VINA RESULT:    -4.933      2.034      2.408
REMARK INTER + INTRA:          -6.076
REMARK INTER:                  -5.839
REMARK INTRA:                  -0.237
REMARK UNBOUND:                -0.278
REMARK SMILES O=C([O-])C=Cc1ccc(O)c(O)c1
REMARK SMILES IDX 6 1 13 2 7 3 11 4 8 5 9 6 5 7 4 8 2 9 1 10 3 11 12 12 10 14
REMARK H PARENT 12 13 10 15
REMARK Flexibility Score: inf
ROOT
ATOM      1  C   UNL     1      19.732  24.315  39.834  1.00  0.00    -0.022 A 
ATOM      2  C   UNL     1      20.478  23.311  40.475  1.00  0.00     0.058 A 
ATOM      3  C   UNL     1      19.299  24.113  38.517  1.00  0.00     0.012 A 
ATOM      4  C   UNL     1      20.742  22.098  39.827  1.00  0.00     0.157 A 
ATOM      5  C   UNL     1      19.559  22.903  37.866  1.00  0.00     0.051 A 
ATOM      6  C   UNL     1      20.276  21.891  38.517  1.00  0.00     0.157 A 
ENDROOT
BRANCH   1   7
ATOM      7  C   UNL     1      19.490  25.621  40.482  1.00  0.00     0.010 C 
ATOM      8  C   UNL     1      18.638  25.838  41.495  1.00  0.00     0.025 C 
BRANCH   8   9
ATOM      9  C   UNL     1      17.658  24.863  42.014  1.00  0.00     0.064 C 
ATOM     10  O   UNL     1      17.868  24.312  43.125  1.00  0.00    -0.545 OA
ATOM     11  O   UNL     1      16.475  24.594  41.338  1.00  0.00    -0.545 OA
ENDBRANCH   8   9
ENDBRANCH   1   7
BRANCH   4  12
ATOM     12  O   UNL     1      21.470  21.116  40.497  1.00  0.00    -0.504 OA
ATOM     13  H   UNL     1      21.024  20.321  40.937  1.00  0.00     0.293 HD
ENDBRANCH   4  12
BRANCH   6  14
ATOM     14  O   UNL     1      20.532  20.684  37.866  1.00  0.00    -0.504 OA
ATOM     15  H   UNL     1      20.764  19.843  38.380  1.00  0.00     0.293 HD
ENDBRANCH   6  14
TORSDOF 4
ENDMDL
MODEL 5
REMARK VINA RESULT:    -4.932      2.617      3.333
REMARK INTER + INTRA:          -6.076
REMARK INTER:                  -5.840
REMARK INTRA:                  -0.236
REMARK UNBOUND:                -0.278
REMARK SMILES O=C([O-])C=Cc1ccc(O)c(O)c1
REMARK SMILES IDX 6 1 13 2 7 3 11 4 8 5 9 6 5 7 4 8 2 9 1 10 3 11 12 12 10 14
REMARK H PARENT 12 13 10 15
REMARK Flexibility Score: inf
ROOT
ATOM      1  C   UNL     1      19.648  23.664  40.031  1.00  0.00    -0.022 A 
ATOM      2  C   UNL     1      19.082  23.578  38.748  1.00  0.00     0.058 A 
ATOM      3  C   UNL     1      20.474  22.628  40.488  1.00  0.00     0.012 A 
ATOM      4  C   UNL     1      19.379  22.496  37.911  1.00  0.00     0.157 A 
ATOM      5  C   UNL     1      20.774  21.547  39.655  1.00  0.00     0.051 A 
ATOM      6  C   UNL     1      20.234  21.476  38.365  1.00  0.00     0.157 A 
ENDROOT
BRANCH   1   7
ATOM      7  C   UNL     1      19.304  24.772  40.947  1.00  0.00     0.010 C 
ATOM      8  C   UNL     1      18.462  24.685  41.988  1.00  0.00     0.025 C 
BRANCH   8   9
ATOM      9  C   UNL     1      17.590  23.533  42.290  1.00  0.00     0.064 C 
ATOM     10  O   UNL     1      16.443  23.477  41.775  1.00  0.00    -0.545 OA
ATOM     11  O   UNL     1      18.032  22.474  43.074  1.00  0.00    -0.545 OA
ENDBRANCH   8   9
ENDBRANCH   1   7
BRANCH   4  12
ATOM     12  O   UNL     1      18.813  22.449  36.637  1.00  0.00    -0.504 OA
ATOM     13  H   UNL     1      17.949  22.926  36.415  1.00  0.00     0.293 HD
ENDBRANCH   4  12
BRANCH   6  14
ATOM     14  O   UNL     1      20.538  20.397  37.536  1.00  0.00    -0.504 OA
ATOM     15  H   UNL     1      21.463  20.272  37.146  1.00  0.00     0.293 HD
ENDBRANCH   6  14
TORSDOF 4
ENDMDL
MODEL 6
REMARK VINA RESULT:    -4.836      4.239      6.951
REMARK INTER + INTRA:          -5.962
REMARK INTER:                  -5.706
REMARK INTRA:                  -0.256
REMARK UNBOUND:                -0.278
REMARK SMILES O=C([O-])C=Cc1ccc(O)c(O)c1
REMARK SMILES IDX 6 1 13 2 7 3 11 4 8 5 9 6 5 7 4 8 2 9 1 10 3 11 12 12 10 14
REMARK H PARENT 12 13 10 15
REMARK Flexibility Score: inf
ROOT
ATOM      1  C   UNL     1      17.911  25.762  44.333  1.00  0.00    -0.022 A 
ATOM      2  C   UNL     1      19.035  26.578  44.114  1.00  0.00     0.058 A 
ATOM      3  C   UNL     1      16.952  26.154  45.276  1.00  0.00     0.012 A 
ATOM      4  C   UNL     1      19.171  27.797  44.790  1.00  0.00     0.157 A 
ATOM      5  C   UNL     1      17.084  27.370  45.952  1.00  0.00     0.051 A 
ATOM      6  C   UNL     1      18.188  28.198  45.711  1.00  0.00     0.157 A 
ENDROOT
BRANCH   1   7
ATOM      7  C   UNL     1      17.778  24.449  43.669  1.00  0.00     0.010 C 
ATOM      8  C   UNL     1      17.439  24.260  42.385  1.00  0.00     0.025 C 
BRANCH   8   9
ATOM      9  C   UNL     1      16.956  25.306  41.463  1.00  0.00     0.064 C 
ATOM     10  O   UNL     1      15.747  25.653  41.505  1.00  0.00    -0.545 OA
ATOM     11  O   UNL     1      17.821  25.968  40.600  1.00  0.00    -0.545 OA
ENDBRANCH   8   9
ENDBRANCH   1   7
BRANCH   4  12
ATOM     12  O   UNL     1      20.289  28.590  44.537  1.00  0.00    -0.504 OA
ATOM     13  H   UNL     1      20.862  28.466  43.711  1.00  0.00     0.293 HD
ENDBRANCH   4  12
BRANCH   6  14
ATOM     14  O   UNL     1      18.315  29.412  46.385  1.00  0.00    -0.504 OA
ATOM     15  H   UNL     1      19.148  29.641  46.912  1.00  0.00     0.293 HD
ENDBRANCH   6  14
TORSDOF 4
ENDMDL
MODEL 7
REMARK VINA RESULT:    -4.803      1.784      5.232
REMARK INTER + INTRA:          -5.923
REMARK INTER:                  -5.916
REMARK INTRA:                  -0.007
REMARK UNBOUND:                -0.278
REMARK SMILES O=C([O-])C=Cc1ccc(O)c(O)c1
REMARK SMILES IDX 6 1 13 2 7 3 11 4 8 5 9 6 5 7 4 8 2 9 1 10 3 11 12 12 10 14
REMARK H PARENT 12 13 10 15
REMARK Flexibility Score: inf
ROOT
ATOM      1  C   UNL     1      19.628  25.550  40.628  1.00  0.00    -0.022 A 
ATOM      2  C   UNL     1      20.815  26.296  40.730  1.00  0.00     0.058 A 
ATOM      3  C   UNL     1      18.701  25.588  41.677  1.00  0.00     0.012 A 
ATOM      4  C   UNL     1      21.048  27.111  41.845  1.00  0.00     0.157 A 
ATOM      5  C   UNL     1      18.929  26.400  42.791  1.00  0.00     0.051 A 
ATOM      6  C   UNL     1      20.098  27.167  42.880  1.00  0.00     0.157 A 
ENDROOT
BRANCH   1   7
ATOM      7  C   UNL     1      19.390  24.645  39.484  1.00  0.00     0.010 C 
ATOM      8  C   UNL     1      19.535  23.312  39.506  1.00  0.00     0.025 C 
BRANCH   8   9
ATOM      9  C   UNL     1      20.136  22.534  40.606  1.00  0.00     0.064 C 
ATOM     10  O   UNL     1      19.531  22.455  41.707  1.00  0.00    -0.545 OA
ATOM     11  O   UNL     1      21.320  21.827  40.433  1.00  0.00    -0.545 OA
ENDBRANCH   8   9
ENDBRANCH   1   7
BRANCH   4  12
ATOM     12  O   UNL     1      22.229  27.850  41.909  1.00  0.00    -0.504 OA
ATOM     13  H   UNL     1      23.134  27.433  41.735  1.00  0.00     0.293 HD
ENDBRANCH   4  12
BRANCH   6  14
ATOM     14  O   UNL     1      20.322  27.978  43.991  1.00  0.00    -0.504 OA
ATOM     15  H   UNL     1      20.843  28.843  43.921  1.00  0.00     0.293 HD
ENDBRANCH   6  14
TORSDOF 4
ENDMDL
MODEL 8
REMARK VINA RESULT:    -4.794      1.698      4.789
REMARK INTER + INTRA:          -5.914
REMARK INTER:                  -5.651
REMARK INTRA:                  -0.263
REMARK UNBOUND:                -0.278
REMARK SMILES O=C([O-])C=Cc1ccc(O)c(O)c1
REMARK SMILES IDX 6 1 13 2 7 3 11 4 8 5 9 6 5 7 4 8 2 9 1 10 3 11 12 12 10 14
REMARK H PARENT 12 13 10 15
REMARK Flexibility Score: inf
ROOT
ATOM      1  C   UNL     1      19.930  23.525  40.437  1.00  0.00    -0.022 A 
ATOM      2  C   UNL     1      20.658  24.707  40.216  1.00  0.00     0.058 A 
ATOM      3  C   UNL     1      18.797  23.561  41.260  1.00  0.00     0.012 A 
ATOM      4  C   UNL     1      20.229  25.920  40.769  1.00  0.00     0.157 A 
ATOM      5  C   UNL     1      18.364  24.770  41.813  1.00  0.00     0.051 A 
ATOM      6  C   UNL     1      19.073  25.953  41.567  1.00  0.00     0.157 A 
ENDROOT
BRANCH   1   7
ATOM      7  C   UNL     1      20.398  22.227  39.907  1.00  0.00     0.010 C 
ATOM      8  C   UNL     1      20.265  21.814  38.638  1.00  0.00     0.025 C 
BRANCH   8   9
ATOM      9  C   UNL     1      19.467  22.491  37.596  1.00  0.00     0.064 C 
ATOM     10  O   UNL     1      20.058  23.102  36.669  1.00  0.00    -0.545 OA
ATOM     11  O   UNL     1      18.080  22.408  37.576  1.00  0.00    -0.545 OA
ENDBRANCH   8   9
ENDBRANCH   1   7
BRANCH   4  12
ATOM     12  O   UNL     1      20.966  27.077  40.517  1.00  0.00    -0.504 OA
ATOM     13  H   UNL     1      20.682  27.755  39.820  1.00  0.00     0.293 HD
ENDBRANCH   4  12
BRANCH   6  14
ATOM     14  O   UNL     1      18.638  27.158  42.117  1.00  0.00    -0.504 OA
ATOM     15  H   UNL     1      18.879  28.049  41.702  1.00  0.00     0.293 HD
ENDBRANCH   6  14
TORSDOF 4
ENDMDL
MODEL 9
REMARK VINA RESULT:    -4.764      2.952      4.936
REMARK INTER + INTRA:          -5.878
REMARK INTER:                  -5.588
REMARK INTRA:                  -0.289
REMARK UNBOUND:                -0.278
REMARK SMILES O=C([O-])C=Cc1ccc(O)c(O)c1
REMARK SMILES IDX 6 1 13 2 7 3 11 4 8 5 9 6 5 7 4 8 2 9 1 10 3 11 12 12 10 14
REMARK H PARENT 12 13 10 15
REMARK Flexibility Score: inf
ROOT
ATOM      1  C   UNL     1      19.948  25.403  40.624  1.00  0.00    -0.022 A 
ATOM      2  C   UNL     1      21.037  26.282  40.755  1.00  0.00     0.058 A 
ATOM      3  C   UNL     1      18.961  25.381  41.618  1.00  0.00     0.012 A 
ATOM      4  C   UNL     1      21.111  27.166  41.838  1.00  0.00     0.157 A 
ATOM      5  C   UNL     1      19.030  26.262  42.700  1.00  0.00     0.051 A 
ATOM      6  C   UNL     1      20.099  27.159  42.814  1.00  0.00     0.157 A 
ENDROOT
BRANCH   1   7
ATOM      7  C   UNL     1      19.881  24.427  39.516  1.00  0.00     0.010 C 
ATOM      8  C   UNL     1      19.412  24.681  38.285  1.00  0.00     0.025 C 
BRANCH   8   9
ATOM      9  C   UNL     1      18.709  25.912  37.874  1.00  0.00     0.064 C 
ATOM     10  O   UNL     1      17.452  25.946  37.917  1.00  0.00    -0.545 OA
ATOM     11  O   UNL     1      19.405  27.057  37.508  1.00  0.00    -0.545 OA
ENDBRANCH   8   9
ENDBRANCH   1   7
BRANCH   4  12
ATOM     12  O   UNL     1      22.196  28.037  41.930  1.00  0.00    -0.504 OA
ATOM     13  H   UNL     1      22.092  28.996  42.236  1.00  0.00     0.293 HD
ENDBRANCH   4  12
BRANCH   6  14
ATOM     14  O   UNL     1      20.164  28.039  43.894  1.00  0.00    -0.504 OA
ATOM     15  H   UNL     1      19.759  28.966  43.849  1.00  0.00     0.293 HD
ENDBRANCH   6  14
TORSDOF 4
ENDMDL
