MODEL 1
REMARK VINA RESULT:    -6.186      0.000      0.000
REMARK INTER + INTRA:          -9.999
REMARK INTER:                  -9.079
REMARK INTRA:                  -0.919
REMARK UNBOUND:                -0.919
REMARK SMILES O=c1c(O[C@@H]2O[C@H](CO)[C@@H](O)[C@@H](O)[C@@H]2O)c(-c2ccc(O)c(O)c2)oc2cc(O)cc(O)c12
REMARK SMILES IDX 4 1 3 2 16 3 25 4 2 5 26 6 1 7 33 8 27 9 31 10 28 11 30 12
REMARK SMILES IDX 17 13 18 14 19 15 20 16 24 17 22 18 21 19 23 21 32 23 29 25
REMARK SMILES IDX 5 27 14 28 6 29 12 30 7 31 10 32 15 33 13 35 8 37 9 38 11 40
REMARK H PARENT 21 20 23 22 32 24 29 26 15 34 13 36 9 39 11 41
REMARK Flexibility Score: inf
ROOT
ATOM      1  O   UNL     1      19.700 -13.164  18.847  1.00  0.00    -0.454 OA
ENDROOT
BRANCH   1   2
ATOM      2  C   UNL     1      19.593 -13.302  17.451  1.00  0.00     0.214 A 
ATOM      3  C   UNL     1      19.054 -12.232  16.708  1.00  0.00     0.180 A 
ATOM      4  O   UNL     1      18.975 -12.311  15.384  1.00  0.00    -0.452 OA
ATOM      5  C   UNL     1      20.015 -14.455  16.753  1.00  0.00     0.239 A 
ATOM      6  C   UNL     1      19.365 -13.372  14.690  1.00  0.00     0.146 A 
ATOM      7  O   UNL     1      20.478 -15.442  17.384  1.00  0.00    -0.285 OA
ATOM      8  C   UNL     1      19.904 -14.501  15.348  1.00  0.00     0.111 A 
ATOM      9  C   UNL     1      19.234 -13.360  13.298  1.00  0.00     0.094 A 
ATOM     10  C   UNL     1      20.306 -15.618  14.575  1.00  0.00     0.134 A 
ATOM     11  C   UNL     1      19.632 -14.462  12.542  1.00  0.00     0.123 A 
ATOM     12  C   UNL     1      20.166 -15.588  13.180  1.00  0.00     0.093 A 
BRANCH   3  13
ATOM     13  C   UNL     1      18.611 -10.977  17.354  1.00  0.00     0.025 A 
ATOM     14  C   UNL     1      17.443 -10.974  18.127  1.00  0.00     0.016 A 
ATOM     15  C   UNL     1      17.005  -9.798  18.741  1.00  0.00     0.051 A 
ATOM     16  C   UNL     1      17.730  -8.610  18.606  1.00  0.00     0.157 A 
ATOM     17  C   UNL     1      19.356  -9.793  17.238  1.00  0.00     0.062 A 
ATOM     18  C   UNL     1      18.926  -8.607  17.849  1.00  0.00     0.158 A 
BRANCH  16  19
ATOM     19  O   UNL     1      17.235  -7.467  19.236  1.00  0.00    -0.504 OA
ATOM     20  H   UNL     1      16.280  -7.363  19.549  1.00  0.00     0.293 HD
ENDBRANCH  16  19
BRANCH  18  21
ATOM     21  O   UNL     1      19.712  -7.466  17.682  1.00  0.00    -0.504 OA
ATOM     22  H   UNL     1      20.685  -7.408  17.942  1.00  0.00     0.293 HD
ENDBRANCH  18  21
ENDBRANCH   3  13
BRANCH  10  23
ATOM     23  O   UNL     1      20.844 -16.756  15.180  1.00  0.00    -0.507 OA
ATOM     24  H   UNL     1      21.157 -17.552  14.637  1.00  0.00     0.293 HD
ENDBRANCH  10  23
BRANCH  11  25
ATOM     25  O   UNL     1      19.494 -14.431  11.156  1.00  0.00    -0.508 OA
ATOM     26  H   UNL     1      19.802 -15.201  10.575  1.00  0.00     0.293 HD
ENDBRANCH  11  25
ENDBRANCH   1   2
BRANCH   1  27
ATOM     27  C   UNL     1      20.890 -13.319  19.625  1.00  0.00     0.339 C 
ATOM     28  C   UNL     1      21.825 -12.118  19.411  1.00  0.00     0.214 C 
ATOM     29  O   UNL     1      20.602 -13.549  21.000  1.00  0.00    -0.332 OA
ATOM     30  C   UNL     1      21.226 -10.864  20.065  1.00  0.00     0.180 C 
ATOM     31  C   UNL     1      20.063 -12.427  21.695  1.00  0.00     0.179 C 
ATOM     32  C   UNL     1      20.917 -11.142  21.545  1.00  0.00     0.177 C 
BRANCH  28  33
ATOM     33  O   UNL     1      22.004 -11.909  18.033  1.00  0.00    -0.384 OA
ATOM     34  H   UNL     1      21.978 -12.803  17.601  1.00  0.00     0.211 HD
ENDBRANCH  28  33
BRANCH  30  35
ATOM     35  O   UNL     1      22.076  -9.750  19.929  1.00  0.00    -0.387 OA
ATOM     36  H   UNL     1      22.505  -9.797  19.035  1.00  0.00     0.211 HD
ENDBRANCH  30  35
BRANCH  31  37
ATOM     37  C   UNL     1      18.570 -12.199  21.400  1.00  0.00     0.191 C 
BRANCH  37  38
ATOM     38  O   UNL     1      17.933 -13.428  21.181  1.00  0.00    -0.394 OA
ATOM     39  H   UNL     1      17.178 -13.241  20.564  1.00  0.00     0.210 HD
ENDBRANCH  37  38
ENDBRANCH  31  37
BRANCH  32  40
ATOM     40  O   UNL     1      22.119 -11.296  22.259  1.00  0.00    -0.387 OA
ATOM     41  H   UNL     1      22.573 -12.098  21.892  1.00  0.00     0.211 HD
ENDBRANCH  32  40
ENDBRANCH   1  27
TORSDOF 12
ENDMDL
MODEL 2
REMARK VINA RESULT:    -5.893      2.385      6.824
REMARK INTER + INTRA:          -9.569
REMARK INTER:                  -7.994
REMARK INTRA:                  -1.575
REMARK UNBOUND:                -0.919
REMARK SMILES O=c1c(O[C@@H]2O[C@H](CO)[C@@H](O)[C@@H](O)[C@@H]2O)c(-c2ccc(O)c(O)c2)oc2cc(O)cc(O)c12
REMARK SMILES IDX 4 1 3 2 16 3 25 4 2 5 26 6 1 7 33 8 27 9 31 10 28 11 30 12
REMARK SMILES IDX 17 13 18 14 19 15 20 16 24 17 22 18 21 19 23 21 32 23 29 25
REMARK SMILES IDX 5 27 14 28 6 29 12 30 7 31 10 32 15 33 13 35 8 37 9 38 11 40
REMARK H PARENT 21 20 23 22 32 24 29 26 15 34 13 36 9 39 11 41
REMARK Flexibility Score: inf
ROOT
ATOM      1  O   UNL     1      20.635 -11.189  17.174  1.00  0.00    -0.454 OA
ENDROOT
BRANCH   1   2
ATOM      2  C   UNL     1      20.797  -9.859  17.603  1.00  0.00     0.214 A 
ATOM      3  C   UNL     1      20.529  -9.550  18.953  1.00  0.00     0.180 A 
ATOM      4  O   UNL     1      20.710  -8.313  19.405  1.00  0.00    -0.452 OA
ATOM      5  C   UNL     1      21.232  -8.818  16.753  1.00  0.00     0.239 A 
ATOM      6  C   UNL     1      21.122  -7.310  18.641  1.00  0.00     0.146 A 
ATOM      7  O   UNL     1      21.458  -9.049  15.536  1.00  0.00    -0.285 OA
ATOM      8  C   UNL     1      21.402  -7.517  17.271  1.00  0.00     0.111 A 
ATOM      9  C   UNL     1      21.275  -6.042  19.210  1.00  0.00     0.094 A 
ATOM     10  C   UNL     1      21.837  -6.422  16.486  1.00  0.00     0.134 A 
ATOM     11  C   UNL     1      21.704  -4.966  18.433  1.00  0.00     0.123 A 
ATOM     12  C   UNL     1      21.983  -5.157  17.075  1.00  0.00     0.093 A 
BRANCH   3  13
ATOM     13  C   UNL     1      20.093 -10.582  19.919  1.00  0.00     0.025 A 
ATOM     14  C   UNL     1      18.759 -10.612  20.343  1.00  0.00     0.016 A 
ATOM     15  C   UNL     1      18.329 -11.575  21.258  1.00  0.00     0.051 A 
ATOM     16  C   UNL     1      19.218 -12.533  21.756  1.00  0.00     0.157 A 
ATOM     17  C   UNL     1      20.983 -11.559  20.396  1.00  0.00     0.062 A 
ATOM     18  C   UNL     1      20.563 -12.529  21.315  1.00  0.00     0.158 A 
BRANCH  16  19
ATOM     19  O   UNL     1      18.729 -13.463  22.676  1.00  0.00    -0.504 OA
ATOM     20  H   UNL     1      17.747 -13.641  22.832  1.00  0.00     0.293 HD
ENDBRANCH  16  19
BRANCH  18  21
ATOM     21  O   UNL     1      21.504 -13.462  21.754  1.00  0.00    -0.504 OA
ATOM     22  H   UNL     1      21.299 -14.436  21.919  1.00  0.00     0.293 HD
ENDBRANCH  18  21
ENDBRANCH   3  13
BRANCH  10  23
ATOM     23  O   UNL     1      22.125  -6.578  15.129  1.00  0.00    -0.507 OA
ATOM     24  H   UNL     1      22.420  -7.467  14.745  1.00  0.00     0.293 HD
ENDBRANCH  10  23
BRANCH  11  25
ATOM     25  O   UNL     1      21.850  -3.711  19.018  1.00  0.00    -0.508 OA
ATOM     26  H   UNL     1      21.626  -2.862  18.514  1.00  0.00     0.293 HD
ENDBRANCH  11  25
ENDBRANCH   1   2
BRANCH   1  27
ATOM     27  C   UNL     1      19.393 -11.867  16.967  1.00  0.00     0.339 C 
ATOM     28  C   UNL     1      19.148 -12.079  15.463  1.00  0.00     0.214 C 
ATOM     29  O   UNL     1      19.317 -13.080  17.708  1.00  0.00    -0.332 OA
ATOM     30  C   UNL     1      20.131 -13.123  14.914  1.00  0.00     0.180 C 
ATOM     31  C   UNL     1      20.182 -14.117  17.251  1.00  0.00     0.179 C 
ATOM     32  C   UNL     1      20.035 -14.417  15.738  1.00  0.00     0.177 C 
BRANCH  28  33
ATOM     33  O   UNL     1      19.311 -10.857  14.790  1.00  0.00    -0.384 OA
ATOM     34  H   UNL     1      18.608 -10.244  15.133  1.00  0.00     0.211 HD
ENDBRANCH  28  33
BRANCH  30  35
ATOM     35  O   UNL     1      19.908 -13.379  13.548  1.00  0.00    -0.387 OA
ATOM     36  H   UNL     1      20.144 -14.326  13.368  1.00  0.00     0.211 HD
ENDBRANCH  30  35
BRANCH  31  37
ATOM     37  C   UNL     1      21.644 -13.917  17.689  1.00  0.00     0.191 C 
BRANCH  37  38
ATOM     38  O   UNL     1      21.898 -14.653  18.854  1.00  0.00    -0.394 OA
ATOM     39  H   UNL     1      22.244 -14.005  19.521  1.00  0.00     0.210 HD
ENDBRANCH  37  38
ENDBRANCH  31  37
BRANCH  32  40
ATOM     40  O   UNL     1      18.794 -15.036  15.504  1.00  0.00    -0.387 OA
ATOM     41  H   UNL     1      18.109 -14.503  15.985  1.00  0.00     0.211 HD
ENDBRANCH  32  40
ENDBRANCH   1  27
TORSDOF 12
ENDMDL
MODEL 3
REMARK VINA RESULT:    -5.853      2.719      6.841
REMARK INTER + INTRA:          -9.510
REMARK INTER:                  -8.859
REMARK INTRA:                  -0.651
REMARK UNBOUND:                -0.919
REMARK SMILES O=c1c(O[C@@H]2O[C@H](CO)[C@@H](O)[C@@H](O)[C@@H]2O)c(-c2ccc(O)c(O)c2)oc2cc(O)cc(O)c12
REMARK SMILES IDX 4 1 3 2 16 3 25 4 2 5 26 6 1 7 33 8 27 9 31 10 28 11 30 12
REMARK SMILES IDX 17 13 18 14 19 15 20 16 24 17 22 18 21 19 23 21 32 23 29 25
REMARK SMILES IDX 5 27 14 28 6 29 12 30 7 31 10 32 15 33 13 35 8 37 9 38 11 40
REMARK H PARENT 21 20 23 22 32 24 29 26 15 34 13 36 9 39 11 41
REMARK Flexibility Score: inf
ROOT
ATOM      1  O   UNL     1      20.560  -9.995  20.085  1.00  0.00    -0.454 OA
ENDROOT
BRANCH   1   2
ATOM      2  C   UNL     1      20.879  -8.885  19.281  1.00  0.00     0.214 A 
ATOM      3  C   UNL     1      21.129  -9.098  17.909  1.00  0.00     0.180 A 
ATOM      4  O   UNL     1      21.393  -8.069  17.111  1.00  0.00    -0.452 OA
ATOM      5  C   UNL     1      20.944  -7.564  19.775  1.00  0.00     0.239 A 
ATOM      6  C   UNL     1      21.458  -6.814  17.534  1.00  0.00     0.146 A 
ATOM      7  O   UNL     1      20.751  -7.337  20.999  1.00  0.00    -0.285 OA
ATOM      8  C   UNL     1      21.237  -6.502  18.894  1.00  0.00     0.111 A 
ATOM      9  C   UNL     1      21.749  -5.801  16.615  1.00  0.00     0.094 A 
ATOM     10  C   UNL     1      21.318  -5.150  19.311  1.00  0.00     0.134 A 
ATOM     11  C   UNL     1      21.827  -4.472  17.029  1.00  0.00     0.123 A 
ATOM     12  C   UNL     1      21.612  -4.149  18.374  1.00  0.00     0.093 A 
BRANCH   3  13
ATOM     13  C   UNL     1      21.057 -10.445  17.302  1.00  0.00     0.025 A 
ATOM     14  C   UNL     1      21.884 -11.466  17.787  1.00  0.00     0.016 A 
ATOM     15  C   UNL     1      21.836 -12.743  17.224  1.00  0.00     0.051 A 
ATOM     16  C   UNL     1      20.953 -13.027  16.177  1.00  0.00     0.157 A 
ATOM     17  C   UNL     1      20.151 -10.734  16.269  1.00  0.00     0.062 A 
ATOM     18  C   UNL     1      20.094 -12.011  15.696  1.00  0.00     0.158 A 
BRANCH  16  19
ATOM     19  O   UNL     1      20.959 -14.321  15.650  1.00  0.00    -0.504 OA
ATOM     20  H   UNL     1      21.717 -14.705  15.105  1.00  0.00     0.293 HD
ENDBRANCH  16  19
BRANCH  18  21
ATOM     21  O   UNL     1      19.176 -12.222  14.666  1.00  0.00    -0.504 OA
ATOM     22  H   UNL     1      18.965 -11.544  13.949  1.00  0.00     0.293 HD
ENDBRANCH  18  21
ENDBRANCH   3  13
BRANCH  10  23
ATOM     23  O   UNL     1      21.108  -4.794  20.644  1.00  0.00    -0.507 OA
ATOM     24  H   UNL     1      20.911  -3.839  20.917  1.00  0.00     0.293 HD
ENDBRANCH  10  23
BRANCH  11  25
ATOM     25  O   UNL     1      22.119  -3.478  16.098  1.00  0.00    -0.508 OA
ATOM     26  H   UNL     1      21.433  -2.779  15.837  1.00  0.00     0.293 HD
ENDBRANCH  11  25
ENDBRANCH   1   2
BRANCH   1  27
ATOM     27  C   UNL     1      19.321 -10.223  20.761  1.00  0.00     0.339 C 
ATOM     28  C   UNL     1      18.288 -10.817  19.790  1.00  0.00     0.214 C 
ATOM     29  O   UNL     1      19.490 -11.017  21.931  1.00  0.00    -0.332 OA
ATOM     30  C   UNL     1      18.677 -12.258  19.427  1.00  0.00     0.180 C 
ATOM     31  C   UNL     1      19.829 -12.379  21.687  1.00  0.00     0.179 C 
ATOM     32  C   UNL     1      18.861 -13.088  20.707  1.00  0.00     0.177 C 
BRANCH  28  33
ATOM     33  O   UNL     1      18.230 -10.023  18.632  1.00  0.00    -0.384 OA
ATOM     34  H   UNL     1      18.551  -9.118  18.888  1.00  0.00     0.211 HD
ENDBRANCH  28  33
BRANCH  30  35
ATOM     35  O   UNL     1      17.729 -12.852  18.572  1.00  0.00    -0.387 OA
ATOM     36  H   UNL     1      17.325 -12.138  18.015  1.00  0.00     0.211 HD
ENDBRANCH  30  35
BRANCH  31  37
ATOM     37  C   UNL     1      21.312 -12.572  21.319  1.00  0.00     0.191 C 
BRANCH  37  38
ATOM     38  O   UNL     1      22.103 -11.664  22.035  1.00  0.00    -0.394 OA
ATOM     39  H   UNL     1      21.489 -11.197  22.661  1.00  0.00     0.210 HD
ENDBRANCH  37  38
ENDBRANCH  31  37
BRANCH  32  40
ATOM     40  O   UNL     1      17.616 -13.274  21.334  1.00  0.00    -0.387 OA
ATOM     41  H   UNL     1      16.926 -12.905  20.723  1.00  0.00     0.211 HD
ENDBRANCH  32  40
ENDBRANCH   1  27
TORSDOF 12
ENDMDL
MODEL 4
REMARK VINA RESULT:    -5.709      1.980      4.387
REMARK INTER + INTRA:          -9.298
REMARK INTER:                  -8.267
REMARK INTRA:                  -1.031
REMARK UNBOUND:                -0.919
REMARK SMILES O=c1c(O[C@@H]2O[C@H](CO)[C@@H](O)[C@@H](O)[C@@H]2O)c(-c2ccc(O)c(O)c2)oc2cc(O)cc(O)c12
REMARK SMILES IDX 4 1 3 2 16 3 25 4 2 5 26 6 1 7 33 8 27 9 31 10 28 11 30 12
REMARK SMILES IDX 17 13 18 14 19 15 20 16 24 17 22 18 21 19 23 21 32 23 29 25
REMARK SMILES IDX 5 27 14 28 6 29 12 30 7 31 10 32 15 33 13 35 8 37 9 38 11 40
REMARK H PARENT 21 20 23 22 32 24 29 26 15 34 13 36 9 39 11 41
REMARK Flexibility Score: inf
ROOT
ATOM      1  O   UNL     1      20.240  -9.847  17.524  1.00  0.00    -0.454 OA
ENDROOT
BRANCH   1   2
ATOM      2  C   UNL     1      20.009 -11.220  17.316  1.00  0.00     0.214 A 
ATOM      3  C   UNL     1      19.819 -12.048  18.441  1.00  0.00     0.180 A 
ATOM      4  O   UNL     1      19.559 -13.341  18.282  1.00  0.00    -0.452 OA
ATOM      5  C   UNL     1      19.941 -11.807  16.034  1.00  0.00     0.239 A 
ATOM      6  C   UNL     1      19.480 -13.931  17.097  1.00  0.00     0.146 A 
ATOM      7  O   UNL     1      20.129 -11.105  15.005  1.00  0.00    -0.285 OA
ATOM      8  C   UNL     1      19.671 -13.186  15.910  1.00  0.00     0.111 A 
ATOM      9  C   UNL     1      19.208 -15.301  17.035  1.00  0.00     0.094 A 
ATOM     10  C   UNL     1      19.584 -13.850  14.662  1.00  0.00     0.134 A 
ATOM     11  C   UNL     1      19.122 -15.949  15.804  1.00  0.00     0.123 A 
ATOM     12  C   UNL     1      19.311 -15.225  14.621  1.00  0.00     0.093 A 
BRANCH   3  13
ATOM     13  C   UNL     1      19.849 -11.513  19.820  1.00  0.00     0.025 A 
ATOM     14  C   UNL     1      18.742 -10.808  20.310  1.00  0.00     0.016 A 
ATOM     15  C   UNL     1      18.752 -10.290  21.607  1.00  0.00     0.051 A 
ATOM     16  C   UNL     1      19.859 -10.477  22.441  1.00  0.00     0.157 A 
ATOM     17  C   UNL     1      20.951 -11.725  20.664  1.00  0.00     0.062 A 
ATOM     18  C   UNL     1      20.972 -11.209  21.966  1.00  0.00     0.158 A 
BRANCH  16  19
ATOM     19  O   UNL     1      19.811  -9.926  23.723  1.00  0.00    -0.504 OA
ATOM     20  H   UNL     1      19.914  -8.940  23.919  1.00  0.00     0.293 HD
ENDBRANCH  16  19
BRANCH  18  21
ATOM     21  O   UNL     1      22.106 -11.451  22.744  1.00  0.00    -0.504 OA
ATOM     22  H   UNL     1      22.794 -12.159  22.534  1.00  0.00     0.293 HD
ENDBRANCH  18  21
ENDBRANCH   3  13
BRANCH  10  23
ATOM     23  O   UNL     1      19.765 -13.157  13.464  1.00  0.00    -0.507 OA
ATOM     24  H   UNL     1      19.021 -12.613  13.044  1.00  0.00     0.293 HD
ENDBRANCH  10  23
BRANCH  11  25
ATOM     25  O   UNL     1      18.850 -17.315  15.764  1.00  0.00    -0.508 OA
ATOM     26  H   UNL     1      19.105 -17.929  16.529  1.00  0.00     0.293 HD
ENDBRANCH  11  25
ENDBRANCH   1   2
BRANCH   1  27
ATOM     27  C   UNL     1      21.438  -9.257  18.036  1.00  0.00     0.339 C 
ATOM     28  C   UNL     1      22.024  -8.271  17.012  1.00  0.00     0.214 C 
ATOM     29  O   UNL     1      21.236  -8.663  19.313  1.00  0.00    -0.332 OA
ATOM     30  C   UNL     1      21.124  -7.030  16.907  1.00  0.00     0.180 C 
ATOM     31  C   UNL     1      20.431  -7.487  19.306  1.00  0.00     0.179 C 
ATOM     32  C   UNL     1      20.916  -6.414  18.300  1.00  0.00     0.177 C 
BRANCH  28  33
ATOM     33  O   UNL     1      22.125  -8.905  15.762  1.00  0.00    -0.384 OA
ATOM     34  H   UNL     1      21.419  -9.602  15.736  1.00  0.00     0.211 HD
ENDBRANCH  28  33
BRANCH  30  35
ATOM     35  O   UNL     1      21.652  -6.081  16.010  1.00  0.00    -0.387 OA
ATOM     36  H   UNL     1      22.272  -5.492  16.514  1.00  0.00     0.211 HD
ENDBRANCH  30  35
BRANCH  31  37
ATOM     37  C   UNL     1      18.926  -7.791  19.189  1.00  0.00     0.191 C 
BRANCH  37  38
ATOM     38  O   UNL     1      18.229  -7.156  20.225  1.00  0.00    -0.394 OA
ATOM     39  H   UNL     1      18.779  -6.372  20.488  1.00  0.00     0.210 HD
ENDBRANCH  37  38
ENDBRANCH  31  37
BRANCH  32  40
ATOM     40  O   UNL     1      22.125  -5.859  18.757  1.00  0.00    -0.387 OA
ATOM     41  H   UNL     1      22.688  -5.692  17.957  1.00  0.00     0.211 HD
ENDBRANCH  32  40
ENDBRANCH   1  27
TORSDOF 12
ENDMDL
MODEL 5
REMARK VINA RESULT:    -5.665      2.307      3.666
REMARK INTER + INTRA:          -9.234
REMARK INTER:                  -8.776
REMARK INTRA:                  -0.458
REMARK UNBOUND:                -0.919
REMARK SMILES O=c1c(O[C@@H]2O[C@H](CO)[C@@H](O)[C@@H](O)[C@@H]2O)c(-c2ccc(O)c(O)c2)oc2cc(O)cc(O)c12
REMARK SMILES IDX 4 1 3 2 16 3 25 4 2 5 26 6 1 7 33 8 27 9 31 10 28 11 30 12
REMARK SMILES IDX 17 13 18 14 19 15 20 16 24 17 22 18 21 19 23 21 32 23 29 25
REMARK SMILES IDX 5 27 14 28 6 29 12 30 7 31 10 32 15 33 13 35 8 37 9 38 11 40
REMARK H PARENT 21 20 23 22 32 24 29 26 15 34 13 36 9 39 11 41
REMARK Flexibility Score: inf
ROOT
ATOM      1  O   UNL     1      19.936 -10.848  20.152  1.00  0.00    -0.454 OA
ENDROOT
BRANCH   1   2
ATOM      2  C   UNL     1      19.821 -12.009  19.365  1.00  0.00     0.214 A 
ATOM      3  C   UNL     1      18.912 -12.003  18.286  1.00  0.00     0.180 A 
ATOM      4  O   UNL     1      18.805 -13.066  17.496  1.00  0.00    -0.452 OA
ATOM      5  C   UNL     1      20.583 -13.176  19.590  1.00  0.00     0.239 A 
ATOM      6  C   UNL     1      19.506 -14.178  17.670  1.00  0.00     0.146 A 
ATOM      7  O   UNL     1      21.387 -13.228  20.558  1.00  0.00    -0.285 OA
ATOM      8  C   UNL     1      20.431 -14.286  18.733  1.00  0.00     0.111 A 
ATOM      9  C   UNL     1      19.316 -15.246  16.788  1.00  0.00     0.094 A 
ATOM     10  C   UNL     1      21.160 -15.491  18.891  1.00  0.00     0.134 A 
ATOM     11  C   UNL     1      20.036 -16.430  16.946  1.00  0.00     0.123 A 
ATOM     12  C   UNL     1      20.955 -16.551  17.995  1.00  0.00     0.093 A 
BRANCH   3  13
ATOM     13  C   UNL     1      18.092 -10.814  17.962  1.00  0.00     0.025 A 
ATOM     14  C   UNL     1      18.112 -10.297  16.660  1.00  0.00     0.016 A 
ATOM     15  C   UNL     1      17.350  -9.173  16.335  1.00  0.00     0.051 A 
ATOM     16  C   UNL     1      16.545  -8.554  17.297  1.00  0.00     0.157 A 
ATOM     17  C   UNL     1      17.265 -10.212  18.923  1.00  0.00     0.062 A 
ATOM     18  C   UNL     1      16.497  -9.084  18.608  1.00  0.00     0.158 A 
BRANCH  16  19
ATOM     19  O   UNL     1      15.814  -7.429  16.911  1.00  0.00    -0.504 OA
ATOM     20  H   UNL     1      15.548  -7.227  15.958  1.00  0.00     0.293 HD
ENDBRANCH  16  19
BRANCH  18  21
ATOM     21  O   UNL     1      15.705  -8.532  19.617  1.00  0.00    -0.504 OA
ATOM     22  H   UNL     1      15.185  -9.077  20.288  1.00  0.00     0.293 HD
ENDBRANCH  18  21
ENDBRANCH   3  13
BRANCH  10  23
ATOM     23  O   UNL     1      22.084 -15.643  19.925  1.00  0.00    -0.507 OA
ATOM     24  H   UNL     1      21.823 -15.522  20.897  1.00  0.00     0.293 HD
ENDBRANCH  10  23
BRANCH  11  25
ATOM     25  O   UNL     1      19.833 -17.482  16.056  1.00  0.00    -0.508 OA
ATOM     26  H   UNL     1      19.108 -18.174  16.210  1.00  0.00     0.293 HD
ENDBRANCH  11  25
ENDBRANCH   1   2
BRANCH   1  27
ATOM     27  C   UNL     1      21.096 -10.020  20.276  1.00  0.00     0.339 C 
ATOM     28  C   UNL     1      21.349  -9.261  18.963  1.00  0.00     0.214 C 
ATOM     29  O   UNL     1      21.015  -9.153  21.401  1.00  0.00    -0.332 OA
ATOM     30  C   UNL     1      20.264  -8.193  18.758  1.00  0.00     0.180 C 
ATOM     31  C   UNL     1      20.047  -8.112  21.287  1.00  0.00     0.179 C 
ATOM     32  C   UNL     1      20.192  -7.277  19.990  1.00  0.00     0.177 C 
BRANCH  28  33
ATOM     33  O   UNL     1      21.343 -10.171  17.892  1.00  0.00    -0.384 OA
ATOM     34  H   UNL     1      21.223 -11.075  18.284  1.00  0.00     0.211 HD
ENDBRANCH  28  33
BRANCH  30  35
ATOM     35  O   UNL     1      20.487  -7.444  17.587  1.00  0.00    -0.387 OA
ATOM     36  H   UNL     1      20.713  -8.076  16.855  1.00  0.00     0.211 HD
ENDBRANCH  30  35
BRANCH  31  37
ATOM     37  C   UNL     1      18.609  -8.601  21.535  1.00  0.00     0.191 C 
BRANCH  37  38
ATOM     38  O   UNL     1      17.703  -7.560  21.291  1.00  0.00    -0.394 OA
ATOM     39  H   UNL     1      16.797  -7.957  21.376  1.00  0.00     0.210 HD
ENDBRANCH  37  38
ENDBRANCH  31  37
BRANCH  32  40
ATOM     40  O   UNL     1      21.359  -6.495  20.068  1.00  0.00    -0.387 OA
ATOM     41  H   UNL     1      22.034  -7.029  20.562  1.00  0.00     0.211 HD
ENDBRANCH  32  40
ENDBRANCH   1  27
TORSDOF 12
ENDMDL
MODEL 6
REMARK VINA RESULT:    -5.650      1.422      2.352
REMARK INTER + INTRA:          -9.212
REMARK INTER:                  -9.895
REMARK INTRA:                   0.683
REMARK UNBOUND:                -0.919
REMARK SMILES O=c1c(O[C@@H]2O[C@H](CO)[C@@H](O)[C@@H](O)[C@@H]2O)c(-c2ccc(O)c(O)c2)oc2cc(O)cc(O)c12
REMARK SMILES IDX 4 1 3 2 16 3 25 4 2 5 26 6 1 7 33 8 27 9 31 10 28 11 30 12
REMARK SMILES IDX 17 13 18 14 19 15 20 16 24 17 22 18 21 19 23 21 32 23 29 25
REMARK SMILES IDX 5 27 14 28 6 29 12 30 7 31 10 32 15 33 13 35 8 37 9 38 11 40
REMARK H PARENT 21 20 23 22 32 24 29 26 15 34 13 36 9 39 11 41
REMARK Flexibility Score: inf
ROOT
ATOM      1  O   UNL     1      20.867 -12.319  18.793  1.00  0.00    -0.454 OA
ENDROOT
BRANCH   1   2
ATOM      2  C   UNL     1      20.593 -12.599  17.441  1.00  0.00     0.214 A 
ATOM      3  C   UNL     1      20.426 -11.519  16.550  1.00  0.00     0.180 A 
ATOM      4  O   UNL     1      20.207 -11.746  15.259  1.00  0.00    -0.452 OA
ATOM      5  C   UNL     1      20.493 -13.911  16.928  1.00  0.00     0.239 A 
ATOM      6  C   UNL     1      20.112 -12.961  14.737  1.00  0.00     0.146 A 
ATOM      7  O   UNL     1      20.611 -14.902  17.698  1.00  0.00    -0.285 OA
ATOM      8  C   UNL     1      20.249 -14.107  15.553  1.00  0.00     0.111 A 
ATOM      9  C   UNL     1      19.872 -13.095  13.366  1.00  0.00     0.094 A 
ATOM     10  C   UNL     1      20.138 -15.389  14.961  1.00  0.00     0.134 A 
ATOM     11  C   UNL     1      19.764 -14.359  12.787  1.00  0.00     0.123 A 
ATOM     12  C   UNL     1      19.896 -15.502  13.584  1.00  0.00     0.093 A 
BRANCH   3  13
ATOM     13  C   UNL     1      20.540 -10.113  16.996  1.00  0.00     0.025 A 
ATOM     14  C   UNL     1      21.730  -9.410  16.765  1.00  0.00     0.016 A 
ATOM     15  C   UNL     1      21.860  -8.084  17.183  1.00  0.00     0.051 A 
ATOM     16  C   UNL     1      20.802  -7.432  17.825  1.00  0.00     0.157 A 
ATOM     17  C   UNL     1      19.467  -9.454  17.616  1.00  0.00     0.062 A 
ATOM     18  C   UNL     1      19.586  -8.124  18.040  1.00  0.00     0.158 A 
BRANCH  16  19
ATOM     19  O   UNL     1      20.997  -6.109  18.227  1.00  0.00    -0.504 OA
ATOM     20  H   UNL     1      20.782  -5.761  19.151  1.00  0.00     0.293 HD
ENDBRANCH  16  19
BRANCH  18  21
ATOM     21  O   UNL     1      18.482  -7.536  18.659  1.00  0.00    -0.504 OA
ATOM     22  H   UNL     1      18.523  -7.046  19.541  1.00  0.00     0.293 HD
ENDBRANCH  18  21
ENDBRANCH   3  13
BRANCH  10  23
ATOM     23  O   UNL     1      20.265 -16.549  15.727  1.00  0.00    -0.507 OA
ATOM     24  H   UNL     1      20.562 -16.520  16.695  1.00  0.00     0.293 HD
ENDBRANCH  10  23
BRANCH  11  25
ATOM     25  O   UNL     1      19.524 -14.471  11.420  1.00  0.00    -0.508 OA
ATOM     26  H   UNL     1      18.811 -15.092  11.056  1.00  0.00     0.293 HD
ENDBRANCH  11  25
ENDBRANCH   1   2
BRANCH   1  27
ATOM     27  C   UNL     1      20.745 -13.229  19.889  1.00  0.00     0.339 C 
ATOM     28  C   UNL     1      20.940 -12.486  21.221  1.00  0.00     0.214 C 
ATOM     29  O   UNL     1      19.523 -13.957  19.844  1.00  0.00    -0.332 OA
ATOM     30  C   UNL     1      19.739 -11.565  21.487  1.00  0.00     0.180 C 
ATOM     31  C   UNL     1      18.355 -13.184  20.105  1.00  0.00     0.179 C 
ATOM     32  C   UNL     1      18.434 -12.375  21.424  1.00  0.00     0.177 C 
BRANCH  28  33
ATOM     33  O   UNL     1      22.125 -11.734  21.164  1.00  0.00    -0.384 OA
ATOM     34  H   UNL     1      21.858 -10.778  21.121  1.00  0.00     0.211 HD
ENDBRANCH  28  33
BRANCH  30  35
ATOM     35  O   UNL     1      19.859 -10.900  22.722  1.00  0.00    -0.387 OA
ATOM     36  H   UNL     1      20.582 -11.339  23.241  1.00  0.00     0.211 HD
ENDBRANCH  30  35
BRANCH  31  37
ATOM     37  C   UNL     1      17.915 -12.335  18.899  1.00  0.00     0.191 C 
BRANCH  37  38
ATOM     38  O   UNL     1      16.521 -12.375  18.770  1.00  0.00    -0.394 OA
ATOM     39  H   UNL     1      16.276 -13.336  18.716  1.00  0.00     0.210 HD
ENDBRANCH  37  38
ENDBRANCH  31  37
BRANCH  32  40
ATOM     40  O   UNL     1      18.371 -13.258  22.517  1.00  0.00    -0.387 OA
ATOM     41  H   UNL     1      19.305 -13.516  22.735  1.00  0.00     0.211 HD
ENDBRANCH  32  40
ENDBRANCH   1  27
TORSDOF 12
ENDMDL
MODEL 7
REMARK VINA RESULT:    -5.513      2.400      6.980
REMARK INTER + INTRA:          -9.011
REMARK INTER:                  -8.043
REMARK INTRA:                  -0.968
REMARK UNBOUND:                -0.919
REMARK SMILES O=c1c(O[C@@H]2O[C@H](CO)[C@@H](O)[C@@H](O)[C@@H]2O)c(-c2ccc(O)c(O)c2)oc2cc(O)cc(O)c12
REMARK SMILES IDX 4 1 3 2 16 3 25 4 2 5 26 6 1 7 33 8 27 9 31 10 28 11 30 12
REMARK SMILES IDX 17 13 18 14 19 15 20 16 24 17 22 18 21 19 23 21 32 23 29 25
REMARK SMILES IDX 5 27 14 28 6 29 12 30 7 31 10 32 15 33 13 35 8 37 9 38 11 40
REMARK H PARENT 21 20 23 22 32 24 29 26 15 34 13 36 9 39 11 41
REMARK Flexibility Score: inf
ROOT
ATOM      1  O   UNL     1      20.276 -11.013  17.372  1.00  0.00    -0.454 OA
ENDROOT
BRANCH   1   2
ATOM      2  C   UNL     1      20.529  -9.724  17.877  1.00  0.00     0.214 A 
ATOM      3  C   UNL     1      20.268  -9.471  19.240  1.00  0.00     0.180 A 
ATOM      4  O   UNL     1      20.534  -8.278  19.761  1.00  0.00    -0.452 OA
ATOM      5  C   UNL     1      21.050  -8.673  17.090  1.00  0.00     0.239 A 
ATOM      6  C   UNL     1      21.027  -7.267  19.059  1.00  0.00     0.146 A 
ATOM      7  O   UNL     1      21.273  -8.852  15.864  1.00  0.00    -0.285 OA
ATOM      8  C   UNL     1      21.308  -7.419  17.682  1.00  0.00     0.111 A 
ATOM      9  C   UNL     1      21.266  -6.047  19.699  1.00  0.00     0.094 A 
ATOM     10  C   UNL     1      21.831  -6.316  16.962  1.00  0.00     0.134 A 
ATOM     11  C   UNL     1      21.782  -4.965  18.987  1.00  0.00     0.123 A 
ATOM     12  C   UNL     1      22.063  -5.100  17.622  1.00  0.00     0.093 A 
BRANCH   3  13
ATOM     13  C   UNL     1      19.747 -10.521  20.143  1.00  0.00     0.025 A 
ATOM     14  C   UNL     1      20.153 -10.541  21.483  1.00  0.00     0.016 A 
ATOM     15  C   UNL     1      19.677 -11.526  22.351  1.00  0.00     0.051 A 
ATOM     16  C   UNL     1      18.777 -12.499  21.901  1.00  0.00     0.157 A 
ATOM     17  C   UNL     1      18.824 -11.479  19.695  1.00  0.00     0.062 A 
ATOM     18  C   UNL     1      18.340 -12.472  20.556  1.00  0.00     0.158 A 
BRANCH  16  19
ATOM     19  O   UNL     1      18.346 -13.463  22.815  1.00  0.00    -0.504 OA
ATOM     20  H   UNL     1      17.487 -13.985  22.722  1.00  0.00     0.293 HD
ENDBRANCH  16  19
BRANCH  18  21
ATOM     21  O   UNL     1      17.433 -13.399  20.038  1.00  0.00    -0.504 OA
ATOM     22  H   UNL     1      17.686 -14.146  19.408  1.00  0.00     0.293 HD
ENDBRANCH  18  21
ENDBRANCH   3  13
BRANCH  10  23
ATOM     23  O   UNL     1      22.123  -6.418  15.602  1.00  0.00    -0.507 OA
ATOM     24  H   UNL     1      21.461  -6.805  14.940  1.00  0.00     0.293 HD
ENDBRANCH  10  23
BRANCH  11  25
ATOM     25  O   UNL     1      22.012  -3.758  19.642  1.00  0.00    -0.508 OA
ATOM     26  H   UNL     1      22.655  -3.068  19.272  1.00  0.00     0.293 HD
ENDBRANCH  11  25
ENDBRANCH   1   2
BRANCH   1  27
ATOM     27  C   UNL     1      21.226 -11.880  16.749  1.00  0.00     0.339 C 
ATOM     28  C   UNL     1      21.208 -13.261  17.424  1.00  0.00     0.214 C 
ATOM     29  O   UNL     1      21.033 -11.959  15.341  1.00  0.00    -0.332 OA
ATOM     30  C   UNL     1      19.899 -13.992  17.087  1.00  0.00     0.180 C 
ATOM     31  C   UNL     1      19.852 -12.645  14.935  1.00  0.00     0.179 C 
ATOM     32  C   UNL     1      19.712 -14.054  15.563  1.00  0.00     0.177 C 
BRANCH  28  33
ATOM     33  O   UNL     1      21.330 -13.099  18.815  1.00  0.00    -0.384 OA
ATOM     34  H   UNL     1      20.882 -13.880  19.235  1.00  0.00     0.211 HD
ENDBRANCH  28  33
BRANCH  30  35
ATOM     35  O   UNL     1      19.864 -15.281  17.652  1.00  0.00    -0.387 OA
ATOM     36  H   UNL     1      20.435 -15.278  18.464  1.00  0.00     0.211 HD
ENDBRANCH  30  35
BRANCH  31  37
ATOM     37  C   UNL     1      18.581 -11.789  15.081  1.00  0.00     0.191 C 
BRANCH  37  38
ATOM     38  O   UNL     1      18.829 -10.486  14.630  1.00  0.00    -0.394 OA
ATOM     39  H   UNL     1      18.166 -10.312  13.911  1.00  0.00     0.210 HD
ENDBRANCH  37  38
ENDBRANCH  31  37
BRANCH  32  40
ATOM     40  O   UNL     1      20.676 -14.911  15.002  1.00  0.00    -0.387 OA
ATOM     41  H   UNL     1      21.485 -14.363  14.827  1.00  0.00     0.211 HD
ENDBRANCH  32  40
ENDBRANCH   1  27
TORSDOF 12
ENDMDL
MODEL 8
REMARK VINA RESULT:    -5.468      2.663      5.518
REMARK INTER + INTRA:          -8.944
REMARK INTER:                  -8.230
REMARK INTRA:                  -0.714
REMARK UNBOUND:                -0.919
REMARK SMILES O=c1c(O[C@@H]2O[C@H](CO)[C@@H](O)[C@@H](O)[C@@H]2O)c(-c2ccc(O)c(O)c2)oc2cc(O)cc(O)c12
REMARK SMILES IDX 4 1 3 2 16 3 25 4 2 5 26 6 1 7 33 8 27 9 31 10 28 11 30 12
REMARK SMILES IDX 17 13 18 14 19 15 20 16 24 17 22 18 21 19 23 21 32 23 29 25
REMARK SMILES IDX 5 27 14 28 6 29 12 30 7 31 10 32 15 33 13 35 8 37 9 38 11 40
REMARK H PARENT 21 20 23 22 32 24 29 26 15 34 13 36 9 39 11 41
REMARK Flexibility Score: inf
ROOT
ATOM      1  O   UNL     1      20.579 -13.403  16.859  1.00  0.00    -0.454 OA
ENDROOT
BRANCH   1   2
ATOM      2  C   UNL     1      20.898 -14.525  17.645  1.00  0.00     0.214 A 
ATOM      3  C   UNL     1      21.180 -14.331  19.013  1.00  0.00     0.180 A 
ATOM      4  O   UNL     1      21.445 -15.371  19.796  1.00  0.00    -0.452 OA
ATOM      5  C   UNL     1      20.934 -15.842  17.136  1.00  0.00     0.239 A 
ATOM      6  C   UNL     1      21.482 -16.623  19.359  1.00  0.00     0.146 A 
ATOM      7  O   UNL     1      20.712 -16.054  15.915  1.00  0.00    -0.285 OA
ATOM      8  C   UNL     1      21.230 -16.917  18.000  1.00  0.00     0.111 A 
ATOM      9  C   UNL     1      21.778 -17.649  20.262  1.00  0.00     0.094 A 
ATOM     10  C   UNL     1      21.282 -18.266  17.568  1.00  0.00     0.134 A 
ATOM     11  C   UNL     1      21.828 -18.975  19.832  1.00  0.00     0.123 A 
ATOM     12  C   UNL     1      21.581 -19.281  18.489  1.00  0.00     0.093 A 
BRANCH   3  13
ATOM     13  C   UNL     1      21.140 -12.989  19.636  1.00  0.00     0.025 A 
ATOM     14  C   UNL     1      22.010 -11.991  19.180  1.00  0.00     0.016 A 
ATOM     15  C   UNL     1      21.992 -10.719  19.758  1.00  0.00     0.051 A 
ATOM     16  C   UNL     1      21.097 -10.417  20.790  1.00  0.00     0.157 A 
ATOM     17  C   UNL     1      20.222 -12.682  20.653  1.00  0.00     0.062 A 
ATOM     18  C   UNL     1      20.195 -11.410  21.240  1.00  0.00     0.158 A 
BRANCH  16  19
ATOM     19  O   UNL     1      21.135  -9.131  21.332  1.00  0.00    -0.504 OA
ATOM     20  H   UNL     1      21.604  -8.349  20.899  1.00  0.00     0.293 HD
ENDBRANCH  16  19
BRANCH  18  21
ATOM     21  O   UNL     1      19.263 -11.180  22.254  1.00  0.00    -0.504 OA
ATOM     22  H   UNL     1      18.486 -10.541  22.171  1.00  0.00     0.293 HD
ENDBRANCH  18  21
ENDBRANCH   3  13
BRANCH  10  23
ATOM     23  O   UNL     1      21.040 -18.605  16.236  1.00  0.00    -0.507 OA
ATOM     24  H   UNL     1      20.416 -18.061  15.652  1.00  0.00     0.293 HD
ENDBRANCH  10  23
BRANCH  11  25
ATOM     25  O   UNL     1      22.124 -19.982  20.747  1.00  0.00    -0.508 OA
ATOM     26  H   UNL     1      22.268 -19.781  21.729  1.00  0.00     0.293 HD
ENDBRANCH  11  25
ENDBRANCH   1   2
BRANCH   1  27
ATOM     27  C   UNL     1      19.337 -13.160  16.193  1.00  0.00     0.339 C 
ATOM     28  C   UNL     1      18.300 -12.613  17.188  1.00  0.00     0.214 C 
ATOM     29  O   UNL     1      19.497 -12.321  15.054  1.00  0.00    -0.332 OA
ATOM     30  C   UNL     1      18.677 -11.183  17.605  1.00  0.00     0.180 C 
ATOM     31  C   UNL     1      19.825 -10.966  15.350  1.00  0.00     0.179 C 
ATOM     32  C   UNL     1      18.852 -10.303  16.357  1.00  0.00     0.177 C 
BRANCH  28  33
ATOM     33  O   UNL     1      18.251 -13.451  18.314  1.00  0.00    -0.384 OA
ATOM     34  H   UNL     1      17.548 -14.130  18.137  1.00  0.00     0.211 HD
ENDBRANCH  28  33
BRANCH  30  35
ATOM     35  O   UNL     1      17.725 -10.630  18.482  1.00  0.00    -0.387 OA
ATOM     36  H   UNL     1      17.085 -10.094  17.945  1.00  0.00     0.211 HD
ENDBRANCH  30  35
BRANCH  31  37
ATOM     37  C   UNL     1      21.306 -10.775  15.723  1.00  0.00     0.191 C 
BRANCH  37  38
ATOM     38  O   UNL     1      22.103 -11.655  14.980  1.00  0.00    -0.394 OA
ATOM     39  H   UNL     1      22.606 -11.093  14.334  1.00  0.00     0.210 HD
ENDBRANCH  37  38
ENDBRANCH  31  37
BRANCH  32  40
ATOM     40  O   UNL     1      17.604 -10.105  15.739  1.00  0.00    -0.387 OA
ATOM     41  H   UNL     1      16.915 -10.167  16.450  1.00  0.00     0.211 HD
ENDBRANCH  32  40
ENDBRANCH   1  27
TORSDOF 12
ENDMDL
MODEL 9
REMARK VINA RESULT:    -5.283      3.087      7.012
REMARK INTER + INTRA:          -8.673
REMARK INTER:                  -8.368
REMARK INTRA:                  -0.305
REMARK UNBOUND:                -0.919
REMARK SMILES O=c1c(O[C@@H]2O[C@H](CO)[C@@H](O)[C@@H](O)[C@@H]2O)c(-c2ccc(O)c(O)c2)oc2cc(O)cc(O)c12
REMARK SMILES IDX 4 1 3 2 16 3 25 4 2 5 26 6 1 7 33 8 27 9 31 10 28 11 30 12
REMARK SMILES IDX 17 13 18 14 19 15 20 16 24 17 22 18 21 19 23 21 32 23 29 25
REMARK SMILES IDX 5 27 14 28 6 29 12 30 7 31 10 32 15 33 13 35 8 37 9 38 11 40
REMARK H PARENT 21 20 23 22 32 24 29 26 15 34 13 36 9 39 11 41
REMARK Flexibility Score: inf
ROOT
ATOM      1  O   UNL     1      20.751  -9.859  18.896  1.00  0.00    -0.454 OA
ENDROOT
BRANCH   1   2
ATOM      2  C   UNL     1      20.918  -8.468  18.763  1.00  0.00     0.214 A 
ATOM      3  C   UNL     1      20.699  -7.653  19.893  1.00  0.00     0.180 A 
ATOM      4  O   UNL     1      20.886  -6.340  19.816  1.00  0.00    -0.452 OA
ATOM      5  C   UNL     1      21.312  -7.848  17.558  1.00  0.00     0.239 A 
ATOM      6  C   UNL     1      21.261  -5.719  18.706  1.00  0.00     0.146 A 
ATOM      7  O   UNL     1      21.494  -8.539  16.521  1.00  0.00    -0.285 OA
ATOM      8  C   UNL     1      21.490  -6.449  17.517  1.00  0.00     0.111 A 
ATOM      9  C   UNL     1      21.424  -4.331  18.725  1.00  0.00     0.094 A 
ATOM     10  C   UNL     1      21.885  -5.752  16.349  1.00  0.00     0.134 A 
ATOM     11  C   UNL     1      21.814  -3.649  17.573  1.00  0.00     0.123 A 
ATOM     12  C   UNL     1      22.043  -4.359  16.388  1.00  0.00     0.093 A 
BRANCH   3  13
ATOM     13  C   UNL     1      20.309  -8.221  21.203  1.00  0.00     0.025 A 
ATOM     14  C   UNL     1      20.313  -7.402  22.339  1.00  0.00     0.016 A 
ATOM     15  C   UNL     1      19.954  -7.919  23.585  1.00  0.00     0.051 A 
ATOM     16  C   UNL     1      19.572  -9.259  23.718  1.00  0.00     0.157 A 
ATOM     17  C   UNL     1      19.900  -9.558  21.327  1.00  0.00     0.062 A 
ATOM     18  C   UNL     1      19.539 -10.089  22.573  1.00  0.00     0.158 A 
BRANCH  16  19
ATOM     19  O   UNL     1      19.234  -9.718  24.992  1.00  0.00    -0.504 OA
ATOM     20  H   UNL     1      18.382  -9.470  25.475  1.00  0.00     0.293 HD
ENDBRANCH  16  19
BRANCH  18  21
ATOM     21  O   UNL     1      19.153 -11.430  22.623  1.00  0.00    -0.504 OA
ATOM     22  H   UNL     1      18.266 -11.775  22.288  1.00  0.00     0.293 HD
ENDBRANCH  18  21
ENDBRANCH   3  13
BRANCH  10  23
ATOM     23  O   UNL     1      22.123  -6.430  15.152  1.00  0.00    -0.507 OA
ATOM     24  H   UNL     1      23.061  -6.641  14.835  1.00  0.00     0.293 HD
ENDBRANCH  10  23
BRANCH  11  25
ATOM     25  O   UNL     1      21.972  -2.266  17.613  1.00  0.00    -0.508 OA
ATOM     26  H   UNL     1      22.033  -1.765  18.491  1.00  0.00     0.293 HD
ENDBRANCH  11  25
ENDBRANCH   1   2
BRANCH   1  27
ATOM     27  C   UNL     1      21.625 -10.870  18.387  1.00  0.00     0.339 C 
ATOM     28  C   UNL     1      21.783 -12.003  19.413  1.00  0.00     0.214 C 
ATOM     29  O   UNL     1      21.207 -11.343  17.111  1.00  0.00    -0.332 OA
ATOM     30  C   UNL     1      20.473 -12.797  19.523  1.00  0.00     0.180 C 
ATOM     31  C   UNL     1      20.007 -12.114  17.122  1.00  0.00     0.179 C 
ATOM     32  C   UNL     1      20.040 -13.287  18.133  1.00  0.00     0.177 C 
BRANCH  28  33
ATOM     33  O   UNL     1      22.125 -11.455  20.661  1.00  0.00    -0.384 OA
ATOM     34  H   UNL     1      21.274 -11.201  21.106  1.00  0.00     0.211 HD
ENDBRANCH  28  33
BRANCH  30  35
ATOM     35  O   UNL     1      20.591 -13.874  20.423  1.00  0.00    -0.387 OA
ATOM     36  H   UNL     1      20.042 -14.625  20.078  1.00  0.00     0.211 HD
ENDBRANCH  30  35
BRANCH  31  37
ATOM     37  C   UNL     1      18.739 -11.249  17.239  1.00  0.00     0.191 C 
BRANCH  37  38
ATOM     38  O   UNL     1      18.882 -10.086  16.470  1.00  0.00    -0.394 OA
ATOM     39  H   UNL     1      18.370 -10.244  15.634  1.00  0.00     0.210 HD
ENDBRANCH  37  38
ENDBRANCH  31  37
BRANCH  32  40
ATOM     40  O   UNL     1      20.937 -14.270  17.677  1.00  0.00    -0.387 OA
ATOM     41  H   UNL     1      20.430 -14.862  17.061  1.00  0.00     0.211 HD
ENDBRANCH  32  40
ENDBRANCH   1  27
TORSDOF 12
ENDMDL
