MODEL 1
REMARK VINA RESULT:    12.260      0.000      0.000
REMARK INTER + INTRA:          13.689
REMARK INTER:                  13.335
REMARK INTRA:                   0.354
REMARK UNBOUND:                 0.354
REMARK SMILES CC1(C)CC[C@]2(C(=O)[O-])CC[C@@]3(C)C(=CC[C@H]4[C@@]5(C)CC[C@@H](O)C(C)(C)[C@@H]5CC[C@@]43C)[C@H]2C1
REMARK SMILES IDX 6 1 5 2 10 3 32 4 4 5 11 6 14 7 33 8 2 9 12 10 15 11 1 12
REMARK SMILES IDX 3 13 13 14 30 15 16 16 17 17 29 18 31 19 18 20 28 21 27 22
REMARK SMILES IDX 20 23 19 24 24 25 21 26 22 27 25 28 26 29 7 30 8 31 9 32
REMARK SMILES IDX 23 33
REMARK H PARENT 23 34
REMARK Flexibility Score: inf
ROOT
ATOM      1  C   UNL     1     -18.069   4.671 -18.441  1.00  0.00     0.017 C 
ATOM      2  C   UNL     1     -16.718   4.038 -18.945  1.00  0.00     0.014 C 
ATOM      3  C   UNL     1     -18.005   6.208 -18.483  1.00  0.00     0.014 C 
ATOM      4  C   UNL     1     -18.328   4.276 -16.954  1.00  0.00     0.028 C 
ATOM      5  C   UNL     1     -15.805   3.531 -17.812  1.00  0.00     0.007 C 
ATOM      6  C   UNL     1     -19.305   6.890 -17.969  1.00  0.00     0.013 C 
ATOM      7  C   UNL     1     -19.670   4.787 -16.457  1.00  0.00    -0.064 C 
ATOM      8  C   UNL     1     -18.044   2.761 -16.751  1.00  0.00     0.015 C 
ATOM      9  C   UNL     1     -16.512   2.459 -16.915  1.00  0.00    -0.035 C 
ATOM     10  C   UNL     1     -20.078   6.258 -16.726  1.00  0.00    -0.006 C 
ATOM     11  C   UNL     1     -20.190   4.208 -15.370  1.00  0.00    -0.027 C 
ATOM     12  C   UNL     1     -16.329   1.067 -17.545  1.00  0.00     0.011 C 
ATOM     13  C   UNL     1     -15.843   2.448 -15.520  1.00  0.00     0.011 C 
ATOM     14  C   UNL     1     -21.581   6.207 -17.163  1.00  0.00     0.017 C 
ATOM     15  C   UNL     1     -19.868   7.122 -15.362  1.00  0.00    -0.020 C 
ATOM     16  C   UNL     1     -20.003   4.896 -14.045  1.00  0.00     0.032 C 
ATOM     17  C   UNL     1     -20.507   6.357 -14.131  1.00  0.00     0.006 C 
ATOM     18  C   UNL     1     -20.608   8.504 -15.423  1.00  0.00     0.008 C 
ATOM     19  C   UNL     1     -18.335   7.355 -15.128  1.00  0.00     0.012 C 
ATOM     20  C   UNL     1     -20.612   7.158 -12.733  1.00  0.00    -0.025 C 
ATOM     21  C   UNL     1     -20.541   9.365 -14.133  1.00  0.00     0.005 C 
ATOM     22  C   UNL     1     -20.033   8.626 -12.869  1.00  0.00     0.003 C 
ATOM     23  C   UNL     1     -19.803   6.461 -11.592  1.00  0.00     0.010 C 
ATOM     24  C   UNL     1     -22.125   7.161 -12.330  1.00  0.00     0.012 C 
ATOM     25  C   UNL     1     -19.946   9.497 -11.547  1.00  0.00    -0.006 C 
ATOM     26  C   UNL     1     -19.748   7.250 -10.266  1.00  0.00     0.033 C 
ATOM     27  C   UNL     1     -19.193   8.675 -10.441  1.00  0.00     0.120 C 
ATOM     28  C   UNL     1     -19.120  10.782 -11.829  1.00  0.00     0.014 C 
ATOM     29  C   UNL     1     -21.317   9.984 -11.005  1.00  0.00     0.014 C 
ENDROOT
BRANCH   1  30
ATOM     30  C   UNL     1     -19.161   4.212 -19.402  1.00  0.00     0.048 C 
ATOM     31  O   UNL     1     -19.398   2.988 -19.592  1.00  0.00    -0.550 OA
ATOM     32  O   UNL     1     -19.900   5.152 -20.121  1.00  0.00    -0.550 OA
ENDBRANCH   1  30
BRANCH  27  33
ATOM     33  O   UNL     1     -17.819   8.580 -10.753  1.00  0.00    -0.393 OA
ATOM     34  H   UNL     1     -17.323   9.025 -10.018  1.00  0.00     0.210 HD
ENDBRANCH  27  33
TORSDOF 2
ENDMDL
MODEL 2
REMARK VINA RESULT:    12.904      3.019      8.152
REMARK INTER + INTRA:          14.390
REMARK INTER:                  14.117
REMARK INTRA:                   0.272
REMARK UNBOUND:                 0.354
REMARK SMILES CC1(C)CC[C@]2(C(=O)[O-])CC[C@@]3(C)C(=CC[C@H]4[C@@]5(C)CC[C@@H](O)C(C)(C)[C@@H]5CC[C@@]43C)[C@H]2C1
REMARK SMILES IDX 6 1 5 2 10 3 32 4 4 5 11 6 14 7 33 8 2 9 12 10 15 11 1 12
REMARK SMILES IDX 3 13 13 14 30 15 16 16 17 17 29 18 31 19 18 20 28 21 27 22
REMARK SMILES IDX 20 23 19 24 24 25 21 26 22 27 25 28 26 29 7 30 8 31 9 32
REMARK SMILES IDX 23 33
REMARK H PARENT 23 34
REMARK Flexibility Score: inf
ROOT
ATOM      1  C   UNL     1     -19.325   6.186 -15.896  1.00  0.00     0.017 C 
ATOM      2  C   UNL     1     -19.911   7.476 -16.584  1.00  0.00     0.014 C 
ATOM      3  C   UNL     1     -17.906   6.446 -15.360  1.00  0.00     0.014 C 
ATOM      4  C   UNL     1     -19.205   5.029 -16.936  1.00  0.00     0.028 C 
ATOM      5  C   UNL     1     -19.865   7.439 -18.124  1.00  0.00     0.007 C 
ATOM      6  C   UNL     1     -17.264   5.196 -14.693  1.00  0.00     0.013 C 
ATOM      7  C   UNL     1     -18.733   3.736 -16.292  1.00  0.00    -0.064 C 
ATOM      8  C   UNL     1     -20.501   4.946 -17.790  1.00  0.00     0.015 C 
ATOM      9  C   UNL     1     -20.637   6.210 -18.711  1.00  0.00    -0.035 C 
ATOM     10  C   UNL     1     -17.517   3.756 -15.332  1.00  0.00    -0.006 C 
ATOM     11  C   UNL     1     -18.957   2.596 -16.954  1.00  0.00    -0.027 C 
ATOM     12  C   UNL     1     -22.125   6.570 -18.869  1.00  0.00     0.011 C 
ATOM     13  C   UNL     1     -20.070   5.882 -20.113  1.00  0.00     0.011 C 
ATOM     14  C   UNL     1     -17.914   2.840 -14.125  1.00  0.00     0.017 C 
ATOM     15  C   UNL     1     -16.210   3.192 -16.121  1.00  0.00    -0.020 C 
ATOM     16  C   UNL     1     -17.830   2.016 -17.765  1.00  0.00     0.032 C 
ATOM     17  C   UNL     1     -16.571   1.849 -16.878  1.00  0.00     0.006 C 
ATOM     18  C   UNL     1     -15.047   2.815 -15.138  1.00  0.00     0.008 C 
ATOM     19  C   UNL     1     -15.710   4.278 -17.137  1.00  0.00     0.012 C 
ATOM     20  C   UNL     1     -15.352   1.009 -17.524  1.00  0.00    -0.025 C 
ATOM     21  C   UNL     1     -13.787   2.183 -15.790  1.00  0.00     0.005 C 
ATOM     22  C   UNL     1     -13.963   1.722 -17.259  1.00  0.00     0.003 C 
ATOM     23  C   UNL     1     -15.492   0.864 -19.074  1.00  0.00     0.010 C 
ATOM     24  C   UNL     1     -15.407  -0.421 -16.890  1.00  0.00     0.012 C 
ATOM     25  C   UNL     1     -12.680   1.087 -17.943  1.00  0.00    -0.006 C 
ATOM     26  C   UNL     1     -14.289   0.192 -19.770  1.00  0.00     0.033 C 
ATOM     27  C   UNL     1     -12.956   0.904 -19.477  1.00  0.00     0.120 C 
ATOM     28  C   UNL     1     -11.480   2.060 -17.788  1.00  0.00     0.014 C 
ATOM     29  C   UNL     1     -12.219  -0.259 -17.322  1.00  0.00     0.014 C 
ENDROOT
BRANCH   1  30
ATOM     30  C   UNL     1     -20.231   5.862 -14.712  1.00  0.00     0.048 C 
ATOM     31  O   UNL     1     -20.073   6.418 -13.591  1.00  0.00    -0.550 OA
ATOM     32  O   UNL     1     -21.239   4.907 -14.845  1.00  0.00    -0.550 OA
ENDBRANCH   1  30
BRANCH  27  33
ATOM     33  O   UNL     1     -12.973   2.159 -20.125  1.00  0.00    -0.393 OA
ATOM     34  H   UNL     1     -12.789   1.992 -21.086  1.00  0.00     0.210 HD
ENDBRANCH  27  33
TORSDOF 2
ENDMDL
