MODEL 1
REMARK VINA RESULT:    -2.807      0.000      0.000
REMARK INTER + INTRA:          -4.953
REMARK INTER:                  -4.776
REMARK INTRA:                  -0.177
REMARK UNBOUND:                -0.177
REMARK SMILES CCCCCCCCCCCCCC(=O)[O-]
REMARK SMILES IDX 8 1 9 2 10 3 11 4 12 5 13 6 14 7 15 8 16 9 7 10 6 11 5 12
REMARK SMILES IDX 4 13 3 14 2 15 1 16
REMARK H PARENT
REMARK Flexibility Score: inf
ROOT
ATOM      1  C   UNL     1      36.059 105.747 263.075  1.00  0.00     0.000 C 
ENDROOT
BRANCH   1   2
ATOM      2  C   UNL     1      34.993 106.601 263.783  1.00  0.00     0.000 C 
BRANCH   2   3
ATOM      3  C   UNL     1      34.880 106.286 265.282  1.00  0.00     0.000 C 
BRANCH   3   4
ATOM      4  C   UNL     1      35.406 107.456 266.128  1.00  0.00     0.000 C 
BRANCH   4   5
ATOM      5  C   UNL     1      34.875 107.432 267.570  1.00  0.00     0.006 C 
BRANCH   5   6
ATOM      6  C   UNL     1      34.958 106.040 268.208  1.00  0.00     0.053 C 
BRANCH   6   7
ATOM      7  C   UNL     1      35.471 106.138 269.610  1.00  0.00     0.041 C 
ATOM      8  O   UNL     1      35.439 107.239 270.221  1.00  0.00    -0.550 OA
ATOM      9  O   UNL     1      36.030 105.025 270.225  1.00  0.00    -0.550 OA
ENDBRANCH   6   7
ENDBRANCH   5   6
ENDBRANCH   4   5
ENDBRANCH   3   4
ENDBRANCH   2   3
ENDBRANCH   1   2
BRANCH   1  10
ATOM     10  C   UNL     1      37.350 106.533 262.788  1.00  0.00     0.000 C 
BRANCH  10  11
ATOM     11  C   UNL     1      38.025 106.117 261.468  1.00  0.00    -0.000 C 
BRANCH  11  12
ATOM     12  C   UNL     1      37.093 105.476 260.422  1.00  0.00    -0.000 C 
BRANCH  12  13
ATOM     13  C   UNL     1      37.836 105.023 259.153  1.00  0.00    -0.000 C 
BRANCH  13  14
ATOM     14  C   UNL     1      36.936 105.007 257.904  1.00  0.00    -0.000 C 
BRANCH  14  15
ATOM     15  C   UNL     1      35.679 105.890 257.993  1.00  0.00    -0.003 C 
ATOM     16  C   UNL     1      35.998 107.363 258.251  1.00  0.00     0.004 C 
ENDBRANCH  14  15
ENDBRANCH  13  14
ENDBRANCH  12  13
ENDBRANCH  11  12
ENDBRANCH  10  11
ENDBRANCH   1  10
TORSDOF 12
ENDMDL
MODEL 2
REMARK VINA RESULT:    -2.165      4.473      8.484
REMARK INTER + INTRA:          -3.861
REMARK INTER:                  -3.625
REMARK INTRA:                  -0.237
REMARK UNBOUND:                -0.177
REMARK SMILES CCCCCCCCCCCCCC(=O)[O-]
REMARK SMILES IDX 8 1 9 2 10 3 11 4 12 5 13 6 14 7 15 8 16 9 7 10 6 11 5 12
REMARK SMILES IDX 4 13 3 14 2 15 1 16
REMARK H PARENT
REMARK Flexibility Score: inf
ROOT
ATOM      1  C   UNL     1      35.272 105.812 264.490  1.00  0.00     0.000 C 
ENDROOT
BRANCH   1   2
ATOM      2  C   UNL     1      35.399 106.318 263.044  1.00  0.00     0.000 C 
BRANCH   2   3
ATOM      3  C   UNL     1      36.806 106.110 262.464  1.00  0.00     0.000 C 
BRANCH   3   4
ATOM      4  C   UNL     1      36.730 105.650 261.000  1.00  0.00     0.000 C 
BRANCH   4   5
ATOM      5  C   UNL     1      38.106 105.283 260.421  1.00  0.00     0.006 C 
BRANCH   5   6
ATOM      6  C   UNL     1      38.126 105.297 258.888  1.00  0.00     0.053 C 
BRANCH   6   7
ATOM      7  C   UNL     1      36.808 105.761 258.352  1.00  0.00     0.041 C 
ATOM      8  O   UNL     1      35.972 104.926 257.916  1.00  0.00    -0.550 OA
ATOM      9  O   UNL     1      36.523 107.119 258.288  1.00  0.00    -0.550 OA
ENDBRANCH   6   7
ENDBRANCH   5   6
ENDBRANCH   4   5
ENDBRANCH   3   4
ENDBRANCH   2   3
ENDBRANCH   1   2
BRANCH   1  10
ATOM     10  C   UNL     1      35.167 104.279 264.573  1.00  0.00     0.000 C 
BRANCH  10  11
ATOM     11  C   UNL     1      35.577 103.722 265.949  1.00  0.00    -0.000 C 
BRANCH  11  12
ATOM     12  C   UNL     1      34.878 104.369 267.159  1.00  0.00    -0.000 C 
BRANCH  12  13
ATOM     13  C   UNL     1      35.714 105.485 267.810  1.00  0.00    -0.000 C 
BRANCH  13  14
ATOM     14  C   UNL     1      34.953 106.236 268.918  1.00  0.00    -0.000 C 
BRANCH  14  15
ATOM     15  C   UNL     1      34.998 107.772 268.815  1.00  0.00    -0.003 C 
ATOM     16  C   UNL     1      35.078 108.274 267.373  1.00  0.00     0.004 C 
ENDBRANCH  14  15
ENDBRANCH  13  14
ENDBRANCH  12  13
ENDBRANCH  11  12
ENDBRANCH  10  11
ENDBRANCH   1  10
TORSDOF 12
ENDMDL
MODEL 3
REMARK VINA RESULT:    -1.995      2.021      3.104
REMARK INTER + INTRA:          -3.572
REMARK INTER:                  -3.749
REMARK INTRA:                   0.177
REMARK UNBOUND:                -0.177
REMARK SMILES CCCCCCCCCCCCCC(=O)[O-]
REMARK SMILES IDX 8 1 9 2 10 3 11 4 12 5 13 6 14 7 15 8 16 9 7 10 6 11 5 12
REMARK SMILES IDX 4 13 3 14 2 15 1 16
REMARK H PARENT
REMARK Flexibility Score: inf
ROOT
ATOM      1  C   UNL     1      35.958 104.010 265.545  1.00  0.00     0.000 C 
ENDROOT
BRANCH   1   2
ATOM      2  C   UNL     1      34.879 103.550 266.538  1.00  0.00     0.000 C 
BRANCH   2   3
ATOM      3  C   UNL     1      34.954 104.290 267.882  1.00  0.00     0.000 C 
BRANCH   3   4
ATOM      4  C   UNL     1      34.878 105.810 267.674  1.00  0.00     0.000 C 
BRANCH   4   5
ATOM      5  C   UNL     1      35.546 106.599 268.811  1.00  0.00     0.006 C 
BRANCH   5   6
ATOM      6  C   UNL     1      34.936 107.993 269.001  1.00  0.00     0.053 C 
BRANCH   6   7
ATOM      7  C   UNL     1      35.010 108.774 267.726  1.00  0.00     0.041 C 
ATOM      8  O   UNL     1      35.208 108.182 266.632  1.00  0.00    -0.550 OA
ATOM      9  O   UNL     1      34.910 110.159 267.752  1.00  0.00    -0.550 OA
ENDBRANCH   6   7
ENDBRANCH   5   6
ENDBRANCH   4   5
ENDBRANCH   3   4
ENDBRANCH   2   3
ENDBRANCH   1   2
BRANCH   1  10
ATOM     10  C   UNL     1      35.455 104.026 264.091  1.00  0.00     0.000 C 
BRANCH  10  11
ATOM     11  C   UNL     1      35.333 105.448 263.513  1.00  0.00    -0.000 C 
BRANCH  11  12
ATOM     12  C   UNL     1      36.005 105.665 262.144  1.00  0.00    -0.000 C 
BRANCH  12  13
ATOM     13  C   UNL     1      36.074 104.381 261.299  1.00  0.00    -0.000 C 
BRANCH  13  14
ATOM     14  C   UNL     1      36.960 104.534 260.048  1.00  0.00    -0.000 C 
BRANCH  14  15
ATOM     15  C   UNL     1      37.134 105.977 259.543  1.00  0.00    -0.003 C 
ATOM     16  C   UNL     1      36.428 106.237 258.212  1.00  0.00     0.004 C 
ENDBRANCH  14  15
ENDBRANCH  13  14
ENDBRANCH  12  13
ENDBRANCH  11  12
ENDBRANCH  10  11
ENDBRANCH   1  10
TORSDOF 12
ENDMDL
MODEL 4
REMARK VINA RESULT:    -1.657      1.505      2.395
REMARK INTER + INTRA:          -2.997
REMARK INTER:                  -3.497
REMARK INTRA:                   0.500
REMARK UNBOUND:                -0.177
REMARK SMILES CCCCCCCCCCCCCC(=O)[O-]
REMARK SMILES IDX 8 1 9 2 10 3 11 4 12 5 13 6 14 7 15 8 16 9 7 10 6 11 5 12
REMARK SMILES IDX 4 13 3 14 2 15 1 16
REMARK H PARENT
REMARK Flexibility Score: inf
ROOT
ATOM      1  C   UNL     1      35.645 105.519 264.324  1.00  0.00     0.000 C 
ENDROOT
BRANCH   1   2
ATOM      2  C   UNL     1      34.933 104.202 264.673  1.00  0.00     0.000 C 
BRANCH   2   3
ATOM      3  C   UNL     1      35.693 103.376 265.722  1.00  0.00     0.000 C 
BRANCH   3   4
ATOM      4  C   UNL     1      35.003 103.463 267.092  1.00  0.00     0.000 C 
BRANCH   4   5
ATOM      5  C   UNL     1      34.892 104.906 267.609  1.00  0.00     0.006 C 
BRANCH   5   6
ATOM      6  C   UNL     1      34.919 104.990 269.140  1.00  0.00     0.053 C 
BRANCH   6   7
ATOM      7  C   UNL     1      35.566 106.264 269.583  1.00  0.00     0.041 C 
ATOM      8  O   UNL     1      36.618 106.232 270.274  1.00  0.00    -0.550 OA
ATOM      9  O   UNL     1      34.980 107.485 269.275  1.00  0.00    -0.550 OA
ENDBRANCH   6   7
ENDBRANCH   5   6
ENDBRANCH   4   5
ENDBRANCH   3   4
ENDBRANCH   2   3
ENDBRANCH   1   2
BRANCH   1  10
ATOM     10  C   UNL     1      35.144 106.129 263.004  1.00  0.00     0.000 C 
BRANCH  10  11
ATOM     11  C   UNL     1      36.263 106.305 261.960  1.00  0.00    -0.000 C 
BRANCH  11  12
ATOM     12  C   UNL     1      37.688 105.999 262.461  1.00  0.00    -0.000 C 
BRANCH  12  13
ATOM     13  C   UNL     1      38.761 106.201 261.377  1.00  0.00    -0.000 C 
BRANCH  13  14
ATOM     14  C   UNL     1      38.532 105.320 260.135  1.00  0.00    -0.000 C 
BRANCH  14  15
ATOM     15  C   UNL     1      37.057 105.039 259.796  1.00  0.00    -0.003 C 
ATOM     16  C   UNL     1      36.692 105.404 258.357  1.00  0.00     0.004 C 
ENDBRANCH  14  15
ENDBRANCH  13  14
ENDBRANCH  12  13
ENDBRANCH  11  12
ENDBRANCH  10  11
ENDBRANCH   1  10
TORSDOF 12
ENDMDL
MODEL 5
REMARK VINA RESULT:    -1.570      4.265      8.272
REMARK INTER + INTRA:          -2.848
REMARK INTER:                  -2.284
REMARK INTRA:                  -0.565
REMARK UNBOUND:                -0.177
REMARK SMILES CCCCCCCCCCCCCC(=O)[O-]
REMARK SMILES IDX 8 1 9 2 10 3 11 4 12 5 13 6 14 7 15 8 16 9 7 10 6 11 5 12
REMARK SMILES IDX 4 13 3 14 2 15 1 16
REMARK H PARENT
REMARK Flexibility Score: inf
ROOT
ATOM      1  C   UNL     1      36.808 106.553 263.268  1.00  0.00     0.000 C 
ENDROOT
BRANCH   1   2
ATOM      2  C   UNL     1      38.123 106.536 262.473  1.00  0.00     0.000 C 
BRANCH   2   3
ATOM      3  C   UNL     1      38.351 105.212 261.728  1.00  0.00     0.000 C 
BRANCH   3   4
ATOM      4  C   UNL     1      38.648 105.464 260.242  1.00  0.00     0.000 C 
BRANCH   4   5
ATOM      5  C   UNL     1      37.741 104.646 259.309  1.00  0.00     0.006 C 
BRANCH   5   6
ATOM      6  C   UNL     1      37.262 105.451 258.095  1.00  0.00     0.053 C 
BRANCH   6   7
ATOM      7  C   UNL     1      36.197 106.421 258.497  1.00  0.00     0.041 C 
ATOM      8  O   UNL     1      36.414 107.256 259.415  1.00  0.00    -0.550 OA
ATOM      9  O   UNL     1      34.947 106.371 257.894  1.00  0.00    -0.550 OA
ENDBRANCH   6   7
ENDBRANCH   5   6
ENDBRANCH   4   5
ENDBRANCH   3   4
ENDBRANCH   2   3
ENDBRANCH   1   2
BRANCH   1  10
ATOM     10  C   UNL     1      35.699 105.727 262.593  1.00  0.00     0.000 C 
BRANCH  10  11
ATOM     11  C   UNL     1      35.124 104.631 263.509  1.00  0.00    -0.000 C 
BRANCH  11  12
ATOM     12  C   UNL     1      34.911 105.042 264.979  1.00  0.00    -0.000 C 
BRANCH  12  13
ATOM     13  C   UNL     1      35.269 103.924 265.973  1.00  0.00    -0.000 C 
BRANCH  13  14
ATOM     14  C   UNL     1      34.876 104.262 267.423  1.00  0.00    -0.000 C 
BRANCH  14  15
ATOM     15  C   UNL     1      35.177 105.706 267.862  1.00  0.00    -0.003 C 
ATOM     16  C   UNL     1      35.171 105.886 269.380  1.00  0.00     0.004 C 
ENDBRANCH  14  15
ENDBRANCH  13  14
ENDBRANCH  12  13
ENDBRANCH  11  12
ENDBRANCH  10  11
ENDBRANCH   1  10
TORSDOF 12
ENDMDL
MODEL 6
REMARK VINA RESULT:    -1.565      4.129      8.024
REMARK INTER + INTRA:          -2.840
REMARK INTER:                  -3.086
REMARK INTRA:                   0.247
REMARK UNBOUND:                -0.177
REMARK SMILES CCCCCCCCCCCCCC(=O)[O-]
REMARK SMILES IDX 8 1 9 2 10 3 11 4 12 5 13 6 14 7 15 8 16 9 7 10 6 11 5 12
REMARK SMILES IDX 4 13 3 14 2 15 1 16
REMARK H PARENT
REMARK Flexibility Score: inf
ROOT
ATOM      1  C   UNL     1      35.300 105.006 266.261  1.00  0.00     0.000 C 
ENDROOT
BRANCH   1   2
ATOM      2  C   UNL     1      34.960 104.820 264.773  1.00  0.00     0.000 C 
BRANCH   2   3
ATOM      3  C   UNL     1      34.876 106.151 264.011  1.00  0.00     0.000 C 
BRANCH   3   4
ATOM      4  C   UNL     1      36.117 106.355 263.128  1.00  0.00     0.000 C 
BRANCH   4   5
ATOM      5  C   UNL     1      36.139 105.416 261.912  1.00  0.00     0.006 C 
BRANCH   5   6
ATOM      6  C   UNL     1      36.812 106.049 260.688  1.00  0.00     0.053 C 
BRANCH   6   7
ATOM      7  C   UNL     1      37.218 104.993 259.709  1.00  0.00     0.041 C 
ATOM      8  O   UNL     1      37.182 105.228 258.473  1.00  0.00    -0.550 OA
ATOM      9  O   UNL     1      37.587 103.732 260.160  1.00  0.00    -0.550 OA
ENDBRANCH   6   7
ENDBRANCH   5   6
ENDBRANCH   4   5
ENDBRANCH   3   4
ENDBRANCH   2   3
ENDBRANCH   1   2
BRANCH   1  10
ATOM     10  C   UNL     1      35.073 103.727 267.083  1.00  0.00     0.000 C 
BRANCH  10  11
ATOM     11  C   UNL     1      35.249 103.946 268.598  1.00  0.00    -0.000 C 
BRANCH  11  12
ATOM     12  C   UNL     1      34.897 105.357 269.106  1.00  0.00    -0.000 C 
BRANCH  12  13
ATOM     13  C   UNL     1      35.968 106.405 268.759  1.00  0.00    -0.000 C 
BRANCH  13  14
ATOM     14  C   UNL     1      35.371 107.784 268.421  1.00  0.00    -0.000 C 
BRANCH  14  15
ATOM     15  C   UNL     1      34.948 107.970 266.952  1.00  0.00    -0.003 C 
ATOM     16  C   UNL     1      34.985 109.429 266.498  1.00  0.00     0.004 C 
ENDBRANCH  14  15
ENDBRANCH  13  14
ENDBRANCH  12  13
ENDBRANCH  11  12
ENDBRANCH  10  11
ENDBRANCH   1  10
TORSDOF 12
ENDMDL
MODEL 7
REMARK VINA RESULT:    -1.327      1.538      2.472
REMARK INTER + INTRA:          -2.435
REMARK INTER:                  -1.815
REMARK INTRA:                  -0.619
REMARK UNBOUND:                -0.177
REMARK SMILES CCCCCCCCCCCCCC(=O)[O-]
REMARK SMILES IDX 8 1 9 2 10 3 11 4 12 5 13 6 14 7 15 8 16 9 7 10 6 11 5 12
REMARK SMILES IDX 4 13 3 14 2 15 1 16
REMARK H PARENT
REMARK Flexibility Score: inf
ROOT
ATOM      1  C   UNL     1      38.812 106.427 262.689  1.00  0.00     0.000 C 
ENDROOT
BRANCH   1   2
ATOM      2  C   UNL     1      37.336 106.860 262.684  1.00  0.00     0.000 C 
BRANCH   2   3
ATOM      3  C   UNL     1      36.367 105.669 262.669  1.00  0.00     0.000 C 
BRANCH   3   4
ATOM      4  C   UNL     1      35.122 105.966 263.519  1.00  0.00     0.000 C 
BRANCH   4   5
ATOM      5  C   UNL     1      35.457 106.204 265.000  1.00  0.00     0.006 C 
BRANCH   5   6
ATOM      6  C   UNL     1      34.875 107.519 265.534  1.00  0.00     0.053 C 
BRANCH   6   7
ATOM      7  C   UNL     1      35.042 107.599 267.019  1.00  0.00     0.041 C 
ATOM      8  O   UNL     1      35.045 108.718 267.596  1.00  0.00    -0.550 OA
ATOM      9  O   UNL     1      35.245 106.441 267.759  1.00  0.00    -0.550 OA
ENDBRANCH   6   7
ENDBRANCH   5   6
ENDBRANCH   4   5
ENDBRANCH   3   4
ENDBRANCH   2   3
ENDBRANCH   1   2
BRANCH   1  10
ATOM     10  C   UNL     1      39.365 106.202 261.271  1.00  0.00     0.000 C 
BRANCH  10  11
ATOM     11  C   UNL     1      38.809 104.930 260.603  1.00  0.00    -0.000 C 
BRANCH  11  12
ATOM     12  C   UNL     1      38.352 105.097 259.142  1.00  0.00    -0.000 C 
BRANCH  12  13
ATOM     13  C   UNL     1      36.840 105.348 259.010  1.00  0.00    -0.000 C 
BRANCH  13  14
ATOM     14  C   UNL     1      36.491 106.332 257.879  1.00  0.00    -0.000 C 
BRANCH  14  15
ATOM     15  C   UNL     1      35.154 107.077 258.050  1.00  0.00    -0.003 C 
ATOM     16  C   UNL     1      35.284 108.590 257.878  1.00  0.00     0.004 C 
ENDBRANCH  14  15
ENDBRANCH  13  14
ENDBRANCH  12  13
ENDBRANCH  11  12
ENDBRANCH  10  11
ENDBRANCH   1  10
TORSDOF 12
ENDMDL
