MODEL 1
REMARK VINA RESULT:    -2.895      0.000      0.000
REMARK INTER + INTRA:          -6.671
REMARK INTER:                  -4.926
REMARK INTRA:                  -1.744
REMARK UNBOUND:                -1.744
REMARK SMILES CCCCCCCCCCCCCC(=O)[O-]
REMARK SMILES IDX 8 1 9 2 10 3 11 4 12 5 13 6 14 7 15 8 16 9 7 10 6 11 5 12
REMARK SMILES IDX 4 13 3 14 2 15 1 16
REMARK H PARENT
REMARK Flexibility Score: inf
ROOT
ATOM      1  C   UNL     1       0.733  -0.705   8.750  1.00  0.00     0.000 C 
ENDROOT
BRANCH   1   2
ATOM      2  C   UNL     1       0.388  -1.898   7.840  1.00  0.00     0.000 C 
BRANCH   2   3
ATOM      3  C   UNL     1      -1.044  -2.441   8.001  1.00  0.00     0.000 C 
BRANCH   3   4
ATOM      4  C   UNL     1      -2.105  -1.327   8.046  1.00  0.00     0.000 C 
BRANCH   4   5
ATOM      5  C   UNL     1      -2.951  -1.267   6.764  1.00  0.00     0.006 C 
BRANCH   5   6
ATOM      6  C   UNL     1      -2.906  -2.577   5.968  1.00  0.00     0.053 C 
BRANCH   6   7
ATOM      7  C   UNL     1      -4.112  -2.697   5.092  1.00  0.00     0.041 C 
ATOM      8  O   UNL     1      -4.818  -1.685   4.842  1.00  0.00    -0.550 OA
ATOM      9  O   UNL     1      -4.487  -3.939   4.591  1.00  0.00    -0.550 OA
ENDBRANCH   6   7
ENDBRANCH   5   6
ENDBRANCH   4   5
ENDBRANCH   3   4
ENDBRANCH   2   3
ENDBRANCH   1   2
BRANCH   1  10
ATOM     10  C   UNL     1       1.184   0.537   7.966  1.00  0.00     0.000 C 
BRANCH  10  11
ATOM     11  C   UNL     1       0.894   0.376   6.470  1.00  0.00    -0.000 C 
BRANCH  11  12
ATOM     12  C   UNL     1      -0.256   1.294   6.031  1.00  0.00    -0.000 C 
BRANCH  12  13
ATOM     13  C   UNL     1      -0.698   2.271   7.136  1.00  0.00    -0.000 C 
BRANCH  13  14
ATOM     14  C   UNL     1      -2.222   2.366   7.351  1.00  0.00    -0.000 C 
BRANCH  14  15
ATOM     15  C   UNL     1      -3.004   3.008   6.191  1.00  0.00    -0.003 C 
ATOM     16  C   UNL     1      -4.091   2.094   5.628  1.00  0.00     0.004 C 
ENDBRANCH  14  15
ENDBRANCH  13  14
ENDBRANCH  12  13
ENDBRANCH  11  12
ENDBRANCH  10  11
ENDBRANCH   1  10
TORSDOF 12
ENDMDL
MODEL 2
REMARK VINA RESULT:    -2.858      1.911      4.306
REMARK INTER + INTRA:          -6.607
REMARK INTER:                  -4.564
REMARK INTRA:                  -2.044
REMARK UNBOUND:                -1.744
REMARK SMILES CCCCCCCCCCCCCC(=O)[O-]
REMARK SMILES IDX 8 1 9 2 10 3 11 4 12 5 13 6 14 7 15 8 16 9 7 10 6 11 5 12
REMARK SMILES IDX 4 13 3 14 2 15 1 16
REMARK H PARENT
REMARK Flexibility Score: inf
ROOT
ATOM      1  C   UNL     1       0.800  -0.183   8.064  1.00  0.00     0.000 C 
ENDROOT
BRANCH   1   2
ATOM      2  C   UNL     1       0.782   0.239   6.583  1.00  0.00     0.000 C 
BRANCH   2   3
ATOM      3  C   UNL     1      -0.090   1.469   6.272  1.00  0.00     0.000 C 
BRANCH   3   4
ATOM      4  C   UNL     1      -0.403   2.312   7.520  1.00  0.00     0.000 C 
BRANCH   4   5
ATOM      5  C   UNL     1      -1.900   2.631   7.656  1.00  0.00     0.006 C 
BRANCH   5   6
ATOM      6  C   UNL     1      -2.533   3.062   6.328  1.00  0.00     0.053 C 
BRANCH   6   7
ATOM      7  C   UNL     1      -3.951   2.593   6.248  1.00  0.00     0.041 C 
ATOM      8  O   UNL     1      -4.758   2.852   7.179  1.00  0.00    -0.550 OA
ATOM      9  O   UNL     1      -4.370   1.825   5.168  1.00  0.00    -0.550 OA
ENDBRANCH   6   7
ENDBRANCH   5   6
ENDBRANCH   4   5
ENDBRANCH   3   4
ENDBRANCH   2   3
ENDBRANCH   1   2
BRANCH   1  10
ATOM     10  C   UNL     1       0.652  -1.700   8.257  1.00  0.00     0.000 C 
BRANCH  10  11
ATOM     11  C   UNL     1       0.040  -2.354   7.013  1.00  0.00    -0.000 C 
BRANCH  11  12
ATOM     12  C   UNL     1      -1.211  -3.167   7.379  1.00  0.00    -0.000 C 
BRANCH  12  13
ATOM     13  C   UNL     1      -2.478  -2.676   6.656  1.00  0.00    -0.000 C 
BRANCH  13  14
ATOM     14  C   UNL     1      -2.717  -1.153   6.721  1.00  0.00    -0.000 C 
BRANCH  14  15
ATOM     15  C   UNL     1      -3.551  -0.677   7.925  1.00  0.00    -0.003 C 
ATOM     16  C   UNL     1      -2.725  -0.535   9.203  1.00  0.00     0.004 C 
ENDBRANCH  14  15
ENDBRANCH  13  14
ENDBRANCH  12  13
ENDBRANCH  11  12
ENDBRANCH  10  11
ENDBRANCH   1  10
TORSDOF 12
ENDMDL
MODEL 3
REMARK VINA RESULT:    -2.782      3.314      4.861
REMARK INTER + INTRA:          -6.477
REMARK INTER:                  -4.703
REMARK INTRA:                  -1.775
REMARK UNBOUND:                -1.744
REMARK SMILES CCCCCCCCCCCCCC(=O)[O-]
REMARK SMILES IDX 8 1 9 2 10 3 11 4 12 5 13 6 14 7 15 8 16 9 7 10 6 11 5 12
REMARK SMILES IDX 4 13 3 14 2 15 1 16
REMARK H PARENT
REMARK Flexibility Score: inf
ROOT
ATOM      1  C   UNL     1      -1.665  -1.691   8.522  1.00  0.00     0.000 C 
ENDROOT
BRANCH   1   2
ATOM      2  C   UNL     1      -1.525  -2.450   7.189  1.00  0.00     0.000 C 
BRANCH   2   3
ATOM      3  C   UNL     1      -0.123  -3.022   6.914  1.00  0.00     0.000 C 
BRANCH   3   4
ATOM      4  C   UNL     1       0.788  -2.994   8.154  1.00  0.00     0.000 C 
BRANCH   4   5
ATOM      5  C   UNL     1       1.535  -4.321   8.367  1.00  0.00     0.006 C 
BRANCH   5   6
ATOM      6  C   UNL     1       0.928  -5.474   7.558  1.00  0.00     0.053 C 
BRANCH   6   7
ATOM      7  C   UNL     1       2.008  -6.300   6.936  1.00  0.00     0.041 C 
ATOM      8  O   UNL     1       3.122  -5.783   6.657  1.00  0.00    -0.550 OA
ATOM      9  O   UNL     1       1.768  -7.632   6.617  1.00  0.00    -0.550 OA
ENDBRANCH   6   7
ENDBRANCH   5   6
ENDBRANCH   4   5
ENDBRANCH   3   4
ENDBRANCH   2   3
ENDBRANCH   1   2
BRANCH   1  10
ATOM     10  C   UNL     1      -2.526  -0.425   8.404  1.00  0.00     0.000 C 
BRANCH  10  11
ATOM     11  C   UNL     1      -2.543   0.094   6.962  1.00  0.00    -0.000 C 
BRANCH  11  12
ATOM     12  C   UNL     1      -2.352   1.617   6.924  1.00  0.00    -0.000 C 
BRANCH  12  13
ATOM     13  C   UNL     1      -0.870   2.034   6.887  1.00  0.00    -0.000 C 
BRANCH  13  14
ATOM     14  C   UNL     1       0.038   1.138   6.021  1.00  0.00    -0.000 C 
BRANCH  14  15
ATOM     15  C   UNL     1       1.167   0.423   6.786  1.00  0.00    -0.003 C 
ATOM     16  C   UNL     1       1.200   0.783   8.271  1.00  0.00     0.004 C 
ENDBRANCH  14  15
ENDBRANCH  13  14
ENDBRANCH  12  13
ENDBRANCH  11  12
ENDBRANCH  10  11
ENDBRANCH   1  10
TORSDOF 12
ENDMDL
MODEL 4
REMARK VINA RESULT:    -2.774      2.682      4.997
REMARK INTER + INTRA:          -6.464
REMARK INTER:                  -4.774
REMARK INTRA:                  -1.690
REMARK UNBOUND:                -1.744
REMARK SMILES CCCCCCCCCCCCCC(=O)[O-]
REMARK SMILES IDX 8 1 9 2 10 3 11 4 12 5 13 6 14 7 15 8 16 9 7 10 6 11 5 12
REMARK SMILES IDX 4 13 3 14 2 15 1 16
REMARK H PARENT
REMARK Flexibility Score: inf
ROOT
ATOM      1  C   UNL     1       1.274  -4.406   7.866  1.00  0.00     0.000 C 
ENDROOT
BRANCH   1   2
ATOM      2  C   UNL     1       1.224  -3.637   9.200  1.00  0.00     0.000 C 
BRANCH   2   3
ATOM      3  C   UNL     1       1.436  -2.118   9.080  1.00  0.00     0.000 C 
BRANCH   3   4
ATOM      4  C   UNL     1       0.248  -1.303   9.621  1.00  0.00     0.000 C 
BRANCH   4   5
ATOM      5  C   UNL     1      -0.514  -0.562   8.511  1.00  0.00     0.006 C 
BRANCH   5   6
ATOM      6  C   UNL     1       0.339  -0.348   7.255  1.00  0.00     0.053 C 
BRANCH   6   7
ATOM      7  C   UNL     1      -0.273   0.700   6.381  1.00  0.00     0.041 C 
ATOM      8  O   UNL     1      -1.497   0.975   6.481  1.00  0.00    -0.550 OA
ATOM      9  O   UNL     1       0.499   1.340   5.418  1.00  0.00    -0.550 OA
ENDBRANCH   6   7
ENDBRANCH   5   6
ENDBRANCH   4   5
ENDBRANCH   3   4
ENDBRANCH   2   3
ENDBRANCH   1   2
BRANCH   1  10
ATOM     10  C   UNL     1      -0.119  -4.750   7.320  1.00  0.00     0.000 C 
BRANCH  10  11
ATOM     11  C   UNL     1      -1.178  -4.665   8.424  1.00  0.00    -0.000 C 
BRANCH  11  12
ATOM     12  C   UNL     1      -2.352  -3.773   7.993  1.00  0.00    -0.000 C 
BRANCH  12  13
ATOM     13  C   UNL     1      -2.180  -3.202   6.573  1.00  0.00    -0.000 C 
BRANCH  13  14
ATOM     14  C   UNL     1      -3.359  -2.344   6.069  1.00  0.00    -0.000 C 
BRANCH  14  15
ATOM     15  C   UNL     1      -4.127  -2.933   4.872  1.00  0.00    -0.003 C 
ATOM     16  C   UNL     1      -4.739  -4.301   5.173  1.00  0.00     0.004 C 
ENDBRANCH  14  15
ENDBRANCH  13  14
ENDBRANCH  12  13
ENDBRANCH  11  12
ENDBRANCH  10  11
ENDBRANCH   1  10
TORSDOF 12
ENDMDL
MODEL 5
REMARK VINA RESULT:    -2.768      1.100      3.662
REMARK INTER + INTRA:          -6.454
REMARK INTER:                  -5.053
REMARK INTRA:                  -1.401
REMARK UNBOUND:                -1.744
REMARK SMILES CCCCCCCCCCCCCC(=O)[O-]
REMARK SMILES IDX 8 1 9 2 10 3 11 4 12 5 13 6 14 7 15 8 16 9 7 10 6 11 5 12
REMARK SMILES IDX 4 13 3 14 2 15 1 16
REMARK H PARENT
REMARK Flexibility Score: inf
ROOT
ATOM      1  C   UNL     1      -1.815   2.329   7.657  1.00  0.00     0.000 C 
ENDROOT
BRANCH   1   2
ATOM      2  C   UNL     1      -2.678   2.427   6.385  1.00  0.00     0.000 C 
BRANCH   2   3
ATOM      3  C   UNL     1      -3.661   1.261   6.178  1.00  0.00     0.000 C 
BRANCH   3   4
ATOM      4  C   UNL     1      -3.243  -0.014   6.931  1.00  0.00     0.000 C 
BRANCH   4   5
ATOM      5  C   UNL     1      -4.325  -1.106   6.887  1.00  0.00     0.006 C 
BRANCH   5   6
ATOM      6  C   UNL     1      -4.796  -1.409   5.460  1.00  0.00     0.053 C 
BRANCH   6   7
ATOM      7  C   UNL     1      -4.176  -2.678   4.965  1.00  0.00     0.041 C 
ATOM      8  O   UNL     1      -3.336  -3.292   5.672  1.00  0.00    -0.550 OA
ATOM      9  O   UNL     1      -4.490  -3.156   3.698  1.00  0.00    -0.550 OA
ENDBRANCH   6   7
ENDBRANCH   5   6
ENDBRANCH   4   5
ENDBRANCH   3   4
ENDBRANCH   2   3
ENDBRANCH   1   2
BRANCH   1  10
ATOM     10  C   UNL     1      -0.308   2.358   7.364  1.00  0.00     0.000 C 
BRANCH  10  11
ATOM     11  C   UNL     1       0.045   1.412   6.211  1.00  0.00    -0.000 C 
BRANCH  11  12
ATOM     12  C   UNL     1       1.080   0.368   6.654  1.00  0.00    -0.000 C 
BRANCH  12  13
ATOM     13  C   UNL     1       0.939  -0.024   8.136  1.00  0.00    -0.000 C 
BRANCH  13  14
ATOM     14  C   UNL     1       0.151  -1.325   8.394  1.00  0.00    -0.000 C 
BRANCH  14  15
ATOM     15  C   UNL     1      -0.277  -2.089   7.128  1.00  0.00    -0.003 C 
ATOM     16  C   UNL     1      -0.118  -3.603   7.264  1.00  0.00     0.004 C 
ENDBRANCH  14  15
ENDBRANCH  13  14
ENDBRANCH  12  13
ENDBRANCH  11  12
ENDBRANCH  10  11
ENDBRANCH   1  10
TORSDOF 12
ENDMDL
MODEL 6
REMARK VINA RESULT:    -2.765      2.144      4.649
REMARK INTER + INTRA:          -6.449
REMARK INTER:                  -4.273
REMARK INTRA:                  -2.176
REMARK UNBOUND:                -1.744
REMARK SMILES CCCCCCCCCCCCCC(=O)[O-]
REMARK SMILES IDX 8 1 9 2 10 3 11 4 12 5 13 6 14 7 15 8 16 9 7 10 6 11 5 12
REMARK SMILES IDX 4 13 3 14 2 15 1 16
REMARK H PARENT
REMARK Flexibility Score: inf
ROOT
ATOM      1  C   UNL     1       1.164  -2.459   8.525  1.00  0.00     0.000 C 
ENDROOT
BRANCH   1   2
ATOM      2  C   UNL     1       0.670  -1.253   9.346  1.00  0.00     0.000 C 
BRANCH   2   3
ATOM      3  C   UNL     1       0.504   0.051   8.546  1.00  0.00     0.000 C 
BRANCH   3   4
ATOM      4  C   UNL     1       0.598  -0.165   7.025  1.00  0.00     0.000 C 
BRANCH   4   5
ATOM      5  C   UNL     1      -0.130   0.930   6.228  1.00  0.00     0.006 C 
BRANCH   5   6
ATOM      6  C   UNL     1      -0.988   1.835   7.121  1.00  0.00     0.053 C 
BRANCH   6   7
ATOM      7  C   UNL     1      -2.239   2.237   6.407  1.00  0.00     0.041 C 
ATOM      8  O   UNL     1      -2.408   3.432   6.048  1.00  0.00    -0.550 OA
ATOM      9  O   UNL     1      -3.243   1.303   6.182  1.00  0.00    -0.550 OA
ENDBRANCH   6   7
ENDBRANCH   5   6
ENDBRANCH   4   5
ENDBRANCH   3   4
ENDBRANCH   2   3
ENDBRANCH   1   2
BRANCH   1  10
ATOM     10  C   UNL     1       0.605  -3.797   9.029  1.00  0.00     0.000 C 
BRANCH  10  11
ATOM     11  C   UNL     1       0.002  -4.609   7.877  1.00  0.00    -0.000 C 
BRANCH  11  12
ATOM     12  C   UNL     1      -0.602  -3.684   6.810  1.00  0.00    -0.000 C 
BRANCH  12  13
ATOM     13  C   UNL     1      -2.111  -3.450   7.004  1.00  0.00    -0.000 C 
BRANCH  13  14
ATOM     14  C   UNL     1      -2.546  -1.971   7.013  1.00  0.00    -0.000 C 
BRANCH  14  15
ATOM     15  C   UNL     1      -2.982  -1.428   8.386  1.00  0.00    -0.003 C 
ATOM     16  C   UNL     1      -2.857  -2.465   9.502  1.00  0.00     0.004 C 
ENDBRANCH  14  15
ENDBRANCH  13  14
ENDBRANCH  12  13
ENDBRANCH  11  12
ENDBRANCH  10  11
ENDBRANCH   1  10
TORSDOF 12
ENDMDL
MODEL 7
REMARK VINA RESULT:    -2.751      1.127      3.389
REMARK INTER + INTRA:          -6.424
REMARK INTER:                  -4.790
REMARK INTRA:                  -1.634
REMARK UNBOUND:                -1.744
REMARK SMILES CCCCCCCCCCCCCC(=O)[O-]
REMARK SMILES IDX 8 1 9 2 10 3 11 4 12 5 13 6 14 7 15 8 16 9 7 10 6 11 5 12
REMARK SMILES IDX 4 13 3 14 2 15 1 16
REMARK H PARENT
REMARK Flexibility Score: inf
ROOT
ATOM      1  C   UNL     1      -2.584   1.550   8.485  1.00  0.00     0.000 C 
ENDROOT
BRANCH   1   2
ATOM      2  C   UNL     1      -3.108   0.101   8.508  1.00  0.00     0.000 C 
BRANCH   2   3
ATOM      3  C   UNL     1      -3.255  -0.556   7.124  1.00  0.00     0.000 C 
BRANCH   3   4
ATOM      4  C   UNL     1      -2.501  -1.893   7.014  1.00  0.00     0.000 C 
BRANCH   4   5
ATOM      5  C   UNL     1      -3.073  -2.803   5.915  1.00  0.00     0.006 C 
BRANCH   5   6
ATOM      6  C   UNL     1      -4.334  -2.221   5.267  1.00  0.00     0.053 C 
BRANCH   6   7
ATOM      7  C   UNL     1      -4.730  -3.032   4.074  1.00  0.00     0.041 C 
ATOM      8  O   UNL     1      -4.788  -2.499   2.935  1.00  0.00    -0.550 OA
ATOM      9  O   UNL     1      -5.085  -4.367   4.227  1.00  0.00    -0.550 OA
ENDBRANCH   6   7
ENDBRANCH   5   6
ENDBRANCH   4   5
ENDBRANCH   3   4
ENDBRANCH   2   3
ENDBRANCH   1   2
BRANCH   1  10
ATOM     10  C   UNL     1      -2.201   2.025   7.076  1.00  0.00     0.000 C 
BRANCH  10  11
ATOM     11  C   UNL     1      -0.685   2.218   6.955  1.00  0.00    -0.000 C 
BRANCH  11  12
ATOM     12  C   UNL     1      -0.055   1.104   6.106  1.00  0.00    -0.000 C 
BRANCH  12  13
ATOM     13  C   UNL     1       1.105   0.389   6.822  1.00  0.00    -0.000 C 
BRANCH  13  14
ATOM     14  C   UNL     1       1.141   0.575   8.353  1.00  0.00    -0.000 C 
BRANCH  14  15
ATOM     15  C   UNL     1       0.765  -0.676   9.168  1.00  0.00    -0.003 C 
ATOM     16  C   UNL     1       0.841  -1.965   8.351  1.00  0.00     0.004 C 
ENDBRANCH  14  15
ENDBRANCH  13  14
ENDBRANCH  12  13
ENDBRANCH  11  12
ENDBRANCH  10  11
ENDBRANCH   1  10
TORSDOF 12
ENDMDL
MODEL 8
REMARK VINA RESULT:    -2.738      2.818      5.635
REMARK INTER + INTRA:          -6.403
REMARK INTER:                  -4.522
REMARK INTRA:                  -1.881
REMARK UNBOUND:                -1.744
REMARK SMILES CCCCCCCCCCCCCC(=O)[O-]
REMARK SMILES IDX 8 1 9 2 10 3 11 4 12 5 13 6 14 7 15 8 16 9 7 10 6 11 5 12
REMARK SMILES IDX 4 13 3 14 2 15 1 16
REMARK H PARENT
REMARK Flexibility Score: inf
ROOT
ATOM      1  C   UNL     1      -2.754  -0.409   8.769  1.00  0.00     0.000 C 
ENDROOT
BRANCH   1   2
ATOM      2  C   UNL     1      -2.274   0.154  10.119  1.00  0.00     0.000 C 
BRANCH   2   3
ATOM      3  C   UNL     1      -1.228   1.278  10.017  1.00  0.00     0.000 C 
BRANCH   3   4
ATOM      4  C   UNL     1       0.207   0.747   9.855  1.00  0.00     0.000 C 
BRANCH   4   5
ATOM      5  C   UNL     1       0.886   1.261   8.576  1.00  0.00     0.006 C 
BRANCH   5   6
ATOM      6  C   UNL     1       0.034   2.300   7.835  1.00  0.00     0.053 C 
BRANCH   6   7
ATOM      7  C   UNL     1      -0.331   1.800   6.473  1.00  0.00     0.041 C 
ATOM      8  O   UNL     1      -1.534   1.790   6.103  1.00  0.00    -0.550 OA
ATOM      9  O   UNL     1       0.654   1.299   5.629  1.00  0.00    -0.550 OA
ENDBRANCH   6   7
ENDBRANCH   5   6
ENDBRANCH   4   5
ENDBRANCH   3   4
ENDBRANCH   2   3
ENDBRANCH   1   2
BRANCH   1  10
ATOM     10  C   UNL     1      -2.070  -1.732   8.393  1.00  0.00     0.000 C 
BRANCH  10  11
ATOM     11  C   UNL     1      -1.423  -1.641   7.007  1.00  0.00    -0.000 C 
BRANCH  11  12
ATOM     12  C   UNL     1       0.040  -2.105   7.053  1.00  0.00    -0.000 C 
BRANCH  12  13
ATOM     13  C   UNL     1       0.510  -2.470   8.473  1.00  0.00    -0.000 C 
BRANCH  13  14
ATOM     14  C   UNL     1       1.022  -3.915   8.639  1.00  0.00    -0.000 C 
BRANCH  14  15
ATOM     15  C   UNL     1       0.639  -4.877   7.500  1.00  0.00    -0.003 C 
ATOM     16  C   UNL     1      -0.546  -5.776   7.852  1.00  0.00     0.004 C 
ENDBRANCH  14  15
ENDBRANCH  13  14
ENDBRANCH  12  13
ENDBRANCH  11  12
ENDBRANCH  10  11
ENDBRANCH   1  10
TORSDOF 12
ENDMDL
MODEL 9
REMARK VINA RESULT:    -2.707      0.991      1.652
REMARK INTER + INTRA:          -6.350
REMARK INTER:                  -4.484
REMARK INTRA:                  -1.866
REMARK UNBOUND:                -1.744
REMARK SMILES CCCCCCCCCCCCCC(=O)[O-]
REMARK SMILES IDX 8 1 9 2 10 3 11 4 12 5 13 6 14 7 15 8 16 9 7 10 6 11 5 12
REMARK SMILES IDX 4 13 3 14 2 15 1 16
REMARK H PARENT
REMARK Flexibility Score: inf
ROOT
ATOM      1  C   UNL     1       1.206   0.172   8.166  1.00  0.00     0.000 C 
ENDROOT
BRANCH   1   2
ATOM      2  C   UNL     1       0.849  -1.213   8.736  1.00  0.00     0.000 C 
BRANCH   2   3
ATOM      3  C   UNL     1      -0.545  -1.735   8.344  1.00  0.00     0.000 C 
BRANCH   3   4
ATOM      4  C   UNL     1      -1.687  -0.952   9.015  1.00  0.00     0.000 C 
BRANCH   4   5
ATOM      5  C   UNL     1      -2.941  -0.866   8.131  1.00  0.00     0.006 C 
BRANCH   5   6
ATOM      6  C   UNL     1      -2.636  -1.120   6.650  1.00  0.00     0.053 C 
BRANCH   6   7
ATOM      7  C   UNL     1      -3.725  -1.932   6.024  1.00  0.00     0.041 C 
ATOM      8  O   UNL     1      -3.459  -3.031   5.470  1.00  0.00    -0.550 OA
ATOM      9  O   UNL     1      -5.029  -1.451   6.008  1.00  0.00    -0.550 OA
ENDBRANCH   6   7
ENDBRANCH   5   6
ENDBRANCH   4   5
ENDBRANCH   3   4
ENDBRANCH   2   3
ENDBRANCH   1   2
BRANCH   1  10
ATOM     10  C   UNL     1       0.925   0.291   6.660  1.00  0.00     0.000 C 
BRANCH  10  11
ATOM     11  C   UNL     1       0.063   1.522   6.358  1.00  0.00    -0.000 C 
BRANCH  11  12
ATOM     12  C   UNL     1      -0.275   2.286   7.647  1.00  0.00    -0.000 C 
BRANCH  12  13
ATOM     13  C   UNL     1      -1.748   2.725   7.715  1.00  0.00    -0.000 C 
BRANCH  13  14
ATOM     14  C   UNL     1      -2.540   2.558   6.401  1.00  0.00    -0.000 C 
BRANCH  14  15
ATOM     15  C   UNL     1      -3.825   3.401   6.305  1.00  0.00    -0.003 C 
ATOM     16  C   UNL     1      -3.858   4.554   7.308  1.00  0.00     0.004 C 
ENDBRANCH  14  15
ENDBRANCH  13  14
ENDBRANCH  12  13
ENDBRANCH  11  12
ENDBRANCH  10  11
ENDBRANCH   1  10
TORSDOF 12
ENDMDL
