MODEL 1
REMARK VINA RESULT:    -3.895      0.000      0.000
REMARK INTER + INTRA:          -9.492
REMARK INTER:                  -7.082
REMARK INTRA:                  -2.410
REMARK UNBOUND:                -2.410
REMARK SMILES CCCCCCCCCCCCCCCC(=O)[O-]
REMARK SMILES IDX 9 1 10 2 11 3 12 4 13 5 14 6 15 7 16 8 17 9 18 10 8 11 7 12
REMARK SMILES IDX 6 13 5 14 4 15 3 16 2 17 1 18
REMARK H PARENT
REMARK Flexibility Score: inf
ROOT
ATOM      1  C   UNL     1      19.754  49.846  40.655  1.00  0.00     0.000 C 
ENDROOT
BRANCH   1   2
ATOM      2  C   UNL     1      18.580  49.931  39.663  1.00  0.00     0.000 C 
BRANCH   2   3
ATOM      3  C   UNL     1      17.633  51.111  39.972  1.00  0.00     0.000 C 
BRANCH   3   4
ATOM      4  C   UNL     1      16.651  51.432  38.828  1.00  0.00     0.000 C 
BRANCH   4   5
ATOM      5  C   UNL     1      16.135  50.207  38.050  1.00  0.00     0.000 C 
BRANCH   5   6
ATOM      6  C   UNL     1      16.494  50.188  36.550  1.00  0.00     0.006 C 
BRANCH   6   7
ATOM      7  C   UNL     1      16.741  51.575  35.936  1.00  0.00     0.053 C 
BRANCH   7   8
ATOM      8  C   UNL     1      17.291  51.485  34.546  1.00  0.00     0.041 C 
ATOM      9  O   UNL     1      16.758  50.719  33.702  1.00  0.00    -0.550 OA
ATOM     10  O   UNL     1      18.372  52.275  34.174  1.00  0.00    -0.550 OA
ENDBRANCH   7   8
ENDBRANCH   6   7
ENDBRANCH   5   6
ENDBRANCH   4   5
ENDBRANCH   3   4
ENDBRANCH   2   3
ENDBRANCH   1   2
BRANCH   1  11
ATOM     11  C   UNL     1      20.012  51.176  41.381  1.00  0.00     0.000 C 
BRANCH  11  12
ATOM     12  C   UNL     1      21.473  51.639  41.261  1.00  0.00    -0.000 C 
BRANCH  12  13
ATOM     13  C   UNL     1      22.225  50.813  40.208  1.00  0.00    -0.000 C 
BRANCH  13  14
ATOM     14  C   UNL     1      23.194  51.663  39.368  1.00  0.00    -0.000 C 
BRANCH  14  15
ATOM     15  C   UNL     1      22.496  52.374  38.199  1.00  0.00    -0.000 C 
BRANCH  15  16
ATOM     16  C   UNL     1      21.413  51.482  37.581  1.00  0.00    -0.000 C 
BRANCH  16  17
ATOM     17  C   UNL     1      20.157  52.293  37.244  1.00  0.00    -0.003 C 
ATOM     18  C   UNL     1      19.950  53.429  38.243  1.00  0.00     0.004 C 
ENDBRANCH  16  17
ENDBRANCH  15  16
ENDBRANCH  14  15
ENDBRANCH  13  14
ENDBRANCH  12  13
ENDBRANCH  11  12
ENDBRANCH   1  11
TORSDOF 14
ENDMDL
MODEL 2
REMARK VINA RESULT:    -3.866      2.332      2.817
REMARK INTER + INTRA:          -9.441
REMARK INTER:                  -7.163
REMARK INTRA:                  -2.278
REMARK UNBOUND:                -2.410
REMARK SMILES CCCCCCCCCCCCCCCC(=O)[O-]
REMARK SMILES IDX 9 1 10 2 11 3 12 4 13 5 14 6 15 7 16 8 17 9 18 10 8 11 7 12
REMARK SMILES IDX 6 13 5 14 4 15 3 16 2 17 1 18
REMARK H PARENT
REMARK Flexibility Score: inf
ROOT
ATOM      1  C   UNL     1      18.422  51.749  39.842  1.00  0.00     0.000 C 
ENDROOT
BRANCH   1   2
ATOM      2  C   UNL     1      17.018  51.335  39.365  1.00  0.00     0.000 C 
BRANCH   2   3
ATOM      3  C   UNL     1      16.942  51.170  37.832  1.00  0.00     0.000 C 
BRANCH   3   4
ATOM      4  C   UNL     1      18.244  50.640  37.201  1.00  0.00     0.000 C 
BRANCH   4   5
ATOM      5  C   UNL     1      18.434  49.113  37.288  1.00  0.00     0.000 C 
BRANCH   5   6
ATOM      6  C   UNL     1      19.700  48.573  36.592  1.00  0.00     0.006 C 
BRANCH   6   7
ATOM      7  C   UNL     1      20.568  49.650  35.921  1.00  0.00     0.053 C 
BRANCH   7   8
ATOM      8  C   UNL     1      21.149  49.178  34.624  1.00  0.00     0.041 C 
ATOM      9  O   UNL     1      20.723  49.641  33.534  1.00  0.00    -0.550 OA
ATOM     10  O   UNL     1      22.185  48.253  34.622  1.00  0.00    -0.550 OA
ENDBRANCH   7   8
ENDBRANCH   6   7
ENDBRANCH   5   6
ENDBRANCH   4   5
ENDBRANCH   3   4
ENDBRANCH   2   3
ENDBRANCH   1   2
BRANCH   1  11
ATOM     11  C   UNL     1      18.986  50.801  40.912  1.00  0.00     0.000 C 
BRANCH  11  12
ATOM     12  C   UNL     1      20.523  50.751  40.905  1.00  0.00    -0.000 C 
BRANCH  12  13
ATOM     13  C   UNL     1      21.043  50.051  39.641  1.00  0.00    -0.000 C 
BRANCH  13  14
ATOM     14  C   UNL     1      22.528  50.341  39.371  1.00  0.00    -0.000 C 
BRANCH  14  15
ATOM     15  C   UNL     1      22.807  51.832  39.129  1.00  0.00    -0.000 C 
BRANCH  15  16
ATOM     16  C   UNL     1      22.103  52.322  37.858  1.00  0.00    -0.000 C 
BRANCH  16  17
ATOM     17  C   UNL     1      21.082  53.419  38.182  1.00  0.00    -0.003 C 
ATOM     18  C   UNL     1      20.216  53.743  36.967  1.00  0.00     0.004 C 
ENDBRANCH  16  17
ENDBRANCH  15  16
ENDBRANCH  14  15
ENDBRANCH  13  14
ENDBRANCH  12  13
ENDBRANCH  11  12
ENDBRANCH   1  11
TORSDOF 14
ENDMDL
MODEL 3
REMARK VINA RESULT:    -3.845      9.742     11.951
REMARK INTER + INTRA:          -9.401
REMARK INTER:                  -7.208
REMARK INTRA:                  -2.194
REMARK UNBOUND:                -2.410
REMARK SMILES CCCCCCCCCCCCCCCC(=O)[O-]
REMARK SMILES IDX 9 1 10 2 11 3 12 4 13 5 14 6 15 7 16 8 17 9 18 10 8 11 7 12
REMARK SMILES IDX 6 13 5 14 4 15 3 16 2 17 1 18
REMARK H PARENT
REMARK Flexibility Score: inf
ROOT
ATOM      1  C   UNL     1      14.161  54.595  28.337  1.00  0.00     0.000 C 
ENDROOT
BRANCH   1   2
ATOM      2  C   UNL     1      12.970  53.628  28.464  1.00  0.00     0.000 C 
BRANCH   2   3
ATOM      3  C   UNL     1      12.615  52.952  27.123  1.00  0.00     0.000 C 
BRANCH   3   4
ATOM      4  C   UNL     1      13.195  51.533  26.972  1.00  0.00     0.000 C 
BRANCH   4   5
ATOM      5  C   UNL     1      14.512  51.449  26.178  1.00  0.00     0.000 C 
BRANCH   5   6
ATOM      6  C   UNL     1      14.806  52.663  25.271  1.00  0.00     0.006 C 
BRANCH   6   7
ATOM      7  C   UNL     1      15.096  52.307  23.805  1.00  0.00     0.053 C 
BRANCH   7   8
ATOM      8  C   UNL     1      16.395  51.577  23.649  1.00  0.00     0.041 C 
ATOM      9  O   UNL     1      16.404  50.373  23.281  1.00  0.00    -0.550 OA
ATOM     10  O   UNL     1      17.596  52.238  23.876  1.00  0.00    -0.550 OA
ENDBRANCH   7   8
ENDBRANCH   6   7
ENDBRANCH   5   6
ENDBRANCH   4   5
ENDBRANCH   3   4
ENDBRANCH   2   3
ENDBRANCH   1   2
BRANCH   1  11
ATOM     11  C   UNL     1      15.326  54.223  29.269  1.00  0.00     0.000 C 
BRANCH  11  12
ATOM     12  C   UNL     1      15.139  52.846  29.926  1.00  0.00    -0.000 C 
BRANCH  12  13
ATOM     13  C   UNL     1      16.260  51.883  29.508  1.00  0.00    -0.000 C 
BRANCH  13  14
ATOM     14  C   UNL     1      17.246  52.518  28.513  1.00  0.00    -0.000 C 
BRANCH  14  15
ATOM     15  C   UNL     1      17.928  51.479  27.610  1.00  0.00    -0.000 C 
BRANCH  15  16
ATOM     16  C   UNL     1      17.438  50.063  27.936  1.00  0.00    -0.000 C 
BRANCH  16  17
ATOM     17  C   UNL     1      18.603  49.165  28.369  1.00  0.00    -0.003 C 
ATOM     18  C   UNL     1      19.580  49.921  29.264  1.00  0.00     0.004 C 
ENDBRANCH  16  17
ENDBRANCH  15  16
ENDBRANCH  14  15
ENDBRANCH  13  14
ENDBRANCH  12  13
ENDBRANCH  11  12
ENDBRANCH   1  11
TORSDOF 14
ENDMDL
MODEL 4
REMARK VINA RESULT:    -3.844     13.534     15.738
REMARK INTER + INTRA:          -9.400
REMARK INTER:                  -7.467
REMARK INTRA:                  -1.932
REMARK UNBOUND:                -2.410
REMARK SMILES CCCCCCCCCCCCCCCC(=O)[O-]
REMARK SMILES IDX 9 1 10 2 11 3 12 4 13 5 14 6 15 7 16 8 17 9 18 10 8 11 7 12
REMARK SMILES IDX 6 13 5 14 4 15 3 16 2 17 1 18
REMARK H PARENT
REMARK Flexibility Score: inf
ROOT
ATOM      1  C   UNL     1      23.608  60.072  28.194  1.00  0.00     0.000 C 
ENDROOT
BRANCH   1   2
ATOM      2  C   UNL     1      23.916  61.377  27.438  1.00  0.00     0.000 C 
BRANCH   2   3
ATOM      3  C   UNL     1      25.425  61.701  27.413  1.00  0.00     0.000 C 
BRANCH   3   4
ATOM      4  C   UNL     1      26.272  60.647  26.674  1.00  0.00     0.000 C 
BRANCH   4   5
ATOM      5  C   UNL     1      26.156  60.679  25.138  1.00  0.00     0.000 C 
BRANCH   5   6
ATOM      6  C   UNL     1      26.120  59.295  24.457  1.00  0.00     0.006 C 
BRANCH   6   7
ATOM      7  C   UNL     1      26.131  58.106  25.430  1.00  0.00     0.053 C 
BRANCH   7   8
ATOM      8  C   UNL     1      26.147  56.791  24.712  1.00  0.00     0.041 C 
ATOM      9  O   UNL     1      26.951  55.888  25.063  1.00  0.00    -0.550 OA
ATOM     10  O   UNL     1      25.250  56.552  23.679  1.00  0.00    -0.550 OA
ENDBRANCH   7   8
ENDBRANCH   6   7
ENDBRANCH   5   6
ENDBRANCH   4   5
ENDBRANCH   3   4
ENDBRANCH   2   3
ENDBRANCH   1   2
BRANCH   1  11
ATOM     11  C   UNL     1      22.520  59.232  27.504  1.00  0.00     0.000 C 
BRANCH  11  12
ATOM     12  C   UNL     1      22.626  59.273  25.971  1.00  0.00    -0.000 C 
BRANCH  12  13
ATOM     13  C   UNL     1      22.412  57.877  25.369  1.00  0.00    -0.000 C 
BRANCH  13  14
ATOM     14  C   UNL     1      22.733  56.748  26.362  1.00  0.00    -0.000 C 
BRANCH  14  15
ATOM     15  C   UNL     1      22.267  55.371  25.865  1.00  0.00    -0.000 C 
BRANCH  15  16
ATOM     16  C   UNL     1      21.421  55.505  24.593  1.00  0.00    -0.000 C 
BRANCH  16  17
ATOM     17  C   UNL     1      20.414  54.355  24.479  1.00  0.00    -0.003 C 
ATOM     18  C   UNL     1      20.553  53.381  25.645  1.00  0.00     0.004 C 
ENDBRANCH  16  17
ENDBRANCH  15  16
ENDBRANCH  14  15
ENDBRANCH  13  14
ENDBRANCH  12  13
ENDBRANCH  11  12
ENDBRANCH   1  11
TORSDOF 14
ENDMDL
MODEL 5
REMARK VINA RESULT:    -3.767      1.197      2.607
REMARK INTER + INTRA:          -9.260
REMARK INTER:                  -6.657
REMARK INTRA:                  -2.602
REMARK UNBOUND:                -2.410
REMARK SMILES CCCCCCCCCCCCCCCC(=O)[O-]
REMARK SMILES IDX 9 1 10 2 11 3 12 4 13 5 14 6 15 7 16 8 17 9 18 10 8 11 7 12
REMARK SMILES IDX 6 13 5 14 4 15 3 16 2 17 1 18
REMARK H PARENT
REMARK Flexibility Score: inf
ROOT
ATOM      1  C   UNL     1      20.055  49.888  39.504  1.00  0.00     0.000 C 
ENDROOT
BRANCH   1   2
ATOM      2  C   UNL     1      18.731  49.966  40.284  1.00  0.00     0.000 C 
BRANCH   2   3
ATOM      3  C   UNL     1      18.146  51.395  40.310  1.00  0.00     0.000 C 
BRANCH   3   4
ATOM      4  C   UNL     1      16.735  51.497  39.701  1.00  0.00     0.000 C 
BRANCH   4   5
ATOM      5  C   UNL     1      16.690  51.502  38.161  1.00  0.00     0.000 C 
BRANCH   5   6
ATOM      6  C   UNL     1      16.190  50.192  37.518  1.00  0.00     0.006 C 
BRANCH   6   7
ATOM      7  C   UNL     1      15.816  50.313  36.033  1.00  0.00     0.053 C 
BRANCH   7   8
ATOM      8  C   UNL     1      17.017  50.237  35.141  1.00  0.00     0.041 C 
ATOM      9  O   UNL     1      17.743  49.208  35.142  1.00  0.00    -0.550 OA
ATOM     10  O   UNL     1      17.316  51.290  34.286  1.00  0.00    -0.550 OA
ENDBRANCH   7   8
ENDBRANCH   6   7
ENDBRANCH   5   6
ENDBRANCH   4   5
ENDBRANCH   3   4
ENDBRANCH   2   3
ENDBRANCH   1   2
BRANCH   1  11
ATOM     11  C   UNL     1      19.850  49.514  38.026  1.00  0.00     0.000 C 
BRANCH  11  12
ATOM     12  C   UNL     1      20.659  50.410  37.074  1.00  0.00    -0.000 C 
BRANCH  12  13
ATOM     13  C   UNL     1      19.909  51.718  36.782  1.00  0.00    -0.000 C 
BRANCH  13  14
ATOM     14  C   UNL     1      20.710  52.965  37.192  1.00  0.00    -0.000 C 
BRANCH  14  15
ATOM     15  C   UNL     1      20.227  53.569  38.519  1.00  0.00    -0.000 C 
BRANCH  15  16
ATOM     16  C   UNL     1      21.268  53.361  39.626  1.00  0.00    -0.000 C 
BRANCH  16  17
ATOM     17  C   UNL     1      22.567  52.778  39.058  1.00  0.00    -0.003 C 
ATOM     18  C   UNL     1      23.177  51.757  40.014  1.00  0.00     0.004 C 
ENDBRANCH  16  17
ENDBRANCH  15  16
ENDBRANCH  14  15
ENDBRANCH  13  14
ENDBRANCH  12  13
ENDBRANCH  11  12
ENDBRANCH   1  11
TORSDOF 14
ENDMDL
MODEL 6
REMARK VINA RESULT:    -3.765      2.125      3.727
REMARK INTER + INTRA:          -9.256
REMARK INTER:                  -6.793
REMARK INTRA:                  -2.462
REMARK UNBOUND:                -2.410
REMARK SMILES CCCCCCCCCCCCCCCC(=O)[O-]
REMARK SMILES IDX 9 1 10 2 11 3 12 4 13 5 14 6 15 7 16 8 17 9 18 10 8 11 7 12
REMARK SMILES IDX 6 13 5 14 4 15 3 16 2 17 1 18
REMARK H PARENT
REMARK Flexibility Score: inf
ROOT
ATOM      1  C   UNL     1      21.395  53.470  39.087  1.00  0.00     0.000 C 
ENDROOT
BRANCH   1   2
ATOM      2  C   UNL     1      20.033  53.619  38.387  1.00  0.00     0.000 C 
BRANCH   2   3
ATOM      3  C   UNL     1      19.965  52.839  37.056  1.00  0.00     0.000 C 
BRANCH   3   4
ATOM      4  C   UNL     1      18.703  51.967  36.913  1.00  0.00     0.000 C 
BRANCH   4   5
ATOM      5  C   UNL     1      18.932  50.593  36.255  1.00  0.00     0.000 C 
BRANCH   5   6
ATOM      6  C   UNL     1      17.682  49.964  35.606  1.00  0.00     0.006 C 
BRANCH   6   7
ATOM      7  C   UNL     1      16.530  49.682  36.584  1.00  0.00     0.053 C 
BRANCH   7   8
ATOM      8  C   UNL     1      16.673  48.351  37.256  1.00  0.00     0.041 C 
ATOM      9  O   UNL     1      17.194  48.272  38.399  1.00  0.00    -0.550 OA
ATOM     10  O   UNL     1      16.201  47.203  36.632  1.00  0.00    -0.550 OA
ENDBRANCH   7   8
ENDBRANCH   6   7
ENDBRANCH   5   6
ENDBRANCH   4   5
ENDBRANCH   3   4
ENDBRANCH   2   3
ENDBRANCH   1   2
BRANCH   1  11
ATOM     11  C   UNL     1      22.329  52.488  38.360  1.00  0.00     0.000 C 
BRANCH  11  12
ATOM     12  C   UNL     1      23.281  51.758  39.321  1.00  0.00    -0.000 C 
BRANCH  12  13
ATOM     13  C   UNL     1      22.682  50.418  39.771  1.00  0.00    -0.000 C 
BRANCH  13  14
ATOM     14  C   UNL     1      21.528  49.951  38.870  1.00  0.00    -0.000 C 
BRANCH  14  15
ATOM     15  C   UNL     1      20.205  49.793  39.635  1.00  0.00    -0.000 C 
BRANCH  15  16
ATOM     16  C   UNL     1      20.308  50.401  41.038  1.00  0.00    -0.000 C 
BRANCH  16  17
ATOM     17  C   UNL     1      19.169  51.396  41.292  1.00  0.00    -0.003 C 
ATOM     18  C   UNL     1      18.009  51.165  40.327  1.00  0.00     0.004 C 
ENDBRANCH  16  17
ENDBRANCH  15  16
ENDBRANCH  14  15
ENDBRANCH  13  14
ENDBRANCH  12  13
ENDBRANCH  11  12
ENDBRANCH   1  11
TORSDOF 14
ENDMDL
MODEL 7
REMARK VINA RESULT:    -3.742     14.257     16.203
REMARK INTER + INTRA:          -9.215
REMARK INTER:                  -6.840
REMARK INTRA:                  -2.376
REMARK UNBOUND:                -2.410
REMARK SMILES CCCCCCCCCCCCCCCC(=O)[O-]
REMARK SMILES IDX 9 1 10 2 11 3 12 4 13 5 14 6 15 7 16 8 17 9 18 10 8 11 7 12
REMARK SMILES IDX 6 13 5 14 4 15 3 16 2 17 1 18
REMARK H PARENT
REMARK Flexibility Score: inf
ROOT
ATOM      1  C   UNL     1      26.988  62.093  25.933  1.00  0.00     0.000 C 
ENDROOT
BRANCH   1   2
ATOM      2  C   UNL     1      26.558  60.718  25.390  1.00  0.00     0.000 C 
BRANCH   2   3
ATOM      3  C   UNL     1      26.970  59.561  26.325  1.00  0.00     0.000 C 
BRANCH   3   4
ATOM      4  C   UNL     1      27.020  58.188  25.627  1.00  0.00     0.000 C 
BRANCH   4   5
ATOM      5  C   UNL     1      26.039  58.020  24.451  1.00  0.00     0.000 C 
BRANCH   5   6
ATOM      6  C   UNL     1      25.397  56.623  24.331  1.00  0.00     0.006 C 
BRANCH   6   7
ATOM      7  C   UNL     1      23.908  56.636  23.952  1.00  0.00     0.053 C 
BRANCH   7   8
ATOM      8  C   UNL     1      23.071  55.868  24.928  1.00  0.00     0.041 C 
ATOM      9  O   UNL     1      22.121  55.150  24.520  1.00  0.00    -0.550 OA
ATOM     10  O   UNL     1      23.363  55.918  26.285  1.00  0.00    -0.550 OA
ENDBRANCH   7   8
ENDBRANCH   6   7
ENDBRANCH   5   6
ENDBRANCH   4   5
ENDBRANCH   3   4
ENDBRANCH   2   3
ENDBRANCH   1   2
BRANCH   1  11
ATOM     11  C   UNL     1      25.790  62.982  26.306  1.00  0.00     0.000 C 
BRANCH  11  12
ATOM     12  C   UNL     1      25.724  63.280  27.813  1.00  0.00    -0.000 C 
BRANCH  12  13
ATOM     13  C   UNL     1      25.073  62.116  28.574  1.00  0.00    -0.000 C 
BRANCH  13  14
ATOM     14  C   UNL     1      23.767  61.637  27.919  1.00  0.00    -0.000 C 
BRANCH  14  15
ATOM     15  C   UNL     1      23.549  60.124  28.069  1.00  0.00    -0.000 C 
BRANCH  15  16
ATOM     16  C   UNL     1      23.360  59.458  26.701  1.00  0.00    -0.000 C 
BRANCH  16  17
ATOM     17  C   UNL     1      22.537  60.350  25.764  1.00  0.00    -0.003 C 
ATOM     18  C   UNL     1      23.021  60.230  24.322  1.00  0.00     0.004 C 
ENDBRANCH  16  17
ENDBRANCH  15  16
ENDBRANCH  14  15
ENDBRANCH  13  14
ENDBRANCH  12  13
ENDBRANCH  11  12
ENDBRANCH   1  11
TORSDOF 14
ENDMDL
MODEL 8
REMARK VINA RESULT:    -3.724      6.743     11.588
REMARK INTER + INTRA:          -9.181
REMARK INTER:                  -6.813
REMARK INTRA:                  -2.368
REMARK UNBOUND:                -2.410
REMARK SMILES CCCCCCCCCCCCCCCC(=O)[O-]
REMARK SMILES IDX 9 1 10 2 11 3 12 4 13 5 14 6 15 7 16 8 17 9 18 10 8 11 7 12
REMARK SMILES IDX 6 13 5 14 4 15 3 16 2 17 1 18
REMARK H PARENT
REMARK Flexibility Score: inf
ROOT
ATOM      1  C   UNL     1      15.117  51.009  26.258  1.00  0.00     0.000 C 
ENDROOT
BRANCH   1   2
ATOM      2  C   UNL     1      16.493  50.893  26.937  1.00  0.00     0.000 C 
BRANCH   2   3
ATOM      3  C   UNL     1      17.444  52.043  26.543  1.00  0.00     0.000 C 
BRANCH   3   4
ATOM      4  C   UNL     1      18.680  52.165  27.454  1.00  0.00     0.000 C 
BRANCH   4   5
ATOM      5  C   UNL     1      18.634  51.305  28.731  1.00  0.00     0.000 C 
BRANCH   5   6
ATOM      6  C   UNL     1      19.436  51.865  29.924  1.00  0.00     0.006 C 
BRANCH   6   7
ATOM      7  C   UNL     1      18.712  51.777  31.276  1.00  0.00     0.053 C 
BRANCH   7   8
ATOM      8  C   UNL     1      19.389  50.829  32.218  1.00  0.00     0.041 C 
ATOM      9  O   UNL     1      20.296  50.062  31.800  1.00  0.00    -0.550 OA
ATOM     10  O   UNL     1      19.040  50.816  33.562  1.00  0.00    -0.550 OA
ENDBRANCH   7   8
ENDBRANCH   6   7
ENDBRANCH   5   6
ENDBRANCH   4   5
ENDBRANCH   3   4
ENDBRANCH   2   3
ENDBRANCH   1   2
BRANCH   1  11
ATOM     11  C   UNL     1      15.016  52.233  25.333  1.00  0.00     0.000 C 
BRANCH  11  12
ATOM     12  C   UNL     1      13.924  53.220  25.777  1.00  0.00    -0.000 C 
BRANCH  12  13
ATOM     13  C   UNL     1      13.185  52.697  27.017  1.00  0.00    -0.000 C 
BRANCH  13  14
ATOM     14  C   UNL     1      13.350  53.617  28.238  1.00  0.00    -0.000 C 
BRANCH  14  15
ATOM     15  C   UNL     1      14.734  54.282  28.296  1.00  0.00    -0.000 C 
BRANCH  15  16
ATOM     16  C   UNL     1      15.593  53.664  29.406  1.00  0.00    -0.000 C 
BRANCH  16  17
ATOM     17  C   UNL     1      14.737  52.822  30.360  1.00  0.00    -0.003 C 
ATOM     18  C   UNL     1      15.218  51.374  30.400  1.00  0.00     0.004 C 
ENDBRANCH  16  17
ENDBRANCH  15  16
ENDBRANCH  14  15
ENDBRANCH  13  14
ENDBRANCH  12  13
ENDBRANCH  11  12
ENDBRANCH   1  11
TORSDOF 14
ENDMDL
MODEL 9
REMARK VINA RESULT:    -3.714      3.039      5.688
REMARK INTER + INTRA:          -9.164
REMARK INTER:                  -6.535
REMARK INTRA:                  -2.629
REMARK UNBOUND:                -2.410
REMARK SMILES CCCCCCCCCCCCCCCC(=O)[O-]
REMARK SMILES IDX 9 1 10 2 11 3 12 4 13 5 14 6 15 7 16 8 17 9 18 10 8 11 7 12
REMARK SMILES IDX 6 13 5 14 4 15 3 16 2 17 1 18
REMARK H PARENT
REMARK Flexibility Score: inf
ROOT
ATOM      1  C   UNL     1      19.932  49.788  39.241  1.00  0.00     0.000 C 
ENDROOT
BRANCH   1   2
ATOM      2  C   UNL     1      21.360  49.883  38.674  1.00  0.00     0.000 C 
BRANCH   2   3
ATOM      3  C   UNL     1      21.424  50.721  37.379  1.00  0.00     0.000 C 
BRANCH   3   4
ATOM      4  C   UNL     1      21.858  52.182  37.608  1.00  0.00     0.000 C 
BRANCH   4   5
ATOM      5  C   UNL     1      20.705  53.200  37.676  1.00  0.00     0.000 C 
BRANCH   5   6
ATOM      6  C   UNL     1      20.179  53.496  39.096  1.00  0.00     0.006 C 
BRANCH   6   7
ATOM      7  C   UNL     1      21.272  53.595  40.172  1.00  0.00     0.053 C 
BRANCH   7   8
ATOM      8  C   UNL     1      21.079  52.590  41.266  1.00  0.00     0.041 C 
ATOM      9  O   UNL     1      19.941  52.423  41.778  1.00  0.00    -0.550 OA
ATOM     10  O   UNL     1      22.148  51.814  41.693  1.00  0.00    -0.550 OA
ENDBRANCH   7   8
ENDBRANCH   6   7
ENDBRANCH   5   6
ENDBRANCH   4   5
ENDBRANCH   3   4
ENDBRANCH   2   3
ENDBRANCH   1   2
BRANCH   1  11
ATOM     11  C   UNL     1      18.972  49.039  38.301  1.00  0.00     0.000 C 
BRANCH  11  12
ATOM     12  C   UNL     1      17.497  49.379  38.572  1.00  0.00    -0.000 C 
BRANCH  12  13
ATOM     13  C   UNL     1      17.333  50.865  38.925  1.00  0.00    -0.000 C 
BRANCH  13  14
ATOM     14  C   UNL     1      17.201  51.758  37.680  1.00  0.00    -0.000 C 
BRANCH  14  15
ATOM     15  C   UNL     1      16.342  51.118  36.579  1.00  0.00    -0.000 C 
BRANCH  15  16
ATOM     16  C   UNL     1      16.956  51.358  35.195  1.00  0.00    -0.000 C 
BRANCH  16  17
ATOM     17  C   UNL     1      18.488  51.367  35.266  1.00  0.00    -0.003 C 
ATOM     18  C   UNL     1      19.077  50.114  34.625  1.00  0.00     0.004 C 
ENDBRANCH  16  17
ENDBRANCH  15  16
ENDBRANCH  14  15
ENDBRANCH  13  14
ENDBRANCH  12  13
ENDBRANCH  11  12
ENDBRANCH   1  11
TORSDOF 14
ENDMDL
