MODEL 1
REMARK VINA RESULT:     9.588      0.000      0.000
REMARK INTER + INTRA:          17.187
REMARK INTER:                  14.072
REMARK INTRA:                   3.115
REMARK UNBOUND:                 3.115
REMARK SMILES O=c1c(O[C@H]2O[C@@H](CO)[C@@H](O)[C@@H](O)[C@@H]2O)c(-c2ccc(O)c(O)c2)oc2cc(O)cc(O)c12
REMARK SMILES IDX 4 1 3 2 16 3 25 4 2 5 26 6 1 7 33 8 27 9 31 10 28 11 30 12
REMARK SMILES IDX 17 13 18 14 19 15 20 16 24 17 22 18 21 19 23 21 32 23 29 25
REMARK SMILES IDX 5 27 14 28 6 29 12 30 7 31 10 32 15 33 13 35 8 37 9 38 11 40
REMARK H PARENT 21 20 23 22 32 24 29 26 15 34 13 36 9 39 11 41
REMARK Flexibility Score: inf
ROOT
ATOM      1  O   UNL     1      12.076   9.874  29.270  1.00  0.00    -0.454 OA
ENDROOT
BRANCH   1   2
ATOM      2  C   UNL     1      12.632  10.507  28.138  1.00  0.00     0.214 A 
ATOM      3  C   UNL     1      13.439   9.739  27.283  1.00  0.00     0.180 A 
ATOM      4  O   UNL     1      13.963  10.275  26.189  1.00  0.00    -0.452 OA
ATOM      5  C   UNL     1      12.414  11.862  27.798  1.00  0.00     0.239 A 
ATOM      6  C   UNL     1      13.734  11.524  25.807  1.00  0.00     0.146 A 
ATOM      7  O   UNL     1      11.782  12.617  28.572  1.00  0.00    -0.285 OA
ATOM      8  C   UNL     1      12.912  12.370  26.589  1.00  0.00     0.111 A 
ATOM      9  C   UNL     1      14.324  12.000  24.629  1.00  0.00     0.094 A 
ATOM     10  C   UNL     1      12.631  13.672  26.117  1.00  0.00     0.134 A 
ATOM     11  C   UNL     1      14.030  13.287  24.169  1.00  0.00     0.123 A 
ATOM     12  C   UNL     1      13.155  14.101  24.888  1.00  0.00     0.093 A 
BRANCH   3  13
ATOM     13  C   UNL     1      13.726   8.324  27.570  1.00  0.00     0.025 A 
ATOM     14  C   UNL     1      14.069   7.442  26.531  1.00  0.00     0.016 A 
ATOM     15  C   UNL     1      14.322   6.095  26.808  1.00  0.00     0.051 A 
ATOM     16  C   UNL     1      14.218   5.612  28.124  1.00  0.00     0.157 A 
ATOM     17  C   UNL     1      13.614   7.837  28.886  1.00  0.00     0.062 A 
ATOM     18  C   UNL     1      13.863   6.490  29.171  1.00  0.00     0.158 A 
BRANCH  16  19
ATOM     19  O   UNL     1      14.456   4.263  28.393  1.00  0.00    -0.504 OA
ATOM     20  H   UNL     1      15.394   3.894  28.486  1.00  0.00     0.293 HD
ENDBRANCH  16  19
BRANCH  18  21
ATOM     21  O   UNL     1      13.738   6.040  30.486  1.00  0.00    -0.504 OA
ATOM     22  H   UNL     1      12.885   6.168  31.010  1.00  0.00     0.293 HD
ENDBRANCH  18  21
ENDBRANCH   3  13
BRANCH  10  23
ATOM     23  O   UNL     1      11.845  14.549  26.861  1.00  0.00    -0.507 OA
ATOM     24  H   UNL     1      12.056  15.545  26.908  1.00  0.00     0.293 HD
ENDBRANCH  10  23
BRANCH  11  25
ATOM     25  O   UNL     1      14.645  13.784  23.020  1.00  0.00    -0.508 OA
ATOM     26  H   UNL     1      15.396  13.271  22.577  1.00  0.00     0.293 HD
ENDBRANCH  11  25
ENDBRANCH   1   2
BRANCH   1  27
ATOM     27  C   UNL     1      11.124   8.803  29.303  1.00  0.00     0.339 C 
ATOM     28  C   UNL     1      10.175   8.912  28.095  1.00  0.00     0.214 C 
ATOM     29  O   UNL     1      10.414   8.743  30.534  1.00  0.00    -0.332 OA
ATOM     30  C   UNL     1       9.267  10.132  28.229  1.00  0.00     0.180 C 
ATOM     31  C   UNL     1       9.525   9.842  30.769  1.00  0.00     0.179 C 
ATOM     32  C   UNL     1       8.546  10.090  29.591  1.00  0.00     0.177 C 
BRANCH  28  33
ATOM     33  O   UNL     1       9.391   7.744  28.022  1.00  0.00    -0.384 OA
ATOM     34  H   UNL     1       9.990   6.979  28.177  1.00  0.00     0.211 HD
ENDBRANCH  28  33
BRANCH  30  35
ATOM     35  O   UNL     1      10.032  11.296  28.071  1.00  0.00    -0.387 OA
ATOM     36  H   UNL     1       9.626  11.997  28.647  1.00  0.00     0.211 HD
ENDBRANCH  30  35
BRANCH  31  37
ATOM     37  C   UNL     1      10.285  11.095  31.272  1.00  0.00     0.191 C 
BRANCH  37  38
ATOM     38  O   UNL     1      11.575  10.776  31.749  1.00  0.00    -0.394 OA
ATOM     39  H   UNL     1      11.715  11.294  32.580  1.00  0.00     0.210 HD
ENDBRANCH  37  38
ENDBRANCH  31  37
BRANCH  32  40
ATOM     40  O   UNL     1       7.797  11.265  29.784  1.00  0.00    -0.387 OA
ATOM     41  H   UNL     1       8.201  11.968  29.210  1.00  0.00     0.211 HD
ENDBRANCH  32  40
ENDBRANCH   1  27
TORSDOF 12
ENDMDL
MODEL 2
REMARK VINA RESULT:    11.160      1.417      5.774
REMARK INTER + INTRA:          19.494
REMARK INTER:                  14.955
REMARK INTRA:                   4.539
REMARK UNBOUND:                 3.115
REMARK SMILES O=c1c(O[C@H]2O[C@@H](CO)[C@@H](O)[C@@H](O)[C@@H]2O)c(-c2ccc(O)c(O)c2)oc2cc(O)cc(O)c12
REMARK SMILES IDX 4 1 3 2 16 3 25 4 2 5 26 6 1 7 33 8 27 9 31 10 28 11 30 12
REMARK SMILES IDX 17 13 18 14 19 15 20 16 24 17 22 18 21 19 23 21 32 23 29 25
REMARK SMILES IDX 5 27 14 28 6 29 12 30 7 31 10 32 15 33 13 35 8 37 9 38 11 40
REMARK H PARENT 21 20 23 22 32 24 29 26 15 34 13 36 9 39 11 41
REMARK Flexibility Score: inf
ROOT
ATOM      1  O   UNL     1      12.275   9.608  30.086  1.00  0.00    -0.454 OA
ENDROOT
BRANCH   1   2
ATOM      2  C   UNL     1      12.758   8.630  29.191  1.00  0.00     0.214 A 
ATOM      3  C   UNL     1      13.079   9.033  27.884  1.00  0.00     0.180 A 
ATOM      4  O   UNL     1      13.565   8.163  27.010  1.00  0.00    -0.452 OA
ATOM      5  C   UNL     1      12.957   7.272  29.529  1.00  0.00     0.239 A 
ATOM      6  C   UNL     1      13.819   6.895  27.308  1.00  0.00     0.146 A 
ATOM      7  O   UNL     1      12.600   6.838  30.648  1.00  0.00    -0.285 OA
ATOM      8  C   UNL     1      13.553   6.400  28.606  1.00  0.00     0.111 A 
ATOM      9  C   UNL     1      14.342   6.051  26.319  1.00  0.00     0.094 A 
ATOM     10  C   UNL     1      13.903   5.064  28.910  1.00  0.00     0.134 A 
ATOM     11  C   UNL     1      14.691   4.735  26.636  1.00  0.00     0.123 A 
ATOM     12  C   UNL     1      14.511   4.260  27.935  1.00  0.00     0.093 A 
BRANCH   3  13
ATOM     13  C   UNL     1      12.891  10.426  27.446  1.00  0.00     0.025 A 
ATOM     14  C   UNL     1      11.779  11.166  27.882  1.00  0.00     0.016 A 
ATOM     15  C   UNL     1      11.597  12.483  27.447  1.00  0.00     0.051 A 
ATOM     16  C   UNL     1      12.516  13.068  26.558  1.00  0.00     0.157 A 
ATOM     17  C   UNL     1      13.806  11.011  26.549  1.00  0.00     0.062 A 
ATOM     18  C   UNL     1      13.629  12.326  26.107  1.00  0.00     0.158 A 
BRANCH  16  19
ATOM     19  O   UNL     1      12.321  14.377  26.115  1.00  0.00    -0.504 OA
ATOM     20  H   UNL     1      12.922  15.136  26.410  1.00  0.00     0.293 HD
ENDBRANCH  16  19
BRANCH  18  21
ATOM     21  O   UNL     1      14.553  12.872  25.214  1.00  0.00    -0.504 OA
ATOM     22  H   UNL     1      15.134  12.287  24.631  1.00  0.00     0.293 HD
ENDBRANCH  18  21
ENDBRANCH   3  13
BRANCH  10  23
ATOM     23  O   UNL     1      13.641   4.525  30.167  1.00  0.00    -0.507 OA
ATOM     24  H   UNL     1      13.595   3.518  30.316  1.00  0.00     0.293 HD
ENDBRANCH  10  23
BRANCH  11  25
ATOM     25  O   UNL     1      15.172   3.875  25.649  1.00  0.00    -0.508 OA
ATOM     26  H   UNL     1      15.006   2.879  25.709  1.00  0.00     0.293 HD
ENDBRANCH  11  25
ENDBRANCH   1   2
BRANCH   1  27
ATOM     27  C   UNL     1      11.338   9.439  31.157  1.00  0.00     0.339 C 
ATOM     28  C   UNL     1      10.078   8.720  30.638  1.00  0.00     0.214 C 
ATOM     29  O   UNL     1      11.022  10.665  31.805  1.00  0.00    -0.332 OA
ATOM     30  C   UNL     1       9.294   9.621  29.686  1.00  0.00     0.180 C 
ATOM     31  C   UNL     1      10.283  11.594  31.003  1.00  0.00     0.179 C 
ATOM     32  C   UNL     1       9.008  10.970  30.375  1.00  0.00     0.177 C 
BRANCH  28  33
ATOM     33  O   UNL     1       9.266   8.370  31.734  1.00  0.00    -0.384 OA
ATOM     34  H   UNL     1       9.158   7.391  31.717  1.00  0.00     0.211 HD
ENDBRANCH  28  33
BRANCH  30  35
ATOM     35  O   UNL     1      10.020   9.778  28.496  1.00  0.00    -0.387 OA
ATOM     36  H   UNL     1       9.366   9.768  27.748  1.00  0.00     0.211 HD
ENDBRANCH  30  35
BRANCH  31  37
ATOM     37  C   UNL     1      11.201  12.357  30.015  1.00  0.00     0.191 C 
BRANCH  37  38
ATOM     38  O   UNL     1      12.496  12.554  30.543  1.00  0.00    -0.394 OA
ATOM     39  H   UNL     1      12.697  11.775  31.119  1.00  0.00     0.210 HD
ENDBRANCH  37  38
ENDBRANCH  31  37
BRANCH  32  40
ATOM     40  O   UNL     1       8.392  11.858  29.473  1.00  0.00    -0.387 OA
ATOM     41  H   UNL     1       8.777  11.677  28.575  1.00  0.00     0.211 HD
ENDBRANCH  32  40
ENDBRANCH   1  27
TORSDOF 12
ENDMDL
MODEL 3
REMARK VINA RESULT:    12.185      1.053      2.438
REMARK INTER + INTRA:          21.000
REMARK INTER:                  19.466
REMARK INTRA:                   1.534
REMARK UNBOUND:                 3.115
REMARK SMILES O=c1c(O[C@H]2O[C@@H](CO)[C@@H](O)[C@@H](O)[C@@H]2O)c(-c2ccc(O)c(O)c2)oc2cc(O)cc(O)c12
REMARK SMILES IDX 4 1 3 2 16 3 25 4 2 5 26 6 1 7 33 8 27 9 31 10 28 11 30 12
REMARK SMILES IDX 17 13 18 14 19 15 20 16 24 17 22 18 21 19 23 21 32 23 29 25
REMARK SMILES IDX 5 27 14 28 6 29 12 30 7 31 10 32 15 33 13 35 8 37 9 38 11 40
REMARK H PARENT 21 20 23 22 32 24 29 26 15 34 13 36 9 39 11 41
REMARK Flexibility Score: inf
ROOT
ATOM      1  O   UNL     1      11.657  10.305  29.292  1.00  0.00    -0.454 OA
ENDROOT
BRANCH   1   2
ATOM      2  C   UNL     1      12.339  10.919  28.220  1.00  0.00     0.214 A 
ATOM      3  C   UNL     1      13.290  10.157  27.522  1.00  0.00     0.180 A 
ATOM      4  O   UNL     1      13.940  10.673  26.487  1.00  0.00    -0.452 OA
ATOM      5  C   UNL     1      12.116  12.248  27.792  1.00  0.00     0.239 A 
ATOM      6  C   UNL     1      13.715  11.895  26.021  1.00  0.00     0.146 A 
ATOM      7  O   UNL     1      11.350  13.001  28.435  1.00  0.00    -0.285 OA
ATOM      8  C   UNL     1      12.758  12.731  26.642  1.00  0.00     0.111 A 
ATOM      9  C   UNL     1      14.445  12.351  24.916  1.00  0.00     0.094 A 
ATOM     10  C   UNL     1      12.492  13.999  26.076  1.00  0.00     0.134 A 
ATOM     11  C   UNL     1      14.166  13.604  24.361  1.00  0.00     0.123 A 
ATOM     12  C   UNL     1      13.166  14.403  24.914  1.00  0.00     0.093 A 
BRANCH   3  13
ATOM     13  C   UNL     1      13.592   8.769  27.909  1.00  0.00     0.025 A 
ATOM     14  C   UNL     1      13.632   8.401  29.264  1.00  0.00     0.016 A 
ATOM     15  C   UNL     1      13.938   7.085  29.626  1.00  0.00     0.051 A 
ATOM     16  C   UNL     1      14.224   6.128  28.638  1.00  0.00     0.157 A 
ATOM     17  C   UNL     1      13.888   7.812  26.920  1.00  0.00     0.062 A 
ATOM     18  C   UNL     1      14.198   6.494  27.274  1.00  0.00     0.158 A 
BRANCH  16  19
ATOM     19  O   UNL     1      14.544   4.820  29.004  1.00  0.00    -0.504 OA
ATOM     20  H   UNL     1      14.740   4.566  29.964  1.00  0.00     0.293 HD
ENDBRANCH  16  19
BRANCH  18  21
ATOM     21  O   UNL     1      14.491   5.572  26.268  1.00  0.00    -0.504 OA
ATOM     22  H   UNL     1      14.419   4.577  26.426  1.00  0.00     0.293 HD
ENDBRANCH  18  21
ENDBRANCH   3  13
BRANCH  10  23
ATOM     23  O   UNL     1      11.574  14.866  26.663  1.00  0.00    -0.507 OA
ATOM     24  H   UNL     1      10.739  15.175  26.167  1.00  0.00     0.293 HD
ENDBRANCH  10  23
BRANCH  11  25
ATOM     25  O   UNL     1      14.915  14.083  23.287  1.00  0.00    -0.508 OA
ATOM     26  H   UNL     1      15.885  14.343  23.413  1.00  0.00     0.293 HD
ENDBRANCH  11  25
ENDBRANCH   1   2
BRANCH   1  27
ATOM     27  C   UNL     1      10.328  10.571  29.760  1.00  0.00     0.339 C 
ATOM     28  C   UNL     1       9.868   9.437  30.695  1.00  0.00     0.214 C 
ATOM     29  O   UNL     1       9.409  10.789  28.696  1.00  0.00    -0.332 OA
ATOM     30  C   UNL     1       9.663   8.141  29.914  1.00  0.00     0.180 C 
ATOM     31  C   UNL     1       9.138   9.635  27.891  1.00  0.00     0.179 C 
ATOM     32  C   UNL     1       8.713   8.400  28.729  1.00  0.00     0.177 C 
BRANCH  28  33
ATOM     33  O   UNL     1       8.660   9.814  31.312  1.00  0.00    -0.384 OA
ATOM     34  H   UNL     1       8.863  10.557  31.925  1.00  0.00     0.211 HD
ENDBRANCH  28  33
BRANCH  30  35
ATOM     35  O   UNL     1      10.909   7.652  29.497  1.00  0.00    -0.387 OA
ATOM     36  H   UNL     1      10.741   6.999  28.766  1.00  0.00     0.211 HD
ENDBRANCH  30  35
BRANCH  31  37
ATOM     37  C   UNL     1      10.265   9.379  26.859  1.00  0.00     0.191 C 
BRANCH  37  38
ATOM     38  O   UNL     1      10.518   8.001  26.684  1.00  0.00    -0.394 OA
ATOM     39  H   UNL     1      11.002   7.689  27.490  1.00  0.00     0.210 HD
ENDBRANCH  37  38
ENDBRANCH  31  37
BRANCH  32  40
ATOM     40  O   UNL     1       8.606   7.248  27.928  1.00  0.00    -0.387 OA
ATOM     41  H   UNL     1       7.755   7.322  27.421  1.00  0.00     0.211 HD
ENDBRANCH  32  40
ENDBRANCH   1  27
TORSDOF 12
ENDMDL
