MODEL 1
REMARK VINA RESULT:    -4.501      0.000      0.000
REMARK INTER + INTRA:          -8.415
REMARK INTER:                  -7.658
REMARK INTRA:                  -0.757
REMARK UNBOUND:                -0.757
REMARK SMILES CCCCCCCCCCCCCC(=O)[O-]
REMARK SMILES IDX 8 1 9 2 10 3 11 4 12 5 13 6 14 7 15 8 16 9 7 10 6 11 5 12
REMARK SMILES IDX 4 13 3 14 2 15 1 16
REMARK H PARENT
REMARK Flexibility Score: inf
ROOT
ATOM      1  C   UNL     1      44.811  25.813   3.358  1.00  0.00     0.000 C 
ENDROOT
BRANCH   1   2
ATOM      2  C   UNL     1      44.801  26.623   2.052  1.00  0.00     0.000 C 
BRANCH   2   3
ATOM      3  C   UNL     1      44.044  27.954   2.184  1.00  0.00     0.000 C 
BRANCH   3   4
ATOM      4  C   UNL     1      42.637  27.845   1.583  1.00  0.00     0.000 C 
BRANCH   4   5
ATOM      5  C   UNL     1      42.647  26.988   0.311  1.00  0.00     0.006 C 
BRANCH   5   6
ATOM      6  C   UNL     1      43.279  27.749  -0.859  1.00  0.00     0.053 C 
BRANCH   6   7
ATOM      7  C   UNL     1      44.213  26.860  -1.617  1.00  0.00     0.041 C 
ATOM      8  O   UNL     1      43.854  25.698  -1.947  1.00  0.00    -0.550 OA
ATOM      9  O   UNL     1      45.497  27.295  -1.917  1.00  0.00    -0.550 OA
ENDBRANCH   6   7
ENDBRANCH   5   6
ENDBRANCH   4   5
ENDBRANCH   3   4
ENDBRANCH   2   3
ENDBRANCH   1   2
BRANCH   1  10
ATOM     10  C   UNL     1      46.220  25.334   3.745  1.00  0.00     0.000 C 
BRANCH  10  11
ATOM     11  C   UNL     1      46.799  26.086   4.959  1.00  0.00    -0.000 C 
BRANCH  11  12
ATOM     12  C   UNL     1      46.194  27.477   5.224  1.00  0.00    -0.000 C 
BRANCH  12  13
ATOM     13  C   UNL     1      45.816  27.698   6.699  1.00  0.00    -0.000 C 
BRANCH  13  14
ATOM     14  C   UNL     1      45.781  26.390   7.511  1.00  0.00    -0.000 C 
BRANCH  14  15
ATOM     15  C   UNL     1      45.269  26.533   8.956  1.00  0.00    -0.003 C 
ATOM     16  C   UNL     1      46.300  26.115  10.002  1.00  0.00     0.004 C 
ENDBRANCH  14  15
ENDBRANCH  13  14
ENDBRANCH  12  13
ENDBRANCH  11  12
ENDBRANCH  10  11
ENDBRANCH   1  10
TORSDOF 12
ENDMDL
MODEL 2
REMARK VINA RESULT:    -4.477      0.748      1.729
REMARK INTER + INTRA:          -8.375
REMARK INTER:                  -7.452
REMARK INTRA:                  -0.922
REMARK UNBOUND:                -0.757
REMARK SMILES CCCCCCCCCCCCCC(=O)[O-]
REMARK SMILES IDX 8 1 9 2 10 3 11 4 12 5 13 6 14 7 15 8 16 9 7 10 6 11 5 12
REMARK SMILES IDX 4 13 3 14 2 15 1 16
REMARK H PARENT
REMARK Flexibility Score: inf
ROOT
ATOM      1  C   UNL     1      44.612  26.589   2.027  1.00  0.00     0.000 C 
ENDROOT
BRANCH   1   2
ATOM      2  C   UNL     1      43.451  27.582   2.198  1.00  0.00     0.000 C 
BRANCH   2   3
ATOM      3  C   UNL     1      42.482  27.573   1.005  1.00  0.00     0.000 C 
BRANCH   3   4
ATOM      4  C   UNL     1      42.593  28.873   0.200  1.00  0.00     0.000 C 
BRANCH   4   5
ATOM      5  C   UNL     1      42.913  28.583  -1.272  1.00  0.00     0.006 C 
BRANCH   5   6
ATOM      6  C   UNL     1      44.426  28.492  -1.497  1.00  0.00     0.053 C 
BRANCH   6   7
ATOM      7  C   UNL     1      44.807  27.116  -1.942  1.00  0.00     0.041 C 
ATOM      8  O   UNL     1      45.825  26.942  -2.663  1.00  0.00    -0.550 OA
ATOM      9  O   UNL     1      44.009  26.030  -1.604  1.00  0.00    -0.550 OA
ENDBRANCH   6   7
ENDBRANCH   5   6
ENDBRANCH   4   5
ENDBRANCH   3   4
ENDBRANCH   2   3
ENDBRANCH   1   2
BRANCH   1  10
ATOM     10  C   UNL     1      44.849  25.736   3.284  1.00  0.00     0.000 C 
BRANCH  10  11
ATOM     11  C   UNL     1      46.339  25.426   3.528  1.00  0.00    -0.000 C 
BRANCH  11  12
ATOM     12  C   UNL     1      46.920  25.976   4.843  1.00  0.00    -0.000 C 
BRANCH  12  13
ATOM     13  C   UNL     1      46.421  27.392   5.176  1.00  0.00    -0.000 C 
BRANCH  13  14
ATOM     14  C   UNL     1      46.050  27.565   6.660  1.00  0.00    -0.000 C 
BRANCH  14  15
ATOM     15  C   UNL     1      45.690  26.262   7.398  1.00  0.00    -0.003 C 
ATOM     16  C   UNL     1      45.303  26.487   8.858  1.00  0.00     0.004 C 
ENDBRANCH  14  15
ENDBRANCH  13  14
ENDBRANCH  12  13
ENDBRANCH  11  12
ENDBRANCH  10  11
ENDBRANCH   1  10
TORSDOF 12
ENDMDL
MODEL 3
REMARK VINA RESULT:    -4.347      0.878      1.909
REMARK INTER + INTRA:          -8.153
REMARK INTER:                  -7.446
REMARK INTRA:                  -0.707
REMARK UNBOUND:                -0.757
REMARK SMILES CCCCCCCCCCCCCC(=O)[O-]
REMARK SMILES IDX 8 1 9 2 10 3 11 4 12 5 13 6 14 7 15 8 16 9 7 10 6 11 5 12
REMARK SMILES IDX 4 13 3 14 2 15 1 16
REMARK H PARENT
REMARK Flexibility Score: inf
ROOT
ATOM      1  C   UNL     1      43.730  26.791   1.441  1.00  0.00     0.000 C 
ENDROOT
BRANCH   1   2
ATOM      2  C   UNL     1      42.392  27.548   1.481  1.00  0.00     0.000 C 
BRANCH   2   3
ATOM      3  C   UNL     1      42.486  28.951   0.860  1.00  0.00     0.000 C 
BRANCH   3   4
ATOM      4  C   UNL     1      43.433  28.953  -0.347  1.00  0.00     0.000 C 
BRANCH   4   5
ATOM      5  C   UNL     1      42.671  28.651  -1.644  1.00  0.00     0.006 C 
BRANCH   5   6
ATOM      6  C   UNL     1      43.606  28.064  -2.705  1.00  0.00     0.053 C 
BRANCH   6   7
ATOM      7  C   UNL     1      44.417  26.947  -2.127  1.00  0.00     0.041 C 
ATOM      8  O   UNL     1      43.862  25.865  -1.800  1.00  0.00    -0.550 OA
ATOM      9  O   UNL     1      45.777  27.119  -1.903  1.00  0.00    -0.550 OA
ENDBRANCH   6   7
ENDBRANCH   5   6
ENDBRANCH   4   5
ENDBRANCH   3   4
ENDBRANCH   2   3
ENDBRANCH   1   2
BRANCH   1  10
ATOM     10  C   UNL     1      44.603  27.070   2.676  1.00  0.00     0.000 C 
BRANCH  10  11
ATOM     11  C   UNL     1      45.030  25.786   3.413  1.00  0.00    -0.000 C 
BRANCH  11  12
ATOM     12  C   UNL     1      46.050  25.985   4.549  1.00  0.00    -0.000 C 
BRANCH  12  13
ATOM     13  C   UNL     1      45.999  27.394   5.164  1.00  0.00    -0.000 C 
BRANCH  13  14
ATOM     14  C   UNL     1      46.295  27.401   6.675  1.00  0.00    -0.000 C 
BRANCH  14  15
ATOM     15  C   UNL     1      45.627  26.269   7.475  1.00  0.00    -0.003 C 
ATOM     16  C   UNL     1      45.413  26.620   8.946  1.00  0.00     0.004 C 
ENDBRANCH  14  15
ENDBRANCH  13  14
ENDBRANCH  12  13
ENDBRANCH  11  12
ENDBRANCH  10  11
ENDBRANCH   1  10
TORSDOF 12
ENDMDL
MODEL 4
REMARK VINA RESULT:    -4.106      3.193      4.718
REMARK INTER + INTRA:          -7.743
REMARK INTER:                  -5.794
REMARK INTRA:                  -1.949
REMARK UNBOUND:                -0.757
REMARK SMILES CCCCCCCCCCCCCC(=O)[O-]
REMARK SMILES IDX 8 1 9 2 10 3 11 4 12 5 13 6 14 7 15 8 16 9 7 10 6 11 5 12
REMARK SMILES IDX 4 13 3 14 2 15 1 16
REMARK H PARENT
REMARK Flexibility Score: inf
ROOT
ATOM      1  C   UNL     1      42.473  27.683  -0.058  1.00  0.00     0.000 C 
ENDROOT
BRANCH   1   2
ATOM      2  C   UNL     1      43.640  26.738  -0.387  1.00  0.00     0.000 C 
BRANCH   2   3
ATOM      3  C   UNL     1      44.724  27.410  -1.243  1.00  0.00     0.000 C 
BRANCH   3   4
ATOM      4  C   UNL     1      44.291  28.820  -1.667  1.00  0.00     0.000 C 
BRANCH   4   5
ATOM      5  C   UNL     1      44.331  28.973  -3.193  1.00  0.00     0.006 C 
BRANCH   5   6
ATOM      6  C   UNL     1      42.916  29.082  -3.770  1.00  0.00     0.053 C 
BRANCH   6   7
ATOM      7  C   UNL     1      42.634  27.931  -4.683  1.00  0.00     0.041 C 
ATOM      8  O   UNL     1      41.722  28.017  -5.548  1.00  0.00    -0.550 OA
ATOM      9  O   UNL     1      43.344  26.745  -4.545  1.00  0.00    -0.550 OA
ENDBRANCH   6   7
ENDBRANCH   5   6
ENDBRANCH   4   5
ENDBRANCH   3   4
ENDBRANCH   2   3
ENDBRANCH   1   2
BRANCH   1  10
ATOM     10  C   UNL     1      42.302  27.907   1.454  1.00  0.00     0.000 C 
BRANCH  10  11
ATOM     11  C   UNL     1      42.656  29.341   1.894  1.00  0.00    -0.000 C 
BRANCH  11  12
ATOM     12  C   UNL     1      44.161  29.654   1.975  1.00  0.00    -0.000 C 
BRANCH  12  13
ATOM     13  C   UNL     1      44.928  28.689   2.894  1.00  0.00    -0.000 C 
BRANCH  13  14
ATOM     14  C   UNL     1      46.088  27.973   2.178  1.00  0.00    -0.000 C 
BRANCH  14  15
ATOM     15  C   UNL     1      46.115  26.443   2.349  1.00  0.00    -0.003 C 
ATOM     16  C   UNL     1      44.930  25.909   3.151  1.00  0.00     0.004 C 
ENDBRANCH  14  15
ENDBRANCH  13  14
ENDBRANCH  12  13
ENDBRANCH  11  12
ENDBRANCH  10  11
ENDBRANCH   1  10
TORSDOF 12
ENDMDL
MODEL 5
REMARK VINA RESULT:    -4.103      2.778      5.050
REMARK INTER + INTRA:          -7.738
REMARK INTER:                  -6.949
REMARK INTRA:                  -0.789
REMARK UNBOUND:                -0.757
REMARK SMILES CCCCCCCCCCCCCC(=O)[O-]
REMARK SMILES IDX 8 1 9 2 10 3 11 4 12 5 13 6 14 7 15 8 16 9 7 10 6 11 5 12
REMARK SMILES IDX 4 13 3 14 2 15 1 16
REMARK H PARENT
REMARK Flexibility Score: inf
ROOT
ATOM      1  C   UNL     1      43.666  26.966  -0.576  1.00  0.00     0.000 C 
ENDROOT
BRANCH   1   2
ATOM      2  C   UNL     1      43.688  27.383  -2.055  1.00  0.00     0.000 C 
BRANCH   2   3
ATOM      3  C   UNL     1      45.108  27.415  -2.641  1.00  0.00     0.000 C 
BRANCH   3   4
ATOM      4  C   UNL     1      45.091  27.080  -4.138  1.00  0.00     0.000 C 
BRANCH   4   5
ATOM      5  C   UNL     1      43.679  26.699  -4.600  1.00  0.00     0.006 C 
BRANCH   5   6
ATOM      6  C   UNL     1      43.324  27.400  -5.915  1.00  0.00     0.053 C 
BRANCH   6   7
ATOM      7  C   UNL     1      42.317  28.480  -5.677  1.00  0.00     0.041 C 
ATOM      8  O   UNL     1      42.357  29.162  -4.619  1.00  0.00    -0.550 OA
ATOM      9  O   UNL     1      41.303  28.701  -6.600  1.00  0.00    -0.550 OA
ENDBRANCH   6   7
ENDBRANCH   5   6
ENDBRANCH   4   5
ENDBRANCH   3   4
ENDBRANCH   2   3
ENDBRANCH   1   2
BRANCH   1  10
ATOM     10  C   UNL     1      42.482  27.578   0.192  1.00  0.00     0.000 C 
BRANCH  10  11
ATOM     11  C   UNL     1      42.730  27.665   1.710  1.00  0.00    -0.000 C 
BRANCH  11  12
ATOM     12  C   UNL     1      43.962  28.488   2.131  1.00  0.00    -0.000 C 
BRANCH  12  13
ATOM     13  C   UNL     1      44.999  27.662   2.910  1.00  0.00    -0.000 C 
BRANCH  13  14
ATOM     14  C   UNL     1      44.742  26.146   2.830  1.00  0.00    -0.000 C 
BRANCH  14  15
ATOM     15  C   UNL     1      45.718  25.275   3.642  1.00  0.00    -0.003 C 
ATOM     16  C   UNL     1      46.201  25.951   4.923  1.00  0.00     0.004 C 
ENDBRANCH  14  15
ENDBRANCH  13  14
ENDBRANCH  12  13
ENDBRANCH  11  12
ENDBRANCH  10  11
ENDBRANCH   1  10
TORSDOF 12
ENDMDL
MODEL 6
REMARK VINA RESULT:    -4.040      2.286      3.812
REMARK INTER + INTRA:          -7.632
REMARK INTER:                  -7.123
REMARK INTRA:                  -0.509
REMARK UNBOUND:                -0.757
REMARK SMILES CCCCCCCCCCCCCC(=O)[O-]
REMARK SMILES IDX 8 1 9 2 10 3 11 4 12 5 13 6 14 7 15 8 16 9 7 10 6 11 5 12
REMARK SMILES IDX 4 13 3 14 2 15 1 16
REMARK H PARENT
REMARK Flexibility Score: inf
ROOT
ATOM      1  C   UNL     1      42.680  27.159   0.353  1.00  0.00     0.000 C 
ENDROOT
BRANCH   1   2
ATOM      2  C   UNL     1      43.431  27.849  -0.796  1.00  0.00     0.000 C 
BRANCH   2   3
ATOM      3  C   UNL     1      44.027  26.850  -1.800  1.00  0.00     0.000 C 
BRANCH   3   4
ATOM      4  C   UNL     1      45.209  27.472  -2.555  1.00  0.00     0.000 C 
BRANCH   4   5
ATOM      5  C   UNL     1      44.982  27.417  -4.072  1.00  0.00     0.006 C 
BRANCH   5   6
ATOM      6  C   UNL     1      43.691  26.664  -4.407  1.00  0.00     0.053 C 
BRANCH   6   7
ATOM      7  C   UNL     1      42.840  27.473  -5.333  1.00  0.00     0.041 C 
ATOM      8  O   UNL     1      41.803  28.046  -4.904  1.00  0.00    -0.550 OA
ATOM      9  O   UNL     1      43.163  27.555  -6.681  1.00  0.00    -0.550 OA
ENDBRANCH   6   7
ENDBRANCH   5   6
ENDBRANCH   4   5
ENDBRANCH   3   4
ENDBRANCH   2   3
ENDBRANCH   1   2
BRANCH   1  10
ATOM     10  C   UNL     1      43.276  27.489   1.732  1.00  0.00     0.000 C 
BRANCH  10  11
ATOM     11  C   UNL     1      44.233  26.400   2.251  1.00  0.00    -0.000 C 
BRANCH  11  12
ATOM     12  C   UNL     1      45.315  26.885   3.233  1.00  0.00    -0.000 C 
BRANCH  12  13
ATOM     13  C   UNL     1      45.551  25.909   4.398  1.00  0.00    -0.000 C 
BRANCH  13  14
ATOM     14  C   UNL     1      46.441  26.502   5.506  1.00  0.00    -0.000 C 
BRANCH  14  15
ATOM     15  C   UNL     1      45.860  26.410   6.928  1.00  0.00    -0.003 C 
ATOM     16  C   UNL     1      45.598  27.777   7.559  1.00  0.00     0.004 C 
ENDBRANCH  14  15
ENDBRANCH  13  14
ENDBRANCH  12  13
ENDBRANCH  11  12
ENDBRANCH  10  11
ENDBRANCH   1  10
TORSDOF 12
ENDMDL
MODEL 7
REMARK VINA RESULT:    -4.038      2.018      3.171
REMARK INTER + INTRA:          -7.628
REMARK INTER:                  -7.020
REMARK INTRA:                  -0.608
REMARK UNBOUND:                -0.757
REMARK SMILES CCCCCCCCCCCCCC(=O)[O-]
REMARK SMILES IDX 8 1 9 2 10 3 11 4 12 5 13 6 14 7 15 8 16 9 7 10 6 11 5 12
REMARK SMILES IDX 4 13 3 14 2 15 1 16
REMARK H PARENT
REMARK Flexibility Score: inf
ROOT
ATOM      1  C   UNL     1      42.919  27.549   1.935  1.00  0.00     0.000 C 
ENDROOT
BRANCH   1   2
ATOM      2  C   UNL     1      42.128  27.824   0.646  1.00  0.00     0.000 C 
BRANCH   2   3
ATOM      3  C   UNL     1      43.034  27.951  -0.589  1.00  0.00     0.000 C 
BRANCH   3   4
ATOM      4  C   UNL     1      42.818  29.299  -1.290  1.00  0.00     0.000 C 
BRANCH   4   5
ATOM      5  C   UNL     1      42.563  29.104  -2.790  1.00  0.00     0.006 C 
BRANCH   5   6
ATOM      6  C   UNL     1      43.369  27.920  -3.334  1.00  0.00     0.053 C 
BRANCH   6   7
ATOM      7  C   UNL     1      43.013  27.660  -4.764  1.00  0.00     0.041 C 
ATOM      8  O   UNL     1      43.895  27.275  -5.577  1.00  0.00    -0.550 OA
ATOM      9  O   UNL     1      41.718  27.890  -5.211  1.00  0.00    -0.550 OA
ENDBRANCH   6   7
ENDBRANCH   5   6
ENDBRANCH   4   5
ENDBRANCH   3   4
ENDBRANCH   2   3
ENDBRANCH   1   2
BRANCH   1  10
ATOM     10  C   UNL     1      44.250  26.827   1.669  1.00  0.00     0.000 C 
BRANCH  10  11
ATOM     11  C   UNL     1      45.242  26.943   2.842  1.00  0.00    -0.000 C 
BRANCH  11  12
ATOM     12  C   UNL     1      45.336  25.704   3.752  1.00  0.00    -0.000 C 
BRANCH  12  13
ATOM     13  C   UNL     1      46.283  25.906   4.948  1.00  0.00    -0.000 C 
BRANCH  13  14
ATOM     14  C   UNL     1      46.426  27.384   5.356  1.00  0.00    -0.000 C 
BRANCH  14  15
ATOM     15  C   UNL     1      45.958  27.715   6.784  1.00  0.00    -0.003 C 
ATOM     16  C   UNL     1      45.745  26.473   7.648  1.00  0.00     0.004 C 
ENDBRANCH  14  15
ENDBRANCH  13  14
ENDBRANCH  12  13
ENDBRANCH  11  12
ENDBRANCH  10  11
ENDBRANCH   1  10
TORSDOF 12
ENDMDL
MODEL 8
REMARK VINA RESULT:    -3.959      3.218      7.981
REMARK INTER + INTRA:          -7.493
REMARK INTER:                  -6.203
REMARK INTRA:                  -1.290
REMARK UNBOUND:                -0.757
REMARK SMILES CCCCCCCCCCCCCC(=O)[O-]
REMARK SMILES IDX 8 1 9 2 10 3 11 4 12 5 13 6 14 7 15 8 16 9 7 10 6 11 5 12
REMARK SMILES IDX 4 13 3 14 2 15 1 16
REMARK H PARENT
REMARK Flexibility Score: inf
ROOT
ATOM      1  C   UNL     1      43.001  26.749   0.013  1.00  0.00     0.000 C 
ENDROOT
BRANCH   1   2
ATOM      2  C   UNL     1      42.303  27.948   0.675  1.00  0.00     0.000 C 
BRANCH   2   3
ATOM      3  C   UNL     1      42.825  28.228   2.093  1.00  0.00     0.000 C 
BRANCH   3   4
ATOM      4  C   UNL     1      43.956  29.264   2.065  1.00  0.00     0.000 C 
BRANCH   4   5
ATOM      5  C   UNL     1      45.309  28.611   2.376  1.00  0.00     0.006 C 
BRANCH   5   6
ATOM      6  C   UNL     1      45.133  27.390   3.284  1.00  0.00     0.053 C 
BRANCH   6   7
ATOM      7  C   UNL     1      45.684  26.165   2.626  1.00  0.00     0.041 C 
ATOM      8  O   UNL     1      46.373  26.265   1.576  1.00  0.00    -0.550 OA
ATOM      9  O   UNL     1      45.397  24.909   3.144  1.00  0.00    -0.550 OA
ENDBRANCH   6   7
ENDBRANCH   5   6
ENDBRANCH   4   5
ENDBRANCH   3   4
ENDBRANCH   2   3
ENDBRANCH   1   2
BRANCH   1  10
ATOM     10  C   UNL     1      43.884  27.164  -1.176  1.00  0.00     0.000 C 
BRANCH  10  11
ATOM     11  C   UNL     1      43.679  28.633  -1.595  1.00  0.00    -0.000 C 
BRANCH  11  12
ATOM     12  C   UNL     1      42.522  28.883  -2.580  1.00  0.00    -0.000 C 
BRANCH  12  13
ATOM     13  C   UNL     1      43.003  29.165  -4.013  1.00  0.00    -0.000 C 
BRANCH  13  14
ATOM     14  C   UNL     1      42.639  28.041  -5.001  1.00  0.00    -0.000 C 
BRANCH  14  15
ATOM     15  C   UNL     1      43.448  26.742  -4.838  1.00  0.00    -0.003 C 
ATOM     16  C   UNL     1      44.955  26.955  -4.964  1.00  0.00     0.004 C 
ENDBRANCH  14  15
ENDBRANCH  13  14
ENDBRANCH  12  13
ENDBRANCH  11  12
ENDBRANCH  10  11
ENDBRANCH   1  10
TORSDOF 12
ENDMDL
MODEL 9
REMARK VINA RESULT:    -3.943      3.895      8.490
REMARK INTER + INTRA:          -7.466
REMARK INTER:                  -6.707
REMARK INTRA:                  -0.759
REMARK UNBOUND:                -0.757
REMARK SMILES CCCCCCCCCCCCCC(=O)[O-]
REMARK SMILES IDX 8 1 9 2 10 3 11 4 12 5 13 6 14 7 15 8 16 9 7 10 6 11 5 12
REMARK SMILES IDX 4 13 3 14 2 15 1 16
REMARK H PARENT
REMARK Flexibility Score: inf
ROOT
ATOM      1  C   UNL     1      44.261  28.160   1.880  1.00  0.00     0.000 C 
ENDROOT
BRANCH   1   2
ATOM      2  C   UNL     1      45.219  27.551   2.917  1.00  0.00     0.000 C 
BRANCH   2   3
ATOM      3  C   UNL     1      45.079  26.025   3.029  1.00  0.00     0.000 C 
BRANCH   3   4
ATOM      4  C   UNL     1      45.467  25.542   4.433  1.00  0.00     0.000 C 
BRANCH   4   5
ATOM      5  C   UNL     1      45.944  26.711   5.305  1.00  0.00     0.006 C 
BRANCH   5   6
ATOM      6  C   UNL     1      46.431  26.214   6.669  1.00  0.00     0.053 C 
BRANCH   6   7
ATOM      7  C   UNL     1      45.551  26.737   7.760  1.00  0.00     0.041 C 
ATOM      8  O   UNL     1      45.239  27.957   7.793  1.00  0.00    -0.550 OA
ATOM      9  O   UNL     1      45.116  25.888   8.770  1.00  0.00    -0.550 OA
ENDBRANCH   6   7
ENDBRANCH   5   6
ENDBRANCH   4   5
ENDBRANCH   3   4
ENDBRANCH   2   3
ENDBRANCH   1   2
BRANCH   1  10
ATOM     10  C   UNL     1      43.086  27.227   1.542  1.00  0.00     0.000 C 
BRANCH  10  11
ATOM     11  C   UNL     1      42.801  27.141   0.031  1.00  0.00    -0.000 C 
BRANCH  11  12
ATOM     12  C   UNL     1      43.639  28.083  -0.854  1.00  0.00    -0.000 C 
BRANCH  12  13
ATOM     13  C   UNL     1      44.648  27.335  -1.742  1.00  0.00    -0.000 C 
BRANCH  13  14
ATOM     14  C   UNL     1      44.118  27.076  -3.164  1.00  0.00    -0.000 C 
BRANCH  14  15
ATOM     15  C   UNL     1      43.061  28.079  -3.659  1.00  0.00    -0.003 C 
ATOM     16  C   UNL     1      42.553  27.770  -5.066  1.00  0.00     0.004 C 
ENDBRANCH  14  15
ENDBRANCH  13  14
ENDBRANCH  12  13
ENDBRANCH  11  12
ENDBRANCH  10  11
ENDBRANCH   1  10
TORSDOF 12
ENDMDL
