MODEL 1
REMARK VINA RESULT:    -4.963      0.000      0.000
REMARK INTER + INTRA:         -14.088
REMARK INTER:                 -10.766
REMARK INTRA:                  -3.322
REMARK UNBOUND:                -3.322
REMARK SMILES CCCCCCCCCCCCCCCCCCCCCC(=O)[O-]
REMARK SMILES IDX 12 1 11 2 10 3 9 4 8 5 7 6 6 7 5 8 4 9 3 10 2 11 1 12 13 13
REMARK SMILES IDX 14 14 15 15 16 16 17 17 18 18 19 19 20 20 21 21 22 22 23 23
REMARK SMILES IDX 24 24
REMARK H PARENT
REMARK Flexibility Score: inf
ROOT
ATOM      1  C   UNL     1      18.269 -34.128  20.435  1.00  0.00     0.000 C 
ENDROOT
BRANCH   1   2
ATOM      2  C   UNL     1      18.875 -32.778  20.847  1.00  0.00     0.000 C 
BRANCH   2   3
ATOM      3  C   UNL     1      17.808 -31.713  21.144  1.00  0.00     0.000 C 
BRANCH   3   4
ATOM      4  C   UNL     1      17.946 -31.116  22.556  1.00  0.00    -0.000 C 
BRANCH   4   5
ATOM      5  C   UNL     1      18.243 -32.184  23.621  1.00  0.00    -0.000 C 
BRANCH   5   6
ATOM      6  C   UNL     1      16.965 -32.755  24.256  1.00  0.00    -0.000 C 
BRANCH   6   7
ATOM      7  C   UNL     1      17.170 -34.161  24.845  1.00  0.00    -0.000 C 
BRANCH   7   8
ATOM      8  C   UNL     1      17.470 -35.240  23.781  1.00  0.00    -0.000 C 
BRANCH   8   9
ATOM      9  C   UNL     1      18.438 -36.316  24.301  1.00  0.00    -0.000 C 
BRANCH   9  10
ATOM     10  C   UNL     1      18.468 -36.404  25.837  1.00  0.00    -0.000 C 
BRANCH  10  11
ATOM     11  C   UNL     1      18.014 -37.755  26.415  1.00  0.00    -0.003 C 
ATOM     12  C   UNL     1      16.583 -37.724  26.951  1.00  0.00     0.004 C 
ENDBRANCH  10  11
ENDBRANCH   9  10
ENDBRANCH   8   9
ENDBRANCH   7   8
ENDBRANCH   6   7
ENDBRANCH   5   6
ENDBRANCH   4   5
ENDBRANCH   3   4
ENDBRANCH   2   3
ENDBRANCH   1   2
BRANCH   1  13
ATOM     13  C   UNL     1      17.368 -33.969  19.200  1.00  0.00     0.000 C 
BRANCH  13  14
ATOM     14  C   UNL     1      15.927 -34.455  19.460  1.00  0.00     0.000 C 
BRANCH  14  15
ATOM     15  C   UNL     1      15.640 -34.769  20.939  1.00  0.00     0.000 C 
BRANCH  15  16
ATOM     16  C   UNL     1      14.742 -33.716  21.612  1.00  0.00     0.000 C 
BRANCH  16  17
ATOM     17  C   UNL     1      14.126 -32.737  20.588  1.00  0.00     0.000 C 
BRANCH  17  18
ATOM     18  C   UNL     1      13.398 -31.547  21.237  1.00  0.00     0.000 C 
BRANCH  18  19
ATOM     19  C   UNL     1      14.321 -30.347  21.492  1.00  0.00     0.000 C 
BRANCH  19  20
ATOM     20  C   UNL     1      14.561 -30.143  22.993  1.00  0.00     0.006 C 
BRANCH  20  21
ATOM     21  C   UNL     1      13.263 -30.338  23.783  1.00  0.00     0.053 C 
BRANCH  21  22
ATOM     22  C   UNL     1      12.506 -29.051  23.880  1.00  0.00     0.041 C 
ATOM     23  O   UNL     1      12.842 -28.179  24.724  1.00  0.00    -0.550 OA
ATOM     24  O   UNL     1      11.404 -28.831  23.063  1.00  0.00    -0.550 OA
ENDBRANCH  21  22
ENDBRANCH  20  21
ENDBRANCH  19  20
ENDBRANCH  18  19
ENDBRANCH  17  18
ENDBRANCH  16  17
ENDBRANCH  15  16
ENDBRANCH  14  15
ENDBRANCH  13  14
ENDBRANCH   1  13
TORSDOF 20
ENDMDL
MODEL 2
REMARK VINA RESULT:    -4.908      3.432      6.726
REMARK INTER + INTRA:         -13.969
REMARK INTER:                  -9.748
REMARK INTRA:                  -4.221
REMARK UNBOUND:                -3.322
REMARK SMILES CCCCCCCCCCCCCCCCCCCCCC(=O)[O-]
REMARK SMILES IDX 12 1 11 2 10 3 9 4 8 5 7 6 6 7 5 8 4 9 3 10 2 11 1 12 13 13
REMARK SMILES IDX 14 14 15 15 16 16 17 17 18 18 19 19 20 20 21 21 22 22 23 23
REMARK SMILES IDX 24 24
REMARK H PARENT
REMARK Flexibility Score: inf
ROOT
ATOM      1  C   UNL     1      15.049 -33.399  23.397  1.00  0.00     0.000 C 
ENDROOT
BRANCH   1   2
ATOM      2  C   UNL     1      16.232 -32.787  24.159  1.00  0.00     0.000 C 
BRANCH   2   3
ATOM      3  C   UNL     1      17.563 -33.493  23.855  1.00  0.00     0.000 C 
BRANCH   3   4
ATOM      4  C   UNL     1      18.656 -32.514  23.385  1.00  0.00    -0.000 C 
BRANCH   4   5
ATOM      5  C   UNL     1      19.094 -32.773  21.935  1.00  0.00    -0.000 C 
BRANCH   5   6
ATOM      6  C   UNL     1      18.884 -31.549  21.028  1.00  0.00    -0.000 C 
BRANCH   6   7
ATOM      7  C   UNL     1      17.419 -31.083  20.988  1.00  0.00    -0.000 C 
BRANCH   7   8
ATOM      8  C   UNL     1      17.181 -29.733  21.700  1.00  0.00    -0.000 C 
BRANCH   8   9
ATOM      9  C   UNL     1      15.794 -29.662  22.363  1.00  0.00    -0.000 C 
BRANCH   9  10
ATOM     10  C   UNL     1      14.665 -30.167  21.446  1.00  0.00    -0.000 C 
BRANCH  10  11
ATOM     11  C   UNL     1      13.325 -30.425  22.156  1.00  0.00    -0.003 C 
ATOM     12  C   UNL     1      13.367 -30.092  23.647  1.00  0.00     0.004 C 
ENDBRANCH  10  11
ENDBRANCH   9  10
ENDBRANCH   8   9
ENDBRANCH   7   8
ENDBRANCH   6   7
ENDBRANCH   5   6
ENDBRANCH   4   5
ENDBRANCH   3   4
ENDBRANCH   2   3
ENDBRANCH   1   2
BRANCH   1  13
ATOM     13  C   UNL     1      15.540 -34.322  22.270  1.00  0.00     0.000 C 
BRANCH  13  14
ATOM     14  C   UNL     1      15.031 -33.877  20.884  1.00  0.00     0.000 C 
BRANCH  14  15
ATOM     15  C   UNL     1      15.513 -34.776  19.732  1.00  0.00     0.000 C 
BRANCH  15  16
ATOM     16  C   UNL     1      16.831 -34.293  19.105  1.00  0.00     0.000 C 
BRANCH  16  17
ATOM     17  C   UNL     1      17.984 -35.297  19.328  1.00  0.00     0.000 C 
BRANCH  17  18
ATOM     18  C   UNL     1      17.508 -36.748  19.515  1.00  0.00     0.000 C 
BRANCH  18  19
ATOM     19  C   UNL     1      17.945 -37.354  20.855  1.00  0.00     0.000 C 
BRANCH  19  20
ATOM     20  C   UNL     1      18.642 -36.309  21.734  1.00  0.00     0.006 C 
BRANCH  20  21
ATOM     21  C   UNL     1      19.732 -36.957  22.593  1.00  0.00     0.053 C 
BRANCH  21  22
ATOM     22  C   UNL     1      19.559 -36.588  24.032  1.00  0.00     0.041 C 
ATOM     23  O   UNL     1      18.493 -36.877  24.638  1.00  0.00    -0.550 OA
ATOM     24  O   UNL     1      20.559 -35.887  24.695  1.00  0.00    -0.550 OA
ENDBRANCH  21  22
ENDBRANCH  20  21
ENDBRANCH  19  20
ENDBRANCH  18  19
ENDBRANCH  17  18
ENDBRANCH  16  17
ENDBRANCH  15  16
ENDBRANCH  14  15
ENDBRANCH  13  14
ENDBRANCH   1  13
TORSDOF 20
ENDMDL
MODEL 3
REMARK VINA RESULT:    -4.899      3.404      6.431
REMARK INTER + INTRA:         -13.949
REMARK INTER:                 -10.630
REMARK INTRA:                  -3.319
REMARK UNBOUND:                -3.322
REMARK SMILES CCCCCCCCCCCCCCCCCCCCCC(=O)[O-]
REMARK SMILES IDX 12 1 11 2 10 3 9 4 8 5 7 6 6 7 5 8 4 9 3 10 2 11 1 12 13 13
REMARK SMILES IDX 14 14 15 15 16 16 17 17 18 18 19 19 20 20 21 21 22 22 23 23
REMARK SMILES IDX 24 24
REMARK H PARENT
REMARK Flexibility Score: inf
ROOT
ATOM      1  C   UNL     1      15.308 -34.522  21.259  1.00  0.00     0.000 C 
ENDROOT
BRANCH   1   2
ATOM      2  C   UNL     1      14.603 -33.248  21.748  1.00  0.00     0.000 C 
BRANCH   2   3
ATOM      3  C   UNL     1      13.928 -32.469  20.609  1.00  0.00     0.000 C 
BRANCH   3   4
ATOM      4  C   UNL     1      13.240 -31.181  21.100  1.00  0.00    -0.000 C 
BRANCH   4   5
ATOM      5  C   UNL     1      13.331 -31.011  22.625  1.00  0.00    -0.000 C 
BRANCH   5   6
ATOM      6  C   UNL     1      13.955 -29.665  23.031  1.00  0.00    -0.000 C 
BRANCH   6   7
ATOM      7  C   UNL     1      15.397 -29.500  22.522  1.00  0.00    -0.000 C 
BRANCH   7   8
ATOM      8  C   UNL     1      16.460 -30.095  23.470  1.00  0.00    -0.000 C 
BRANCH   8   9
ATOM      9  C   UNL     1      17.304 -31.185  22.787  1.00  0.00    -0.000 C 
BRANCH   9  10
ATOM     10  C   UNL     1      17.448 -30.969  21.270  1.00  0.00    -0.000 C 
BRANCH  10  11
ATOM     11  C   UNL     1      18.410 -31.944  20.568  1.00  0.00    -0.003 C 
ATOM     12  C   UNL     1      19.292 -32.718  21.547  1.00  0.00     0.004 C 
ENDBRANCH  10  11
ENDBRANCH   9  10
ENDBRANCH   8   9
ENDBRANCH   7   8
ENDBRANCH   6   7
ENDBRANCH   5   6
ENDBRANCH   4   5
ENDBRANCH   3   4
ENDBRANCH   2   3
ENDBRANCH   1   2
BRANCH   1  13
ATOM     13  C   UNL     1      15.653 -34.418  19.765  1.00  0.00     0.000 C 
BRANCH  13  14
ATOM     14  C   UNL     1      17.017 -35.058  19.433  1.00  0.00     0.000 C 
BRANCH  14  15
ATOM     15  C   UNL     1      16.975 -36.594  19.359  1.00  0.00     0.000 C 
BRANCH  15  16
ATOM     16  C   UNL     1      17.834 -37.271  20.441  1.00  0.00     0.000 C 
BRANCH  16  17
ATOM     17  C   UNL     1      18.589 -36.242  21.312  1.00  0.00     0.000 C 
BRANCH  17  18
ATOM     18  C   UNL     1      18.497 -36.528  22.821  1.00  0.00     0.000 C 
BRANCH  18  19
ATOM     19  C   UNL     1      17.720 -35.450  23.589  1.00  0.00     0.000 C 
BRANCH  19  20
ATOM     20  C   UNL     1      18.219 -35.332  25.034  1.00  0.00     0.006 C 
BRANCH  20  21
ATOM     21  C   UNL     1      17.125 -35.745  26.024  1.00  0.00     0.053 C 
BRANCH  21  22
ATOM     22  C   UNL     1      17.366 -37.134  26.525  1.00  0.00     0.041 C 
ATOM     23  O   UNL     1      16.396 -37.912  26.731  1.00  0.00    -0.550 OA
ATOM     24  O   UNL     1      18.660 -37.559  26.803  1.00  0.00    -0.550 OA
ENDBRANCH  21  22
ENDBRANCH  20  21
ENDBRANCH  19  20
ENDBRANCH  18  19
ENDBRANCH  17  18
ENDBRANCH  16  17
ENDBRANCH  15  16
ENDBRANCH  14  15
ENDBRANCH  13  14
ENDBRANCH   1  13
TORSDOF 20
ENDMDL
MODEL 4
REMARK VINA RESULT:    -4.877      1.475      2.444
REMARK INTER + INTRA:         -13.901
REMARK INTER:                 -10.433
REMARK INTRA:                  -3.467
REMARK UNBOUND:                -3.322
REMARK SMILES CCCCCCCCCCCCCCCCCCCCCC(=O)[O-]
REMARK SMILES IDX 12 1 11 2 10 3 9 4 8 5 7 6 6 7 5 8 4 9 3 10 2 11 1 12 13 13
REMARK SMILES IDX 14 14 15 15 16 16 17 17 18 18 19 19 20 20 21 21 22 22 23 23
REMARK SMILES IDX 24 24
REMARK H PARENT
REMARK Flexibility Score: inf
ROOT
ATOM      1  C   UNL     1      18.438 -34.883  20.148  1.00  0.00     0.000 C 
ENDROOT
BRANCH   1   2
ATOM      2  C   UNL     1      19.099 -34.280  21.396  1.00  0.00     0.000 C 
BRANCH   2   3
ATOM      3  C   UNL     1      19.136 -32.744  21.364  1.00  0.00     0.000 C 
BRANCH   3   4
ATOM      4  C   UNL     1      18.099 -32.148  20.395  1.00  0.00    -0.000 C 
BRANCH   4   5
ATOM      5  C   UNL     1      17.305 -30.991  21.021  1.00  0.00    -0.000 C 
BRANCH   5   6
ATOM      6  C   UNL     1      17.949 -30.464  22.314  1.00  0.00    -0.000 C 
BRANCH   6   7
ATOM      7  C   UNL     1      17.010 -30.559  23.528  1.00  0.00    -0.000 C 
BRANCH   7   8
ATOM      8  C   UNL     1      17.016 -31.946  24.207  1.00  0.00    -0.000 C 
BRANCH   8   9
ATOM      9  C   UNL     1      18.180 -32.102  25.202  1.00  0.00    -0.000 C 
BRANCH   9  10
ATOM     10  C   UNL     1      18.666 -33.556  25.332  1.00  0.00    -0.000 C 
BRANCH  10  11
ATOM     11  C   UNL     1      17.552 -34.588  25.581  1.00  0.00    -0.003 C 
ATOM     12  C   UNL     1      17.253 -35.449  24.353  1.00  0.00     0.004 C 
ENDBRANCH  10  11
ENDBRANCH   9  10
ENDBRANCH   8   9
ENDBRANCH   7   8
ENDBRANCH   6   7
ENDBRANCH   5   6
ENDBRANCH   4   5
ENDBRANCH   3   4
ENDBRANCH   2   3
ENDBRANCH   1   2
BRANCH   1  13
ATOM     13  C   UNL     1      17.450 -35.994  20.534  1.00  0.00     0.000 C 
BRANCH  13  14
ATOM     14  C   UNL     1      16.139 -35.920  19.724  1.00  0.00     0.000 C 
BRANCH  14  15
ATOM     15  C   UNL     1      15.248 -34.724  20.102  1.00  0.00     0.000 C 
BRANCH  15  16
ATOM     16  C   UNL     1      15.285 -34.400  21.605  1.00  0.00     0.000 C 
BRANCH  16  17
ATOM     17  C   UNL     1      14.498 -33.113  21.941  1.00  0.00     0.000 C 
BRANCH  17  18
ATOM     18  C   UNL     1      13.903 -32.416  20.706  1.00  0.00     0.000 C 
BRANCH  18  19
ATOM     19  C   UNL     1      13.480 -30.966  20.982  1.00  0.00     0.000 C 
BRANCH  19  20
ATOM     20  C   UNL     1      12.280 -30.912  21.934  1.00  0.00     0.006 C 
BRANCH  20  21
ATOM     21  C   UNL     1      12.163 -29.531  22.586  1.00  0.00     0.053 C 
BRANCH  21  22
ATOM     22  C   UNL     1      12.869 -29.511  23.906  1.00  0.00     0.041 C 
ATOM     23  O   UNL     1      13.491 -30.530  24.309  1.00  0.00    -0.550 OA
ATOM     24  O   UNL     1      12.805 -28.380  24.711  1.00  0.00    -0.550 OA
ENDBRANCH  21  22
ENDBRANCH  20  21
ENDBRANCH  19  20
ENDBRANCH  18  19
ENDBRANCH  17  18
ENDBRANCH  16  17
ENDBRANCH  15  16
ENDBRANCH  14  15
ENDBRANCH  13  14
ENDBRANCH   1  13
TORSDOF 20
ENDMDL
MODEL 5
REMARK VINA RESULT:    -4.863      1.217      2.724
REMARK INTER + INTRA:         -13.871
REMARK INTER:                 -10.189
REMARK INTRA:                  -3.681
REMARK UNBOUND:                -3.322
REMARK SMILES CCCCCCCCCCCCCCCCCCCCCC(=O)[O-]
REMARK SMILES IDX 12 1 11 2 10 3 9 4 8 5 7 6 6 7 5 8 4 9 3 10 2 11 1 12 13 13
REMARK SMILES IDX 14 14 15 15 16 16 17 17 18 18 19 19 20 20 21 21 22 22 23 23
REMARK SMILES IDX 24 24
REMARK H PARENT
REMARK Flexibility Score: inf
ROOT
ATOM      1  C   UNL     1      18.041 -31.513  21.831  1.00  0.00     0.000 C 
ENDROOT
BRANCH   1   2
ATOM      2  C   UNL     1      18.513 -32.815  21.166  1.00  0.00     0.000 C 
BRANCH   2   3
ATOM      3  C   UNL     1      17.876 -33.042  19.786  1.00  0.00     0.000 C 
BRANCH   3   4
ATOM      4  C   UNL     1      18.265 -34.399  19.172  1.00  0.00    -0.000 C 
BRANCH   4   5
ATOM      5  C   UNL     1      17.173 -35.464  19.356  1.00  0.00    -0.000 C 
BRANCH   5   6
ATOM      6  C   UNL     1      17.674 -36.696  20.128  1.00  0.00    -0.000 C 
BRANCH   6   7
ATOM      7  C   UNL     1      17.865 -36.420  21.629  1.00  0.00    -0.000 C 
BRANCH   7   8
ATOM      8  C   UNL     1      19.346 -36.338  22.059  1.00  0.00    -0.000 C 
BRANCH   8   9
ATOM      9  C   UNL     1      19.500 -36.091  23.570  1.00  0.00    -0.000 C 
BRANCH   9  10
ATOM     10  C   UNL     1      18.930 -37.237  24.426  1.00  0.00    -0.000 C 
BRANCH  10  11
ATOM     11  C   UNL     1      18.336 -36.799  25.776  1.00  0.00    -0.003 C 
ATOM     12  C   UNL     1      17.561 -37.915  26.476  1.00  0.00     0.004 C 
ENDBRANCH  10  11
ENDBRANCH   9  10
ENDBRANCH   8   9
ENDBRANCH   7   8
ENDBRANCH   6   7
ENDBRANCH   5   6
ENDBRANCH   4   5
ENDBRANCH   3   4
ENDBRANCH   2   3
ENDBRANCH   1   2
BRANCH   1  13
ATOM     13  C   UNL     1      17.486 -31.786  23.237  1.00  0.00     0.000 C 
BRANCH  13  14
ATOM     14  C   UNL     1      17.009 -33.244  23.407  1.00  0.00     0.000 C 
BRANCH  14  15
ATOM     15  C   UNL     1      15.484 -33.410  23.295  1.00  0.00     0.000 C 
BRANCH  15  16
ATOM     16  C   UNL     1      15.048 -34.090  21.986  1.00  0.00     0.000 C 
BRANCH  16  17
ATOM     17  C   UNL     1      14.446 -33.083  20.981  1.00  0.00     0.000 C 
BRANCH  17  18
ATOM     18  C   UNL     1      13.809 -31.852  21.650  1.00  0.00     0.000 C 
BRANCH  18  19
ATOM     19  C   UNL     1      14.478 -30.534  21.237  1.00  0.00     0.000 C 
BRANCH  19  20
ATOM     20  C   UNL     1      14.567 -29.564  22.422  1.00  0.00     0.006 C 
BRANCH  20  21
ATOM     21  C   UNL     1      13.694 -30.044  23.585  1.00  0.00     0.053 C 
BRANCH  21  22
ATOM     22  C   UNL     1      12.613 -29.050  23.877  1.00  0.00     0.041 C 
ATOM     23  O   UNL     1      12.705 -28.286  24.874  1.00  0.00    -0.550 OA
ATOM     24  O   UNL     1      11.484 -28.996  23.069  1.00  0.00    -0.550 OA
ENDBRANCH  21  22
ENDBRANCH  20  21
ENDBRANCH  19  20
ENDBRANCH  18  19
ENDBRANCH  17  18
ENDBRANCH  16  17
ENDBRANCH  15  16
ENDBRANCH  14  15
ENDBRANCH  13  14
ENDBRANCH   1  13
TORSDOF 20
ENDMDL
MODEL 6
REMARK VINA RESULT:    -4.808      1.874      3.924
REMARK INTER + INTRA:         -13.751
REMARK INTER:                  -9.809
REMARK INTRA:                  -3.942
REMARK UNBOUND:                -3.322
REMARK SMILES CCCCCCCCCCCCCCCCCCCCCC(=O)[O-]
REMARK SMILES IDX 12 1 11 2 10 3 9 4 8 5 7 6 6 7 5 8 4 9 3 10 2 11 1 12 13 13
REMARK SMILES IDX 14 14 15 15 16 16 17 17 18 18 19 19 20 20 21 21 22 22 23 23
REMARK SMILES IDX 24 24
REMARK H PARENT
REMARK Flexibility Score: inf
ROOT
ATOM      1  C   UNL     1      18.111 -31.232  20.832  1.00  0.00     0.000 C 
ENDROOT
BRANCH   1   2
ATOM      2  C   UNL     1      18.375 -32.744  20.811  1.00  0.00     0.000 C 
BRANCH   2   3
ATOM      3  C   UNL     1      17.692 -33.450  19.629  1.00  0.00     0.000 C 
BRANCH   3   4
ATOM      4  C   UNL     1      18.249 -34.864  19.383  1.00  0.00    -0.000 C 
BRANCH   4   5
ATOM      5  C   UNL     1      17.143 -35.927  19.300  1.00  0.00    -0.000 C 
BRANCH   5   6
ATOM      6  C   UNL     1      17.231 -36.960  20.436  1.00  0.00    -0.000 C 
BRANCH   6   7
ATOM      7  C   UNL     1      18.442 -36.730  21.356  1.00  0.00    -0.000 C 
BRANCH   7   8
ATOM      8  C   UNL     1      18.083 -36.039  22.690  1.00  0.00    -0.000 C 
BRANCH   8   9
ATOM      9  C   UNL     1      19.321 -35.459  23.396  1.00  0.00    -0.000 C 
BRANCH   9  10
ATOM     10  C   UNL     1      20.553 -35.382  22.476  1.00  0.00    -0.000 C 
BRANCH  10  11
ATOM     11  C   UNL     1      21.746 -34.607  23.063  1.00  0.00    -0.003 C 
ATOM     12  C   UNL     1      21.537 -33.093  23.052  1.00  0.00     0.004 C 
ENDBRANCH  10  11
ENDBRANCH   9  10
ENDBRANCH   8   9
ENDBRANCH   7   8
ENDBRANCH   6   7
ENDBRANCH   5   6
ENDBRANCH   4   5
ENDBRANCH   3   4
ENDBRANCH   2   3
ENDBRANCH   1   2
BRANCH   1  13
ATOM     13  C   UNL     1      17.701 -30.766  22.238  1.00  0.00     0.000 C 
BRANCH  13  14
ATOM     14  C   UNL     1      18.170 -31.740  23.338  1.00  0.00     0.000 C 
BRANCH  14  15
ATOM     15  C   UNL     1      17.106 -32.014  24.414  1.00  0.00     0.000 C 
BRANCH  15  16
ATOM     16  C   UNL     1      16.377 -33.353  24.210  1.00  0.00     0.000 C 
BRANCH  16  17
ATOM     17  C   UNL     1      15.046 -33.180  23.445  1.00  0.00     0.000 C 
BRANCH  17  18
ATOM     18  C   UNL     1      15.027 -33.886  22.078  1.00  0.00     0.000 C 
BRANCH  18  19
ATOM     19  C   UNL     1      14.345 -33.053  20.983  1.00  0.00     0.000 C 
BRANCH  19  20
ATOM     20  C   UNL     1      14.198 -31.589  21.413  1.00  0.00     0.006 C 
BRANCH  20  21
ATOM     21  C   UNL     1      12.753 -31.112  21.236  1.00  0.00     0.053 C 
BRANCH  21  22
ATOM     22  C   UNL     1      12.321 -30.294  22.413  1.00  0.00     0.041 C 
ATOM     23  O   UNL     1      12.992 -30.311  23.479  1.00  0.00    -0.550 OA
ATOM     24  O   UNL     1      11.154 -29.543  22.346  1.00  0.00    -0.550 OA
ENDBRANCH  21  22
ENDBRANCH  20  21
ENDBRANCH  19  20
ENDBRANCH  18  19
ENDBRANCH  17  18
ENDBRANCH  16  17
ENDBRANCH  15  16
ENDBRANCH  14  15
ENDBRANCH  13  14
ENDBRANCH   1  13
TORSDOF 20
ENDMDL
MODEL 7
REMARK VINA RESULT:    -4.755      2.867      5.819
REMARK INTER + INTRA:         -13.636
REMARK INTER:                 -10.041
REMARK INTRA:                  -3.596
REMARK UNBOUND:                -3.322
REMARK SMILES CCCCCCCCCCCCCCCCCCCCCC(=O)[O-]
REMARK SMILES IDX 12 1 11 2 10 3 9 4 8 5 7 6 6 7 5 8 4 9 3 10 2 11 1 12 13 13
REMARK SMILES IDX 14 14 15 15 16 16 17 17 18 18 19 19 20 20 21 21 22 22 23 23
REMARK SMILES IDX 24 24
REMARK H PARENT
REMARK Flexibility Score: inf
ROOT
ATOM      1  C   UNL     1      13.621 -30.491  23.845  1.00  0.00     0.000 C 
ENDROOT
BRANCH   1   2
ATOM      2  C   UNL     1      13.324 -31.725  22.980  1.00  0.00     0.000 C 
BRANCH   2   3
ATOM      3  C   UNL     1      13.134 -31.377  21.495  1.00  0.00     0.000 C 
BRANCH   3   4
ATOM      4  C   UNL     1      13.874 -32.352  20.560  1.00  0.00    -0.000 C 
BRANCH   4   5
ATOM      5  C   UNL     1      14.624 -33.450  21.330  1.00  0.00    -0.000 C 
BRANCH   5   6
ATOM      6  C   UNL     1      15.175 -34.547  20.404  1.00  0.00    -0.000 C 
BRANCH   6   7
ATOM      7  C   UNL     1      16.285 -34.035  19.470  1.00  0.00    -0.000 C 
BRANCH   7   8
ATOM      8  C   UNL     1      17.307 -35.121  19.069  1.00  0.00    -0.000 C 
BRANCH   8   9
ATOM      9  C   UNL     1      16.880 -36.523  19.539  1.00  0.00    -0.000 C 
BRANCH   9  10
ATOM     10  C   UNL     1      17.796 -37.091  20.639  1.00  0.00    -0.000 C 
BRANCH  10  11
ATOM     11  C   UNL     1      18.721 -36.057  21.304  1.00  0.00    -0.003 C 
ATOM     12  C   UNL     1      19.584 -36.657  22.414  1.00  0.00     0.004 C 
ENDBRANCH  10  11
ENDBRANCH   9  10
ENDBRANCH   8   9
ENDBRANCH   7   8
ENDBRANCH   6   7
ENDBRANCH   5   6
ENDBRANCH   4   5
ENDBRANCH   3   4
ENDBRANCH   2   3
ENDBRANCH   1   2
BRANCH   1  13
ATOM     13  C   UNL     1      13.356 -29.196  23.061  1.00  0.00     0.000 C 
BRANCH  13  14
ATOM     14  C   UNL     1      14.641 -28.371  22.841  1.00  0.00     0.000 C 
BRANCH  14  15
ATOM     15  C   UNL     1      15.464 -28.824  21.623  1.00  0.00     0.000 C 
BRANCH  15  16
ATOM     16  C   UNL     1      16.824 -29.430  22.008  1.00  0.00     0.000 C 
BRANCH  16  17
ATOM     17  C   UNL     1      17.087 -30.773  21.291  1.00  0.00     0.000 C 
BRANCH  17  18
ATOM     18  C   UNL     1      17.852 -31.791  22.153  1.00  0.00     0.000 C 
BRANCH  18  19
ATOM     19  C   UNL     1      17.591 -31.621  23.656  1.00  0.00     0.000 C 
BRANCH  19  20
ATOM     20  C   UNL     1      16.599 -32.673  24.167  1.00  0.00     0.006 C 
BRANCH  20  21
ATOM     21  C   UNL     1      17.135 -34.088  23.930  1.00  0.00     0.053 C 
BRANCH  21  22
ATOM     22  C   UNL     1      17.697 -34.657  25.196  1.00  0.00     0.041 C 
ATOM     23  O   UNL     1      16.928 -35.017  26.126  1.00  0.00    -0.550 OA
ATOM     24  O   UNL     1      19.073 -34.753  25.363  1.00  0.00    -0.550 OA
ENDBRANCH  21  22
ENDBRANCH  20  21
ENDBRANCH  19  20
ENDBRANCH  18  19
ENDBRANCH  17  18
ENDBRANCH  16  17
ENDBRANCH  15  16
ENDBRANCH  14  15
ENDBRANCH  13  14
ENDBRANCH   1  13
TORSDOF 20
ENDMDL
MODEL 8
REMARK VINA RESULT:    -4.749      1.554      4.241
REMARK INTER + INTRA:         -13.623
REMARK INTER:                 -10.006
REMARK INTRA:                  -3.617
REMARK UNBOUND:                -3.322
REMARK SMILES CCCCCCCCCCCCCCCCCCCCCC(=O)[O-]
REMARK SMILES IDX 12 1 11 2 10 3 9 4 8 5 7 6 6 7 5 8 4 9 3 10 2 11 1 12 13 13
REMARK SMILES IDX 14 14 15 15 16 16 17 17 18 18 19 19 20 20 21 21 22 22 23 23
REMARK SMILES IDX 24 24
REMARK H PARENT
REMARK Flexibility Score: inf
ROOT
ATOM      1  C   UNL     1      18.504 -35.757  21.505  1.00  0.00     0.000 C 
ENDROOT
BRANCH   1   2
ATOM      2  C   UNL     1      18.733 -36.365  22.896  1.00  0.00     0.000 C 
BRANCH   2   3
ATOM      3  C   UNL     1      18.413 -35.382  24.034  1.00  0.00     0.000 C 
BRANCH   3   4
ATOM      4  C   UNL     1      16.899 -35.178  24.230  1.00  0.00    -0.000 C 
BRANCH   4   5
ATOM      5  C   UNL     1      16.558 -33.774  24.754  1.00  0.00    -0.000 C 
BRANCH   5   6
ATOM      6  C   UNL     1      17.628 -32.732  24.389  1.00  0.00    -0.000 C 
BRANCH   6   7
ATOM      7  C   UNL     1      17.024 -31.390  23.944  1.00  0.00    -0.000 C 
BRANCH   7   8
ATOM      8  C   UNL     1      17.141 -31.132  22.426  1.00  0.00    -0.000 C 
BRANCH   8   9
ATOM      9  C   UNL     1      18.084 -32.134  21.737  1.00  0.00    -0.000 C 
BRANCH   9  10
ATOM     10  C   UNL     1      19.207 -31.449  20.938  1.00  0.00    -0.000 C 
BRANCH  10  11
ATOM     11  C   UNL     1      19.438 -29.969  21.291  1.00  0.00    -0.003 C 
ATOM     12  C   UNL     1      20.893 -29.534  21.115  1.00  0.00     0.004 C 
ENDBRANCH  10  11
ENDBRANCH   9  10
ENDBRANCH   8   9
ENDBRANCH   7   8
ENDBRANCH   6   7
ENDBRANCH   5   6
ENDBRANCH   4   5
ENDBRANCH   3   4
ENDBRANCH   2   3
ENDBRANCH   1   2
BRANCH   1  13
ATOM     13  C   UNL     1      17.928 -36.803  20.537  1.00  0.00     0.000 C 
BRANCH  13  14
ATOM     14  C   UNL     1      16.689 -36.281  19.782  1.00  0.00     0.000 C 
BRANCH  14  15
ATOM     15  C   UNL     1      16.783 -34.796  19.394  1.00  0.00     0.000 C 
BRANCH  15  16
ATOM     16  C   UNL     1      15.527 -33.995  19.778  1.00  0.00     0.000 C 
BRANCH  16  17
ATOM     17  C   UNL     1      15.048 -34.316  21.211  1.00  0.00     0.000 C 
BRANCH  17  18
ATOM     18  C   UNL     1      14.375 -33.125  21.916  1.00  0.00     0.000 C 
BRANCH  18  19
ATOM     19  C   UNL     1      13.871 -32.056  20.937  1.00  0.00     0.000 C 
BRANCH  19  20
ATOM     20  C   UNL     1      12.904 -31.086  21.627  1.00  0.00     0.006 C 
BRANCH  20  21
ATOM     21  C   UNL     1      13.349 -30.803  23.065  1.00  0.00     0.053 C 
BRANCH  21  22
ATOM     22  C   UNL     1      13.607 -29.342  23.258  1.00  0.00     0.041 C 
ATOM     23  O   UNL     1      12.948 -28.687  24.109  1.00  0.00    -0.550 OA
ATOM     24  O   UNL     1      14.549 -28.693  22.469  1.00  0.00    -0.550 OA
ENDBRANCH  21  22
ENDBRANCH  20  21
ENDBRANCH  19  20
ENDBRANCH  18  19
ENDBRANCH  17  18
ENDBRANCH  16  17
ENDBRANCH  15  16
ENDBRANCH  14  15
ENDBRANCH  13  14
ENDBRANCH   1  13
TORSDOF 20
ENDMDL
MODEL 9
REMARK VINA RESULT:    -4.720      1.643      3.612
REMARK INTER + INTRA:         -13.561
REMARK INTER:                 -10.027
REMARK INTRA:                  -3.535
REMARK UNBOUND:                -3.322
REMARK SMILES CCCCCCCCCCCCCCCCCCCCCC(=O)[O-]
REMARK SMILES IDX 12 1 11 2 10 3 9 4 8 5 7 6 6 7 5 8 4 9 3 10 2 11 1 12 13 13
REMARK SMILES IDX 14 14 15 15 16 16 17 17 18 18 19 19 20 20 21 21 22 22 23 23
REMARK SMILES IDX 24 24
REMARK H PARENT
REMARK Flexibility Score: inf
ROOT
ATOM      1  C   UNL     1      16.686 -32.632  20.562  1.00  0.00     0.000 C 
ENDROOT
BRANCH   1   2
ATOM      2  C   UNL     1      15.864 -33.926  20.473  1.00  0.00     0.000 C 
BRANCH   2   3
ATOM      3  C   UNL     1      16.364 -34.872  19.369  1.00  0.00     0.000 C 
BRANCH   3   4
ATOM      4  C   UNL     1      16.527 -36.322  19.863  1.00  0.00    -0.000 C 
BRANCH   4   5
ATOM      5  C   UNL     1      17.996 -36.700  20.105  1.00  0.00    -0.000 C 
BRANCH   5   6
ATOM      6  C   UNL     1      18.220 -37.344  21.483  1.00  0.00    -0.000 C 
BRANCH   6   7
ATOM      7  C   UNL     1      19.121 -36.496  22.397  1.00  0.00    -0.000 C 
BRANCH   7   8
ATOM      8  C   UNL     1      18.456 -35.190  22.883  1.00  0.00    -0.000 C 
BRANCH   8   9
ATOM      9  C   UNL     1      17.273 -35.458  23.830  1.00  0.00    -0.000 C 
BRANCH   9  10
ATOM     10  C   UNL     1      17.689 -35.501  25.311  1.00  0.00    -0.000 C 
BRANCH  10  11
ATOM     11  C   UNL     1      17.937 -36.913  25.870  1.00  0.00    -0.003 C 
ATOM     12  C   UNL     1      16.842 -37.375  26.830  1.00  0.00     0.004 C 
ENDBRANCH  10  11
ENDBRANCH   9  10
ENDBRANCH   8   9
ENDBRANCH   7   8
ENDBRANCH   6   7
ENDBRANCH   5   6
ENDBRANCH   4   5
ENDBRANCH   3   4
ENDBRANCH   2   3
ENDBRANCH   1   2
BRANCH   1  13
ATOM     13  C   UNL     1      18.154 -32.888  20.183  1.00  0.00     0.000 C 
BRANCH  13  14
ATOM     14  C   UNL     1      19.131 -32.035  21.017  1.00  0.00     0.000 C 
BRANCH  14  15
ATOM     15  C   UNL     1      18.436 -31.140  22.057  1.00  0.00     0.000 C 
BRANCH  15  16
ATOM     16  C   UNL     1      18.850 -31.465  23.502  1.00  0.00     0.000 C 
BRANCH  16  17
ATOM     17  C   UNL     1      17.646 -31.448  24.470  1.00  0.00     0.000 C 
BRANCH  17  18
ATOM     18  C   UNL     1      16.296 -31.222  23.768  1.00  0.00     0.000 C 
BRANCH  18  19
ATOM     19  C   UNL     1      15.346 -32.421  23.896  1.00  0.00     0.000 C 
BRANCH  19  20
ATOM     20  C   UNL     1      13.881 -31.971  23.879  1.00  0.00     0.006 C 
BRANCH  20  21
ATOM     21  C   UNL     1      13.753 -30.552  23.315  1.00  0.00     0.053 C 
BRANCH  21  22
ATOM     22  C   UNL     1      13.033 -30.570  22.004  1.00  0.00     0.041 C 
ATOM     23  O   UNL     1      13.644 -30.888  20.949  1.00  0.00    -0.550 OA
ATOM     24  O   UNL     1      11.697 -30.196  21.940  1.00  0.00    -0.550 OA
ENDBRANCH  21  22
ENDBRANCH  20  21
ENDBRANCH  19  20
ENDBRANCH  18  19
ENDBRANCH  17  18
ENDBRANCH  16  17
ENDBRANCH  15  16
ENDBRANCH  14  15
ENDBRANCH  13  14
ENDBRANCH   1  13
TORSDOF 20
ENDMDL
