MODEL 1
REMARK VINA RESULT:    -4.970      0.000      0.000
REMARK INTER + INTRA:          -8.807
REMARK INTER:                  -7.876
REMARK INTRA:                  -0.931
REMARK UNBOUND:                -0.931
REMARK SMILES CCCCCCCCCCCC(=O)[O-]
REMARK SMILES IDX 7 1 8 2 9 3 10 4 11 5 12 6 13 7 14 8 6 9 5 10 4 11 3 12 2 13
REMARK SMILES IDX 1 14
REMARK H PARENT
REMARK Flexibility Score: inf
ROOT
ATOM      1  C   UNL     1    -104.035 -86.162  38.326  1.00  0.00     0.000 C 
ENDROOT
BRANCH   1   2
ATOM      2  C   UNL     1    -104.525 -87.563  37.944  1.00  0.00     0.000 C 
BRANCH   2   3
ATOM      3  C   UNL     1    -105.151 -87.564  36.541  1.00  0.00     0.000 C 
BRANCH   3   4
ATOM      4  C   UNL     1    -105.382 -86.144  35.991  1.00  0.00     0.006 C 
BRANCH   4   5
ATOM      5  C   UNL     1    -105.307 -86.040  34.459  1.00  0.00     0.053 C 
BRANCH   5   6
ATOM      6  C   UNL     1    -104.079 -85.313  34.004  1.00  0.00     0.041 C 
ATOM      7  O   UNL     1    -103.914 -85.051  32.785  1.00  0.00    -0.550 OA
ATOM      8  O   UNL     1    -103.100 -84.957  34.924  1.00  0.00    -0.550 OA
ENDBRANCH   5   6
ENDBRANCH   4   5
ENDBRANCH   3   4
ENDBRANCH   2   3
ENDBRANCH   1   2
BRANCH   1   9
ATOM      9  C   UNL     1    -104.586 -85.738  39.693  1.00  0.00     0.000 C 
BRANCH   9  10
ATOM     10  C   UNL     1    -105.490 -84.507  39.566  1.00  0.00    -0.000 C 
BRANCH  10  11
ATOM     11  C   UNL     1    -104.753 -83.351  38.874  1.00  0.00    -0.000 C 
BRANCH  11  12
ATOM     12  C   UNL     1    -104.401 -82.210  39.840  1.00  0.00    -0.000 C 
BRANCH  12  13
ATOM     13  C   UNL     1    -102.900 -81.882  39.846  1.00  0.00    -0.003 C 
ATOM     14  C   UNL     1    -102.063 -83.142  40.049  1.00  0.00     0.004 C 
ENDBRANCH  12  13
ENDBRANCH  11  12
ENDBRANCH  10  11
ENDBRANCH   9  10
ENDBRANCH   1   9
TORSDOF 10
ENDMDL
MODEL 2
REMARK VINA RESULT:    -4.906      1.179      1.824
REMARK INTER + INTRA:          -8.705
REMARK INTER:                  -7.777
REMARK INTRA:                  -0.928
REMARK UNBOUND:                -0.931
REMARK SMILES CCCCCCCCCCCC(=O)[O-]
REMARK SMILES IDX 7 1 8 2 9 3 10 4 11 5 12 6 13 7 14 8 6 9 5 10 4 11 3 12 2 13
REMARK SMILES IDX 1 14
REMARK H PARENT
REMARK Flexibility Score: inf
ROOT
ATOM      1  C   UNL     1    -105.128 -86.595  37.521  1.00  0.00     0.000 C 
ENDROOT
BRANCH   1   2
ATOM      2  C   UNL     1    -105.057 -87.564  36.336  1.00  0.00     0.000 C 
BRANCH   2   3
ATOM      3  C   UNL     1    -105.651 -86.928  35.070  1.00  0.00     0.000 C 
BRANCH   3   4
ATOM      4  C   UNL     1    -105.256 -85.450  34.903  1.00  0.00     0.006 C 
BRANCH   4   5
ATOM      5  C   UNL     1    -103.962 -85.228  34.103  1.00  0.00     0.053 C 
BRANCH   5   6
ATOM      6  C   UNL     1    -102.859 -84.685  34.957  1.00  0.00     0.041 C 
ATOM      7  O   UNL     1    -103.114 -84.200  36.091  1.00  0.00    -0.550 OA
ATOM      8  O   UNL     1    -101.551 -84.681  34.486  1.00  0.00    -0.550 OA
ENDBRANCH   5   6
ENDBRANCH   4   5
ENDBRANCH   3   4
ENDBRANCH   2   3
ENDBRANCH   1   2
BRANCH   1   9
ATOM      9  C   UNL     1    -103.959 -86.820  38.489  1.00  0.00     0.000 C 
BRANCH   9  10
ATOM     10  C   UNL     1    -103.928 -85.741  39.577  1.00  0.00    -0.000 C 
BRANCH  10  11
ATOM     11  C   UNL     1    -105.206 -84.891  39.547  1.00  0.00    -0.000 C 
BRANCH  11  12
ATOM     12  C   UNL     1    -104.916 -83.383  39.542  1.00  0.00    -0.000 C 
BRANCH  12  13
ATOM     13  C   UNL     1    -103.413 -83.070  39.590  1.00  0.00    -0.003 C 
ATOM     14  C   UNL     1    -103.159 -81.682  40.171  1.00  0.00     0.004 C 
ENDBRANCH  12  13
ENDBRANCH  11  12
ENDBRANCH  10  11
ENDBRANCH   9  10
ENDBRANCH   1   9
TORSDOF 10
ENDMDL
MODEL 3
REMARK VINA RESULT:    -4.788      1.485      4.639
REMARK INTER + INTRA:          -8.519
REMARK INTER:                  -7.328
REMARK INTRA:                  -1.190
REMARK UNBOUND:                -0.931
REMARK SMILES CCCCCCCCCCCC(=O)[O-]
REMARK SMILES IDX 7 1 8 2 9 3 10 4 11 5 12 6 13 7 14 8 6 9 5 10 4 11 3 12 2 13
REMARK SMILES IDX 1 14
REMARK H PARENT
REMARK Flexibility Score: inf
ROOT
ATOM      1  C   UNL     1    -104.528 -85.514  39.905  1.00  0.00     0.000 C 
ENDROOT
BRANCH   1   2
ATOM      2  C   UNL     1    -105.471 -84.420  39.393  1.00  0.00     0.000 C 
BRANCH   2   3
ATOM      3  C   UNL     1    -104.838 -83.029  39.552  1.00  0.00     0.000 C 
BRANCH   3   4
ATOM      4  C   UNL     1    -103.572 -82.848  38.694  1.00  0.00     0.006 C 
BRANCH   4   5
ATOM      5  C   UNL     1    -103.814 -82.956  37.180  1.00  0.00     0.053 C 
BRANCH   5   6
ATOM      6  C   UNL     1    -102.734 -83.733  36.492  1.00  0.00     0.041 C 
ATOM      7  O   UNL     1    -102.054 -84.577  37.132  1.00  0.00    -0.550 OA
ATOM      8  O   UNL     1    -102.454 -83.498  35.151  1.00  0.00    -0.550 OA
ENDBRANCH   5   6
ENDBRANCH   4   5
ENDBRANCH   3   4
ENDBRANCH   2   3
ENDBRANCH   1   2
BRANCH   1   9
ATOM      9  C   UNL     1    -104.275 -86.575  38.825  1.00  0.00     0.000 C 
BRANCH   9  10
ATOM     10  C   UNL     1    -105.127 -86.308  37.579  1.00  0.00    -0.000 C 
BRANCH  10  11
ATOM     11  C   UNL     1    -104.862 -87.362  36.495  1.00  0.00    -0.000 C 
BRANCH  11  12
ATOM     12  C   UNL     1    -105.622 -87.076  35.191  1.00  0.00    -0.000 C 
BRANCH  12  13
ATOM     13  C   UNL     1    -104.869 -86.104  34.270  1.00  0.00    -0.003 C 
ATOM     14  C   UNL     1    -105.572 -84.751  34.206  1.00  0.00     0.004 C 
ENDBRANCH  12  13
ENDBRANCH  11  12
ENDBRANCH  10  11
ENDBRANCH   9  10
ENDBRANCH   1   9
TORSDOF 10
ENDMDL
MODEL 4
REMARK VINA RESULT:    -4.785      1.641      2.295
REMARK INTER + INTRA:          -8.514
REMARK INTER:                  -7.246
REMARK INTRA:                  -1.267
REMARK UNBOUND:                -0.931
REMARK SMILES CCCCCCCCCCCC(=O)[O-]
REMARK SMILES IDX 7 1 8 2 9 3 10 4 11 5 12 6 13 7 14 8 6 9 5 10 4 11 3 12 2 13
REMARK SMILES IDX 1 14
REMARK H PARENT
REMARK Flexibility Score: inf
ROOT
ATOM      1  C   UNL     1    -103.739 -85.398  39.806  1.00  0.00     0.000 C 
ENDROOT
BRANCH   1   2
ATOM      2  C   UNL     1    -103.355 -86.101  38.499  1.00  0.00     0.000 C 
BRANCH   2   3
ATOM      3  C   UNL     1    -104.031 -87.476  38.394  1.00  0.00     0.000 C 
BRANCH   3   4
ATOM      4  C   UNL     1    -105.030 -87.562  37.226  1.00  0.00     0.006 C 
BRANCH   4   5
ATOM      5  C   UNL     1    -105.112 -86.289  36.369  1.00  0.00     0.053 C 
BRANCH   5   6
ATOM      6  C   UNL     1    -105.432 -86.594  34.938  1.00  0.00     0.041 C 
ATOM      7  O   UNL     1    -106.308 -87.452  34.654  1.00  0.00    -0.550 OA
ATOM      8  O   UNL     1    -104.737 -85.955  33.918  1.00  0.00    -0.550 OA
ENDBRANCH   5   6
ENDBRANCH   4   5
ENDBRANCH   3   4
ENDBRANCH   2   3
ENDBRANCH   1   2
BRANCH   1   9
ATOM      9  C   UNL     1    -105.221 -85.001  39.805  1.00  0.00     0.000 C 
BRANCH   9  10
ATOM     10  C   UNL     1    -105.398 -83.533  39.401  1.00  0.00    -0.000 C 
BRANCH  10  11
ATOM     11  C   UNL     1    -104.148 -82.711  39.749  1.00  0.00    -0.000 C 
BRANCH  11  12
ATOM     12  C   UNL     1    -103.517 -82.042  38.520  1.00  0.00    -0.000 C 
BRANCH  12  13
ATOM     13  C   UNL     1    -104.212 -82.439  37.208  1.00  0.00    -0.003 C 
ATOM     14  C   UNL     1    -103.226 -83.081  36.237  1.00  0.00     0.004 C 
ENDBRANCH  12  13
ENDBRANCH  11  12
ENDBRANCH  10  11
ENDBRANCH   9  10
ENDBRANCH   1   9
TORSDOF 10
ENDMDL
MODEL 5
REMARK VINA RESULT:    -4.777      2.674      4.840
REMARK INTER + INTRA:          -8.500
REMARK INTER:                  -6.915
REMARK INTRA:                  -1.585
REMARK UNBOUND:                -0.931
REMARK SMILES CCCCCCCCCCCC(=O)[O-]
REMARK SMILES IDX 7 1 8 2 9 3 10 4 11 5 12 6 13 7 14 8 6 9 5 10 4 11 3 12 2 13
REMARK SMILES IDX 1 14
REMARK H PARENT
REMARK Flexibility Score: inf
ROOT
ATOM      1  C   UNL     1    -103.805 -87.203  38.475  1.00  0.00     0.000 C 
ENDROOT
BRANCH   1   2
ATOM      2  C   UNL     1    -103.740 -86.024  39.453  1.00  0.00     0.000 C 
BRANCH   2   3
ATOM      3  C   UNL     1    -105.067 -85.252  39.472  1.00  0.00     0.000 C 
BRANCH   3   4
ATOM      4  C   UNL     1    -104.871 -83.727  39.394  1.00  0.00     0.006 C 
BRANCH   4   5
ATOM      5  C   UNL     1    -103.461 -83.250  39.775  1.00  0.00     0.053 C 
BRANCH   5   6
ATOM      6  C   UNL     1    -103.316 -81.765  39.648  1.00  0.00     0.041 C 
ATOM      7  O   UNL     1    -103.301 -81.224  38.512  1.00  0.00    -0.550 OA
ATOM      8  O   UNL     1    -103.160 -80.981  40.785  1.00  0.00    -0.550 OA
ENDBRANCH   5   6
ENDBRANCH   4   5
ENDBRANCH   3   4
ENDBRANCH   2   3
ENDBRANCH   1   2
BRANCH   1   9
ATOM      9  C   UNL     1    -105.118 -87.192  37.683  1.00  0.00     0.000 C 
BRANCH   9  10
ATOM     10  C   UNL     1    -104.853 -87.143  36.175  1.00  0.00    -0.000 C 
BRANCH  10  11
ATOM     11  C   UNL     1    -105.271 -85.788  35.586  1.00  0.00    -0.000 C 
BRANCH  11  12
ATOM     12  C   UNL     1    -104.088 -85.006  34.996  1.00  0.00    -0.000 C 
BRANCH  12  13
ATOM     13  C   UNL     1    -103.525 -83.961  35.970  1.00  0.00    -0.003 C 
ATOM     14  C   UNL     1    -102.172 -84.398  36.524  1.00  0.00     0.004 C 
ENDBRANCH  12  13
ENDBRANCH  11  12
ENDBRANCH  10  11
ENDBRANCH   9  10
ENDBRANCH   1   9
TORSDOF 10
ENDMDL
MODEL 6
REMARK VINA RESULT:    -4.765      2.176      3.480
REMARK INTER + INTRA:          -8.482
REMARK INTER:                  -7.051
REMARK INTRA:                  -1.431
REMARK UNBOUND:                -0.931
REMARK SMILES CCCCCCCCCCCC(=O)[O-]
REMARK SMILES IDX 7 1 8 2 9 3 10 4 11 5 12 6 13 7 14 8 6 9 5 10 4 11 3 12 2 13
REMARK SMILES IDX 1 14
REMARK H PARENT
REMARK Flexibility Score: inf
ROOT
ATOM      1  C   UNL     1    -104.376 -82.656  36.784  1.00  0.00     0.000 C 
ENDROOT
BRANCH   1   2
ATOM      2  C   UNL     1    -103.073 -83.202  36.190  1.00  0.00     0.000 C 
BRANCH   2   3
ATOM      3  C   UNL     1    -103.208 -84.691  35.842  1.00  0.00     0.000 C 
BRANCH   3   4
ATOM      4  C   UNL     1    -104.669 -85.178  35.859  1.00  0.00     0.006 C 
BRANCH   4   5
ATOM      5  C   UNL     1    -105.043 -86.098  34.686  1.00  0.00     0.053 C 
BRANCH   5   6
ATOM      6  C   UNL     1    -105.772 -87.323  35.143  1.00  0.00     0.041 C 
ATOM      7  O   UNL     1    -105.453 -87.885  36.224  1.00  0.00    -0.550 OA
ATOM      8  O   UNL     1    -106.781 -87.866  34.356  1.00  0.00    -0.550 OA
ENDBRANCH   5   6
ENDBRANCH   4   5
ENDBRANCH   3   4
ENDBRANCH   2   3
ENDBRANCH   1   2
BRANCH   1   9
ATOM      9  C   UNL     1    -104.112 -81.895  38.090  1.00  0.00     0.000 C 
BRANCH   9  10
ATOM     10  C   UNL     1    -104.008 -82.858  39.278  1.00  0.00    -0.000 C 
BRANCH  10  11
ATOM     11  C   UNL     1    -105.293 -83.683  39.433  1.00  0.00    -0.000 C 
BRANCH  11  12
ATOM     12  C   UNL     1    -105.022 -85.192  39.526  1.00  0.00    -0.000 C 
BRANCH  12  13
ATOM     13  C   UNL     1    -103.524 -85.527  39.480  1.00  0.00    -0.003 C 
ATOM     14  C   UNL     1    -103.300 -87.004  39.169  1.00  0.00     0.004 C 
ENDBRANCH  12  13
ENDBRANCH  11  12
ENDBRANCH  10  11
ENDBRANCH   9  10
ENDBRANCH   1   9
TORSDOF 10
ENDMDL
MODEL 7
REMARK VINA RESULT:    -4.743      1.654      2.324
REMARK INTER + INTRA:          -8.447
REMARK INTER:                  -7.836
REMARK INTRA:                  -0.611
REMARK UNBOUND:                -0.931
REMARK SMILES CCCCCCCCCCCC(=O)[O-]
REMARK SMILES IDX 7 1 8 2 9 3 10 4 11 5 12 6 13 7 14 8 6 9 5 10 4 11 3 12 2 13
REMARK SMILES IDX 1 14
REMARK H PARENT
REMARK Flexibility Score: inf
ROOT
ATOM      1  C   UNL     1    -104.181 -85.482  39.812  1.00  0.00     0.000 C 
ENDROOT
BRANCH   1   2
ATOM      2  C   UNL     1    -103.591 -86.167  38.575  1.00  0.00     0.000 C 
BRANCH   2   3
ATOM      3  C   UNL     1    -104.239 -87.540  38.344  1.00  0.00     0.000 C 
BRANCH   3   4
ATOM      4  C   UNL     1    -104.935 -87.649  36.975  1.00  0.00     0.006 C 
BRANCH   4   5
ATOM      5  C   UNL     1    -104.888 -86.361  36.137  1.00  0.00     0.053 C 
BRANCH   5   6
ATOM      6  C   UNL     1    -105.804 -86.425  34.955  1.00  0.00     0.041 C 
ATOM      7  O   UNL     1    -106.035 -85.391  34.275  1.00  0.00    -0.550 OA
ATOM      8  O   UNL     1    -106.432 -87.620  34.625  1.00  0.00    -0.550 OA
ENDBRANCH   5   6
ENDBRANCH   4   5
ENDBRANCH   3   4
ENDBRANCH   2   3
ENDBRANCH   1   2
BRANCH   1   9
ATOM      9  C   UNL     1    -105.411 -84.642  39.444  1.00  0.00     0.000 C 
BRANCH   9  10
ATOM     10  C   UNL     1    -105.086 -83.145  39.477  1.00  0.00    -0.000 C 
BRANCH  10  11
ATOM     11  C   UNL     1    -103.619 -82.908  39.864  1.00  0.00    -0.000 C 
BRANCH  11  12
ATOM     12  C   UNL     1    -103.197 -81.438  39.716  1.00  0.00    -0.000 C 
BRANCH  12  13
ATOM     13  C   UNL     1    -104.262 -80.462  40.238  1.00  0.00    -0.003 C 
ATOM     14  C   UNL     1    -103.836 -79.842  41.566  1.00  0.00     0.004 C 
ENDBRANCH  12  13
ENDBRANCH  11  12
ENDBRANCH  10  11
ENDBRANCH   9  10
ENDBRANCH   1   9
TORSDOF 10
ENDMDL
MODEL 8
REMARK VINA RESULT:    -4.743      3.350      6.211
REMARK INTER + INTRA:          -8.446
REMARK INTER:                  -7.690
REMARK INTRA:                  -0.756
REMARK UNBOUND:                -0.931
REMARK SMILES CCCCCCCCCCCC(=O)[O-]
REMARK SMILES IDX 7 1 8 2 9 3 10 4 11 5 12 6 13 7 14 8 6 9 5 10 4 11 3 12 2 13
REMARK SMILES IDX 1 14
REMARK H PARENT
REMARK Flexibility Score: inf
ROOT
ATOM      1  C   UNL     1    -104.156 -85.643  39.870  1.00  0.00     0.000 C 
ENDROOT
BRANCH   1   2
ATOM      2  C   UNL     1    -105.237 -84.610  39.532  1.00  0.00     0.000 C 
BRANCH   2   3
ATOM      3  C   UNL     1    -104.642 -83.421  38.763  1.00  0.00     0.000 C 
BRANCH   3   4
ATOM      4  C   UNL     1    -104.736 -82.098  39.545  1.00  0.00     0.006 C 
BRANCH   4   5
ATOM      5  C   UNL     1    -103.421 -81.660  40.208  1.00  0.00     0.053 C 
BRANCH   5   6
ATOM      6  C   UNL     1    -103.487 -80.252  40.713  1.00  0.00     0.041 C 
ATOM      7  O   UNL     1    -104.197 -79.970  41.713  1.00  0.00    -0.550 OA
ATOM      8  O   UNL     1    -102.791 -79.244  40.057  1.00  0.00    -0.550 OA
ENDBRANCH   5   6
ENDBRANCH   4   5
ENDBRANCH   3   4
ENDBRANCH   2   3
ENDBRANCH   1   2
BRANCH   1   9
ATOM      9  C   UNL     1    -103.531 -86.225  38.595  1.00  0.00     0.000 C 
BRANCH   9  10
ATOM     10  C   UNL     1    -104.180 -87.563  38.224  1.00  0.00    -0.000 C 
BRANCH  10  11
ATOM     11  C   UNL     1    -105.150 -87.395  37.045  1.00  0.00    -0.000 C 
BRANCH  11  12
ATOM     12  C   UNL     1    -104.797 -86.197  36.152  1.00  0.00    -0.000 C 
BRANCH  12  13
ATOM     13  C   UNL     1    -105.585 -86.191  34.832  1.00  0.00    -0.003 C 
ATOM     14  C   UNL     1    -106.347 -87.499  34.642  1.00  0.00     0.004 C 
ENDBRANCH  12  13
ENDBRANCH  11  12
ENDBRANCH  10  11
ENDBRANCH   9  10
ENDBRANCH   1   9
TORSDOF 10
ENDMDL
MODEL 9
REMARK VINA RESULT:    -4.734      1.654      2.596
REMARK INTER + INTRA:          -8.432
REMARK INTER:                  -7.230
REMARK INTRA:                  -1.203
REMARK UNBOUND:                -0.931
REMARK SMILES CCCCCCCCCCCC(=O)[O-]
REMARK SMILES IDX 7 1 8 2 9 3 10 4 11 5 12 6 13 7 14 8 6 9 5 10 4 11 3 12 2 13
REMARK SMILES IDX 1 14
REMARK H PARENT
REMARK Flexibility Score: inf
ROOT
ATOM      1  C   UNL     1    -102.746 -85.662  39.194  1.00  0.00     0.000 C 
ENDROOT
BRANCH   1   2
ATOM      2  C   UNL     1    -104.229 -85.655  39.581  1.00  0.00     0.000 C 
BRANCH   2   3
ATOM      3  C   UNL     1    -105.116 -85.400  38.355  1.00  0.00     0.000 C 
BRANCH   3   4
ATOM      4  C   UNL     1    -104.982 -86.497  37.283  1.00  0.00     0.006 C 
BRANCH   4   5
ATOM      5  C   UNL     1    -104.532 -85.984  35.906  1.00  0.00     0.053 C 
BRANCH   5   6
ATOM      6  C   UNL     1    -105.621 -86.086  34.883  1.00  0.00     0.041 C 
ATOM      7  O   UNL     1    -106.022 -85.056  34.280  1.00  0.00    -0.550 OA
ATOM      8  O   UNL     1    -106.218 -87.313  34.623  1.00  0.00    -0.550 OA
ENDBRANCH   5   6
ENDBRANCH   4   5
ENDBRANCH   3   4
ENDBRANCH   2   3
ENDBRANCH   1   2
BRANCH   1   9
ATOM      9  C   UNL     1    -102.254 -84.248  38.863  1.00  0.00     0.000 C 
BRANCH   9  10
ATOM     10  C   UNL     1    -102.251 -83.359  40.112  1.00  0.00    -0.000 C 
BRANCH  10  11
ATOM     11  C   UNL     1    -102.909 -82.002  39.823  1.00  0.00    -0.000 C 
BRANCH  11  12
ATOM     12  C   UNL     1    -104.435 -82.033  39.997  1.00  0.00    -0.000 C 
BRANCH  12  13
ATOM     13  C   UNL     1    -105.185 -81.679  38.704  1.00  0.00    -0.003 C 
ATOM     14  C   UNL     1    -104.217 -81.500  37.538  1.00  0.00     0.004 C 
ENDBRANCH  12  13
ENDBRANCH  11  12
ENDBRANCH  10  11
ENDBRANCH   9  10
ENDBRANCH   1   9
TORSDOF 10
ENDMDL
