MODEL 1
REMARK VINA RESULT:   141.154      0.000      0.000
REMARK INTER + INTRA:         153.973
REMARK INTER:                 153.532
REMARK INTRA:                   0.441
REMARK UNBOUND:                 0.441
REMARK SMILES C[C@H]1[C@H](C)CC[C@@]2(C(=O)[O-])CC[C@@]3(C)C(=CC[C@H]4[C@]5(C)CC[C@@H](O)C(C)(C)[C@@H]5CC[C@@]43C)[C@H]12
REMARK SMILES IDX 7 1 6 2 11 3 33 4 5 5 12 6 15 7 2 8 3 9 13 10 16 11 1 12
REMARK SMILES IDX 4 13 14 14 31 15 17 16 18 17 30 18 32 19 19 20 29 21 28 22
REMARK SMILES IDX 21 23 20 24 25 25 22 26 23 27 26 28 27 29 8 30 9 31 10 32
REMARK SMILES IDX 24 33
REMARK H PARENT 24 34
REMARK Flexibility Score: inf
ROOT
ATOM      1  C   UNL     1      -5.919   0.180   2.083  1.00  0.00     0.017 C 
ATOM      2  C   UNL     1      -7.450  -0.154   1.958  1.00  0.00     0.014 C 
ATOM      3  C   UNL     1      -5.626   0.500   3.576  1.00  0.00     0.014 C 
ATOM      4  C   UNL     1      -5.019  -1.038   1.675  1.00  0.00     0.030 C 
ATOM      5  C   UNL     1      -7.767  -1.453   1.213  1.00  0.00     0.004 C 
ATOM      6  C   UNL     1      -4.159   0.873   3.826  1.00  0.00     0.013 C 
ATOM      7  C   UNL     1      -3.517  -0.714   1.939  1.00  0.00    -0.063 C 
ATOM      8  C   UNL     1      -5.390  -1.646   0.266  1.00  0.00    -0.003 C 
ATOM      9  C   UNL     1      -6.921  -1.617  -0.055  1.00  0.00    -0.011 C 
ATOM     10  C   UNL     1      -3.121  -0.209   3.357  1.00  0.00    -0.006 C 
ATOM     11  C   UNL     1      -2.565  -0.964   0.996  1.00  0.00    -0.027 C 
ATOM     12  C   UNL     1      -4.900  -3.112   0.172  1.00  0.00     0.008 C 
ATOM     13  C   UNL     1      -7.287  -0.572  -1.125  1.00  0.00     0.008 C 
ATOM     14  C   UNL     1      -3.266  -1.422   4.340  1.00  0.00     0.017 C 
ATOM     15  C   UNL     1      -1.620   0.412   3.366  1.00  0.00    -0.020 C 
ATOM     16  C   UNL     1      -1.092  -0.712   1.152  1.00  0.00     0.032 C 
ATOM     17  C   UNL     1      -0.654  -0.586   2.624  1.00  0.00     0.006 C 
ATOM     18  C   UNL     1      -1.115   0.634   4.821  1.00  0.00     0.008 C 
ATOM     19  C   UNL     1      -1.623   1.800   2.639  1.00  0.00     0.012 C 
ATOM     20  C   UNL     1       0.931  -0.446   2.822  1.00  0.00    -0.025 C 
ATOM     21  C   UNL     1       0.368   0.986   4.916  1.00  0.00     0.005 C 
ATOM     22  C   UNL     1       1.315  -0.090   4.317  1.00  0.00     0.003 C 
ATOM     23  C   UNL     1       1.594  -1.806   2.400  1.00  0.00     0.010 C 
ATOM     24  C   UNL     1       1.565   0.646   1.896  1.00  0.00     0.012 C 
ATOM     25  C   UNL     1       1.724  -1.312   5.252  1.00  0.00    -0.006 C 
ATOM     26  C   UNL     1       2.966  -2.037   3.032  1.00  0.00     0.033 C 
ATOM     27  C   UNL     1       2.920  -2.108   4.577  1.00  0.00     0.120 C 
ATOM     28  C   UNL     1       0.565  -2.305   5.544  1.00  0.00     0.014 C 
ATOM     29  C   UNL     1       2.186  -0.795   6.647  1.00  0.00     0.014 C 
ENDROOT
BRANCH   1  30
ATOM     30  C   UNL     1      -5.611   1.420   1.244  1.00  0.00     0.048 C 
ATOM     31  O   UNL     1      -5.024   1.299   0.136  1.00  0.00    -0.550 OA
ATOM     32  O   UNL     1      -5.979   2.693   1.667  1.00  0.00    -0.550 OA
ENDBRANCH   1  30
BRANCH  27  33
ATOM     33  O   UNL     1       4.177  -1.723   5.085  1.00  0.00    -0.393 OA
ATOM     34  H   UNL     1       4.393  -0.827   4.713  1.00  0.00     0.210 HD
ENDBRANCH  27  33
TORSDOF 2
ENDMDL
MODEL 2
REMARK VINA RESULT:   142.433      2.995      7.985
REMARK INTER + INTRA:         155.364
REMARK INTER:                 155.066
REMARK INTRA:                   0.298
REMARK UNBOUND:                 0.441
REMARK SMILES C[C@H]1[C@H](C)CC[C@@]2(C(=O)[O-])CC[C@@]3(C)C(=CC[C@H]4[C@]5(C)CC[C@@H](O)C(C)(C)[C@@H]5CC[C@@]43C)[C@H]12
REMARK SMILES IDX 7 1 6 2 11 3 33 4 5 5 12 6 15 7 2 8 3 9 13 10 16 11 1 12
REMARK SMILES IDX 4 13 14 14 31 15 17 16 18 17 30 18 32 19 19 20 29 21 28 22
REMARK SMILES IDX 21 23 20 24 25 25 22 26 23 27 26 28 27 29 8 30 9 31 10 32
REMARK SMILES IDX 24 33
REMARK H PARENT 24 34
REMARK Flexibility Score: inf
ROOT
ATOM      1  C   UNL     1      -2.599  -1.264   3.676  1.00  0.00     0.017 C 
ATOM      2  C   UNL     1      -1.581  -2.106   4.529  1.00  0.00     0.014 C 
ATOM      3  C   UNL     1      -3.920  -1.159   4.489  1.00  0.00     0.014 C 
ATOM      4  C   UNL     1      -2.083   0.194   3.421  1.00  0.00     0.030 C 
ATOM      5  C   UNL     1      -0.200  -1.468   4.698  1.00  0.00     0.004 C 
ATOM      6  C   UNL     1      -5.013  -0.379   3.745  1.00  0.00     0.013 C 
ATOM      7  C   UNL     1      -3.174   1.035   2.690  1.00  0.00    -0.063 C 
ATOM      8  C   UNL     1      -0.618   0.247   2.834  1.00  0.00    -0.003 C 
ATOM      9  C   UNL     1       0.328  -0.871   3.388  1.00  0.00    -0.011 C 
ATOM     10  C   UNL     1      -4.599   1.074   3.314  1.00  0.00    -0.006 C 
ATOM     11  C   UNL     1      -2.867   1.795   1.602  1.00  0.00    -0.027 C 
ATOM     12  C   UNL     1       0.027   1.622   3.130  1.00  0.00     0.008 C 
ATOM     13  C   UNL     1       0.638  -1.962   2.347  1.00  0.00     0.008 C 
ATOM     14  C   UNL     1      -4.506   1.921   4.631  1.00  0.00     0.017 C 
ATOM     15  C   UNL     1      -5.685   1.680   2.270  1.00  0.00    -0.020 C 
ATOM     16  C   UNL     1      -3.832   2.657   0.837  1.00  0.00     0.032 C 
ATOM     17  C   UNL     1      -5.101   3.000   1.640  1.00  0.00     0.006 C 
ATOM     18  C   UNL     1      -7.030   2.001   2.985  1.00  0.00     0.008 C 
ATOM     19  C   UNL     1      -5.975   0.629   1.145  1.00  0.00     0.012 C 
ATOM     20  C   UNL     1      -6.086   4.024   0.895  1.00  0.00    -0.025 C 
ATOM     21  C   UNL     1      -8.015   2.794   2.128  1.00  0.00     0.005 C 
ATOM     22  C   UNL     1      -7.473   4.168   1.646  1.00  0.00     0.003 C 
ATOM     23  C   UNL     1      -5.365   5.417   0.814  1.00  0.00     0.010 C 
ATOM     24  C   UNL     1      -6.387   3.609  -0.584  1.00  0.00     0.012 C 
ATOM     25  C   UNL     1      -7.615   5.403   2.640  1.00  0.00    -0.006 C 
ATOM     26  C   UNL     1      -6.328   6.593   0.659  1.00  0.00     0.033 C 
ATOM     27  C   UNL     1      -7.300   6.745   1.853  1.00  0.00     0.120 C 
ATOM     28  C   UNL     1      -6.688   5.326   3.886  1.00  0.00     0.014 C 
ATOM     29  C   UNL     1      -9.064   5.478   3.207  1.00  0.00     0.014 C 
ENDROOT
BRANCH   1  30
ATOM     30  C   UNL     1      -2.881  -2.004   2.369  1.00  0.00     0.048 C 
ATOM     31  O   UNL     1      -3.476  -3.114   2.391  1.00  0.00    -0.550 OA
ATOM     32  O   UNL     1      -2.508  -1.473   1.139  1.00  0.00    -0.550 OA
ENDBRANCH   1  30
BRANCH  27  33
ATOM     33  O   UNL     1      -8.470   7.392   1.405  1.00  0.00    -0.393 OA
ATOM     34  H   UNL     1      -8.541   7.245   0.425  1.00  0.00     0.210 HD
ENDBRANCH  27  33
TORSDOF 2
ENDMDL
