MODEL 1
REMARK VINA RESULT:     6.271      0.000      0.000
REMARK INTER + INTRA:          10.173
REMARK INTER:                  10.671
REMARK INTRA:                  -0.498
REMARK UNBOUND:                -0.498
REMARK SMILES CCCCCCCCCCCCCC(=O)[O-]
REMARK SMILES IDX 8 1 9 2 10 3 11 4 12 5 13 6 14 7 15 8 16 9 7 10 6 11 5 12
REMARK SMILES IDX 4 13 3 14 2 15 1 16
REMARK H PARENT
REMARK Flexibility Score: inf
ROOT
ATOM      1  C   UNL     1     -34.900  16.431  16.616  1.00  0.00     0.000 C 
ENDROOT
BRANCH   1   2
ATOM      2  C   UNL     1     -34.384  15.249  17.450  1.00  0.00     0.000 C 
BRANCH   2   3
ATOM      3  C   UNL     1     -34.303  13.944  16.642  1.00  0.00     0.000 C 
BRANCH   3   4
ATOM      4  C   UNL     1     -33.099  13.077  17.037  1.00  0.00     0.000 C 
BRANCH   4   5
ATOM      5  C   UNL     1     -32.889  13.088  18.558  1.00  0.00     0.006 C 
BRANCH   5   6
ATOM      6  C   UNL     1     -32.943  11.679  19.163  1.00  0.00     0.053 C 
BRANCH   6   7
ATOM      7  C   UNL     1     -33.678  11.662  20.467  1.00  0.00     0.041 C 
ATOM      8  O   UNL     1     -33.921  12.738  21.073  1.00  0.00    -0.550 OA
ATOM      9  O   UNL     1     -34.125  10.458  20.998  1.00  0.00    -0.550 OA
ENDBRANCH   6   7
ENDBRANCH   5   6
ENDBRANCH   4   5
ENDBRANCH   3   4
ENDBRANCH   2   3
ENDBRANCH   1   2
BRANCH   1  10
ATOM     10  C   UNL     1     -35.291  17.609  17.516  1.00  0.00     0.000 C 
BRANCH  10  11
ATOM     11  C   UNL     1     -36.789  17.581  17.842  1.00  0.00    -0.000 C 
BRANCH  11  12
ATOM     12  C   UNL     1     -37.404  16.222  17.488  1.00  0.00    -0.000 C 
BRANCH  12  13
ATOM     13  C   UNL     1     -38.419  15.782  18.555  1.00  0.00    -0.000 C 
BRANCH  13  14
ATOM     14  C   UNL     1     -39.728  16.596  18.487  1.00  0.00    -0.000 C 
BRANCH  14  15
ATOM     15  C   UNL     1     -40.278  16.759  17.059  1.00  0.00    -0.003 C 
ATOM     16  C   UNL     1     -40.446  18.220  16.646  1.00  0.00     0.004 C 
ENDBRANCH  14  15
ENDBRANCH  13  14
ENDBRANCH  12  13
ENDBRANCH  11  12
ENDBRANCH  10  11
ENDBRANCH   1  10
TORSDOF 12
ENDMDL
MODEL 2
REMARK VINA RESULT:     6.431      2.994      7.334
REMARK INTER + INTRA:          10.445
REMARK INTER:                  10.926
REMARK INTRA:                  -0.481
REMARK UNBOUND:                -0.498
REMARK SMILES CCCCCCCCCCCCCC(=O)[O-]
REMARK SMILES IDX 8 1 9 2 10 3 11 4 12 5 13 6 14 7 15 8 16 9 7 10 6 11 5 12
REMARK SMILES IDX 4 13 3 14 2 15 1 16
REMARK H PARENT
REMARK Flexibility Score: inf
ROOT
ATOM      1  C   UNL     1     -33.286  13.621  17.093  1.00  0.00     0.000 C 
ENDROOT
BRANCH   1   2
ATOM      2  C   UNL     1     -34.101  14.691  17.834  1.00  0.00     0.000 C 
BRANCH   2   3
ATOM      3  C   UNL     1     -34.792  15.677  16.878  1.00  0.00     0.000 C 
BRANCH   3   4
ATOM      4  C   UNL     1     -34.994  17.065  17.503  1.00  0.00     0.000 C 
BRANCH   4   5
ATOM      5  C   UNL     1     -36.488  17.382  17.667  1.00  0.00     0.006 C 
BRANCH   5   6
ATOM      6  C   UNL     1     -37.372  16.153  17.417  1.00  0.00     0.053 C 
BRANCH   6   7
ATOM      7  C   UNL     1     -38.677  16.251  18.145  1.00  0.00     0.041 C 
ATOM      8  O   UNL     1     -38.847  15.635  19.229  1.00  0.00    -0.550 OA
ATOM      9  O   UNL     1     -39.696  17.052  17.641  1.00  0.00    -0.550 OA
ENDBRANCH   6   7
ENDBRANCH   5   6
ENDBRANCH   4   5
ENDBRANCH   3   4
ENDBRANCH   2   3
ENDBRANCH   1   2
BRANCH   1  10
ATOM     10  C   UNL     1     -33.290  12.296  17.865  1.00  0.00     0.000 C 
BRANCH  10  11
ATOM     11  C   UNL     1     -32.646  12.461  19.248  1.00  0.00    -0.000 C 
BRANCH  11  12
ATOM     12  C   UNL     1     -33.635  12.101  20.362  1.00  0.00    -0.000 C 
BRANCH  12  13
ATOM     13  C   UNL     1     -33.948  10.597  20.356  1.00  0.00    -0.000 C 
BRANCH  13  14
ATOM     14  C   UNL     1     -33.966   9.998  21.779  1.00  0.00    -0.000 C 
BRANCH  14  15
ATOM     15  C   UNL     1     -33.421   8.561  21.848  1.00  0.00    -0.003 C 
ATOM     16  C   UNL     1     -34.309   7.623  22.663  1.00  0.00     0.004 C 
ENDBRANCH  14  15
ENDBRANCH  13  14
ENDBRANCH  12  13
ENDBRANCH  11  12
ENDBRANCH  10  11
ENDBRANCH   1  10
TORSDOF 12
ENDMDL
MODEL 3
REMARK VINA RESULT:     6.812      2.663      6.581
REMARK INTER + INTRA:          11.093
REMARK INTER:                  11.531
REMARK INTRA:                  -0.439
REMARK UNBOUND:                -0.498
REMARK SMILES CCCCCCCCCCCCCC(=O)[O-]
REMARK SMILES IDX 8 1 9 2 10 3 11 4 12 5 13 6 14 7 15 8 16 9 7 10 6 11 5 12
REMARK SMILES IDX 4 13 3 14 2 15 1 16
REMARK H PARENT
REMARK Flexibility Score: inf
ROOT
ATOM      1  C   UNL     1     -34.176  14.029  16.299  1.00  0.00     0.000 C 
ENDROOT
BRANCH   1   2
ATOM      2  C   UNL     1     -34.414  15.161  17.309  1.00  0.00     0.000 C 
BRANCH   2   3
ATOM      3  C   UNL     1     -34.769  16.495  16.632  1.00  0.00     0.000 C 
BRANCH   3   4
ATOM      4  C   UNL     1     -35.220  17.567  17.635  1.00  0.00     0.000 C 
BRANCH   4   5
ATOM      5  C   UNL     1     -36.750  17.594  17.758  1.00  0.00     0.006 C 
BRANCH   5   6
ATOM      6  C   UNL     1     -37.360  16.187  17.724  1.00  0.00     0.053 C 
BRANCH   6   7
ATOM      7  C   UNL     1     -38.779  16.184  18.204  1.00  0.00     0.041 C 
ATOM      8  O   UNL     1     -39.629  16.948  17.677  1.00  0.00    -0.550 OA
ATOM      9  O   UNL     1     -39.169  15.313  19.214  1.00  0.00    -0.550 OA
ENDBRANCH   6   7
ENDBRANCH   5   6
ENDBRANCH   4   5
ENDBRANCH   3   4
ENDBRANCH   2   3
ENDBRANCH   1   2
BRANCH   1  10
ATOM     10  C   UNL     1     -33.677  12.762  17.004  1.00  0.00     0.000 C 
BRANCH  10  11
ATOM     11  C   UNL     1     -32.411  13.046  17.821  1.00  0.00    -0.000 C 
BRANCH  11  12
ATOM     12  C   UNL     1     -32.615  12.686  19.296  1.00  0.00    -0.000 C 
BRANCH  12  13
ATOM     13  C   UNL     1     -33.436  11.395  19.441  1.00  0.00    -0.000 C 
BRANCH  13  14
ATOM     14  C   UNL     1     -34.003  11.219  20.865  1.00  0.00    -0.000 C 
BRANCH  14  15
ATOM     15  C   UNL     1     -34.010  12.518  21.689  1.00  0.00    -0.003 C 
ATOM     16  C   UNL     1     -34.296  12.285  23.171  1.00  0.00     0.004 C 
ENDBRANCH  14  15
ENDBRANCH  13  14
ENDBRANCH  12  13
ENDBRANCH  11  12
ENDBRANCH  10  11
ENDBRANCH   1  10
TORSDOF 12
ENDMDL
MODEL 4
REMARK VINA RESULT:     7.141      1.443      2.764
REMARK INTER + INTRA:          11.653
REMARK INTER:                  12.113
REMARK INTRA:                  -0.460
REMARK UNBOUND:                -0.498
REMARK SMILES CCCCCCCCCCCCCC(=O)[O-]
REMARK SMILES IDX 8 1 9 2 10 3 11 4 12 5 13 6 14 7 15 8 16 9 7 10 6 11 5 12
REMARK SMILES IDX 4 13 3 14 2 15 1 16
REMARK H PARENT
REMARK Flexibility Score: inf
ROOT
ATOM      1  C   UNL     1     -33.526  13.933  16.602  1.00  0.00     0.000 C 
ENDROOT
BRANCH   1   2
ATOM      2  C   UNL     1     -33.432  12.602  17.362  1.00  0.00     0.000 C 
BRANCH   2   3
ATOM      3  C   UNL     1     -32.547  12.696  18.615  1.00  0.00     0.000 C 
BRANCH   3   4
ATOM      4  C   UNL     1     -33.305  12.343  19.903  1.00  0.00     0.000 C 
BRANCH   4   5
ATOM      5  C   UNL     1     -33.689  10.856  19.924  1.00  0.00     0.006 C 
BRANCH   5   6
ATOM      6  C   UNL     1     -34.036  10.366  21.336  1.00  0.00     0.053 C 
BRANCH   6   7
ATOM      7  C   UNL     1     -33.377   9.059  21.648  1.00  0.00     0.041 C 
ATOM      8  O   UNL     1     -32.206   8.826  21.248  1.00  0.00    -0.550 OA
ATOM      9  O   UNL     1     -34.044   8.108  22.411  1.00  0.00    -0.550 OA
ENDBRANCH   6   7
ENDBRANCH   5   6
ENDBRANCH   4   5
ENDBRANCH   3   4
ENDBRANCH   2   3
ENDBRANCH   1   2
BRANCH   1  10
ATOM     10  C   UNL     1     -34.183  15.015  17.469  1.00  0.00     0.000 C 
BRANCH  10  11
ATOM     11  C   UNL     1     -34.951  16.023  16.606  1.00  0.00    -0.000 C 
BRANCH  11  12
ATOM     12  C   UNL     1     -35.261  17.300  17.395  1.00  0.00    -0.000 C 
BRANCH  12  13
ATOM     13  C   UNL     1     -36.761  17.402  17.711  1.00  0.00    -0.000 C 
BRANCH  13  14
ATOM     14  C   UNL     1     -37.409  16.017  17.927  1.00  0.00    -0.000 C 
BRANCH  14  15
ATOM     15  C   UNL     1     -38.895  16.088  18.317  1.00  0.00    -0.003 C 
ATOM     16  C   UNL     1     -39.678  17.119  17.507  1.00  0.00     0.004 C 
ENDBRANCH  14  15
ENDBRANCH  13  14
ENDBRANCH  12  13
ENDBRANCH  11  12
ENDBRANCH  10  11
ENDBRANCH   1  10
TORSDOF 12
ENDMDL
