MODEL 1
REMARK VINA RESULT:    -4.949      0.000      0.000
REMARK INTER + INTRA:         -11.826
REMARK INTER:                  -9.289
REMARK INTRA:                  -2.537
REMARK UNBOUND:                -2.537
REMARK SMILES CCCCCCCCC=CCCCCCCCC(=O)[O-]
REMARK SMILES IDX 10 1 9 2 11 3 12 4 13 5 14 6 15 7 16 8 17 9 18 10 19 11
REMARK SMILES IDX 20 12 8 13 7 14 6 15 5 16 4 17 3 18 2 19 1 20
REMARK H PARENT
REMARK Flexibility Score: inf
ROOT
ATOM      1  C   UNL     1      -6.477 -22.451 -17.692  1.00  0.00    -0.031 C 
ATOM      2  C   UNL     1      -5.667 -23.514 -17.867  1.00  0.00    -0.031 C 
ENDROOT
BRANCH   1   3
ATOM      3  C   UNL     1      -7.985 -22.487 -17.614  1.00  0.00     0.027 C 
BRANCH   3   4
ATOM      4  C   UNL     1      -8.639 -22.123 -18.953  1.00  0.00     0.004 C 
BRANCH   4   5
ATOM      5  C   UNL     1      -8.622 -23.289 -19.955  1.00  0.00     0.000 C 
BRANCH   5   6
ATOM      6  C   UNL     1      -7.939 -22.919 -21.281  1.00  0.00     0.000 C 
BRANCH   6   7
ATOM      7  C   UNL     1      -7.198 -21.572 -21.208  1.00  0.00     0.000 C 
BRANCH   7   8
ATOM      8  C   UNL     1      -5.675 -21.729 -21.327  1.00  0.00     0.006 C 
BRANCH   8   9
ATOM      9  C   UNL     1      -5.273 -22.961 -22.148  1.00  0.00     0.053 C 
BRANCH   9  10
ATOM     10  C   UNL     1      -4.425 -23.882 -21.328  1.00  0.00     0.041 C 
ATOM     11  O   UNL     1      -4.656 -25.120 -21.325  1.00  0.00    -0.550 OA
ATOM     12  O   UNL     1      -3.413 -23.368 -20.528  1.00  0.00    -0.550 OA
ENDBRANCH   9  10
ENDBRANCH   8   9
ENDBRANCH   7   8
ENDBRANCH   6   7
ENDBRANCH   5   6
ENDBRANCH   4   5
ENDBRANCH   3   4
ENDBRANCH   1   3
BRANCH   2  13
ATOM     13  C   UNL     1      -6.111 -24.952 -18.006  1.00  0.00     0.027 C 
BRANCH  13  14
ATOM     14  C   UNL     1      -5.787 -25.767 -16.745  1.00  0.00     0.004 C 
BRANCH  14  15
ATOM     15  C   UNL     1      -5.085 -24.960 -15.633  1.00  0.00     0.000 C 
BRANCH  15  16
ATOM     16  C   UNL     1      -5.870 -24.856 -14.311  1.00  0.00     0.000 C 
BRANCH  16  17
ATOM     17  C   UNL     1      -6.755 -23.602 -14.171  1.00  0.00    -0.000 C 
BRANCH  17  18
ATOM     18  C   UNL     1      -6.285 -22.590 -13.109  1.00  0.00    -0.000 C 
BRANCH  18  19
ATOM     19  C   UNL     1      -4.851 -22.098 -13.350  1.00  0.00    -0.003 C 
ATOM     20  C   UNL     1      -4.784 -21.178 -14.565  1.00  0.00     0.004 C 
ENDBRANCH  18  19
ENDBRANCH  17  18
ENDBRANCH  16  17
ENDBRANCH  15  16
ENDBRANCH  14  15
ENDBRANCH  13  14
ENDBRANCH   2  13
TORSDOF 15
ENDMDL
MODEL 2
REMARK VINA RESULT:    -4.918      2.327      4.095
REMARK INTER + INTRA:         -11.767
REMARK INTER:                  -9.321
REMARK INTRA:                  -2.446
REMARK UNBOUND:                -2.537
REMARK SMILES CCCCCCCCC=CCCCCCCCC(=O)[O-]
REMARK SMILES IDX 10 1 9 2 11 3 12 4 13 5 14 6 15 7 16 8 17 9 18 10 19 11
REMARK SMILES IDX 20 12 8 13 7 14 6 15 5 16 4 17 3 18 2 19 1 20
REMARK H PARENT
REMARK Flexibility Score: inf
ROOT
ATOM      1  C   UNL     1      -7.962 -23.993 -20.262  1.00  0.00    -0.031 C 
ATOM      2  C   UNL     1      -8.561 -22.930 -19.691  1.00  0.00    -0.031 C 
ENDROOT
BRANCH   1   3
ATOM      3  C   UNL     1      -6.823 -24.794 -19.675  1.00  0.00     0.027 C 
BRANCH   3   4
ATOM      4  C   UNL     1      -5.516 -24.590 -20.453  1.00  0.00     0.004 C 
BRANCH   4   5
ATOM      5  C   UNL     1      -5.645 -23.529 -21.558  1.00  0.00     0.000 C 
BRANCH   5   6
ATOM      6  C   UNL     1      -4.765 -22.296 -21.299  1.00  0.00     0.000 C 
BRANCH   6   7
ATOM      7  C   UNL     1      -3.586 -22.598 -20.358  1.00  0.00     0.000 C 
BRANCH   7   8
ATOM      8  C   UNL     1      -2.926 -21.324 -19.810  1.00  0.00     0.006 C 
BRANCH   8   9
ATOM      9  C   UNL     1      -2.171 -21.570 -18.497  1.00  0.00     0.053 C 
BRANCH   9  10
ATOM     10  C   UNL     1      -0.733 -21.880 -18.772  1.00  0.00     0.041 C 
ATOM     11  O   UNL     1      -0.067 -21.153 -19.556  1.00  0.00    -0.550 OA
ATOM     12  O   UNL     1      -0.142 -23.000 -18.202  1.00  0.00    -0.550 OA
ENDBRANCH   9  10
ENDBRANCH   8   9
ENDBRANCH   7   8
ENDBRANCH   6   7
ENDBRANCH   5   6
ENDBRANCH   4   5
ENDBRANCH   3   4
ENDBRANCH   1   3
BRANCH   2  13
ATOM     13  C   UNL     1      -8.215 -22.338 -18.344  1.00  0.00     0.027 C 
BRANCH  13  14
ATOM     14  C   UNL     1      -7.226 -21.171 -18.478  1.00  0.00     0.004 C 
BRANCH  14  15
ATOM     15  C   UNL     1      -5.975 -21.296 -17.585  1.00  0.00     0.000 C 
BRANCH  15  16
ATOM     16  C   UNL     1      -5.550 -22.741 -17.258  1.00  0.00     0.000 C 
BRANCH  16  17
ATOM     17  C   UNL     1      -5.838 -23.198 -15.814  1.00  0.00    -0.000 C 
BRANCH  17  18
ATOM     18  C   UNL     1      -4.950 -24.350 -15.309  1.00  0.00    -0.000 C 
BRANCH  18  19
ATOM     19  C   UNL     1      -5.741 -25.640 -15.049  1.00  0.00    -0.003 C 
ATOM     20  C   UNL     1      -5.751 -26.536 -16.284  1.00  0.00     0.004 C 
ENDBRANCH  18  19
ENDBRANCH  17  18
ENDBRANCH  16  17
ENDBRANCH  15  16
ENDBRANCH  14  15
ENDBRANCH  13  14
ENDBRANCH   2  13
TORSDOF 15
ENDMDL
MODEL 3
REMARK VINA RESULT:    -4.911      2.650      4.862
REMARK INTER + INTRA:         -11.755
REMARK INTER:                  -8.910
REMARK INTRA:                  -2.846
REMARK UNBOUND:                -2.537
REMARK SMILES CCCCCCCCC=CCCCCCCCC(=O)[O-]
REMARK SMILES IDX 10 1 9 2 11 3 12 4 13 5 14 6 15 7 16 8 17 9 18 10 19 11
REMARK SMILES IDX 20 12 8 13 7 14 6 15 5 16 4 17 3 18 2 19 1 20
REMARK H PARENT
REMARK Flexibility Score: inf
ROOT
ATOM      1  C   UNL     1      -7.258 -24.540 -19.708  1.00  0.00    -0.031 C 
ATOM      2  C   UNL     1      -6.055 -24.907 -20.192  1.00  0.00    -0.031 C 
ENDROOT
BRANCH   1   3
ATOM      3  C   UNL     1      -8.142 -23.448 -20.260  1.00  0.00     0.027 C 
BRANCH   3   4
ATOM      4  C   UNL     1      -8.658 -22.513 -19.158  1.00  0.00     0.004 C 
BRANCH   4   5
ATOM      5  C   UNL     1      -7.526 -21.742 -18.460  1.00  0.00     0.000 C 
BRANCH   5   6
ATOM      6  C   UNL     1      -7.730 -21.643 -16.940  1.00  0.00     0.000 C 
BRANCH   6   7
ATOM      7  C   UNL     1      -6.856 -22.641 -16.160  1.00  0.00     0.000 C 
BRANCH   7   8
ATOM      8  C   UNL     1      -5.602 -23.063 -16.941  1.00  0.00     0.006 C 
BRANCH   8   9
ATOM      9  C   UNL     1      -4.699 -24.007 -16.137  1.00  0.00     0.053 C 
BRANCH   9  10
ATOM     10  C   UNL     1      -5.411 -25.291 -15.846  1.00  0.00     0.041 C 
ATOM     11  O   UNL     1      -5.791 -26.032 -16.791  1.00  0.00    -0.550 OA
ATOM     12  O   UNL     1      -5.699 -25.645 -14.535  1.00  0.00    -0.550 OA
ENDBRANCH   9  10
ENDBRANCH   8   9
ENDBRANCH   7   8
ENDBRANCH   6   7
ENDBRANCH   5   6
ENDBRANCH   4   5
ENDBRANCH   3   4
ENDBRANCH   1   3
BRANCH   2  13
ATOM     13  C   UNL     1      -5.362 -24.302 -21.391  1.00  0.00     0.027 C 
BRANCH  13  14
ATOM     14  C   UNL     1      -4.223 -23.362 -20.968  1.00  0.00     0.004 C 
BRANCH  14  15
ATOM     15  C   UNL     1      -4.670 -21.914 -20.683  1.00  0.00     0.000 C 
BRANCH  15  16
ATOM     16  C   UNL     1      -3.669 -21.073 -19.866  1.00  0.00     0.000 C 
BRANCH  16  17
ATOM     17  C   UNL     1      -2.601 -21.883 -19.104  1.00  0.00    -0.000 C 
BRANCH  17  18
ATOM     18  C   UNL     1      -2.381 -21.454 -17.642  1.00  0.00    -0.000 C 
BRANCH  18  19
ATOM     19  C   UNL     1      -2.855 -20.020 -17.365  1.00  0.00    -0.003 C 
ATOM     20  C   UNL     1      -3.780 -19.974 -16.152  1.00  0.00     0.004 C 
ENDBRANCH  18  19
ENDBRANCH  17  18
ENDBRANCH  16  17
ENDBRANCH  15  16
ENDBRANCH  14  15
ENDBRANCH  13  14
ENDBRANCH   2  13
TORSDOF 15
ENDMDL
MODEL 4
REMARK VINA RESULT:    -4.858      3.152      6.440
REMARK INTER + INTRA:         -11.656
REMARK INTER:                  -9.193
REMARK INTRA:                  -2.463
REMARK UNBOUND:                -2.537
REMARK SMILES CCCCCCCCC=CCCCCCCCC(=O)[O-]
REMARK SMILES IDX 10 1 9 2 11 3 12 4 13 5 14 6 15 7 16 8 17 9 18 10 19 11
REMARK SMILES IDX 20 12 8 13 7 14 6 15 5 16 4 17 3 18 2 19 1 20
REMARK H PARENT
REMARK Flexibility Score: inf
ROOT
ATOM      1  C   UNL     1      -6.509 -25.360 -19.575  1.00  0.00    -0.031 C 
ATOM      2  C   UNL     1      -5.892 -25.131 -20.751  1.00  0.00    -0.031 C 
ENDROOT
BRANCH   1   3
ATOM      3  C   UNL     1      -6.119 -24.775 -18.238  1.00  0.00     0.027 C 
BRANCH   3   4
ATOM      4  C   UNL     1      -5.896 -25.863 -17.178  1.00  0.00     0.004 C 
BRANCH   4   5
ATOM      5  C   UNL     1      -5.441 -25.287 -15.827  1.00  0.00     0.000 C 
BRANCH   5   6
ATOM      6  C   UNL     1      -4.954 -23.833 -15.939  1.00  0.00     0.000 C 
BRANCH   6   7
ATOM      7  C   UNL     1      -5.869 -22.845 -15.196  1.00  0.00     0.000 C 
BRANCH   7   8
ATOM      8  C   UNL     1      -6.580 -23.486 -13.995  1.00  0.00     0.006 C 
BRANCH   8   9
ATOM      9  C   UNL     1      -6.013 -23.007 -12.651  1.00  0.00     0.053 C 
BRANCH   9  10
ATOM     10  C   UNL     1      -5.164 -24.073 -12.033  1.00  0.00     0.041 C 
ATOM     11  O   UNL     1      -5.618 -25.239 -11.887  1.00  0.00    -0.550 OA
ATOM     12  O   UNL     1      -3.890 -23.767 -11.572  1.00  0.00    -0.550 OA
ENDBRANCH   9  10
ENDBRANCH   8   9
ENDBRANCH   7   8
ENDBRANCH   6   7
ENDBRANCH   5   6
ENDBRANCH   4   5
ENDBRANCH   3   4
ENDBRANCH   1   3
BRANCH   2  13
ATOM     13  C   UNL     1      -4.695 -24.233 -20.962  1.00  0.00     0.027 C 
BRANCH  13  14
ATOM     14  C   UNL     1      -5.050 -23.013 -21.824  1.00  0.00     0.004 C 
BRANCH  14  15
ATOM     15  C   UNL     1      -5.292 -21.719 -21.020  1.00  0.00     0.000 C 
BRANCH  15  16
ATOM     16  C   UNL     1      -4.590 -21.664 -19.648  1.00  0.00     0.000 C 
BRANCH  16  17
ATOM     17  C   UNL     1      -5.452 -21.114 -18.494  1.00  0.00    -0.000 C 
BRANCH  17  18
ATOM     18  C   UNL     1      -6.920 -20.828 -18.858  1.00  0.00    -0.000 C 
BRANCH  18  19
ATOM     19  C   UNL     1      -7.909 -21.706 -18.079  1.00  0.00    -0.003 C 
ATOM     20  C   UNL     1      -8.783 -22.521 -19.027  1.00  0.00     0.004 C 
ENDBRANCH  18  19
ENDBRANCH  17  18
ENDBRANCH  16  17
ENDBRANCH  15  16
ENDBRANCH  14  15
ENDBRANCH  13  14
ENDBRANCH   2  13
TORSDOF 15
ENDMDL
MODEL 5
REMARK VINA RESULT:    -4.799      3.024      6.763
REMARK INTER + INTRA:         -11.545
REMARK INTER:                  -9.239
REMARK INTRA:                  -2.306
REMARK UNBOUND:                -2.537
REMARK SMILES CCCCCCCCC=CCCCCCCCC(=O)[O-]
REMARK SMILES IDX 10 1 9 2 11 3 12 4 13 5 14 6 15 7 16 8 17 9 18 10 19 11
REMARK SMILES IDX 20 12 8 13 7 14 6 15 5 16 4 17 3 18 2 19 1 20
REMARK H PARENT
REMARK Flexibility Score: inf
ROOT
ATOM      1  C   UNL     1      -6.714 -23.489 -17.732  1.00  0.00    -0.031 C 
ATOM      2  C   UNL     1      -7.662 -22.770 -18.365  1.00  0.00    -0.031 C 
ENDROOT
BRANCH   1   3
ATOM      3  C   UNL     1      -6.144 -24.810 -18.194  1.00  0.00     0.027 C 
BRANCH   3   4
ATOM      4  C   UNL     1      -5.782 -25.723 -17.015  1.00  0.00     0.004 C 
BRANCH   4   5
ATOM      5  C   UNL     1      -5.404 -24.934 -15.751  1.00  0.00     0.000 C 
BRANCH   5   6
ATOM      6  C   UNL     1      -5.763 -25.683 -14.458  1.00  0.00     0.000 C 
BRANCH   6   7
ATOM      7  C   UNL     1      -6.586 -24.822 -13.485  1.00  0.00     0.000 C 
BRANCH   7   8
ATOM      8  C   UNL     1      -6.846 -23.407 -14.025  1.00  0.00     0.006 C 
BRANCH   8   9
ATOM      9  C   UNL     1      -7.481 -22.485 -12.975  1.00  0.00     0.053 C 
BRANCH   9  10
ATOM     10  C   UNL     1      -7.991 -21.234 -13.619  1.00  0.00     0.041 C 
ATOM     11  O   UNL     1      -7.191 -20.317 -13.944  1.00  0.00    -0.550 OA
ATOM     12  O   UNL     1      -9.354 -21.059 -13.815  1.00  0.00    -0.550 OA
ENDBRANCH   9  10
ENDBRANCH   8   9
ENDBRANCH   7   8
ENDBRANCH   6   7
ENDBRANCH   5   6
ENDBRANCH   4   5
ENDBRANCH   3   4
ENDBRANCH   1   3
BRANCH   2  13
ATOM     13  C   UNL     1      -8.331 -23.141 -19.668  1.00  0.00     0.027 C 
BRANCH  13  14
ATOM     14  C   UNL     1      -7.602 -22.527 -20.872  1.00  0.00     0.004 C 
BRANCH  14  15
ATOM     15  C   UNL     1      -6.663 -23.503 -21.609  1.00  0.00     0.000 C 
BRANCH  15  16
ATOM     16  C   UNL     1      -5.247 -22.960 -21.886  1.00  0.00     0.000 C 
BRANCH  16  17
ATOM     17  C   UNL     1      -4.136 -23.535 -20.985  1.00  0.00    -0.000 C 
BRANCH  17  18
ATOM     18  C   UNL     1      -3.596 -22.563 -19.920  1.00  0.00    -0.000 C 
BRANCH  18  19
ATOM     19  C   UNL     1      -4.002 -21.106 -20.184  1.00  0.00    -0.003 C 
ATOM     20  C   UNL     1      -4.777 -20.530 -19.002  1.00  0.00     0.004 C 
ENDBRANCH  18  19
ENDBRANCH  17  18
ENDBRANCH  16  17
ENDBRANCH  15  16
ENDBRANCH  14  15
ENDBRANCH  13  14
ENDBRANCH   2  13
TORSDOF 15
ENDMDL
MODEL 6
REMARK VINA RESULT:    -4.746      2.385      3.743
REMARK INTER + INTRA:         -11.444
REMARK INTER:                  -8.900
REMARK INTRA:                  -2.545
REMARK UNBOUND:                -2.537
REMARK SMILES CCCCCCCCC=CCCCCCCCC(=O)[O-]
REMARK SMILES IDX 10 1 9 2 11 3 12 4 13 5 14 6 15 7 16 8 17 9 18 10 19 11
REMARK SMILES IDX 20 12 8 13 7 14 6 15 5 16 4 17 3 18 2 19 1 20
REMARK H PARENT
REMARK Flexibility Score: inf
ROOT
ATOM      1  C   UNL     1      -6.064 -24.729 -18.463  1.00  0.00    -0.031 C 
ATOM      2  C   UNL     1      -6.500 -23.667 -17.757  1.00  0.00    -0.031 C 
ENDROOT
BRANCH   1   3
ATOM      3  C   UNL     1      -6.517 -25.121 -19.850  1.00  0.00     0.027 C 
BRANCH   3   4
ATOM      4  C   UNL     1      -5.515 -24.683 -20.927  1.00  0.00     0.004 C 
BRANCH   4   5
ATOM      5  C   UNL     1      -5.902 -23.350 -21.586  1.00  0.00     0.000 C 
BRANCH   5   6
ATOM      6  C   UNL     1      -4.956 -22.203 -21.199  1.00  0.00     0.000 C 
BRANCH   6   7
ATOM      7  C   UNL     1      -3.646 -22.705 -20.567  1.00  0.00     0.000 C 
BRANCH   7   8
ATOM      8  C   UNL     1      -3.397 -22.109 -19.173  1.00  0.00     0.006 C 
BRANCH   8   9
ATOM      9  C   UNL     1      -2.334 -21.003 -19.188  1.00  0.00     0.053 C 
BRANCH   9  10
ATOM     10  C   UNL     1      -0.992 -21.563 -18.832  1.00  0.00     0.041 C 
ATOM     11  O   UNL     1       0.004 -21.338 -19.569  1.00  0.00    -0.550 OA
ATOM     12  O   UNL     1      -0.852 -22.374 -17.714  1.00  0.00    -0.550 OA
ENDBRANCH   9  10
ENDBRANCH   8   9
ENDBRANCH   7   8
ENDBRANCH   6   7
ENDBRANCH   5   6
ENDBRANCH   4   5
ENDBRANCH   3   4
ENDBRANCH   1   3
BRANCH   2  13
ATOM     13  C   UNL     1      -7.521 -22.654 -18.223  1.00  0.00     0.027 C 
BRANCH  13  14
ATOM     14  C   UNL     1      -7.640 -21.481 -17.238  1.00  0.00     0.004 C 
BRANCH  14  15
ATOM     15  C   UNL     1      -7.486 -21.880 -15.757  1.00  0.00     0.000 C 
BRANCH  15  16
ATOM     16  C   UNL     1      -7.273 -20.702 -14.784  1.00  0.00     0.000 C 
BRANCH  16  17
ATOM     17  C   UNL     1      -5.876 -20.054 -14.837  1.00  0.00    -0.000 C 
BRANCH  17  18
ATOM     18  C   UNL     1      -4.719 -20.968 -14.393  1.00  0.00    -0.000 C 
BRANCH  18  19
ATOM     19  C   UNL     1      -3.873 -21.472 -15.571  1.00  0.00    -0.003 C 
ATOM     20  C   UNL     1      -3.588 -22.965 -15.441  1.00  0.00     0.004 C 
ENDBRANCH  18  19
ENDBRANCH  17  18
ENDBRANCH  16  17
ENDBRANCH  15  16
ENDBRANCH  14  15
ENDBRANCH  13  14
ENDBRANCH   2  13
TORSDOF 15
ENDMDL
MODEL 7
REMARK VINA RESULT:    -4.725      1.426      2.532
REMARK INTER + INTRA:         -11.405
REMARK INTER:                  -9.017
REMARK INTRA:                  -2.389
REMARK UNBOUND:                -2.537
REMARK SMILES CCCCCCCCC=CCCCCCCCC(=O)[O-]
REMARK SMILES IDX 10 1 9 2 11 3 12 4 13 5 14 6 15 7 16 8 17 9 18 10 19 11
REMARK SMILES IDX 20 12 8 13 7 14 6 15 5 16 4 17 3 18 2 19 1 20
REMARK H PARENT
REMARK Flexibility Score: inf
ROOT
ATOM      1  C   UNL     1      -6.047 -25.871 -17.606  1.00  0.00    -0.031 C 
ATOM      2  C   UNL     1      -5.676 -25.987 -16.316  1.00  0.00    -0.031 C 
ENDROOT
BRANCH   1   3
ATOM      3  C   UNL     1      -6.165 -24.581 -18.384  1.00  0.00     0.027 C 
BRANCH   3   4
ATOM      4  C   UNL     1      -6.770 -24.803 -19.777  1.00  0.00     0.004 C 
BRANCH   4   5
ATOM      5  C   UNL     1      -7.957 -23.868 -20.062  1.00  0.00     0.000 C 
BRANCH   5   6
ATOM      6  C   UNL     1      -8.215 -22.876 -18.916  1.00  0.00     0.000 C 
BRANCH   6   7
ATOM      7  C   UNL     1      -8.124 -21.410 -19.373  1.00  0.00     0.000 C 
BRANCH   7   8
ATOM      8  C   UNL     1      -7.272 -21.237 -20.639  1.00  0.00     0.006 C 
BRANCH   8   9
ATOM      9  C   UNL     1      -5.794 -20.974 -20.321  1.00  0.00     0.053 C 
BRANCH   9  10
ATOM     10  C   UNL     1      -4.915 -21.849 -21.159  1.00  0.00     0.041 C 
ATOM     11  O   UNL     1      -5.397 -22.480 -22.136  1.00  0.00    -0.550 OA
ATOM     12  O   UNL     1      -3.575 -22.007 -20.830  1.00  0.00    -0.550 OA
ENDBRANCH   9  10
ENDBRANCH   8   9
ENDBRANCH   7   8
ENDBRANCH   6   7
ENDBRANCH   5   6
ENDBRANCH   4   5
ENDBRANCH   3   4
ENDBRANCH   1   3
BRANCH   2  13
ATOM     13  C   UNL     1      -5.293 -24.848 -15.399  1.00  0.00     0.027 C 
BRANCH  13  14
ATOM     14  C   UNL     1      -5.781 -25.093 -13.964  1.00  0.00     0.004 C 
BRANCH  14  15
ATOM     15  C   UNL     1      -5.767 -23.838 -13.068  1.00  0.00     0.000 C 
BRANCH  15  16
ATOM     16  C   UNL     1      -7.158 -23.267 -12.724  1.00  0.00     0.000 C 
BRANCH  16  17
ATOM     17  C   UNL     1      -7.656 -22.148 -13.661  1.00  0.00    -0.000 C 
BRANCH  17  18
ATOM     18  C   UNL     1      -6.547 -21.380 -14.402  1.00  0.00    -0.000 C 
BRANCH  18  19
ATOM     19  C   UNL     1      -6.695 -21.446 -15.928  1.00  0.00    -0.003 C 
ATOM     20  C   UNL     1      -5.336 -21.348 -16.616  1.00  0.00     0.004 C 
ENDBRANCH  18  19
ENDBRANCH  17  18
ENDBRANCH  16  17
ENDBRANCH  15  16
ENDBRANCH  14  15
ENDBRANCH  13  14
ENDBRANCH   2  13
TORSDOF 15
ENDMDL
MODEL 8
REMARK VINA RESULT:    -4.710      2.139      3.392
REMARK INTER + INTRA:         -11.377
REMARK INTER:                  -8.851
REMARK INTRA:                  -2.526
REMARK UNBOUND:                -2.537
REMARK SMILES CCCCCCCCC=CCCCCCCCC(=O)[O-]
REMARK SMILES IDX 10 1 9 2 11 3 12 4 13 5 14 6 15 7 16 8 17 9 18 10 19 11
REMARK SMILES IDX 20 12 8 13 7 14 6 15 5 16 4 17 3 18 2 19 1 20
REMARK H PARENT
REMARK Flexibility Score: inf
ROOT
ATOM      1  C   UNL     1      -8.629 -23.014 -19.349  1.00  0.00    -0.031 C 
ATOM      2  C   UNL     1      -8.319 -22.027 -18.486  1.00  0.00    -0.031 C 
ENDROOT
BRANCH   1   3
ATOM      3  C   UNL     1      -7.709 -23.605 -20.390  1.00  0.00     0.027 C 
BRANCH   3   4
ATOM      4  C   UNL     1      -6.890 -24.779 -19.835  1.00  0.00     0.004 C 
BRANCH   4   5
ATOM      5  C   UNL     1      -5.385 -24.633 -20.112  1.00  0.00     0.000 C 
BRANCH   5   6
ATOM      6  C   UNL     1      -5.045 -23.333 -20.856  1.00  0.00     0.000 C 
BRANCH   6   7
ATOM      7  C   UNL     1      -3.590 -22.887 -20.633  1.00  0.00     0.000 C 
BRANCH   7   8
ATOM      8  C   UNL     1      -3.489 -21.475 -20.037  1.00  0.00     0.006 C 
BRANCH   8   9
ATOM      9  C   UNL     1      -2.037 -21.012 -19.863  1.00  0.00     0.053 C 
BRANCH   9  10
ATOM     10  C   UNL     1      -1.349 -21.831 -18.816  1.00  0.00     0.041 C 
ATOM     11  O   UNL     1      -1.816 -21.887 -17.648  1.00  0.00    -0.550 OA
ATOM     12  O   UNL     1      -0.165 -22.492 -19.117  1.00  0.00    -0.550 OA
ENDBRANCH   9  10
ENDBRANCH   8   9
ENDBRANCH   7   8
ENDBRANCH   6   7
ENDBRANCH   5   6
ENDBRANCH   4   5
ENDBRANCH   3   4
ENDBRANCH   1   3
BRANCH   2  13
ATOM     13  C   UNL     1      -6.983 -21.326 -18.386  1.00  0.00     0.027 C 
BRANCH  13  14
ATOM     14  C   UNL     1      -6.347 -21.521 -17.001  1.00  0.00     0.004 C 
BRANCH  14  15
ATOM     15  C   UNL     1      -5.331 -22.679 -16.929  1.00  0.00     0.000 C 
BRANCH  15  16
ATOM     16  C   UNL     1      -5.894 -24.005 -16.381  1.00  0.00     0.000 C 
BRANCH  16  17
ATOM     17  C   UNL     1      -5.347 -24.429 -15.002  1.00  0.00    -0.000 C 
BRANCH  17  18
ATOM     18  C   UNL     1      -6.362 -24.342 -13.847  1.00  0.00    -0.000 C 
BRANCH  18  19
ATOM     19  C   UNL     1      -6.330 -22.987 -13.127  1.00  0.00    -0.003 C 
ATOM     20  C   UNL     1      -7.653 -22.246 -13.294  1.00  0.00     0.004 C 
ENDBRANCH  18  19
ENDBRANCH  17  18
ENDBRANCH  16  17
ENDBRANCH  15  16
ENDBRANCH  14  15
ENDBRANCH  13  14
ENDBRANCH   2  13
TORSDOF 15
ENDMDL
MODEL 9
REMARK VINA RESULT:    -4.668      3.001      6.721
REMARK INTER + INTRA:         -11.299
REMARK INTER:                  -8.428
REMARK INTRA:                  -2.871
REMARK UNBOUND:                -2.537
REMARK SMILES CCCCCCCCC=CCCCCCCCC(=O)[O-]
REMARK SMILES IDX 10 1 9 2 11 3 12 4 13 5 14 6 15 7 16 8 17 9 18 10 19 11
REMARK SMILES IDX 20 12 8 13 7 14 6 15 5 16 4 17 3 18 2 19 1 20
REMARK H PARENT
REMARK Flexibility Score: inf
ROOT
ATOM      1  C   UNL     1      -5.304 -23.281 -17.582  1.00  0.00    -0.031 C 
ATOM      2  C   UNL     1      -6.643 -23.416 -17.641  1.00  0.00    -0.031 C 
ENDROOT
BRANCH   1   3
ATOM      3  C   UNL     1      -4.544 -21.978 -17.508  1.00  0.00     0.027 C 
BRANCH   3   4
ATOM      4  C   UNL     1      -3.670 -21.893 -16.249  1.00  0.00     0.004 C 
BRANCH   4   5
ATOM      5  C   UNL     1      -4.395 -21.224 -15.070  1.00  0.00     0.000 C 
BRANCH   5   6
ATOM      6  C   UNL     1      -4.690 -22.205 -13.925  1.00  0.00     0.000 C 
BRANCH   6   7
ATOM      7  C   UNL     1      -6.172 -22.203 -13.512  1.00  0.00     0.000 C 
BRANCH   7   8
ATOM      8  C   UNL     1      -6.908 -23.479 -13.946  1.00  0.00     0.006 C 
BRANCH   8   9
ATOM      9  C   UNL     1      -5.965 -24.680 -14.095  1.00  0.00     0.053 C 
BRANCH   9  10
ATOM     10  C   UNL     1      -6.398 -25.798 -13.199  1.00  0.00     0.041 C 
ATOM     11  O   UNL     1      -7.293 -26.601 -13.575  1.00  0.00    -0.550 OA
ATOM     12  O   UNL     1      -5.849 -25.924 -11.930  1.00  0.00    -0.550 OA
ENDBRANCH   9  10
ENDBRANCH   8   9
ENDBRANCH   7   8
ENDBRANCH   6   7
ENDBRANCH   5   6
ENDBRANCH   4   5
ENDBRANCH   3   4
ENDBRANCH   1   3
BRANCH   2  13
ATOM     13  C   UNL     1      -7.647 -22.286 -17.632  1.00  0.00     0.027 C 
BRANCH  13  14
ATOM     14  C   UNL     1      -8.702 -22.461 -18.735  1.00  0.00     0.004 C 
BRANCH  14  15
ATOM     15  C   UNL     1      -8.301 -23.458 -19.841  1.00  0.00     0.000 C 
BRANCH  15  16
ATOM     16  C   UNL     1      -7.761 -22.814 -21.134  1.00  0.00     0.000 C 
BRANCH  16  17
ATOM     17  C   UNL     1      -6.249 -22.995 -21.373  1.00  0.00    -0.000 C 
BRANCH  17  18
ATOM     18  C   UNL     1      -5.405 -21.721 -21.186  1.00  0.00    -0.000 C 
BRANCH  18  19
ATOM     19  C   UNL     1      -6.226 -20.535 -20.662  1.00  0.00    -0.003 C 
ATOM     20  C   UNL     1      -5.322 -19.473 -20.041  1.00  0.00     0.004 C 
ENDBRANCH  18  19
ENDBRANCH  17  18
ENDBRANCH  16  17
ENDBRANCH  15  16
ENDBRANCH  14  15
ENDBRANCH  13  14
ENDBRANCH   2  13
TORSDOF 15
ENDMDL
