MODEL 1
REMARK VINA RESULT:    -4.082      0.000      0.000
REMARK INTER + INTRA:          -8.015
REMARK INTER:                  -6.469
REMARK INTRA:                  -1.547
REMARK UNBOUND:                -1.547
REMARK SMILES CCCCCCCCCCCC(=O)[O-]
REMARK SMILES IDX 7 1 8 2 9 3 10 4 11 5 12 6 13 7 14 8 6 9 5 10 4 11 3 12 2 13
REMARK SMILES IDX 1 14
REMARK H PARENT
REMARK Flexibility Score: inf
ROOT
ATOM      1  C   UNL     1       7.158  32.494  70.045  1.00  0.00     0.000 C 
ENDROOT
BRANCH   1   2
ATOM      2  C   UNL     1       6.870  33.809  70.790  1.00  0.00     0.000 C 
BRANCH   2   3
ATOM      3  C   UNL     1       5.368  34.035  71.030  1.00  0.00     0.000 C 
BRANCH   3   4
ATOM      4  C   UNL     1       4.909  35.445  70.629  1.00  0.00     0.006 C 
BRANCH   4   5
ATOM      5  C   UNL     1       3.541  35.769  71.238  1.00  0.00     0.053 C 
BRANCH   5   6
ATOM      6  C   UNL     1       2.456  35.555  70.232  1.00  0.00     0.041 C 
ATOM      7  O   UNL     1       2.129  36.482  69.445  1.00  0.00    -0.550 OA
ATOM      8  O   UNL     1       1.770  34.347  70.194  1.00  0.00    -0.550 OA
ENDBRANCH   5   6
ENDBRANCH   4   5
ENDBRANCH   3   4
ENDBRANCH   2   3
ENDBRANCH   1   2
BRANCH   1   9
ATOM      9  C   UNL     1       7.818  32.726  68.675  1.00  0.00     0.000 C 
BRANCH   9  10
ATOM     10  C   UNL     1       7.828  34.211  68.271  1.00  0.00    -0.000 C 
BRANCH  10  11
ATOM     11  C   UNL     1       6.853  34.525  67.121  1.00  0.00    -0.000 C 
BRANCH  11  12
ATOM     12  C   UNL     1       5.828  33.418  66.814  1.00  0.00    -0.000 C 
BRANCH  12  13
ATOM     13  C   UNL     1       4.434  33.718  67.384  1.00  0.00    -0.003 C 
ATOM     14  C   UNL     1       3.816  32.471  68.010  1.00  0.00     0.004 C 
ENDBRANCH  12  13
ENDBRANCH  11  12
ENDBRANCH  10  11
ENDBRANCH   9  10
ENDBRANCH   1   9
TORSDOF 10
ENDMDL
MODEL 2
REMARK VINA RESULT:    -4.000     10.051     11.443
REMARK INTER + INTRA:          -7.886
REMARK INTER:                  -7.024
REMARK INTRA:                  -0.861
REMARK UNBOUND:                -1.547
REMARK SMILES CCCCCCCCCCCC(=O)[O-]
REMARK SMILES IDX 7 1 8 2 9 3 10 4 11 5 12 6 13 7 14 8 6 9 5 10 4 11 3 12 2 13
REMARK SMILES IDX 1 14
REMARK H PARENT
REMARK Flexibility Score: inf
ROOT
ATOM      1  C   UNL     1       3.236  42.737  65.812  1.00  0.00     0.000 C 
ENDROOT
BRANCH   1   2
ATOM      2  C   UNL     1       2.412  43.726  66.656  1.00  0.00     0.000 C 
BRANCH   2   3
ATOM      3  C   UNL     1       3.142  44.160  67.938  1.00  0.00     0.000 C 
BRANCH   3   4
ATOM      4  C   UNL     1       2.566  43.500  69.200  1.00  0.00     0.006 C 
BRANCH   4   5
ATOM      5  C   UNL     1       3.688  42.985  70.108  1.00  0.00     0.053 C 
BRANCH   5   6
ATOM      6  C   UNL     1       4.194  44.082  70.990  1.00  0.00     0.041 C 
ATOM      7  O   UNL     1       5.218  44.738  70.663  1.00  0.00    -0.550 OA
ATOM      8  O   UNL     1       3.562  44.350  72.199  1.00  0.00    -0.550 OA
ENDBRANCH   5   6
ENDBRANCH   4   5
ENDBRANCH   3   4
ENDBRANCH   2   3
ENDBRANCH   1   2
BRANCH   1   9
ATOM      9  C   UNL     1       3.613  43.310  64.436  1.00  0.00     0.000 C 
BRANCH   9  10
ATOM     10  C   UNL     1       2.887  44.631  64.129  1.00  0.00    -0.000 C 
BRANCH  10  11
ATOM     11  C   UNL     1       3.847  45.830  64.020  1.00  0.00    -0.000 C 
BRANCH  11  12
ATOM     12  C   UNL     1       3.603  46.957  65.039  1.00  0.00    -0.000 C 
BRANCH  12  13
ATOM     13  C   UNL     1       4.632  46.967  66.179  1.00  0.00    -0.003 C 
ATOM     14  C   UNL     1       5.905  47.698  65.763  1.00  0.00     0.004 C 
ENDBRANCH  12  13
ENDBRANCH  11  12
ENDBRANCH  10  11
ENDBRANCH   9  10
ENDBRANCH   1   9
TORSDOF 10
ENDMDL
MODEL 3
REMARK VINA RESULT:    -3.866      3.147      4.623
REMARK INTER + INTRA:          -7.673
REMARK INTER:                  -6.460
REMARK INTRA:                  -1.212
REMARK UNBOUND:                -1.547
REMARK SMILES CCCCCCCCCCCC(=O)[O-]
REMARK SMILES IDX 7 1 8 2 9 3 10 4 11 5 12 6 13 7 14 8 6 9 5 10 4 11 3 12 2 13
REMARK SMILES IDX 1 14
REMARK H PARENT
REMARK Flexibility Score: inf
ROOT
ATOM      1  C   UNL     1       7.306  34.780  68.599  1.00  0.00     0.000 C 
ENDROOT
BRANCH   1   2
ATOM      2  C   UNL     1       6.074  35.074  69.474  1.00  0.00     0.000 C 
BRANCH   2   3
ATOM      3  C   UNL     1       6.022  34.195  70.734  1.00  0.00     0.000 C 
BRANCH   3   4
ATOM      4  C   UNL     1       7.389  33.595  71.095  1.00  0.00     0.006 C 
BRANCH   4   5
ATOM      5  C   UNL     1       7.224  32.236  71.785  1.00  0.00     0.053 C 
BRANCH   5   6
ATOM      6  C   UNL     1       7.391  32.375  73.264  1.00  0.00     0.041 C 
ATOM      7  O   UNL     1       6.399  32.252  74.030  1.00  0.00    -0.550 OA
ATOM      8  O   UNL     1       8.636  32.690  73.798  1.00  0.00    -0.550 OA
ENDBRANCH   5   6
ENDBRANCH   4   5
ENDBRANCH   3   4
ENDBRANCH   2   3
ENDBRANCH   1   2
BRANCH   1   9
ATOM      9  C   UNL     1       6.933  34.496  67.135  1.00  0.00     0.000 C 
BRANCH   9  10
ATOM     10  C   UNL     1       5.832  33.428  67.004  1.00  0.00    -0.000 C 
BRANCH  10  11
ATOM     11  C   UNL     1       6.232  32.078  67.627  1.00  0.00    -0.000 C 
BRANCH  11  12
ATOM     12  C   UNL     1       7.459  31.402  66.990  1.00  0.00    -0.000 C 
BRANCH  12  13
ATOM     13  C   UNL     1       8.686  31.395  67.914  1.00  0.00    -0.003 C 
ATOM     14  C   UNL     1       9.906  31.983  67.211  1.00  0.00     0.004 C 
ENDBRANCH  12  13
ENDBRANCH  11  12
ENDBRANCH  10  11
ENDBRANCH   9  10
ENDBRANCH   1   9
TORSDOF 10
ENDMDL
MODEL 4
REMARK VINA RESULT:    -3.849      1.558      2.860
REMARK INTER + INTRA:          -7.646
REMARK INTER:                  -6.456
REMARK INTRA:                  -1.190
REMARK UNBOUND:                -1.547
REMARK SMILES CCCCCCCCCCCC(=O)[O-]
REMARK SMILES IDX 7 1 8 2 9 3 10 4 11 5 12 6 13 7 14 8 6 9 5 10 4 11 3 12 2 13
REMARK SMILES IDX 1 14
REMARK H PARENT
REMARK Flexibility Score: inf
ROOT
ATOM      1  C   UNL     1       7.490  34.619  68.660  1.00  0.00     0.000 C 
ENDROOT
BRANCH   1   2
ATOM      2  C   UNL     1       6.435  35.159  69.641  1.00  0.00     0.000 C 
BRANCH   2   3
ATOM      3  C   UNL     1       6.145  34.182  70.793  1.00  0.00     0.000 C 
BRANCH   3   4
ATOM      4  C   UNL     1       4.647  33.889  70.959  1.00  0.00     0.006 C 
BRANCH   4   5
ATOM      5  C   UNL     1       3.806  34.830  70.089  1.00  0.00     0.053 C 
BRANCH   5   6
ATOM      6  C   UNL     1       2.939  35.698  70.944  1.00  0.00     0.041 C 
ATOM      7  O   UNL     1       3.191  35.836  72.170  1.00  0.00    -0.550 OA
ATOM      8  O   UNL     1       1.822  36.319  70.398  1.00  0.00    -0.550 OA
ENDBRANCH   5   6
ENDBRANCH   4   5
ENDBRANCH   3   4
ENDBRANCH   2   3
ENDBRANCH   1   2
BRANCH   1   9
ATOM      9  C   UNL     1       6.963  34.536  67.217  1.00  0.00     0.000 C 
BRANCH   9  10
ATOM     10  C   UNL     1       5.857  33.479  67.054  1.00  0.00    -0.000 C 
BRANCH  10  11
ATOM     11  C   UNL     1       6.217  32.131  67.706  1.00  0.00    -0.000 C 
BRANCH  11  12
ATOM     12  C   UNL     1       7.350  31.352  67.014  1.00  0.00    -0.000 C 
BRANCH  12  13
ATOM     13  C   UNL     1       8.616  31.245  67.876  1.00  0.00    -0.003 C 
ATOM     14  C   UNL     1       9.783  31.989  67.233  1.00  0.00     0.004 C 
ENDBRANCH  12  13
ENDBRANCH  11  12
ENDBRANCH  10  11
ENDBRANCH   9  10
ENDBRANCH   1   9
TORSDOF 10
ENDMDL
MODEL 5
REMARK VINA RESULT:    -3.817      1.240      2.459
REMARK INTER + INTRA:          -7.596
REMARK INTER:                  -6.725
REMARK INTRA:                  -0.871
REMARK UNBOUND:                -1.547
REMARK SMILES CCCCCCCCCCCC(=O)[O-]
REMARK SMILES IDX 7 1 8 2 9 3 10 4 11 5 12 6 13 7 14 8 6 9 5 10 4 11 3 12 2 13
REMARK SMILES IDX 1 14
REMARK H PARENT
REMARK Flexibility Score: inf
ROOT
ATOM      1  C   UNL     1       5.481  34.021  70.987  1.00  0.00     0.000 C 
ENDROOT
BRANCH   1   2
ATOM      2  C   UNL     1       4.996  35.434  70.619  1.00  0.00     0.000 C 
BRANCH   2   3
ATOM      3  C   UNL     1       3.602  35.746  71.186  1.00  0.00     0.000 C 
BRANCH   3   4
ATOM      4  C   UNL     1       2.467  35.255  70.274  1.00  0.00     0.006 C 
BRANCH   4   5
ATOM      5  C   UNL     1       1.850  36.421  69.494  1.00  0.00     0.053 C 
BRANCH   5   6
ATOM      6  C   UNL     1       1.423  35.972  68.133  1.00  0.00     0.041 C 
ATOM      7  O   UNL     1       0.483  36.561  67.536  1.00  0.00    -0.550 OA
ATOM      8  O   UNL     1       2.030  34.871  67.540  1.00  0.00    -0.550 OA
ENDBRANCH   5   6
ENDBRANCH   4   5
ENDBRANCH   3   4
ENDBRANCH   2   3
ENDBRANCH   1   2
BRANCH   1   9
ATOM      9  C   UNL     1       7.002  33.860  70.827  1.00  0.00     0.000 C 
BRANCH   9  10
ATOM     10  C   UNL     1       7.376  32.736  69.846  1.00  0.00    -0.000 C 
BRANCH  10  11
ATOM     11  C   UNL     1       8.082  33.257  68.581  1.00  0.00    -0.000 C 
BRANCH  11  12
ATOM     12  C   UNL     1       7.587  34.622  68.070  1.00  0.00    -0.000 C 
BRANCH  12  13
ATOM     13  C   UNL     1       6.753  34.515  66.786  1.00  0.00    -0.003 C 
ATOM     14  C   UNL     1       5.394  33.879  67.064  1.00  0.00     0.004 C 
ENDBRANCH  12  13
ENDBRANCH  11  12
ENDBRANCH  10  11
ENDBRANCH   9  10
ENDBRANCH   1   9
TORSDOF 10
ENDMDL
MODEL 6
REMARK VINA RESULT:    -3.794     10.594     12.505
REMARK INTER + INTRA:          -7.558
REMARK INTER:                  -6.931
REMARK INTRA:                  -0.627
REMARK UNBOUND:                -1.547
REMARK SMILES CCCCCCCCCCCC(=O)[O-]
REMARK SMILES IDX 7 1 8 2 9 3 10 4 11 5 12 6 13 7 14 8 6 9 5 10 4 11 3 12 2 13
REMARK SMILES IDX 1 14
REMARK H PARENT
REMARK Flexibility Score: inf
ROOT
ATOM      1  C   UNL     1       3.387  44.875  67.138  1.00  0.00     0.000 C 
ENDROOT
BRANCH   1   2
ATOM      2  C   UNL     1       3.347  44.863  65.599  1.00  0.00     0.000 C 
BRANCH   2   3
ATOM      3  C   UNL     1       4.083  46.063  64.981  1.00  0.00     0.000 C 
BRANCH   3   4
ATOM      4  C   UNL     1       4.355  47.181  65.998  1.00  0.00     0.006 C 
BRANCH   4   5
ATOM      5  C   UNL     1       5.717  47.835  65.742  1.00  0.00     0.053 C 
BRANCH   5   6
ATOM      6  C   UNL     1       6.572  47.763  66.967  1.00  0.00     0.041 C 
ATOM      7  O   UNL     1       6.045  47.795  68.111  1.00  0.00    -0.550 OA
ATOM      8  O   UNL     1       7.956  47.710  66.848  1.00  0.00    -0.550 OA
ENDBRANCH   5   6
ENDBRANCH   4   5
ENDBRANCH   3   4
ENDBRANCH   2   3
ENDBRANCH   1   2
BRANCH   1   9
ATOM      9  C   UNL     1       2.332  43.946  67.760  1.00  0.00     0.000 C 
BRANCH   9  10
ATOM     10  C   UNL     1       2.908  43.074  68.890  1.00  0.00    -0.000 C 
BRANCH  10  11
ATOM     11  C   UNL     1       2.243  43.343  70.252  1.00  0.00    -0.000 C 
BRANCH  11  12
ATOM     12  C   UNL     1       3.212  43.689  71.396  1.00  0.00    -0.000 C 
BRANCH  12  13
ATOM     13  C   UNL     1       4.686  43.632  70.970  1.00  0.00    -0.003 C 
ATOM     14  C   UNL     1       5.198  45.013  70.572  1.00  0.00     0.004 C 
ENDBRANCH  12  13
ENDBRANCH  11  12
ENDBRANCH  10  11
ENDBRANCH   9  10
ENDBRANCH   1   9
TORSDOF 10
ENDMDL
MODEL 7
REMARK VINA RESULT:    -3.765      1.387      3.930
REMARK INTER + INTRA:          -7.513
REMARK INTER:                  -6.245
REMARK INTRA:                  -1.267
REMARK UNBOUND:                -1.547
REMARK SMILES CCCCCCCCCCCC(=O)[O-]
REMARK SMILES IDX 7 1 8 2 9 3 10 4 11 5 12 6 13 7 14 8 6 9 5 10 4 11 3 12 2 13
REMARK SMILES IDX 1 14
REMARK H PARENT
REMARK Flexibility Score: inf
ROOT
ATOM      1  C   UNL     1       7.398  33.166  69.403  1.00  0.00     0.000 C 
ENDROOT
BRANCH   1   2
ATOM      2  C   UNL     1       7.866  34.228  68.393  1.00  0.00     0.000 C 
BRANCH   2   3
ATOM      3  C   UNL     1       6.811  34.522  67.314  1.00  0.00     0.000 C 
BRANCH   3   4
ATOM      4  C   UNL     1       5.895  33.321  67.037  1.00  0.00     0.006 C 
BRANCH   4   5
ATOM      5  C   UNL     1       4.422  33.705  67.212  1.00  0.00     0.053 C 
BRANCH   5   6
ATOM      6  C   UNL     1       3.686  32.635  67.954  1.00  0.00     0.041 C 
ATOM      7  O   UNL     1       4.300  31.623  68.384  1.00  0.00    -0.550 OA
ATOM      8  O   UNL     1       2.310  32.731  68.131  1.00  0.00    -0.550 OA
ENDBRANCH   5   6
ENDBRANCH   4   5
ENDBRANCH   3   4
ENDBRANCH   2   3
ENDBRANCH   1   2
BRANCH   1   9
ATOM      9  C   UNL     1       7.025  33.774  70.765  1.00  0.00     0.000 C 
BRANCH   9  10
ATOM     10  C   UNL     1       5.505  33.946  70.937  1.00  0.00    -0.000 C 
BRANCH  10  11
ATOM     11  C   UNL     1       5.021  35.366  70.592  1.00  0.00    -0.000 C 
BRANCH  11  12
ATOM     12  C   UNL     1       3.699  35.786  71.260  1.00  0.00    -0.000 C 
BRANCH  12  13
ATOM     13  C   UNL     1       2.461  35.250  70.527  1.00  0.00    -0.003 C 
ATOM     14  C   UNL     1       1.952  36.256  69.499  1.00  0.00     0.004 C 
ENDBRANCH  12  13
ENDBRANCH  11  12
ENDBRANCH  10  11
ENDBRANCH   9  10
ENDBRANCH   1   9
TORSDOF 10
ENDMDL
MODEL 8
REMARK VINA RESULT:    -3.739      2.683      4.974
REMARK INTER + INTRA:          -7.472
REMARK INTER:                  -5.841
REMARK INTRA:                  -1.631
REMARK UNBOUND:                -1.547
REMARK SMILES CCCCCCCCCCCC(=O)[O-]
REMARK SMILES IDX 7 1 8 2 9 3 10 4 11 5 12 6 13 7 14 8 6 9 5 10 4 11 3 12 2 13
REMARK SMILES IDX 1 14
REMARK H PARENT
REMARK Flexibility Score: inf
ROOT
ATOM      1  C   UNL     1       3.108  34.409  69.094  1.00  0.00     0.000 C 
ENDROOT
BRANCH   1   2
ATOM      2  C   UNL     1       3.108  32.904  69.416  1.00  0.00     0.000 C 
BRANCH   2   3
ATOM      3  C   UNL     1       4.024  32.100  68.478  1.00  0.00     0.000 C 
BRANCH   3   4
ATOM      4  C   UNL     1       4.796  32.992  67.495  1.00  0.00     0.006 C 
BRANCH   4   5
ATOM      5  C   UNL     1       6.161  32.382  67.160  1.00  0.00     0.053 C 
BRANCH   5   6
ATOM      6  C   UNL     1       7.229  33.427  67.211  1.00  0.00     0.041 C 
ATOM      7  O   UNL     1       6.993  34.597  66.807  1.00  0.00    -0.550 OA
ATOM      8  O   UNL     1       8.503  33.100  67.661  1.00  0.00    -0.550 OA
ENDBRANCH   5   6
ENDBRANCH   4   5
ENDBRANCH   3   4
ENDBRANCH   2   3
ENDBRANCH   1   2
BRANCH   1   9
ATOM      9  C   UNL     1       3.000  35.280  70.357  1.00  0.00     0.000 C 
BRANCH   9  10
ATOM     10  C   UNL     1       4.277  35.235  71.215  1.00  0.00    -0.000 C 
BRANCH  10  11
ATOM     11  C   UNL     1       5.537  35.649  70.433  1.00  0.00    -0.000 C 
BRANCH  11  12
ATOM     12  C   UNL     1       6.645  34.582  70.368  1.00  0.00    -0.000 C 
BRANCH  12  13
ATOM     13  C   UNL     1       6.390  33.395  71.307  1.00  0.00    -0.003 C 
ATOM     14  C   UNL     1       7.124  32.147  70.827  1.00  0.00     0.004 C 
ENDBRANCH  12  13
ENDBRANCH  11  12
ENDBRANCH  10  11
ENDBRANCH   9  10
ENDBRANCH   1   9
TORSDOF 10
ENDMDL
MODEL 9
REMARK VINA RESULT:    -3.721      1.489      2.418
REMARK INTER + INTRA:          -7.443
REMARK INTER:                  -6.188
REMARK INTRA:                  -1.255
REMARK UNBOUND:                -1.547
REMARK SMILES CCCCCCCCCCCC(=O)[O-]
REMARK SMILES IDX 7 1 8 2 9 3 10 4 11 5 12 6 13 7 14 8 6 9 5 10 4 11 3 12 2 13
REMARK SMILES IDX 1 14
REMARK H PARENT
REMARK Flexibility Score: inf
ROOT
ATOM      1  C   UNL     1       7.110  31.128  70.984  1.00  0.00     0.000 C 
ENDROOT
BRANCH   1   2
ATOM      2  C   UNL     1       7.274  32.618  71.332  1.00  0.00     0.000 C 
BRANCH   2   3
ATOM      3  C   UNL     1       5.941  33.286  71.710  1.00  0.00     0.000 C 
BRANCH   3   4
ATOM      4  C   UNL     1       5.180  33.824  70.489  1.00  0.00     0.006 C 
BRANCH   4   5
ATOM      5  C   UNL     1       5.019  35.346  70.573  1.00  0.00     0.053 C 
BRANCH   5   6
ATOM      6  C   UNL     1       3.596  35.707  70.856  1.00  0.00     0.041 C 
ATOM      7  O   UNL     1       2.785  35.882  69.909  1.00  0.00    -0.550 OA
ATOM      8  O   UNL     1       3.175  35.900  72.167  1.00  0.00    -0.550 OA
ENDBRANCH   5   6
ENDBRANCH   4   5
ENDBRANCH   3   4
ENDBRANCH   2   3
ENDBRANCH   1   2
BRANCH   1   9
ATOM      9  C   UNL     1       7.705  30.776  69.610  1.00  0.00     0.000 C 
BRANCH   9  10
ATOM     10  C   UNL     1       6.751  31.114  68.451  1.00  0.00    -0.000 C 
BRANCH  10  11
ATOM     11  C   UNL     1       7.484  31.663  67.214  1.00  0.00    -0.000 C 
BRANCH  11  12
ATOM     12  C   UNL     1       8.539  32.745  67.506  1.00  0.00    -0.000 C 
BRANCH  12  13
ATOM     13  C   UNL     1       7.923  34.072  67.971  1.00  0.00    -0.003 C 
ATOM     14  C   UNL     1       6.834  34.539  67.010  1.00  0.00     0.004 C 
ENDBRANCH  12  13
ENDBRANCH  11  12
ENDBRANCH  10  11
ENDBRANCH   9  10
ENDBRANCH   1   9
TORSDOF 10
ENDMDL
