MODEL 1
REMARK VINA RESULT:    -6.403      0.000      0.000
REMARK INTER + INTRA:          -7.668
REMARK INTER:                  -7.526
REMARK INTRA:                  -0.143
REMARK UNBOUND:                -0.143
REMARK SMILES O=c1c(O)c(-c2ccc(O)cc2)oc2cc(O)cc(O)c12
REMARK SMILES IDX 5 1 3 2 2 3 1 4 21 5 19 6 18 7 16 8 15 9 14 10 13 11 6 12
REMARK SMILES IDX 7 13 8 14 9 15 12 16 11 17 10 18 4 20 20 22 17 24
REMARK H PARENT 10 19 4 21 20 23 17 25
REMARK Flexibility Score: inf
ROOT
ATOM      1  C   UNL     1      -6.375  25.458  33.849  1.00  0.00     0.180 A 
ATOM      2  C   UNL     1      -7.124  24.494  34.546  1.00  0.00     0.208 A 
ATOM      3  C   UNL     1      -7.440  23.285  33.906  1.00  0.00     0.238 A 
ATOM      4  O   UNL     1      -8.045  22.397  34.560  1.00  0.00    -0.285 OA
ATOM      5  C   UNL     1      -7.054  23.078  32.559  1.00  0.00     0.111 A 
ATOM      6  C   UNL     1      -7.359  21.909  31.797  1.00  0.00     0.134 A 
ATOM      7  C   UNL     1      -6.834  21.769  30.507  1.00  0.00     0.093 A 
ATOM      8  C   UNL     1      -6.067  22.779  29.928  1.00  0.00     0.123 A 
ATOM      9  C   UNL     1      -5.808  23.950  30.643  1.00  0.00     0.094 A 
ATOM     10  C   UNL     1      -6.287  24.103  31.945  1.00  0.00     0.146 A 
ATOM     11  O   UNL     1      -5.998  25.223  32.598  1.00  0.00    -0.452 OA
ENDROOT
BRANCH   1  12
ATOM     12  C   UNL     1      -5.990  26.751  34.461  1.00  0.00     0.021 A 
ATOM     13  C   UNL     1      -6.433  27.951  33.878  1.00  0.00     0.016 A 
ATOM     14  C   UNL     1      -6.062  29.183  34.425  1.00  0.00     0.047 A 
ATOM     15  C   UNL     1      -5.234  29.233  35.550  1.00  0.00     0.115 A 
ATOM     16  C   UNL     1      -5.141  26.808  35.581  1.00  0.00     0.016 A 
ATOM     17  C   UNL     1      -4.771  28.042  36.125  1.00  0.00     0.047 A 
BRANCH  15  18
ATOM     18  O   UNL     1      -4.874  30.467  36.086  1.00  0.00    -0.508 OA
ATOM     19  H   UNL     1      -4.120  30.554  36.758  1.00  0.00     0.293 HD
ENDBRANCH  15  18
ENDBRANCH   1  12
BRANCH   2  20
ATOM     20  O   UNL     1      -7.562  24.750  35.848  1.00  0.00    -0.502 OA
ATOM     21  H   UNL     1      -6.973  24.602  36.658  1.00  0.00     0.293 HD
ENDBRANCH   2  20
BRANCH   6  22
ATOM     22  O   UNL     1      -8.188  20.877  32.245  1.00  0.00    -0.507 OA
ATOM     23  H   UNL     1      -8.143  20.453  33.159  1.00  0.00     0.293 HD
ENDBRANCH   6  22
BRANCH   8  24
ATOM     24  O   UNL     1      -5.575  22.613  28.635  1.00  0.00    -0.508 OA
ATOM     25  H   UNL     1      -4.627  22.296  28.466  1.00  0.00     0.293 HD
ENDBRANCH   8  24
TORSDOF 5
ENDMDL
MODEL 2
REMARK VINA RESULT:    -6.290     18.845     20.292
REMARK INTER + INTRA:          -7.536
REMARK INTER:                  -7.473
REMARK INTRA:                  -0.064
REMARK UNBOUND:                -0.143
REMARK SMILES O=c1c(O)c(-c2ccc(O)cc2)oc2cc(O)cc(O)c12
REMARK SMILES IDX 5 1 3 2 2 3 1 4 21 5 19 6 18 7 16 8 15 9 14 10 13 11 6 12
REMARK SMILES IDX 7 13 8 14 9 15 12 16 11 17 10 18 4 20 20 22 17 24
REMARK H PARENT 10 19 4 21 20 23 17 25
REMARK Flexibility Score: inf
ROOT
ATOM      1  C   UNL     1      -3.439  38.493  19.099  1.00  0.00     0.180 A 
ATOM      2  C   UNL     1      -2.459  39.469  18.851  1.00  0.00     0.208 A 
ATOM      3  C   UNL     1      -1.277  39.095  18.192  1.00  0.00     0.238 A 
ATOM      4  O   UNL     1      -0.438  39.988  17.907  1.00  0.00    -0.285 OA
ATOM      5  C   UNL     1      -1.065  37.740  17.839  1.00  0.00     0.111 A 
ATOM      6  C   UNL     1       0.115  37.241  17.207  1.00  0.00     0.134 A 
ATOM      7  C   UNL     1       0.170  35.900  16.809  1.00  0.00     0.093 A 
ATOM      8  C   UNL     1      -0.883  35.026  17.074  1.00  0.00     0.123 A 
ATOM      9  C   UNL     1      -2.019  35.490  17.739  1.00  0.00     0.094 A 
ATOM     10  C   UNL     1      -2.119  36.831  18.115  1.00  0.00     0.146 A 
ATOM     11  O   UNL     1      -3.226  37.236  18.727  1.00  0.00    -0.452 OA
ENDROOT
BRANCH   1  12
ATOM     12  C   UNL     1      -4.717  38.811  19.775  1.00  0.00     0.021 A 
ATOM     13  C   UNL     1      -4.698  39.326  21.083  1.00  0.00     0.016 A 
ATOM     14  C   UNL     1      -5.894  39.612  21.749  1.00  0.00     0.047 A 
ATOM     15  C   UNL     1      -7.122  39.375  21.125  1.00  0.00     0.115 A 
ATOM     16  C   UNL     1      -5.957  38.556  19.160  1.00  0.00     0.016 A 
ATOM     17  C   UNL     1      -7.150  38.843  19.829  1.00  0.00     0.047 A 
BRANCH  15  18
ATOM     18  O   UNL     1      -8.305  39.666  21.800  1.00  0.00    -0.508 OA
ATOM     19  H   UNL     1      -9.136  39.970  21.306  1.00  0.00     0.293 HD
ENDBRANCH  15  18
ENDBRANCH   1  12
BRANCH   2  20
ATOM     20  O   UNL     1      -2.656  40.785  19.277  1.00  0.00    -0.502 OA
ATOM     21  H   UNL     1      -3.575  41.159  19.480  1.00  0.00     0.293 HD
ENDBRANCH   2  20
BRANCH   6  22
ATOM     22  O   UNL     1       1.262  38.006  16.974  1.00  0.00    -0.507 OA
ATOM     23  H   UNL     1       2.084  37.683  16.488  1.00  0.00     0.293 HD
ENDBRANCH   6  22
BRANCH   8  24
ATOM     24  O   UNL     1      -0.787  33.694  16.678  1.00  0.00    -0.508 OA
ATOM     25  H   UNL     1      -0.286  33.424  15.840  1.00  0.00     0.293 HD
ENDBRANCH   8  24
TORSDOF 5
ENDMDL
MODEL 3
REMARK VINA RESULT:    -6.127     17.602     19.894
REMARK INTER + INTRA:          -7.345
REMARK INTER:                  -7.206
REMARK INTRA:                  -0.139
REMARK UNBOUND:                -0.143
REMARK SMILES O=c1c(O)c(-c2ccc(O)cc2)oc2cc(O)cc(O)c12
REMARK SMILES IDX 5 1 3 2 2 3 1 4 21 5 19 6 18 7 16 8 15 9 14 10 13 11 6 12
REMARK SMILES IDX 7 13 8 14 9 15 12 16 11 17 10 18 4 20 20 22 17 24
REMARK H PARENT 10 19 4 21 20 23 17 25
REMARK Flexibility Score: inf
ROOT
ATOM      1  C   UNL     1      -3.402  37.533  18.956  1.00  0.00     0.180 A 
ATOM      2  C   UNL     1      -4.643  37.694  18.316  1.00  0.00     0.208 A 
ATOM      3  C   UNL     1      -5.736  38.167  19.059  1.00  0.00     0.238 A 
ATOM      4  O   UNL     1      -6.824  38.380  18.462  1.00  0.00    -0.285 OA
ATOM      5  C   UNL     1      -5.591  38.419  20.445  1.00  0.00     0.111 A 
ATOM      6  C   UNL     1      -6.643  38.857  21.305  1.00  0.00     0.134 A 
ATOM      7  C   UNL     1      -6.358  39.176  22.638  1.00  0.00     0.093 A 
ATOM      8  C   UNL     1      -5.075  39.013  23.159  1.00  0.00     0.123 A 
ATOM      9  C   UNL     1      -4.051  38.533  22.342  1.00  0.00     0.094 A 
ATOM     10  C   UNL     1      -4.296  38.242  20.998  1.00  0.00     0.146 A 
ATOM     11  O   UNL     1      -3.288  37.809  20.250  1.00  0.00    -0.452 OA
ENDROOT
BRANCH   1  12
ATOM     12  C   UNL     1      -2.200  37.054  18.238  1.00  0.00     0.021 A 
ATOM     13  C   UNL     1      -2.160  35.733  17.760  1.00  0.00     0.016 A 
ATOM     14  C   UNL     1      -1.026  35.253  17.099  1.00  0.00     0.047 A 
ATOM     15  C   UNL     1       0.088  36.079  16.920  1.00  0.00     0.115 A 
ATOM     16  C   UNL     1      -1.069  37.875  18.072  1.00  0.00     0.016 A 
ATOM     17  C   UNL     1       0.065  37.391  17.411  1.00  0.00     0.047 A 
BRANCH  15  18
ATOM     18  O   UNL     1       1.211  35.587  16.258  1.00  0.00    -0.508 OA
ATOM     19  H   UNL     1       1.752  34.818  16.634  1.00  0.00     0.293 HD
ENDBRANCH  15  18
ENDBRANCH   1  12
BRANCH   2  20
ATOM     20  O   UNL     1      -4.784  37.367  16.965  1.00  0.00    -0.502 OA
ATOM     21  H   UNL     1      -5.256  36.525  16.656  1.00  0.00     0.293 HD
ENDBRANCH   2  20
BRANCH   6  22
ATOM     22  O   UNL     1      -7.980  38.971  20.912  1.00  0.00    -0.507 OA
ATOM     23  H   UNL     1      -8.531  39.813  20.971  1.00  0.00     0.293 HD
ENDBRANCH   6  22
BRANCH   8  24
ATOM     24  O   UNL     1      -4.831  39.324  24.495  1.00  0.00    -0.508 OA
ATOM     25  H   UNL     1      -3.895  39.305  24.881  1.00  0.00     0.293 HD
ENDBRANCH   8  24
TORSDOF 5
ENDMDL
MODEL 4
REMARK VINA RESULT:    -5.950     17.965     20.242
REMARK INTER + INTRA:          -7.136
REMARK INTER:                  -7.159
REMARK INTRA:                   0.023
REMARK UNBOUND:                -0.143
REMARK SMILES O=c1c(O)c(-c2ccc(O)cc2)oc2cc(O)cc(O)c12
REMARK SMILES IDX 5 1 3 2 2 3 1 4 21 5 19 6 18 7 16 8 15 9 14 10 13 11 6 12
REMARK SMILES IDX 7 13 8 14 9 15 12 16 11 17 10 18 4 20 20 22 17 24
REMARK H PARENT 10 19 4 21 20 23 17 25
REMARK Flexibility Score: inf
ROOT
ATOM      1  C   UNL     1      -2.674  37.916  18.864  1.00  0.00     0.180 A 
ATOM      2  C   UNL     1      -2.921  39.296  18.759  1.00  0.00     0.208 A 
ATOM      3  C   UNL     1      -3.931  39.869  19.549  1.00  0.00     0.238 A 
ATOM      4  O   UNL     1      -4.096  41.116  19.504  1.00  0.00    -0.285 OA
ATOM      5  C   UNL     1      -4.719  39.048  20.391  1.00  0.00     0.111 A 
ATOM      6  C   UNL     1      -5.798  39.515  21.202  1.00  0.00     0.134 A 
ATOM      7  C   UNL     1      -6.439  38.629  22.076  1.00  0.00     0.093 A 
ATOM      8  C   UNL     1      -6.083  37.282  22.124  1.00  0.00     0.123 A 
ATOM      9  C   UNL     1      -5.067  36.802  21.297  1.00  0.00     0.094 A 
ATOM     10  C   UNL     1      -4.384  37.670  20.442  1.00  0.00     0.146 A 
ATOM     11  O   UNL     1      -3.408  37.176  19.688  1.00  0.00    -0.452 OA
ENDROOT
BRANCH   1  12
ATOM     12  C   UNL     1      -1.618  37.241  18.077  1.00  0.00     0.021 A 
ATOM     13  C   UNL     1      -1.913  36.040  17.410  1.00  0.00     0.016 A 
ATOM     14  C   UNL     1      -0.925  35.374  16.679  1.00  0.00     0.047 A 
ATOM     15  C   UNL     1       0.373  35.890  16.617  1.00  0.00     0.115 A 
ATOM     16  C   UNL     1      -0.305  37.745  18.027  1.00  0.00     0.016 A 
ATOM     17  C   UNL     1       0.682  37.076  17.297  1.00  0.00     0.047 A 
BRANCH  15  18
ATOM     18  O   UNL     1       1.347  35.216  15.885  1.00  0.00    -0.508 OA
ATOM     19  H   UNL     1       1.447  34.209  15.936  1.00  0.00     0.293 HD
ENDBRANCH  15  18
ENDBRANCH   1  12
BRANCH   2  20
ATOM     20  O   UNL     1      -2.183  40.075  17.864  1.00  0.00    -0.502 OA
ATOM     21  H   UNL     1      -2.556  40.917  17.441  1.00  0.00     0.293 HD
ENDBRANCH   2  20
BRANCH   6  22
ATOM     22  O   UNL     1      -6.295  40.821  21.168  1.00  0.00    -0.507 OA
ATOM     23  H   UNL     1      -6.410  41.375  20.333  1.00  0.00     0.293 HD
ENDBRANCH   6  22
BRANCH   8  24
ATOM     24  O   UNL     1      -6.754  36.425  22.994  1.00  0.00    -0.508 OA
ATOM     25  H   UNL     1      -6.702  36.542  23.999  1.00  0.00     0.293 HD
ENDBRANCH   8  24
TORSDOF 5
ENDMDL
MODEL 5
REMARK VINA RESULT:    -5.902      9.161     13.759
REMARK INTER + INTRA:          -7.079
REMARK INTER:                  -6.910
REMARK INTRA:                  -0.170
REMARK UNBOUND:                -0.143
REMARK SMILES O=c1c(O)c(-c2ccc(O)cc2)oc2cc(O)cc(O)c12
REMARK SMILES IDX 5 1 3 2 2 3 1 4 21 5 19 6 18 7 16 8 15 9 14 10 13 11 6 12
REMARK SMILES IDX 7 13 8 14 9 15 12 16 11 17 10 18 4 20 20 22 17 24
REMARK H PARENT 10 19 4 21 20 23 17 25
REMARK Flexibility Score: inf
ROOT
ATOM      1  C   UNL     1      -4.177  36.944  33.905  1.00  0.00     0.180 A 
ATOM      2  C   UNL     1      -3.493  37.847  34.736  1.00  0.00     0.208 A 
ATOM      3  C   UNL     1      -2.739  38.876  34.148  1.00  0.00     0.238 A 
ATOM      4  O   UNL     1      -2.190  39.725  34.897  1.00  0.00    -0.285 OA
ATOM      5  C   UNL     1      -2.632  38.954  32.738  1.00  0.00     0.111 A 
ATOM      6  C   UNL     1      -1.859  39.928  32.035  1.00  0.00     0.134 A 
ATOM      7  C   UNL     1      -1.913  39.974  30.637  1.00  0.00     0.093 A 
ATOM      8  C   UNL     1      -2.660  39.045  29.914  1.00  0.00     0.123 A 
ATOM      9  C   UNL     1      -3.377  38.055  30.588  1.00  0.00     0.094 A 
ATOM     10  C   UNL     1      -3.372  38.007  31.984  1.00  0.00     0.146 A 
ATOM     11  O   UNL     1      -4.085  37.062  32.586  1.00  0.00    -0.452 OA
ENDROOT
BRANCH   1  12
ATOM     12  C   UNL     1      -5.004  35.843  34.450  1.00  0.00     0.021 A 
ATOM     13  C   UNL     1      -4.639  34.511  34.191  1.00  0.00     0.016 A 
ATOM     14  C   UNL     1      -5.418  33.456  34.676  1.00  0.00     0.047 A 
ATOM     15  C   UNL     1      -6.578  33.717  35.411  1.00  0.00     0.115 A 
ATOM     16  C   UNL     1      -6.183  36.100  35.174  1.00  0.00     0.016 A 
ATOM     17  C   UNL     1      -6.961  35.043  35.656  1.00  0.00     0.047 A 
BRANCH  15  18
ATOM     18  O   UNL     1      -7.344  32.657  35.889  1.00  0.00    -0.508 OA
ATOM     19  H   UNL     1      -8.088  32.801  36.562  1.00  0.00     0.293 HD
ENDBRANCH  15  18
ENDBRANCH   1  12
BRANCH   2  20
ATOM     20  O   UNL     1      -3.548  37.706  36.125  1.00  0.00    -0.502 OA
ATOM     21  H   UNL     1      -2.755  37.391  36.671  1.00  0.00     0.293 HD
ENDBRANCH   2  20
BRANCH   6  22
ATOM     22  O   UNL     1      -1.008  40.847  32.654  1.00  0.00    -0.507 OA
ATOM     23  H   UNL     1      -0.191  41.258  32.228  1.00  0.00     0.293 HD
ENDBRANCH   6  22
BRANCH   8  24
ATOM     24  O   UNL     1      -2.678  39.111  28.522  1.00  0.00    -0.508 OA
ATOM     25  H   UNL     1      -3.175  39.845  28.032  1.00  0.00     0.293 HD
ENDBRANCH   8  24
TORSDOF 5
ENDMDL
MODEL 6
REMARK VINA RESULT:    -5.719     17.932     20.122
REMARK INTER + INTRA:          -6.865
REMARK INTER:                  -6.577
REMARK INTRA:                  -0.287
REMARK UNBOUND:                -0.143
REMARK SMILES O=c1c(O)c(-c2ccc(O)cc2)oc2cc(O)cc(O)c12
REMARK SMILES IDX 5 1 3 2 2 3 1 4 21 5 19 6 18 7 16 8 15 9 14 10 13 11 6 12
REMARK SMILES IDX 7 13 8 14 9 15 12 16 11 17 10 18 4 20 20 22 17 24
REMARK H PARENT 10 19 4 21 20 23 17 25
REMARK Flexibility Score: inf
ROOT
ATOM      1  C   UNL     1      -2.640  39.214  20.364  1.00  0.00     0.180 A 
ATOM      2  C   UNL     1      -2.127  39.290  21.670  1.00  0.00     0.208 A 
ATOM      3  C   UNL     1      -3.020  39.425  22.745  1.00  0.00     0.238 A 
ATOM      4  O   UNL     1      -2.559  39.417  23.916  1.00  0.00    -0.285 OA
ATOM      5  C   UNL     1      -4.410  39.539  22.498  1.00  0.00     0.111 A 
ATOM      6  C   UNL     1      -5.403  39.723  23.509  1.00  0.00     0.134 A 
ATOM      7  C   UNL     1      -6.757  39.717  23.156  1.00  0.00     0.093 A 
ATOM      8  C   UNL     1      -7.154  39.595  21.825  1.00  0.00     0.123 A 
ATOM      9  C   UNL     1      -6.191  39.469  20.822  1.00  0.00     0.094 A 
ATOM     10  C   UNL     1      -4.833  39.435  21.147  1.00  0.00     0.146 A 
ATOM     11  O   UNL     1      -3.951  39.291  20.165  1.00  0.00    -0.452 OA
ENDROOT
BRANCH   1  12
ATOM     12  C   UNL     1      -1.765  39.057  19.180  1.00  0.00     0.021 A 
ATOM     13  C   UNL     1      -1.445  37.768  18.723  1.00  0.00     0.016 A 
ATOM     14  C   UNL     1      -0.601  37.596  17.621  1.00  0.00     0.047 A 
ATOM     15  C   UNL     1      -0.055  38.708  16.972  1.00  0.00     0.115 A 
ATOM     16  C   UNL     1      -1.196  40.172  18.536  1.00  0.00     0.016 A 
ATOM     17  C   UNL     1      -0.352  39.997  17.435  1.00  0.00     0.047 A 
BRANCH  15  18
ATOM     18  O   UNL     1       0.782  38.522  15.875  1.00  0.00    -0.508 OA
ATOM     19  H   UNL     1       0.638  39.025  15.007  1.00  0.00     0.293 HD
ENDBRANCH  15  18
ENDBRANCH   1  12
BRANCH   2  20
ATOM     20  O   UNL     1      -0.747  39.253  21.886  1.00  0.00    -0.502 OA
ATOM     21  H   UNL     1      -0.098  39.814  21.348  1.00  0.00     0.293 HD
ENDBRANCH   2  20
BRANCH   6  22
ATOM     22  O   UNL     1      -5.114  39.943  24.859  1.00  0.00    -0.507 OA
ATOM     23  H   UNL     1      -4.190  40.093  25.236  1.00  0.00     0.293 HD
ENDBRANCH   6  22
BRANCH   8  24
ATOM     24  O   UNL     1      -8.511  39.609  21.508  1.00  0.00    -0.508 OA
ATOM     25  H   UNL     1      -9.100  40.401  21.736  1.00  0.00     0.293 HD
ENDBRANCH   8  24
TORSDOF 5
ENDMDL
MODEL 7
REMARK VINA RESULT:    -5.627      9.330     13.402
REMARK INTER + INTRA:          -6.757
REMARK INTER:                  -6.851
REMARK INTRA:                   0.094
REMARK UNBOUND:                -0.143
REMARK SMILES O=c1c(O)c(-c2ccc(O)cc2)oc2cc(O)cc(O)c12
REMARK SMILES IDX 5 1 3 2 2 3 1 4 21 5 19 6 18 7 16 8 15 9 14 10 13 11 6 12
REMARK SMILES IDX 7 13 8 14 9 15 12 16 11 17 10 18 4 20 20 22 17 24
REMARK H PARENT 10 19 4 21 20 23 17 25
REMARK Flexibility Score: inf
ROOT
ATOM      1  C   UNL     1      -3.483  37.947  32.951  1.00  0.00     0.180 A 
ATOM      2  C   UNL     1      -4.346  38.737  33.731  1.00  0.00     0.208 A 
ATOM      3  C   UNL     1      -5.273  38.103  34.575  1.00  0.00     0.238 A 
ATOM      4  O   UNL     1      -5.990  38.814  35.325  1.00  0.00    -0.285 OA
ATOM      5  C   UNL     1      -5.364  36.690  34.586  1.00  0.00     0.111 A 
ATOM      6  C   UNL     1      -6.297  35.943  35.369  1.00  0.00     0.134 A 
ATOM      7  C   UNL     1      -6.225  34.545  35.380  1.00  0.00     0.093 A 
ATOM      8  C   UNL     1      -5.298  33.865  34.591  1.00  0.00     0.123 A 
ATOM      9  C   UNL     1      -4.418  34.582  33.781  1.00  0.00     0.094 A 
ATOM     10  C   UNL     1      -4.440  35.979  33.777  1.00  0.00     0.146 A 
ATOM     11  O   UNL     1      -3.570  36.623  33.007  1.00  0.00    -0.452 OA
ENDROOT
BRANCH   1  12
ATOM     12  C   UNL     1      -2.470  38.541  32.049  1.00  0.00     0.021 A 
ATOM     13  C   UNL     1      -2.265  37.980  30.777  1.00  0.00     0.016 A 
ATOM     14  C   UNL     1      -1.297  38.511  29.917  1.00  0.00     0.047 A 
ATOM     15  C   UNL     1      -0.514  39.595  30.323  1.00  0.00     0.115 A 
ATOM     16  C   UNL     1      -1.665  39.619  32.459  1.00  0.00     0.016 A 
ATOM     17  C   UNL     1      -0.698  40.147  31.598  1.00  0.00     0.047 A 
BRANCH  15  18
ATOM     18  O   UNL     1       0.445  40.114  29.456  1.00  0.00    -0.508 OA
ATOM     19  H   UNL     1       1.417  39.831  29.510  1.00  0.00     0.293 HD
ENDBRANCH  15  18
ENDBRANCH   1  12
BRANCH   2  20
ATOM     20  O   UNL     1      -4.291  40.130  33.647  1.00  0.00    -0.502 OA
ATOM     21  H   UNL     1      -3.495  40.620  33.257  1.00  0.00     0.293 HD
ENDBRANCH   2  20
BRANCH   6  22
ATOM     22  O   UNL     1      -7.322  36.518  36.125  1.00  0.00    -0.507 OA
ATOM     23  H   UNL     1      -7.204  36.943  37.032  1.00  0.00     0.293 HD
ENDBRANCH   6  22
BRANCH   8  24
ATOM     24  O   UNL     1      -5.267  32.472  34.615  1.00  0.00    -0.508 OA
ATOM     25  H   UNL     1      -4.670  31.966  35.258  1.00  0.00     0.293 HD
ENDBRANCH   8  24
TORSDOF 5
ENDMDL
MODEL 8
REMARK VINA RESULT:    -5.287     18.593     21.154
REMARK INTER + INTRA:          -6.357
REMARK INTER:                  -6.527
REMARK INTRA:                   0.170
REMARK UNBOUND:                -0.143
REMARK SMILES O=c1c(O)c(-c2ccc(O)cc2)oc2cc(O)cc(O)c12
REMARK SMILES IDX 5 1 3 2 2 3 1 4 21 5 19 6 18 7 16 8 15 9 14 10 13 11 6 12
REMARK SMILES IDX 7 13 8 14 9 15 12 16 11 17 10 18 4 20 20 22 17 24
REMARK H PARENT 10 19 4 21 20 23 17 25
REMARK Flexibility Score: inf
ROOT
ATOM      1  C   UNL     1      -0.649  35.058  17.027  1.00  0.00     0.180 A 
ATOM      2  C   UNL     1       0.315  35.965  16.555  1.00  0.00     0.208 A 
ATOM      3  C   UNL     1       0.053  37.342  16.638  1.00  0.00     0.238 A 
ATOM      4  O   UNL     1       0.950  38.150  16.283  1.00  0.00    -0.285 OA
ATOM      5  C   UNL     1      -1.193  37.793  17.138  1.00  0.00     0.111 A 
ATOM      6  C   UNL     1      -1.584  39.164  17.227  1.00  0.00     0.134 A 
ATOM      7  C   UNL     1      -2.799  39.498  17.837  1.00  0.00     0.093 A 
ATOM      8  C   UNL     1      -3.664  38.510  18.306  1.00  0.00     0.123 A 
ATOM      9  C   UNL     1      -3.317  37.165  18.177  1.00  0.00     0.094 A 
ATOM     10  C   UNL     1      -2.095  36.803  17.606  1.00  0.00     0.146 A 
ATOM     11  O   UNL     1      -1.794  35.512  17.521  1.00  0.00    -0.452 OA
ENDROOT
BRANCH   1  12
ATOM     12  C   UNL     1      -0.439  33.593  16.987  1.00  0.00     0.021 A 
ATOM     13  C   UNL     1      -0.793  32.813  18.101  1.00  0.00     0.016 A 
ATOM     14  C   UNL     1      -0.583  31.431  18.094  1.00  0.00     0.047 A 
ATOM     15  C   UNL     1      -0.004  30.812  16.982  1.00  0.00     0.115 A 
ATOM     16  C   UNL     1       0.162  32.968  15.879  1.00  0.00     0.016 A 
ATOM     17  C   UNL     1       0.372  31.585  15.875  1.00  0.00     0.047 A 
BRANCH  15  18
ATOM     18  O   UNL     1       0.199  29.434  16.988  1.00  0.00    -0.508 OA
ATOM     19  H   UNL     1      -0.437  28.808  17.469  1.00  0.00     0.293 HD
ENDBRANCH  15  18
ENDBRANCH   1  12
BRANCH   2  20
ATOM     20  O   UNL     1       1.506  35.497  15.993  1.00  0.00    -0.502 OA
ATOM     21  H   UNL     1       2.328  35.296  16.551  1.00  0.00     0.293 HD
ENDBRANCH   2  20
BRANCH   6  22
ATOM     22  O   UNL     1      -0.836  40.227  16.710  1.00  0.00    -0.507 OA
ATOM     23  H   UNL     1       0.161  40.213  16.558  1.00  0.00     0.293 HD
ENDBRANCH   6  22
BRANCH   8  24
ATOM     24  O   UNL     1      -4.873  38.878  18.894  1.00  0.00    -0.508 OA
ATOM     25  H   UNL     1      -5.738  38.888  18.367  1.00  0.00     0.293 HD
ENDBRANCH   8  24
TORSDOF 5
ENDMDL
MODEL 9
REMARK VINA RESULT:    -5.218     11.652     15.551
REMARK INTER + INTRA:          -6.276
REMARK INTER:                  -5.994
REMARK INTRA:                  -0.282
REMARK UNBOUND:                -0.143
REMARK SMILES O=c1c(O)c(-c2ccc(O)cc2)oc2cc(O)cc(O)c12
REMARK SMILES IDX 5 1 3 2 2 3 1 4 21 5 19 6 18 7 16 8 15 9 14 10 13 11 6 12
REMARK SMILES IDX 7 13 8 14 9 15 12 16 11 17 10 18 4 20 20 22 17 24
REMARK H PARENT 10 19 4 21 20 23 17 25
REMARK Flexibility Score: inf
ROOT
ATOM      1  C   UNL     1      -3.088  38.633  32.144  1.00  0.00     0.180 A 
ATOM      2  C   UNL     1      -3.560  38.899  30.848  1.00  0.00     0.208 A 
ATOM      3  C   UNL     1      -2.710  39.540  29.931  1.00  0.00     0.238 A 
ATOM      4  O   UNL     1      -3.113  39.707  28.751  1.00  0.00    -0.285 OA
ATOM      5  C   UNL     1      -1.420  39.957  30.340  1.00  0.00     0.111 A 
ATOM      6  C   UNL     1      -0.491  40.654  29.508  1.00  0.00     0.134 A 
ATOM      7  C   UNL     1       0.796  40.923  29.986  1.00  0.00     0.093 A 
ATOM      8  C   UNL     1       1.170  40.578  31.284  1.00  0.00     0.123 A 
ATOM      9  C   UNL     1       0.253  39.945  32.124  1.00  0.00     0.094 A 
ATOM     10  C   UNL     1      -1.027  39.630  31.663  1.00  0.00     0.146 A 
ATOM     11  O   UNL     1      -1.861  39.007  32.489  1.00  0.00    -0.452 OA
ENDROOT
BRANCH   1  12
ATOM     12  C   UNL     1      -3.919  37.949  33.161  1.00  0.00     0.021 A 
ATOM     13  C   UNL     1      -3.835  36.553  33.297  1.00  0.00     0.016 A 
ATOM     14  C   UNL     1      -4.627  35.884  34.236  1.00  0.00     0.047 A 
ATOM     15  C   UNL     1      -5.522  36.597  35.038  1.00  0.00     0.115 A 
ATOM     16  C   UNL     1      -4.836  38.659  33.958  1.00  0.00     0.016 A 
ATOM     17  C   UNL     1      -5.627  37.987  34.895  1.00  0.00     0.047 A 
BRANCH  15  18
ATOM     18  O   UNL     1      -6.303  35.918  35.970  1.00  0.00    -0.508 OA
ATOM     19  H   UNL     1      -5.888  35.320  36.675  1.00  0.00     0.293 HD
ENDBRANCH  15  18
ENDBRANCH   1  12
BRANCH   2  20
ATOM     20  O   UNL     1      -4.864  38.548  30.489  1.00  0.00    -0.502 OA
ATOM     21  H   UNL     1      -5.128  38.342  29.532  1.00  0.00     0.293 HD
ENDBRANCH   2  20
BRANCH   6  22
ATOM     22  O   UNL     1      -0.789  41.125  28.226  1.00  0.00    -0.507 OA
ATOM     23  H   UNL     1      -1.719  41.254  27.858  1.00  0.00     0.293 HD
ENDBRANCH   6  22
BRANCH   8  24
ATOM     24  O   UNL     1       2.455  40.876  31.732  1.00  0.00    -0.508 OA
ATOM     25  H   UNL     1       2.837  40.451  32.569  1.00  0.00     0.293 HD
ENDBRANCH   8  24
TORSDOF 5
ENDMDL
