MODEL 1
REMARK VINA RESULT:    -6.650      0.000      0.000
REMARK INTER + INTRA:          -7.039
REMARK INTER:                  -7.039
REMARK INTRA:                   0.000
REMARK UNBOUND:                 0.000
REMARK SMILES O=c1ccc2cc(O)c(O)cc2o1
REMARK SMILES IDX 4 1 3 2 2 3 1 4 13 5 12 6 11 7 9 8 7 9 6 10 5 11 8 12 10 14
REMARK H PARENT 8 13 10 15
REMARK Flexibility Score: inf
ROOT
ATOM      1  C   UNL     1      22.466   8.927  40.953  1.00  0.00     0.019 A 
ATOM      2  C   UNL     1      21.481   9.477  40.134  1.00  0.00     0.094 A 
ATOM      3  C   UNL     1      20.158   9.046  40.280  1.00  0.00     0.336 A 
ATOM      4  O   UNL     1      19.255   9.530  39.551  1.00  0.00    -0.246 OA
ATOM      5  O   UNL     1      19.847   8.124  41.189  1.00  0.00    -0.423 OA
ATOM      6  C   UNL     1      20.756   7.573  41.990  1.00  0.00     0.142 A 
ATOM      7  C   UNL     1      20.371   6.608  42.926  1.00  0.00     0.098 A 
ATOM      8  C   UNL     1      21.321   6.024  43.772  1.00  0.00     0.161 A 
ATOM      9  C   UNL     1      22.671   6.408  43.683  1.00  0.00     0.158 A 
ATOM     10  C   UNL     1      23.063   7.375  42.745  1.00  0.00     0.062 A 
ATOM     11  C   UNL     1      22.111   7.959  41.899  1.00  0.00     0.022 A 
ENDROOT
BRANCH   9  12
ATOM     12  O   UNL     1      23.618   5.828  44.525  1.00  0.00    -0.504 OA
ATOM     13  H   UNL     1      23.888   4.856  44.431  1.00  0.00     0.293 HD
ENDBRANCH   9  12
BRANCH   8  14
ATOM     14  O   UNL     1      20.904   5.066  44.695  1.00  0.00    -0.504 OA
ATOM     15  H   UNL     1      21.546   4.395  45.102  1.00  0.00     0.293 HD
ENDBRANCH   8  14
TORSDOF 2
ENDMDL
MODEL 2
REMARK VINA RESULT:    -6.640      2.446      3.453
REMARK INTER + INTRA:          -7.029
REMARK INTER:                  -7.029
REMARK INTRA:                   0.000
REMARK UNBOUND:                 0.000
REMARK SMILES O=c1ccc2cc(O)c(O)cc2o1
REMARK SMILES IDX 4 1 3 2 2 3 1 4 13 5 12 6 11 7 9 8 7 9 6 10 5 11 8 12 10 14
REMARK H PARENT 8 13 10 15
REMARK Flexibility Score: inf
ROOT
ATOM      1  C   UNL     1      19.099   7.598  42.128  1.00  0.00     0.019 A 
ATOM      2  C   UNL     1      17.865   7.269  42.687  1.00  0.00     0.094 A 
ATOM      3  C   UNL     1      17.833   6.520  43.869  1.00  0.00     0.336 A 
ATOM      4  O   UNL     1      16.730   6.213  44.388  1.00  0.00    -0.246 OA
ATOM      5  O   UNL     1      18.966   6.130  44.448  1.00  0.00    -0.423 OA
ATOM      6  C   UNL     1      20.164   6.422  43.948  1.00  0.00     0.142 A 
ATOM      7  C   UNL     1      21.321   5.984  44.601  1.00  0.00     0.098 A 
ATOM      8  C   UNL     1      22.585   6.287  44.082  1.00  0.00     0.161 A 
ATOM      9  C   UNL     1      22.695   7.037  42.896  1.00  0.00     0.158 A 
ATOM     10  C   UNL     1      21.538   7.478  42.237  1.00  0.00     0.062 A 
ATOM     11  C   UNL     1      20.273   7.174  42.759  1.00  0.00     0.022 A 
ENDROOT
BRANCH   9  12
ATOM     12  O   UNL     1      23.953   7.340  42.377  1.00  0.00    -0.504 OA
ATOM     13  H   UNL     1      24.331   8.279  42.415  1.00  0.00     0.293 HD
ENDBRANCH   9  12
BRANCH   8  14
ATOM     14  O   UNL     1      23.718   5.836  44.756  1.00  0.00    -0.504 OA
ATOM     15  H   UNL     1      24.232   5.015  44.457  1.00  0.00     0.293 HD
ENDBRANCH   8  14
TORSDOF 2
ENDMDL
MODEL 3
REMARK VINA RESULT:    -6.558      1.568      4.806
REMARK INTER + INTRA:          -6.941
REMARK INTER:                  -6.941
REMARK INTRA:                   0.000
REMARK UNBOUND:                 0.000
REMARK SMILES O=c1ccc2cc(O)c(O)cc2o1
REMARK SMILES IDX 4 1 3 2 2 3 1 4 13 5 12 6 11 7 9 8 7 9 6 10 5 11 8 12 10 14
REMARK H PARENT 8 13 10 15
REMARK Flexibility Score: inf
ROOT
ATOM      1  C   UNL     1      22.673   6.818  43.632  1.00  0.00     0.019 A 
ATOM      2  C   UNL     1      22.999   5.992  44.707  1.00  0.00     0.094 A 
ATOM      3  C   UNL     1      21.972   5.330  45.389  1.00  0.00     0.336 A 
ATOM      4  O   UNL     1      22.245   4.581  46.362  1.00  0.00    -0.246 OA
ATOM      5  O   UNL     1      20.704   5.488  45.015  1.00  0.00    -0.423 OA
ATOM      6  C   UNL     1      20.350   6.267  43.995  1.00  0.00     0.142 A 
ATOM      7  C   UNL     1      19.002   6.394  43.648  1.00  0.00     0.098 A 
ATOM      8  C   UNL     1      18.621   7.211  42.577  1.00  0.00     0.161 A 
ATOM      9  C   UNL     1      19.599   7.908  41.843  1.00  0.00     0.158 A 
ATOM     10  C   UNL     1      20.953   7.783  42.188  1.00  0.00     0.062 A 
ATOM     11  C   UNL     1      21.333   6.965  43.261  1.00  0.00     0.022 A 
ENDROOT
BRANCH   9  12
ATOM     12  O   UNL     1      19.222   8.722  40.776  1.00  0.00    -0.504 OA
ATOM     13  H   UNL     1      18.560   9.480  40.894  1.00  0.00     0.293 HD
ENDBRANCH   9  12
BRANCH   8  14
ATOM     14  O   UNL     1      17.269   7.317  42.256  1.00  0.00    -0.504 OA
ATOM     15  H   UNL     1      16.650   7.960  42.737  1.00  0.00     0.293 HD
ENDBRANCH   8  14
TORSDOF 2
ENDMDL
MODEL 4
REMARK VINA RESULT:    -6.513      1.098      5.031
REMARK INTER + INTRA:          -6.893
REMARK INTER:                  -6.893
REMARK INTRA:                   0.000
REMARK UNBOUND:                 0.000
REMARK SMILES O=c1ccc2cc(O)c(O)cc2o1
REMARK SMILES IDX 4 1 3 2 2 3 1 4 13 5 12 6 11 7 9 8 7 9 6 10 5 11 8 12 10 14
REMARK H PARENT 8 13 10 15
REMARK Flexibility Score: inf
ROOT
ATOM      1  C   UNL     1      20.191   6.534  43.447  1.00  0.00     0.019 A 
ATOM      2  C   UNL     1      21.150   6.010  44.312  1.00  0.00     0.094 A 
ATOM      3  C   UNL     1      22.483   6.414  44.172  1.00  0.00     0.336 A 
ATOM      4  O   UNL     1      23.364   5.952  44.942  1.00  0.00    -0.246 OA
ATOM      5  O   UNL     1      22.826   7.285  43.226  1.00  0.00    -0.423 OA
ATOM      6  C   UNL     1      21.942   7.808  42.379  1.00  0.00     0.142 A 
ATOM      7  C   UNL     1      22.362   8.720  41.405  1.00  0.00     0.098 A 
ATOM      8  C   UNL     1      21.438   9.275  40.511  1.00  0.00     0.161 A 
ATOM      9  C   UNL     1      20.080   8.916  40.592  1.00  0.00     0.158 A 
ATOM     10  C   UNL     1      19.655   8.002  41.568  1.00  0.00     0.062 A 
ATOM     11  C   UNL     1      20.580   7.447  42.462  1.00  0.00     0.022 A 
ENDROOT
BRANCH   9  12
ATOM     12  O   UNL     1      19.159   9.469  39.703  1.00  0.00    -0.504 OA
ATOM     13  H   UNL     1      18.298   8.991  39.464  1.00  0.00     0.293 HD
ENDBRANCH   9  12
BRANCH   8  14
ATOM     14  O   UNL     1      21.888  10.181  39.552  1.00  0.00    -0.504 OA
ATOM     15  H   UNL     1      21.293  10.508  38.800  1.00  0.00     0.293 HD
ENDBRANCH   8  14
TORSDOF 2
ENDMDL
MODEL 5
REMARK VINA RESULT:    -6.506      1.086      2.249
REMARK INTER + INTRA:          -6.886
REMARK INTER:                  -6.886
REMARK INTRA:                   0.000
REMARK UNBOUND:                 0.000
REMARK SMILES O=c1ccc2cc(O)c(O)cc2o1
REMARK SMILES IDX 4 1 3 2 2 3 1 4 13 5 12 6 11 7 9 8 7 9 6 10 5 11 8 12 10 14
REMARK H PARENT 8 13 10 15
REMARK Flexibility Score: inf
ROOT
ATOM      1  C   UNL     1      19.615   8.166  41.462  1.00  0.00     0.019 A 
ATOM      2  C   UNL     1      19.990   9.100  40.497  1.00  0.00     0.094 A 
ATOM      3  C   UNL     1      21.346   9.407  40.341  1.00  0.00     0.336 A 
ATOM      4  O   UNL     1      21.705  10.248  39.476  1.00  0.00    -0.246 OA
ATOM      5  O   UNL     1      22.262   8.815  41.104  1.00  0.00    -0.423 OA
ATOM      6  C   UNL     1      21.947   7.919  42.036  1.00  0.00     0.142 A 
ATOM      7  C   UNL     1      22.953   7.330  42.808  1.00  0.00     0.098 A 
ATOM      8  C   UNL     1      22.630   6.387  43.791  1.00  0.00     0.161 A 
ATOM      9  C   UNL     1      21.287   6.027  44.004  1.00  0.00     0.158 A 
ATOM     10  C   UNL     1      20.274   6.616  43.233  1.00  0.00     0.062 A 
ATOM     11  C   UNL     1      20.599   7.560  42.249  1.00  0.00     0.022 A 
ENDROOT
BRANCH   9  12
ATOM     12  O   UNL     1      20.964   5.088  44.982  1.00  0.00    -0.504 OA
ATOM     13  H   UNL     1      21.221   4.112  44.888  1.00  0.00     0.293 HD
ENDBRANCH   9  12
BRANCH   8  14
ATOM     14  O   UNL     1      23.657   5.818  44.543  1.00  0.00    -0.504 OA
ATOM     15  H   UNL     1      24.286   5.122  44.158  1.00  0.00     0.293 HD
ENDBRANCH   8  14
TORSDOF 2
ENDMDL
MODEL 6
REMARK VINA RESULT:    -6.410      2.461      4.397
REMARK INTER + INTRA:          -6.785
REMARK INTER:                  -6.785
REMARK INTRA:                   0.000
REMARK UNBOUND:                 0.000
REMARK SMILES O=c1ccc2cc(O)c(O)cc2o1
REMARK SMILES IDX 4 1 3 2 2 3 1 4 13 5 12 6 11 7 9 8 7 9 6 10 5 11 8 12 10 14
REMARK H PARENT 8 13 10 15
REMARK Flexibility Score: inf
ROOT
ATOM      1  C   UNL     1      21.212   6.741  44.607  1.00  0.00     0.019 A 
ATOM      2  C   UNL     1      22.404   7.024  43.943  1.00  0.00     0.094 A 
ATOM      3  C   UNL     1      22.354   7.474  42.620  1.00  0.00     0.336 A 
ATOM      4  O   UNL     1      23.419   7.734  42.003  1.00  0.00    -0.246 OA
ATOM      5  O   UNL     1      21.183   7.629  42.006  1.00  0.00    -0.423 OA
ATOM      6  C   UNL     1      20.022   7.371  42.603  1.00  0.00     0.142 A 
ATOM      7  C   UNL     1      18.822   7.553  41.907  1.00  0.00     0.098 A 
ATOM      8  C   UNL     1      17.597   7.283  42.528  1.00  0.00     0.161 A 
ATOM      9  C   UNL     1      17.569   6.827  43.859  1.00  0.00     0.158 A 
ATOM     10  C   UNL     1      18.770   6.643  44.560  1.00  0.00     0.062 A 
ATOM     11  C   UNL     1      19.996   6.913  43.938  1.00  0.00     0.022 A 
ENDROOT
BRANCH   9  12
ATOM     12  O   UNL     1      16.349   6.559  44.478  1.00  0.00    -0.504 OA
ATOM     13  H   UNL     1      15.923   7.217  45.120  1.00  0.00     0.293 HD
ENDBRANCH   9  12
BRANCH   8  14
ATOM     14  O   UNL     1      16.419   7.475  41.808  1.00  0.00    -0.504 OA
ATOM     15  H   UNL     1      15.841   8.299  41.928  1.00  0.00     0.293 HD
ENDBRANCH   8  14
TORSDOF 2
ENDMDL
MODEL 7
REMARK VINA RESULT:    -6.406      1.972      3.395
REMARK INTER + INTRA:          -6.781
REMARK INTER:                  -6.781
REMARK INTRA:                   0.000
REMARK UNBOUND:                 0.000
REMARK SMILES O=c1ccc2cc(O)c(O)cc2o1
REMARK SMILES IDX 4 1 3 2 2 3 1 4 13 5 12 6 11 7 9 8 7 9 6 10 5 11 8 12 10 14
REMARK H PARENT 8 13 10 15
REMARK Flexibility Score: inf
ROOT
ATOM      1  C   UNL     1      18.911   6.002  44.574  1.00  0.00     0.019 A 
ATOM      2  C   UNL     1      17.787   6.392  43.847  1.00  0.00     0.094 A 
ATOM      3  C   UNL     1      17.964   7.083  42.643  1.00  0.00     0.336 A 
ATOM      4  O   UNL     1      16.962   7.444  41.973  1.00  0.00    -0.246 OA
ATOM      5  O   UNL     1      19.188   7.363  42.202  1.00  0.00    -0.423 OA
ATOM      6  C   UNL     1      20.287   7.010  42.864  1.00  0.00     0.142 A 
ATOM      7  C   UNL     1      21.547   7.332  42.350  1.00  0.00     0.098 A 
ATOM      8  C   UNL     1      22.708   6.964  43.041  1.00  0.00     0.161 A 
ATOM      9  C   UNL     1      22.608   6.266  44.259  1.00  0.00     0.158 A 
ATOM     10  C   UNL     1      21.346   5.941  44.778  1.00  0.00     0.062 A 
ATOM     11  C   UNL     1      20.185   6.310  44.085  1.00  0.00     0.022 A 
ENDROOT
BRANCH   9  12
ATOM     12  O   UNL     1      23.763   5.899  44.948  1.00  0.00    -0.504 OA
ATOM     13  H   UNL     1      23.721   5.427  45.843  1.00  0.00     0.293 HD
ENDBRANCH   9  12
BRANCH   8  14
ATOM     14  O   UNL     1      23.949   7.300  42.502  1.00  0.00    -0.504 OA
ATOM     15  H   UNL     1      24.182   8.250  42.237  1.00  0.00     0.293 HD
ENDBRANCH   8  14
TORSDOF 2
ENDMDL
MODEL 8
REMARK VINA RESULT:    -6.381      1.101      4.546
REMARK INTER + INTRA:          -6.754
REMARK INTER:                  -6.754
REMARK INTRA:                   0.000
REMARK UNBOUND:                 0.000
REMARK SMILES O=c1ccc2cc(O)c(O)cc2o1
REMARK SMILES IDX 4 1 3 2 2 3 1 4 13 5 12 6 11 7 9 8 7 9 6 10 5 11 8 12 10 14
REMARK H PARENT 8 13 10 15
REMARK Flexibility Score: inf
ROOT
ATOM      1  C   UNL     1      22.939   7.520  42.748  1.00  0.00     0.019 A 
ATOM      2  C   UNL     1      22.580   6.619  43.749  1.00  0.00     0.094 A 
ATOM      3  C   UNL     1      21.235   6.260  43.888  1.00  0.00     0.336 A 
ATOM      4  O   UNL     1      20.891   5.449  44.786  1.00  0.00    -0.246 OA
ATOM      5  O   UNL     1      20.315   6.772  43.075  1.00  0.00    -0.423 OA
ATOM      6  C   UNL     1      20.614   7.636  42.108  1.00  0.00     0.142 A 
ATOM      7  C   UNL     1      19.604   8.141  41.283  1.00  0.00     0.098 A 
ATOM      8  C   UNL     1      19.911   9.049  40.263  1.00  0.00     0.161 A 
ATOM      9  C   UNL     1      21.243   9.456  40.063  1.00  0.00     0.158 A 
ATOM     10  C   UNL     1      22.260   8.952  40.887  1.00  0.00     0.062 A 
ATOM     11  C   UNL     1      21.951   8.043  41.908  1.00  0.00     0.022 A 
ENDROOT
BRANCH   9  12
ATOM     12  O   UNL     1      21.550  10.360  39.047  1.00  0.00    -0.504 OA
ATOM     13  H   UNL     1      22.501  10.665  38.877  1.00  0.00     0.293 HD
ENDBRANCH   9  12
BRANCH   8  14
ATOM     14  O   UNL     1      18.881   9.534  39.459  1.00  0.00    -0.504 OA
ATOM     15  H   UNL     1      18.592   9.061  38.609  1.00  0.00     0.293 HD
ENDBRANCH   8  14
TORSDOF 2
ENDMDL
MODEL 9
REMARK VINA RESULT:    -6.242      2.274      4.610
REMARK INTER + INTRA:          -6.607
REMARK INTER:                  -6.607
REMARK INTRA:                   0.000
REMARK UNBOUND:                 0.000
REMARK SMILES O=c1ccc2cc(O)c(O)cc2o1
REMARK SMILES IDX 4 1 3 2 2 3 1 4 13 5 12 6 11 7 9 8 7 9 6 10 5 11 8 12 10 14
REMARK H PARENT 8 13 10 15
REMARK Flexibility Score: inf
ROOT
ATOM      1  C   UNL     1      21.256   7.517  42.137  1.00  0.00     0.019 A 
ATOM      2  C   UNL     1      22.420   7.158  42.814  1.00  0.00     0.094 A 
ATOM      3  C   UNL     1      22.315   6.558  44.073  1.00  0.00     0.336 A 
ATOM      4  O   UNL     1      23.354   6.227  44.700  1.00  0.00    -0.246 OA
ATOM      5  O   UNL     1      21.119   6.334  44.614  1.00  0.00    -0.423 OA
ATOM      6  C   UNL     1      19.984   6.662  44.002  1.00  0.00     0.142 A 
ATOM      7  C   UNL     1      18.756   6.402  44.620  1.00  0.00     0.098 A 
ATOM      8  C   UNL     1      17.557   6.743  43.983  1.00  0.00     0.161 A 
ATOM      9  C   UNL     1      17.585   7.350  42.713  1.00  0.00     0.158 A 
ATOM     10  C   UNL     1      18.814   7.613  42.090  1.00  0.00     0.062 A 
ATOM     11  C   UNL     1      20.013   7.270  42.729  1.00  0.00     0.022 A 
ENDROOT
BRANCH   9  12
ATOM     12  O   UNL     1      16.392   7.690  42.077  1.00  0.00    -0.504 OA
ATOM     13  H   UNL     1      15.571   7.969  42.602  1.00  0.00     0.293 HD
ENDBRANCH   9  12
BRANCH   8  14
ATOM     14  O   UNL     1      16.350   6.471  44.625  1.00  0.00    -0.504 OA
ATOM     15  H   UNL     1      16.313   6.105  45.569  1.00  0.00     0.293 HD
ENDBRANCH   8  14
TORSDOF 2
ENDMDL
