MODEL 1
REMARK VINA RESULT:    -3.485      0.000      0.000
REMARK INTER + INTRA:         -12.138
REMARK INTER:                  -7.968
REMARK INTRA:                  -4.170
REMARK UNBOUND:                -4.170
REMARK SMILES CCCCCCCCCCCCCCCCCCCCCCCC(=O)[O-]
REMARK SMILES IDX 13 1 14 2 15 3 16 4 17 5 18 6 19 7 20 8 21 9 22 10 23 11
REMARK SMILES IDX 24 12 25 13 26 14 12 15 11 16 10 17 9 18 8 19 7 20 6 21 5 22
REMARK SMILES IDX 4 23 3 24 2 25 1 26
REMARK H PARENT
REMARK Flexibility Score: inf
ROOT
ATOM      1  C   UNL     1     115.190  52.379  53.167  1.00  0.00     0.000 C 
ENDROOT
BRANCH   1   2
ATOM      2  C   UNL     1     116.207  51.990  54.252  1.00  0.00     0.000 C 
BRANCH   2   3
ATOM      3  C   UNL     1     117.089  53.175  54.685  1.00  0.00     0.000 C 
BRANCH   3   4
ATOM      4  C   UNL     1     118.586  52.904  54.472  1.00  0.00     0.000 C 
BRANCH   4   5
ATOM      5  C   UNL     1     118.863  51.504  53.895  1.00  0.00     0.000 C 
BRANCH   5   6
ATOM      6  C   UNL     1     119.553  51.548  52.521  1.00  0.00     0.000 C 
BRANCH   6   7
ATOM      7  C   UNL     1     119.219  50.370  51.586  1.00  0.00     0.000 C 
BRANCH   7   8
ATOM      8  C   UNL     1     117.870  49.710  51.914  1.00  0.00     0.000 C 
BRANCH   8   9
ATOM      9  C   UNL     1     116.839  49.871  50.786  1.00  0.00     0.000 C 
BRANCH   9  10
ATOM     10  C   UNL     1     115.401  49.484  51.195  1.00  0.00     0.006 C 
BRANCH  10  11
ATOM     11  C   UNL     1     114.752  48.528  50.187  1.00  0.00     0.053 C 
BRANCH  11  12
ATOM     12  C   UNL     1     114.550  49.209  48.869  1.00  0.00     0.041 C 
ATOM     13  O   UNL     1     114.814  48.605  47.796  1.00  0.00    -0.550 OA
ATOM     14  O   UNL     1     114.096  50.519  48.826  1.00  0.00    -0.550 OA
ENDBRANCH  11  12
ENDBRANCH  10  11
ENDBRANCH   9  10
ENDBRANCH   8   9
ENDBRANCH   7   8
ENDBRANCH   6   7
ENDBRANCH   5   6
ENDBRANCH   4   5
ENDBRANCH   3   4
ENDBRANCH   2   3
ENDBRANCH   1   2
BRANCH   1  15
ATOM     15  C   UNL     1     115.569  53.681  52.438  1.00  0.00     0.000 C 
BRANCH  15  16
ATOM     16  C   UNL     1     116.000  53.444  50.982  1.00  0.00     0.000 C 
BRANCH  16  17
ATOM     17  C   UNL     1     117.456  53.863  50.722  1.00  0.00     0.000 C 
BRANCH  17  18
ATOM     18  C   UNL     1     117.774  55.280  51.233  1.00  0.00    -0.000 C 
BRANCH  18  19
ATOM     19  C   UNL     1     119.006  55.382  52.153  1.00  0.00    -0.000 C 
BRANCH  19  20
ATOM     20  C   UNL     1     120.318  55.586  51.375  1.00  0.00    -0.000 C 
BRANCH  20  21
ATOM     21  C   UNL     1     121.363  54.505  51.690  1.00  0.00    -0.000 C 
BRANCH  21  22
ATOM     22  C   UNL     1     122.767  55.094  51.916  1.00  0.00    -0.000 C 
BRANCH  22  23
ATOM     23  C   UNL     1     123.451  54.522  53.168  1.00  0.00    -0.000 C 
BRANCH  23  24
ATOM     24  C   UNL     1     122.456  54.244  54.308  1.00  0.00    -0.000 C 
BRANCH  24  25
ATOM     25  C   UNL     1     122.525  52.793  54.809  1.00  0.00    -0.003 C 
ATOM     26  C   UNL     1     121.761  52.585  56.118  1.00  0.00     0.004 C 
ENDBRANCH  24  25
ENDBRANCH  23  24
ENDBRANCH  22  23
ENDBRANCH  21  22
ENDBRANCH  20  21
ENDBRANCH  19  20
ENDBRANCH  18  19
ENDBRANCH  17  18
ENDBRANCH  16  17
ENDBRANCH  15  16
ENDBRANCH   1  15
TORSDOF 22
ENDMDL
MODEL 2
REMARK VINA RESULT:    -3.455      2.661      6.264
REMARK INTER + INTRA:         -12.069
REMARK INTER:                  -7.735
REMARK INTRA:                  -4.335
REMARK UNBOUND:                -4.170
REMARK SMILES CCCCCCCCCCCCCCCCCCCCCCCC(=O)[O-]
REMARK SMILES IDX 13 1 14 2 15 3 16 4 17 5 18 6 19 7 20 8 21 9 22 10 23 11
REMARK SMILES IDX 24 12 25 13 26 14 12 15 11 16 10 17 9 18 8 19 7 20 6 21 5 22
REMARK SMILES IDX 4 23 3 24 2 25 1 26
REMARK H PARENT
REMARK Flexibility Score: inf
ROOT
ATOM      1  C   UNL     1     116.465  52.951  50.105  1.00  0.00     0.000 C 
ENDROOT
BRANCH   1   2
ATOM      2  C   UNL     1     115.500  53.875  50.864  1.00  0.00     0.000 C 
BRANCH   2   3
ATOM      3  C   UNL     1     115.655  53.763  52.391  1.00  0.00     0.000 C 
BRANCH   3   4
ATOM      4  C   UNL     1     115.320  52.359  52.917  1.00  0.00     0.000 C 
BRANCH   4   5
ATOM      5  C   UNL     1     116.124  51.986  54.176  1.00  0.00     0.000 C 
BRANCH   5   6
ATOM      6  C   UNL     1     117.292  52.950  54.449  1.00  0.00     0.000 C 
BRANCH   6   7
ATOM      7  C   UNL     1     118.692  52.372  54.171  1.00  0.00     0.000 C 
BRANCH   7   8
ATOM      8  C   UNL     1     119.649  53.396  53.540  1.00  0.00     0.000 C 
BRANCH   8   9
ATOM      9  C   UNL     1     118.927  54.661  53.046  1.00  0.00     0.000 C 
BRANCH   9  10
ATOM     10  C   UNL     1     119.253  55.033  51.584  1.00  0.00     0.006 C 
BRANCH  10  11
ATOM     11  C   UNL     1     118.578  56.344  51.160  1.00  0.00     0.053 C 
BRANCH  11  12
ATOM     12  C   UNL     1     118.249  56.320  49.700  1.00  0.00     0.041 C 
ATOM     13  O   UNL     1     117.538  57.228  49.195  1.00  0.00    -0.550 OA
ATOM     14  O   UNL     1     118.705  55.280  48.902  1.00  0.00    -0.550 OA
ENDBRANCH  11  12
ENDBRANCH  10  11
ENDBRANCH   9  10
ENDBRANCH   8   9
ENDBRANCH   7   8
ENDBRANCH   6   7
ENDBRANCH   5   6
ENDBRANCH   4   5
ENDBRANCH   3   4
ENDBRANCH   2   3
ENDBRANCH   1   2
BRANCH   1  15
ATOM     15  C   UNL     1     115.941  52.563  48.711  1.00  0.00     0.000 C 
BRANCH  15  16
ATOM     16  C   UNL     1     114.405  52.501  48.649  1.00  0.00     0.000 C 
BRANCH  16  17
ATOM     17  C   UNL     1     113.888  51.127  48.194  1.00  0.00     0.000 C 
BRANCH  17  18
ATOM     18  C   UNL     1     115.009  50.080  48.050  1.00  0.00    -0.000 C 
BRANCH  18  19
ATOM     19  C   UNL     1     114.776  48.764  48.816  1.00  0.00    -0.000 C 
BRANCH  19  20
ATOM     20  C   UNL     1     114.277  48.990  50.254  1.00  0.00    -0.000 C 
BRANCH  20  21
ATOM     21  C   UNL     1     115.428  49.174  51.255  1.00  0.00    -0.000 C 
BRANCH  21  22
ATOM     22  C   UNL     1     116.478  48.055  51.154  1.00  0.00    -0.000 C 
BRANCH  22  23
ATOM     23  C   UNL     1     117.883  48.526  51.564  1.00  0.00    -0.000 C 
BRANCH  23  24
ATOM     24  C   UNL     1     117.997  50.059  51.619  1.00  0.00    -0.000 C 
BRANCH  24  25
ATOM     25  C   UNL     1     119.237  50.584  50.879  1.00  0.00    -0.003 C 
ATOM     26  C   UNL     1     120.541  50.254  51.608  1.00  0.00     0.004 C 
ENDBRANCH  24  25
ENDBRANCH  23  24
ENDBRANCH  22  23
ENDBRANCH  21  22
ENDBRANCH  20  21
ENDBRANCH  19  20
ENDBRANCH  18  19
ENDBRANCH  17  18
ENDBRANCH  16  17
ENDBRANCH  15  16
ENDBRANCH   1  15
TORSDOF 22
ENDMDL
MODEL 3
REMARK VINA RESULT:    -3.396      3.943      6.453
REMARK INTER + INTRA:         -11.935
REMARK INTER:                  -8.005
REMARK INTRA:                  -3.929
REMARK UNBOUND:                -4.170
REMARK SMILES CCCCCCCCCCCCCCCCCCCCCCCC(=O)[O-]
REMARK SMILES IDX 13 1 14 2 15 3 16 4 17 5 18 6 19 7 20 8 21 9 22 10 23 11
REMARK SMILES IDX 24 12 25 13 26 14 12 15 11 16 10 17 9 18 8 19 7 20 6 21 5 22
REMARK SMILES IDX 4 23 3 24 2 25 1 26
REMARK H PARENT
REMARK Flexibility Score: inf
ROOT
ATOM      1  C   UNL     1     119.196  52.599  53.967  1.00  0.00     0.000 C 
ENDROOT
BRANCH   1   2
ATOM      2  C   UNL     1     119.184  53.963  54.676  1.00  0.00     0.000 C 
BRANCH   2   3
ATOM      3  C   UNL     1     119.828  53.908  56.073  1.00  0.00     0.000 C 
BRANCH   3   4
ATOM      4  C   UNL     1     121.226  53.272  56.054  1.00  0.00     0.000 C 
BRANCH   4   5
ATOM      5  C   UNL     1     122.332  54.276  55.681  1.00  0.00     0.000 C 
BRANCH   5   6
ATOM      6  C   UNL     1     122.945  54.005  54.296  1.00  0.00     0.000 C 
BRANCH   6   7
ATOM      7  C   UNL     1     123.094  52.517  53.928  1.00  0.00     0.000 C 
BRANCH   7   8
ATOM      8  C   UNL     1     122.467  52.172  52.567  1.00  0.00     0.000 C 
BRANCH   8   9
ATOM      9  C   UNL     1     122.214  53.412  51.695  1.00  0.00     0.000 C 
BRANCH   9  10
ATOM     10  C   UNL     1     123.062  53.450  50.405  1.00  0.00     0.006 C 
BRANCH  10  11
ATOM     11  C   UNL     1     124.291  54.356  50.551  1.00  0.00     0.053 C 
BRANCH  11  12
ATOM     12  C   UNL     1     125.481  53.563  50.995  1.00  0.00     0.041 C 
ATOM     13  O   UNL     1     125.856  52.559  50.335  1.00  0.00    -0.550 OA
ATOM     14  O   UNL     1     126.159  53.916  52.153  1.00  0.00    -0.550 OA
ENDBRANCH  11  12
ENDBRANCH  10  11
ENDBRANCH   9  10
ENDBRANCH   8   9
ENDBRANCH   7   8
ENDBRANCH   6   7
ENDBRANCH   5   6
ENDBRANCH   4   5
ENDBRANCH   3   4
ENDBRANCH   2   3
ENDBRANCH   1   2
BRANCH   1  15
ATOM     15  C   UNL     1     117.872  51.832  54.136  1.00  0.00     0.000 C 
BRANCH  15  16
ATOM     16  C   UNL     1     116.704  52.745  54.545  1.00  0.00     0.000 C 
BRANCH  16  17
ATOM     17  C   UNL     1     115.540  52.698  53.543  1.00  0.00     0.000 C 
BRANCH  17  18
ATOM     18  C   UNL     1     116.002  52.816  52.078  1.00  0.00    -0.000 C 
BRANCH  18  19
ATOM     19  C   UNL     1     116.411  54.234  51.635  1.00  0.00    -0.000 C 
BRANCH  19  20
ATOM     20  C   UNL     1     117.480  54.229  50.528  1.00  0.00    -0.000 C 
BRANCH  20  21
ATOM     21  C   UNL     1     118.855  54.687  51.036  1.00  0.00    -0.000 C 
BRANCH  21  22
ATOM     22  C   UNL     1     118.828  56.122  51.592  1.00  0.00    -0.000 C 
BRANCH  22  23
ATOM     23  C   UNL     1     119.609  57.109  50.710  1.00  0.00    -0.000 C 
BRANCH  23  24
ATOM     24  C   UNL     1     120.885  56.488  50.117  1.00  0.00    -0.000 C 
BRANCH  24  25
ATOM     25  C   UNL     1     122.026  57.508  49.974  1.00  0.00    -0.003 C 
ATOM     26  C   UNL     1     122.841  57.665  51.257  1.00  0.00     0.004 C 
ENDBRANCH  24  25
ENDBRANCH  23  24
ENDBRANCH  22  23
ENDBRANCH  21  22
ENDBRANCH  20  21
ENDBRANCH  19  20
ENDBRANCH  18  19
ENDBRANCH  17  18
ENDBRANCH  16  17
ENDBRANCH  15  16
ENDBRANCH   1  15
TORSDOF 22
ENDMDL
MODEL 4
REMARK VINA RESULT:    -3.391      4.108      7.282
REMARK INTER + INTRA:         -11.923
REMARK INTER:                  -9.097
REMARK INTRA:                  -2.825
REMARK UNBOUND:                -4.170
REMARK SMILES CCCCCCCCCCCCCCCCCCCCCCCC(=O)[O-]
REMARK SMILES IDX 13 1 14 2 15 3 16 4 17 5 18 6 19 7 20 8 21 9 22 10 23 11
REMARK SMILES IDX 24 12 25 13 26 14 12 15 11 16 10 17 9 18 8 19 7 20 6 21 5 22
REMARK SMILES IDX 4 23 3 24 2 25 1 26
REMARK H PARENT
REMARK Flexibility Score: inf
ROOT
ATOM      1  C   UNL     1     119.289  52.595  54.074  1.00  0.00     0.000 C 
ENDROOT
BRANCH   1   2
ATOM      2  C   UNL     1     118.955  53.865  54.872  1.00  0.00     0.000 C 
BRANCH   2   3
ATOM      3  C   UNL     1     119.834  54.023  56.125  1.00  0.00     0.000 C 
BRANCH   3   4
ATOM      4  C   UNL     1     121.072  53.114  56.095  1.00  0.00     0.000 C 
BRANCH   4   5
ATOM      5  C   UNL     1     122.388  53.903  55.972  1.00  0.00     0.000 C 
BRANCH   5   6
ATOM      6  C   UNL     1     122.683  54.357  54.532  1.00  0.00     0.000 C 
BRANCH   6   7
ATOM      7  C   UNL     1     122.724  53.226  53.488  1.00  0.00     0.000 C 
BRANCH   7   8
ATOM      8  C   UNL     1     123.376  53.656  52.164  1.00  0.00     0.000 C 
BRANCH   8   9
ATOM      9  C   UNL     1     124.851  54.058  52.328  1.00  0.00     0.000 C 
BRANCH   9  10
ATOM     10  C   UNL     1     125.223  55.371  51.607  1.00  0.00     0.006 C 
BRANCH  10  11
ATOM     11  C   UNL     1     123.983  56.132  51.121  1.00  0.00     0.053 C 
BRANCH  11  12
ATOM     12  C   UNL     1     123.981  57.532  51.652  1.00  0.00     0.041 C 
ATOM     13  O   UNL     1     122.954  58.252  51.538  1.00  0.00    -0.550 OA
ATOM     14  O   UNL     1     125.122  58.051  52.246  1.00  0.00    -0.550 OA
ENDBRANCH  11  12
ENDBRANCH  10  11
ENDBRANCH   9  10
ENDBRANCH   8   9
ENDBRANCH   7   8
ENDBRANCH   6   7
ENDBRANCH   5   6
ENDBRANCH   4   5
ENDBRANCH   3   4
ENDBRANCH   2   3
ENDBRANCH   1   2
BRANCH   1  15
ATOM     15  C   UNL     1     118.081  51.653  53.925  1.00  0.00     0.000 C 
BRANCH  15  16
ATOM     16  C   UNL     1     116.794  52.235  54.534  1.00  0.00     0.000 C 
BRANCH  16  17
ATOM     17  C   UNL     1     115.614  52.214  53.549  1.00  0.00     0.000 C 
BRANCH  17  18
ATOM     18  C   UNL     1     115.460  53.532  52.767  1.00  0.00    -0.000 C 
BRANCH  18  19
ATOM     19  C   UNL     1     115.761  53.435  51.259  1.00  0.00    -0.000 C 
BRANCH  19  20
ATOM     20  C   UNL     1     116.610  54.610  50.742  1.00  0.00    -0.000 C 
BRANCH  20  21
ATOM     21  C   UNL     1     117.767  54.961  51.690  1.00  0.00    -0.000 C 
BRANCH  21  22
ATOM     22  C   UNL     1     118.423  56.309  51.341  1.00  0.00    -0.000 C 
BRANCH  22  23
ATOM     23  C   UNL     1     118.942  56.354  49.895  1.00  0.00    -0.000 C 
BRANCH  23  24
ATOM     24  C   UNL     1     120.475  56.456  49.822  1.00  0.00    -0.000 C 
BRANCH  24  25
ATOM     25  C   UNL     1     120.948  57.535  48.835  1.00  0.00    -0.003 C 
ATOM     26  C   UNL     1     122.065  57.044  47.915  1.00  0.00     0.004 C 
ENDBRANCH  24  25
ENDBRANCH  23  24
ENDBRANCH  22  23
ENDBRANCH  21  22
ENDBRANCH  20  21
ENDBRANCH  19  20
ENDBRANCH  18  19
ENDBRANCH  17  18
ENDBRANCH  16  17
ENDBRANCH  15  16
ENDBRANCH   1  15
TORSDOF 22
ENDMDL
MODEL 5
REMARK VINA RESULT:    -3.391      6.961     10.262
REMARK INTER + INTRA:         -11.922
REMARK INTER:                  -7.816
REMARK INTRA:                  -4.106
REMARK UNBOUND:                -4.170
REMARK SMILES CCCCCCCCCCCCCCCCCCCCCCCC(=O)[O-]
REMARK SMILES IDX 13 1 14 2 15 3 16 4 17 5 18 6 19 7 20 8 21 9 22 10 23 11
REMARK SMILES IDX 24 12 25 13 26 14 12 15 11 16 10 17 9 18 8 19 7 20 6 21 5 22
REMARK SMILES IDX 4 23 3 24 2 25 1 26
REMARK H PARENT
REMARK Flexibility Score: inf
ROOT
ATOM      1  C   UNL     1     123.285  55.234  46.689  1.00  0.00     0.000 C 
ENDROOT
BRANCH   1   2
ATOM      2  C   UNL     1     124.476  56.129  47.066  1.00  0.00     0.000 C 
BRANCH   2   3
ATOM      3  C   UNL     1     125.381  55.488  48.134  1.00  0.00     0.000 C 
BRANCH   3   4
ATOM      4  C   UNL     1     124.838  54.141  48.635  1.00  0.00     0.000 C 
BRANCH   4   5
ATOM      5  C   UNL     1     125.853  53.375  49.503  1.00  0.00     0.000 C 
BRANCH   5   6
ATOM      6  C   UNL     1     125.685  53.651  51.007  1.00  0.00     0.000 C 
BRANCH   6   7
ATOM      7  C   UNL     1     124.424  54.450  51.386  1.00  0.00     0.000 C 
BRANCH   7   8
ATOM      8  C   UNL     1     124.747  55.816  52.013  1.00  0.00     0.000 C 
BRANCH   8   9
ATOM      9  C   UNL     1     123.858  56.947  51.471  1.00  0.00     0.000 C 
BRANCH   9  10
ATOM     10  C   UNL     1     122.676  56.452  50.610  1.00  0.00     0.006 C 
BRANCH  10  11
ATOM     11  C   UNL     1     122.113  57.562  49.713  1.00  0.00     0.053 C 
BRANCH  11  12
ATOM     12  C   UNL     1     120.671  57.813  50.026  1.00  0.00     0.041 C 
ATOM     13  O   UNL     1     120.104  57.180  50.955  1.00  0.00    -0.550 OA
ATOM     14  O   UNL     1     119.945  58.725  49.273  1.00  0.00    -0.550 OA
ENDBRANCH  11  12
ENDBRANCH  10  11
ENDBRANCH   9  10
ENDBRANCH   8   9
ENDBRANCH   7   8
ENDBRANCH   6   7
ENDBRANCH   5   6
ENDBRANCH   4   5
ENDBRANCH   3   4
ENDBRANCH   2   3
ENDBRANCH   1   2
BRANCH   1  15
ATOM     15  C   UNL     1     122.766  55.507  45.265  1.00  0.00     0.000 C 
BRANCH  15  16
ATOM     16  C   UNL     1     123.787  56.258  44.394  1.00  0.00     0.000 C 
BRANCH  16  17
ATOM     17  C   UNL     1     124.366  55.378  43.274  1.00  0.00     0.000 C 
BRANCH  17  18
ATOM     18  C   UNL     1     125.904  55.308  43.298  1.00  0.00    -0.000 C 
BRANCH  18  19
ATOM     19  C   UNL     1     126.489  53.920  43.621  1.00  0.00    -0.000 C 
BRANCH  19  20
ATOM     20  C   UNL     1     126.409  53.571  45.118  1.00  0.00    -0.000 C 
BRANCH  20  21
ATOM     21  C   UNL     1     125.821  52.174  45.366  1.00  0.00    -0.000 C 
BRANCH  21  22
ATOM     22  C   UNL     1     124.330  52.090  44.992  1.00  0.00    -0.000 C 
BRANCH  22  23
ATOM     23  C   UNL     1     124.059  51.061  43.882  1.00  0.00    -0.000 C 
BRANCH  23  24
ATOM     24  C   UNL     1     123.943  51.711  42.492  1.00  0.00    -0.000 C 
BRANCH  24  25
ATOM     25  C   UNL     1     122.495  51.746  41.978  1.00  0.00    -0.003 C 
ATOM     26  C   UNL     1     121.692  52.911  42.559  1.00  0.00     0.004 C 
ENDBRANCH  24  25
ENDBRANCH  23  24
ENDBRANCH  22  23
ENDBRANCH  21  22
ENDBRANCH  20  21
ENDBRANCH  19  20
ENDBRANCH  18  19
ENDBRANCH  17  18
ENDBRANCH  16  17
ENDBRANCH  15  16
ENDBRANCH   1  15
TORSDOF 22
ENDMDL
MODEL 6
REMARK VINA RESULT:    -3.362      2.276      4.646
REMARK INTER + INTRA:         -11.857
REMARK INTER:                  -7.654
REMARK INTRA:                  -4.203
REMARK UNBOUND:                -4.170
REMARK SMILES CCCCCCCCCCCCCCCCCCCCCCCC(=O)[O-]
REMARK SMILES IDX 13 1 14 2 15 3 16 4 17 5 18 6 19 7 20 8 21 9 22 10 23 11
REMARK SMILES IDX 24 12 25 13 26 14 12 15 11 16 10 17 9 18 8 19 7 20 6 21 5 22
REMARK SMILES IDX 4 23 3 24 2 25 1 26
REMARK H PARENT
REMARK Flexibility Score: inf
ROOT
ATOM      1  C   UNL     1     121.170  53.436  51.348  1.00  0.00     0.000 C 
ENDROOT
BRANCH   1   2
ATOM      2  C   UNL     1     122.223  52.784  52.257  1.00  0.00     0.000 C 
BRANCH   2   3
ATOM      3  C   UNL     1     122.817  53.773  53.276  1.00  0.00     0.000 C 
BRANCH   3   4
ATOM      4  C   UNL     1     122.743  53.249  54.719  1.00  0.00     0.000 C 
BRANCH   4   5
ATOM      5  C   UNL     1     122.028  54.225  55.671  1.00  0.00     0.000 C 
BRANCH   5   6
ATOM      6  C   UNL     1     120.648  53.717  56.125  1.00  0.00     0.000 C 
BRANCH   6   7
ATOM      7  C   UNL     1     119.448  54.370  55.415  1.00  0.00     0.000 C 
BRANCH   7   8
ATOM      8  C   UNL     1     118.459  53.342  54.842  1.00  0.00     0.000 C 
BRANCH   8   9
ATOM      9  C   UNL     1     119.160  52.152  54.166  1.00  0.00     0.000 C 
BRANCH   9  10
ATOM     10  C   UNL     1     118.191  51.161  53.488  1.00  0.00     0.006 C 
BRANCH  10  11
ATOM     11  C   UNL     1     117.418  51.810  52.333  1.00  0.00     0.053 C 
BRANCH  11  12
ATOM     12  C   UNL     1     115.944  51.633  52.519  1.00  0.00     0.041 C 
ATOM     13  O   UNL     1     115.296  50.864  51.762  1.00  0.00    -0.550 OA
ATOM     14  O   UNL     1     115.279  52.340  53.511  1.00  0.00    -0.550 OA
ENDBRANCH  11  12
ENDBRANCH  10  11
ENDBRANCH   9  10
ENDBRANCH   8   9
ENDBRANCH   7   8
ENDBRANCH   6   7
ENDBRANCH   5   6
ENDBRANCH   4   5
ENDBRANCH   3   4
ENDBRANCH   2   3
ENDBRANCH   1   2
BRANCH   1  15
ATOM     15  C   UNL     1     120.627  54.757  51.923  1.00  0.00     0.000 C 
BRANCH  15  16
ATOM     16  C   UNL     1     119.130  54.961  51.635  1.00  0.00     0.000 C 
BRANCH  16  17
ATOM     17  C   UNL     1     118.771  56.437  51.401  1.00  0.00     0.000 C 
BRANCH  17  18
ATOM     18  C   UNL     1     119.561  57.072  50.241  1.00  0.00    -0.000 C 
BRANCH  18  19
ATOM     19  C   UNL     1     120.496  58.227  50.644  1.00  0.00    -0.000 C 
BRANCH  19  20
ATOM     20  C   UNL     1     121.713  58.365  49.712  1.00  0.00    -0.000 C 
BRANCH  20  21
ATOM     21  C   UNL     1     122.635  57.138  49.763  1.00  0.00    -0.000 C 
BRANCH  21  22
ATOM     22  C   UNL     1     123.390  57.026  51.099  1.00  0.00    -0.000 C 
BRANCH  22  23
ATOM     23  C   UNL     1     124.524  55.989  51.050  1.00  0.00    -0.000 C 
BRANCH  23  24
ATOM     24  C   UNL     1     124.586  55.248  49.703  1.00  0.00    -0.000 C 
BRANCH  24  25
ATOM     25  C   UNL     1     125.166  53.831  49.837  1.00  0.00    -0.003 C 
ATOM     26  C   UNL     1     125.767  53.569  51.218  1.00  0.00     0.004 C 
ENDBRANCH  24  25
ENDBRANCH  23  24
ENDBRANCH  22  23
ENDBRANCH  21  22
ENDBRANCH  20  21
ENDBRANCH  19  20
ENDBRANCH  18  19
ENDBRANCH  17  18
ENDBRANCH  16  17
ENDBRANCH  15  16
ENDBRANCH   1  15
TORSDOF 22
ENDMDL
MODEL 7
REMARK VINA RESULT:    -3.356      7.927     11.398
REMARK INTER + INTRA:         -11.843
REMARK INTER:                  -7.650
REMARK INTRA:                  -4.193
REMARK UNBOUND:                -4.170
REMARK SMILES CCCCCCCCCCCCCCCCCCCCCCCC(=O)[O-]
REMARK SMILES IDX 13 1 14 2 15 3 16 4 17 5 18 6 19 7 20 8 21 9 22 10 23 11
REMARK SMILES IDX 24 12 25 13 26 14 12 15 11 16 10 17 9 18 8 19 7 20 6 21 5 22
REMARK SMILES IDX 4 23 3 24 2 25 1 26
REMARK H PARENT
REMARK Flexibility Score: inf
ROOT
ATOM      1  C   UNL     1     126.372  54.185  43.476  1.00  0.00     0.000 C 
ENDROOT
BRANCH   1   2
ATOM      2  C   UNL     1     125.662  55.476  43.036  1.00  0.00     0.000 C 
BRANCH   2   3
ATOM      3  C   UNL     1     124.176  55.498  43.436  1.00  0.00     0.000 C 
BRANCH   3   4
ATOM      4  C   UNL     1     123.741  56.853  44.014  1.00  0.00     0.000 C 
BRANCH   4   5
ATOM      5  C   UNL     1     124.627  57.314  45.185  1.00  0.00     0.000 C 
BRANCH   5   6
ATOM      6  C   UNL     1     124.260  56.639  46.518  1.00  0.00     0.000 C 
BRANCH   6   7
ATOM      7  C   UNL     1     122.788  56.798  46.945  1.00  0.00     0.000 C 
BRANCH   7   8
ATOM      8  C   UNL     1     122.613  56.882  48.469  1.00  0.00     0.000 C 
BRANCH   8   9
ATOM      9  C   UNL     1     122.447  55.503  49.128  1.00  0.00     0.000 C 
BRANCH   9  10
ATOM     10  C   UNL     1     123.519  55.188  50.193  1.00  0.00     0.006 C 
BRANCH  10  11
ATOM     11  C   UNL     1     124.520  56.338  50.360  1.00  0.00     0.053 C 
BRANCH  11  12
ATOM     12  C   UNL     1     124.584  56.778  51.789  1.00  0.00     0.041 C 
ATOM     13  O   UNL     1     125.151  57.861  52.095  1.00  0.00    -0.550 OA
ATOM     14  O   UNL     1     124.044  55.980  52.787  1.00  0.00    -0.550 OA
ENDBRANCH  11  12
ENDBRANCH  10  11
ENDBRANCH   9  10
ENDBRANCH   8   9
ENDBRANCH   7   8
ENDBRANCH   6   7
ENDBRANCH   5   6
ENDBRANCH   4   5
ENDBRANCH   3   4
ENDBRANCH   2   3
ENDBRANCH   1   2
BRANCH   1  15
ATOM     15  C   UNL     1     126.126  53.850  44.958  1.00  0.00     0.000 C 
BRANCH  15  16
ATOM     16  C   UNL     1     126.069  52.336  45.224  1.00  0.00     0.000 C 
BRANCH  16  17
ATOM     17  C   UNL     1     125.286  51.991  46.501  1.00  0.00     0.000 C 
BRANCH  17  18
ATOM     18  C   UNL     1     124.251  53.067  46.881  1.00  0.00    -0.000 C 
BRANCH  18  19
ATOM     19  C   UNL     1     122.780  52.658  46.674  1.00  0.00    -0.000 C 
BRANCH  19  20
ATOM     20  C   UNL     1     122.045  53.559  45.665  1.00  0.00    -0.000 C 
BRANCH  20  21
ATOM     21  C   UNL     1     121.495  52.773  44.466  1.00  0.00    -0.000 C 
BRANCH  21  22
ATOM     22  C   UNL     1     122.496  51.729  43.939  1.00  0.00    -0.000 C 
BRANCH  22  23
ATOM     23  C   UNL     1     123.163  52.164  42.624  1.00  0.00    -0.000 C 
BRANCH  23  24
ATOM     24  C   UNL     1     124.321  51.238  42.216  1.00  0.00    -0.000 C 
BRANCH  24  25
ATOM     25  C   UNL     1     123.906  49.759  42.178  1.00  0.00    -0.003 C 
ATOM     26  C   UNL     1     123.120  49.399  40.916  1.00  0.00     0.004 C 
ENDBRANCH  24  25
ENDBRANCH  23  24
ENDBRANCH  22  23
ENDBRANCH  21  22
ENDBRANCH  20  21
ENDBRANCH  19  20
ENDBRANCH  18  19
ENDBRANCH  17  18
ENDBRANCH  16  17
ENDBRANCH  15  16
ENDBRANCH   1  15
TORSDOF 22
ENDMDL
MODEL 8
REMARK VINA RESULT:    -3.326      6.140      8.993
REMARK INTER + INTRA:         -11.773
REMARK INTER:                  -8.149
REMARK INTRA:                  -3.624
REMARK UNBOUND:                -4.170
REMARK SMILES CCCCCCCCCCCCCCCCCCCCCCCC(=O)[O-]
REMARK SMILES IDX 13 1 14 2 15 3 16 4 17 5 18 6 19 7 20 8 21 9 22 10 23 11
REMARK SMILES IDX 24 12 25 13 26 14 12 15 11 16 10 17 9 18 8 19 7 20 6 21 5 22
REMARK SMILES IDX 4 23 3 24 2 25 1 26
REMARK H PARENT
REMARK Flexibility Score: inf
ROOT
ATOM      1  C   UNL     1     122.674  55.061  49.463  1.00  0.00     0.000 C 
ENDROOT
BRANCH   1   2
ATOM      2  C   UNL     1     123.488  54.578  48.252  1.00  0.00     0.000 C 
BRANCH   2   3
ATOM      3  C   UNL     1     124.959  55.023  48.314  1.00  0.00     0.000 C 
BRANCH   3   4
ATOM      4  C   UNL     1     125.313  56.047  47.225  1.00  0.00     0.000 C 
BRANCH   4   5
ATOM      5  C   UNL     1     124.137  56.335  46.273  1.00  0.00     0.000 C 
BRANCH   5   6
ATOM      6  C   UNL     1     124.594  56.766  44.868  1.00  0.00     0.000 C 
BRANCH   6   7
ATOM      7  C   UNL     1     124.508  55.669  43.791  1.00  0.00     0.000 C 
BRANCH   7   8
ATOM      8  C   UNL     1     125.854  55.405  43.097  1.00  0.00     0.000 C 
BRANCH   8   9
ATOM      9  C   UNL     1     126.613  54.213  43.704  1.00  0.00     0.000 C 
BRANCH   9  10
ATOM     10  C   UNL     1     125.722  53.262  44.530  1.00  0.00     0.006 C 
BRANCH  10  11
ATOM     11  C   UNL     1     126.455  52.709  45.759  1.00  0.00     0.053 C 
BRANCH  11  12
ATOM     12  C   UNL     1     125.736  51.518  46.311  1.00  0.00     0.041 C 
ATOM     13  O   UNL     1     125.351  51.509  47.510  1.00  0.00    -0.550 OA
ATOM     14  O   UNL     1     125.516  50.406  45.511  1.00  0.00    -0.550 OA
ENDBRANCH  11  12
ENDBRANCH  10  11
ENDBRANCH   9  10
ENDBRANCH   8   9
ENDBRANCH   7   8
ENDBRANCH   6   7
ENDBRANCH   5   6
ENDBRANCH   4   5
ENDBRANCH   3   4
ENDBRANCH   2   3
ENDBRANCH   1   2
BRANCH   1  15
ATOM     15  C   UNL     1     121.813  56.297  49.144  1.00  0.00     0.000 C 
BRANCH  15  16
ATOM     16  C   UNL     1     122.263  57.551  49.913  1.00  0.00     0.000 C 
BRANCH  16  17
ATOM     17  C   UNL     1     122.735  57.228  51.340  1.00  0.00     0.000 C 
BRANCH  17  18
ATOM     18  C   UNL     1     124.096  57.862  51.682  1.00  0.00    -0.000 C 
BRANCH  18  19
ATOM     19  C   UNL     1     125.232  56.859  51.958  1.00  0.00    -0.000 C 
BRANCH  19  20
ATOM     20  C   UNL     1     124.716  55.474  52.389  1.00  0.00    -0.000 C 
BRANCH  20  21
ATOM     21  C   UNL     1     125.665  54.338  51.980  1.00  0.00    -0.000 C 
BRANCH  21  22
ATOM     22  C   UNL     1     124.990  52.957  52.043  1.00  0.00    -0.000 C 
BRANCH  22  23
ATOM     23  C   UNL     1     123.517  53.041  52.473  1.00  0.00    -0.000 C 
BRANCH  23  24
ATOM     24  C   UNL     1     123.156  51.999  53.546  1.00  0.00    -0.000 C 
BRANCH  24  25
ATOM     25  C   UNL     1     122.655  52.644  54.848  1.00  0.00    -0.003 C 
ATOM     26  C   UNL     1     122.238  54.103  54.661  1.00  0.00     0.004 C 
ENDBRANCH  24  25
ENDBRANCH  23  24
ENDBRANCH  22  23
ENDBRANCH  21  22
ENDBRANCH  20  21
ENDBRANCH  19  20
ENDBRANCH  18  19
ENDBRANCH  17  18
ENDBRANCH  16  17
ENDBRANCH  15  16
ENDBRANCH   1  15
TORSDOF 22
ENDMDL
MODEL 9
REMARK VINA RESULT:    -3.287      3.373      7.011
REMARK INTER + INTRA:         -11.684
REMARK INTER:                  -7.528
REMARK INTRA:                  -4.156
REMARK UNBOUND:                -4.170
REMARK SMILES CCCCCCCCCCCCCCCCCCCCCCCC(=O)[O-]
REMARK SMILES IDX 13 1 14 2 15 3 16 4 17 5 18 6 19 7 20 8 21 9 22 10 23 11
REMARK SMILES IDX 24 12 25 13 26 14 12 15 11 16 10 17 9 18 8 19 7 20 6 21 5 22
REMARK SMILES IDX 4 23 3 24 2 25 1 26
REMARK H PARENT
REMARK Flexibility Score: inf
ROOT
ATOM      1  C   UNL     1     120.681  53.904  51.311  1.00  0.00     0.000 C 
ENDROOT
BRANCH   1   2
ATOM      2  C   UNL     1     122.212  53.805  51.418  1.00  0.00     0.000 C 
BRANCH   2   3
ATOM      3  C   UNL     1     122.704  53.828  52.876  1.00  0.00     0.000 C 
BRANCH   3   4
ATOM      4  C   UNL     1     123.657  54.999  53.158  1.00  0.00     0.000 C 
BRANCH   4   5
ATOM      5  C   UNL     1     124.560  55.335  51.958  1.00  0.00     0.000 C 
BRANCH   5   6
ATOM      6  C   UNL     1     124.834  56.843  51.817  1.00  0.00     0.000 C 
BRANCH   6   7
ATOM      7  C   UNL     1     123.578  57.723  51.681  1.00  0.00     0.000 C 
BRANCH   7   8
ATOM      8  C   UNL     1     122.717  57.353  50.462  1.00  0.00     0.000 C 
BRANCH   8   9
ATOM      9  C   UNL     1     121.513  58.290  50.275  1.00  0.00     0.000 C 
BRANCH   9  10
ATOM     10  C   UNL     1     120.340  57.651  49.502  1.00  0.00     0.006 C 
BRANCH  10  11
ATOM     11  C   UNL     1     120.812  56.542  48.553  1.00  0.00     0.053 C 
BRANCH  11  12
ATOM     12  C   UNL     1     121.083  57.095  47.189  1.00  0.00     0.041 C 
ATOM     13  O   UNL     1     122.250  57.441  46.865  1.00  0.00    -0.550 OA
ATOM     14  O   UNL     1     120.043  57.255  46.285  1.00  0.00    -0.550 OA
ENDBRANCH  11  12
ENDBRANCH  10  11
ENDBRANCH   9  10
ENDBRANCH   8   9
ENDBRANCH   7   8
ENDBRANCH   6   7
ENDBRANCH   5   6
ENDBRANCH   4   5
ENDBRANCH   3   4
ENDBRANCH   2   3
ENDBRANCH   1   2
BRANCH   1  15
ATOM     15  C   UNL     1     120.121  55.167  51.990  1.00  0.00     0.000 C 
BRANCH  15  16
ATOM     16  C   UNL     1     118.584  55.198  52.012  1.00  0.00     0.000 C 
BRANCH  16  17
ATOM     17  C   UNL     1     117.962  54.393  50.859  1.00  0.00     0.000 C 
BRANCH  17  18
ATOM     18  C   UNL     1     116.435  54.570  50.758  1.00  0.00    -0.000 C 
BRANCH  18  19
ATOM     19  C   UNL     1     115.604  53.393  51.304  1.00  0.00    -0.000 C 
BRANCH  19  20
ATOM     20  C   UNL     1     115.322  53.510  52.812  1.00  0.00    -0.000 C 
BRANCH  20  21
ATOM     21  C   UNL     1     115.792  52.275  53.596  1.00  0.00    -0.000 C 
BRANCH  21  22
ATOM     22  C   UNL     1     116.789  51.417  52.797  1.00  0.00    -0.000 C 
BRANCH  22  23
ATOM     23  C   UNL     1     118.234  51.573  53.299  1.00  0.00    -0.000 C 
BRANCH  23  24
ATOM     24  C   UNL     1     118.349  52.573  54.462  1.00  0.00    -0.000 C 
BRANCH  24  25
ATOM     25  C   UNL     1     119.808  52.862  54.848  1.00  0.00    -0.003 C 
ATOM     26  C   UNL     1     119.967  54.184  55.600  1.00  0.00     0.004 C 
ENDBRANCH  24  25
ENDBRANCH  23  24
ENDBRANCH  22  23
ENDBRANCH  21  22
ENDBRANCH  20  21
ENDBRANCH  19  20
ENDBRANCH  18  19
ENDBRANCH  17  18
ENDBRANCH  16  17
ENDBRANCH  15  16
ENDBRANCH   1  15
TORSDOF 22
ENDMDL
