MODEL 1
REMARK VINA RESULT:    -6.076      0.000      0.000
REMARK INTER + INTRA:          -7.644
REMARK INTER:                  -7.319
REMARK INTRA:                  -0.325
REMARK UNBOUND:                -0.325
REMARK SMILES O=c1c(O)c(-c2ccc(O)c(O)c2)oc2cc(O)cc(O)c12
REMARK SMILES IDX 5 1 3 2 2 3 1 4 22 5 20 6 19 7 17 8 16 9 15 10 14 11 6 12
REMARK SMILES IDX 7 13 8 14 9 15 13 16 11 17 10 18 12 20 4 22 21 24 18 26
REMARK H PARENT 10 19 12 21 4 23 21 25 18 27
REMARK Flexibility Score: inf
ROOT
ATOM      1  C   UNL     1      -8.053  -0.688  -5.369  1.00  0.00     0.180 A 
ATOM      2  C   UNL     1      -8.724  -1.754  -4.743  1.00  0.00     0.208 A 
ATOM      3  C   UNL     1      -8.618  -3.042  -5.292  1.00  0.00     0.238 A 
ATOM      4  O   UNL     1      -9.176  -4.000  -4.697  1.00  0.00    -0.285 OA
ATOM      5  C   UNL     1      -7.856  -3.246  -6.468  1.00  0.00     0.111 A 
ATOM      6  C   UNL     1      -7.712  -4.500  -7.132  1.00  0.00     0.134 A 
ATOM      7  C   UNL     1      -6.829  -4.612  -8.214  1.00  0.00     0.093 A 
ATOM      8  C   UNL     1      -6.135  -3.503  -8.694  1.00  0.00     0.123 A 
ATOM      9  C   UNL     1      -6.313  -2.258  -8.088  1.00  0.00     0.094 A 
ATOM     10  C   UNL     1      -7.160  -2.122  -6.986  1.00  0.00     0.146 A 
ATOM     11  O   UNL     1      -7.293  -0.923  -6.432  1.00  0.00    -0.452 OA
ENDROOT
BRANCH   1  12
ATOM     12  C   UNL     1      -8.138   0.701  -4.864  1.00  0.00     0.025 A 
ATOM     13  C   UNL     1      -7.210   1.147  -3.909  1.00  0.00     0.016 A 
ATOM     14  C   UNL     1      -7.258   2.460  -3.434  1.00  0.00     0.051 A 
ATOM     15  C   UNL     1      -8.223   3.351  -3.916  1.00  0.00     0.157 A 
ATOM     16  C   UNL     1      -9.094   1.604  -5.361  1.00  0.00     0.062 A 
ATOM     17  C   UNL     1      -9.143   2.924  -4.887  1.00  0.00     0.158 A 
BRANCH  15  18
ATOM     18  O   UNL     1      -8.248   4.655  -3.421  1.00  0.00    -0.504 OA
ATOM     19  H   UNL     1      -8.556   5.438  -3.985  1.00  0.00     0.293 HD
ENDBRANCH  15  18
BRANCH  17  20
ATOM     20  O   UNL     1     -10.099   3.811  -5.382  1.00  0.00    -0.504 OA
ATOM     21  H   UNL     1      -9.861   4.521  -6.064  1.00  0.00     0.293 HD
ENDBRANCH  17  20
ENDBRANCH   1  12
BRANCH   2  22
ATOM     22  O   UNL     1      -9.453  -1.533  -3.571  1.00  0.00    -0.502 OA
ATOM     23  H   UNL     1     -10.465  -1.491  -3.559  1.00  0.00     0.293 HD
ENDBRANCH   2  22
BRANCH   6  24
ATOM     24  O   UNL     1      -8.430  -5.651  -6.792  1.00  0.00    -0.507 OA
ATOM     25  H   UNL     1      -8.098  -6.372  -6.169  1.00  0.00     0.293 HD
ENDBRANCH   6  24
BRANCH   8  26
ATOM     26  O   UNL     1      -5.277  -3.648  -9.781  1.00  0.00    -0.508 OA
ATOM     27  H   UNL     1      -5.434  -3.150 -10.651  1.00  0.00     0.293 HD
ENDBRANCH   8  26
TORSDOF 6
ENDMDL
MODEL 2
REMARK VINA RESULT:    -5.942      1.613      3.335
REMARK INTER + INTRA:          -7.483
REMARK INTER:                  -7.195
REMARK INTRA:                  -0.288
REMARK UNBOUND:                -0.325
REMARK SMILES O=c1c(O)c(-c2ccc(O)c(O)c2)oc2cc(O)cc(O)c12
REMARK SMILES IDX 5 1 3 2 2 3 1 4 22 5 20 6 19 7 17 8 16 9 15 10 14 11 6 12
REMARK SMILES IDX 7 13 8 14 9 15 13 16 11 17 10 18 12 20 4 22 21 24 18 26
REMARK H PARENT 10 19 12 21 4 23 21 25 18 27
REMARK Flexibility Score: inf
ROOT
ATOM      1  C   UNL     1      -7.934  -1.406  -5.801  1.00  0.00     0.180 A 
ATOM      2  C   UNL     1      -7.054  -1.513  -6.891  1.00  0.00     0.208 A 
ATOM      3  C   UNL     1      -6.907  -2.756  -7.528  1.00  0.00     0.238 A 
ATOM      4  O   UNL     1      -6.158  -2.833  -8.537  1.00  0.00    -0.285 OA
ATOM      5  C   UNL     1      -7.630  -3.879  -7.058  1.00  0.00     0.111 A 
ATOM      6  C   UNL     1      -7.528  -5.194  -7.602  1.00  0.00     0.134 A 
ATOM      7  C   UNL     1      -8.387  -6.200  -7.143  1.00  0.00     0.093 A 
ATOM      8  C   UNL     1      -9.297  -5.956  -6.116  1.00  0.00     0.123 A 
ATOM      9  C   UNL     1      -9.364  -4.689  -5.536  1.00  0.00     0.094 A 
ATOM     10  C   UNL     1      -8.545  -3.655  -5.996  1.00  0.00     0.146 A 
ATOM     11  O   UNL     1      -8.648  -2.461  -5.425  1.00  0.00    -0.452 OA
ENDROOT
BRANCH   1  12
ATOM     12  C   UNL     1      -8.123  -0.137  -5.063  1.00  0.00     0.025 A 
ATOM     13  C   UNL     1      -8.972   0.850  -5.592  1.00  0.00     0.016 A 
ATOM     14  C   UNL     1      -9.181   2.047  -4.902  1.00  0.00     0.051 A 
ATOM     15  C   UNL     1      -8.560   2.270  -3.669  1.00  0.00     0.157 A 
ATOM     16  C   UNL     1      -7.516   0.083  -3.814  1.00  0.00     0.062 A 
ATOM     17  C   UNL     1      -7.727   1.283  -3.119  1.00  0.00     0.158 A 
BRANCH  15  18
ATOM     18  O   UNL     1      -8.786   3.476  -3.005  1.00  0.00    -0.504 OA
ATOM     19  H   UNL     1      -8.491   3.626  -2.048  1.00  0.00     0.293 HD
ENDBRANCH  15  18
BRANCH  17  20
ATOM     20  O   UNL     1      -7.116   1.494  -1.884  1.00  0.00    -0.504 OA
ATOM     21  H   UNL     1      -6.785   2.409  -1.604  1.00  0.00     0.293 HD
ENDBRANCH  17  20
ENDBRANCH   1  12
BRANCH   2  22
ATOM     22  O   UNL     1      -6.367  -0.387  -7.353  1.00  0.00    -0.502 OA
ATOM     23  H   UNL     1      -6.794   0.531  -7.396  1.00  0.00     0.293 HD
ENDBRANCH   2  22
BRANCH   6  24
ATOM     24  O   UNL     1      -6.588  -5.569  -8.568  1.00  0.00    -0.507 OA
ATOM     25  H   UNL     1      -6.804  -6.072  -9.415  1.00  0.00     0.293 HD
ENDBRANCH   6  24
BRANCH   8  26
ATOM     26  O   UNL     1     -10.125  -6.985  -5.673  1.00  0.00    -0.508 OA
ATOM     27  H   UNL     1     -10.430  -7.042  -4.707  1.00  0.00     0.293 HD
ENDBRANCH   8  26
TORSDOF 6
ENDMDL
MODEL 3
REMARK VINA RESULT:    -5.893      1.321      1.911
REMARK INTER + INTRA:          -7.423
REMARK INTER:                  -7.102
REMARK INTRA:                  -0.321
REMARK UNBOUND:                -0.325
REMARK SMILES O=c1c(O)c(-c2ccc(O)c(O)c2)oc2cc(O)cc(O)c12
REMARK SMILES IDX 5 1 3 2 2 3 1 4 22 5 20 6 19 7 17 8 16 9 15 10 14 11 6 12
REMARK SMILES IDX 7 13 8 14 9 15 13 16 11 17 10 18 12 20 4 22 21 24 18 26
REMARK H PARENT 10 19 12 21 4 23 21 25 18 27
REMARK Flexibility Score: inf
ROOT
ATOM      1  C   UNL     1      -7.840  -1.420  -5.908  1.00  0.00     0.180 A 
ATOM      2  C   UNL     1      -8.783  -2.458  -5.810  1.00  0.00     0.208 A 
ATOM      3  C   UNL     1      -8.573  -3.640  -6.538  1.00  0.00     0.238 A 
ATOM      4  O   UNL     1      -9.393  -4.586  -6.404  1.00  0.00    -0.285 OA
ATOM      5  C   UNL     1      -7.431  -3.763  -7.367  1.00  0.00     0.111 A 
ATOM      6  C   UNL     1      -7.139  -4.900  -8.178  1.00  0.00     0.134 A 
ATOM      7  C   UNL     1      -5.916  -4.968  -8.857  1.00  0.00     0.093 A 
ATOM      8  C   UNL     1      -5.005  -3.914  -8.805  1.00  0.00     0.123 A 
ATOM      9  C   UNL     1      -5.307  -2.772  -8.062  1.00  0.00     0.094 A 
ATOM     10  C   UNL     1      -6.502  -2.690  -7.345  1.00  0.00     0.146 A 
ATOM     11  O   UNL     1      -6.747  -1.591  -6.641  1.00  0.00    -0.452 OA
ENDROOT
BRANCH   1  12
ATOM     12  C   UNL     1      -8.006  -0.135  -5.191  1.00  0.00     0.025 A 
ATOM     13  C   UNL     1      -8.763   0.892  -5.779  1.00  0.00     0.016 A 
ATOM     14  C   UNL     1      -8.950   2.104  -5.110  1.00  0.00     0.051 A 
ATOM     15  C   UNL     1      -8.398   2.304  -3.841  1.00  0.00     0.157 A 
ATOM     16  C   UNL     1      -7.469   0.062  -3.906  1.00  0.00     0.062 A 
ATOM     17  C   UNL     1      -7.657   1.278  -3.233  1.00  0.00     0.158 A 
BRANCH  15  18
ATOM     18  O   UNL     1      -8.599   3.527  -3.200  1.00  0.00    -0.504 OA
ATOM     19  H   UNL     1      -8.589   3.612  -2.191  1.00  0.00     0.293 HD
ENDBRANCH  15  18
BRANCH  17  20
ATOM     20  O   UNL     1      -7.115   1.466  -1.962  1.00  0.00    -0.504 OA
ATOM     21  H   UNL     1      -6.164   1.195  -1.745  1.00  0.00     0.293 HD
ENDBRANCH  17  20
ENDBRANCH   1  12
BRANCH   2  22
ATOM     22  O   UNL     1      -9.891  -2.323  -4.970  1.00  0.00    -0.502 OA
ATOM     23  H   UNL     1     -10.185  -1.428  -4.595  1.00  0.00     0.293 HD
ENDBRANCH   2  22
BRANCH   6  24
ATOM     24  O   UNL     1      -8.021  -5.968  -8.374  1.00  0.00    -0.507 OA
ATOM     25  H   UNL     1      -8.898  -6.085  -7.889  1.00  0.00     0.293 HD
ENDBRANCH   6  24
BRANCH   8  26
ATOM     26  O   UNL     1      -3.804  -4.009  -9.506  1.00  0.00    -0.508 OA
ATOM     27  H   UNL     1      -3.751  -4.475 -10.405  1.00  0.00     0.293 HD
ENDBRANCH   8  26
TORSDOF 6
ENDMDL
MODEL 4
REMARK VINA RESULT:    -5.836     14.491     16.813
REMARK INTER + INTRA:          -7.355
REMARK INTER:                  -7.120
REMARK INTRA:                  -0.235
REMARK UNBOUND:                -0.325
REMARK SMILES O=c1c(O)c(-c2ccc(O)c(O)c2)oc2cc(O)cc(O)c12
REMARK SMILES IDX 5 1 3 2 2 3 1 4 22 5 20 6 19 7 17 8 16 9 15 10 14 11 6 12
REMARK SMILES IDX 7 13 8 14 9 15 13 16 11 17 10 18 12 20 4 22 21 24 18 26
REMARK H PARENT 10 19 12 21 4 23 21 25 18 27
REMARK Flexibility Score: inf
ROOT
ATOM      1  C   UNL     1      -1.169   6.637   6.304  1.00  0.00     0.180 A 
ATOM      2  C   UNL     1      -0.647   7.608   5.431  1.00  0.00     0.208 A 
ATOM      3  C   UNL     1      -1.533   8.368   4.650  1.00  0.00     0.238 A 
ATOM      4  O   UNL     1      -1.063   9.272   3.911  1.00  0.00    -0.285 OA
ATOM      5  C   UNL     1      -2.927   8.136   4.739  1.00  0.00     0.111 A 
ATOM      6  C   UNL     1      -3.912   8.820   3.965  1.00  0.00     0.134 A 
ATOM      7  C   UNL     1      -5.271   8.603   4.229  1.00  0.00     0.093 A 
ATOM      8  C   UNL     1      -5.678   7.681   5.193  1.00  0.00     0.123 A 
ATOM      9  C   UNL     1      -4.723   6.964   5.914  1.00  0.00     0.094 A 
ATOM     10  C   UNL     1      -3.361   7.184   5.698  1.00  0.00     0.146 A 
ATOM     11  O   UNL     1      -2.484   6.489   6.414  1.00  0.00    -0.452 OA
ENDROOT
BRANCH   1  12
ATOM     12  C   UNL     1      -0.298   5.781   7.140  1.00  0.00     0.025 A 
ATOM     13  C   UNL     1      -0.106   4.436   6.785  1.00  0.00     0.016 A 
ATOM     14  C   UNL     1       0.729   3.615   7.549  1.00  0.00     0.051 A 
ATOM     15  C   UNL     1       1.395   4.128   8.666  1.00  0.00     0.157 A 
ATOM     16  C   UNL     1       0.388   6.299   8.253  1.00  0.00     0.062 A 
ATOM     17  C   UNL     1       1.228   5.477   9.019  1.00  0.00     0.158 A 
BRANCH  15  18
ATOM     18  O   UNL     1       2.219   3.284   9.411  1.00  0.00    -0.504 OA
ATOM     19  H   UNL     1       2.229   3.298  10.423  1.00  0.00     0.293 HD
ENDBRANCH  15  18
BRANCH  17  20
ATOM     20  O   UNL     1       1.899   5.998  10.125  1.00  0.00    -0.504 OA
ATOM     21  H   UNL     1       2.575   6.747  10.031  1.00  0.00     0.293 HD
ENDBRANCH  17  20
ENDBRANCH   1  12
BRANCH   2  22
ATOM     22  O   UNL     1       0.730   7.835   5.376  1.00  0.00    -0.502 OA
ATOM     23  H   UNL     1       1.289   7.998   6.205  1.00  0.00     0.293 HD
ENDBRANCH   2  22
BRANCH   6  24
ATOM     24  O   UNL     1      -3.613   9.693   2.914  1.00  0.00    -0.507 OA
ATOM     25  H   UNL     1      -3.933  10.647   2.852  1.00  0.00     0.293 HD
ENDBRANCH   6  24
BRANCH   8  26
ATOM     26  O   UNL     1      -7.038   7.480   5.418  1.00  0.00    -0.508 OA
ATOM     27  H   UNL     1      -7.370   6.944   6.212  1.00  0.00     0.293 HD
ENDBRANCH   8  26
TORSDOF 6
ENDMDL
MODEL 5
REMARK VINA RESULT:    -5.755      2.108      7.297
REMARK INTER + INTRA:          -7.257
REMARK INTER:                  -6.934
REMARK INTRA:                  -0.323
REMARK UNBOUND:                -0.325
REMARK SMILES O=c1c(O)c(-c2ccc(O)c(O)c2)oc2cc(O)cc(O)c12
REMARK SMILES IDX 5 1 3 2 2 3 1 4 22 5 20 6 19 7 17 8 16 9 15 10 14 11 6 12
REMARK SMILES IDX 7 13 8 14 9 15 13 16 11 17 10 18 12 20 4 22 21 24 18 26
REMARK H PARENT 10 19 12 21 4 23 21 25 18 27
REMARK Flexibility Score: inf
ROOT
ATOM      1  C   UNL     1      -6.985  -2.232  -7.444  1.00  0.00     0.180 A 
ATOM      2  C   UNL     1      -7.549  -1.451  -8.467  1.00  0.00     0.208 A 
ATOM      3  C   UNL     1      -8.321  -0.330  -8.122  1.00  0.00     0.238 A 
ATOM      4  O   UNL     1      -8.778   0.397  -9.043  1.00  0.00    -0.285 OA
ATOM      5  C   UNL     1      -8.533  -0.014  -6.758  1.00  0.00     0.111 A 
ATOM      6  C   UNL     1      -9.330   1.075  -6.293  1.00  0.00     0.134 A 
ATOM      7  C   UNL     1      -9.363   1.372  -4.925  1.00  0.00     0.093 A 
ATOM      8  C   UNL     1      -8.681   0.582  -4.000  1.00  0.00     0.123 A 
ATOM      9  C   UNL     1      -7.946  -0.520  -4.438  1.00  0.00     0.094 A 
ATOM     10  C   UNL     1      -7.865  -0.821  -5.800  1.00  0.00     0.146 A 
ATOM     11  O   UNL     1      -7.146  -1.872  -6.176  1.00  0.00    -0.452 OA
ENDROOT
BRANCH   1  12
ATOM     12  C   UNL     1      -6.181  -3.442  -7.729  1.00  0.00     0.025 A 
ATOM     13  C   UNL     1      -6.827  -4.678  -7.896  1.00  0.00     0.016 A 
ATOM     14  C   UNL     1      -6.089  -5.828  -8.186  1.00  0.00     0.051 A 
ATOM     15  C   UNL     1      -4.700  -5.760  -8.330  1.00  0.00     0.157 A 
ATOM     16  C   UNL     1      -4.786  -3.372  -7.894  1.00  0.00     0.062 A 
ATOM     17  C   UNL     1      -4.044  -4.527  -8.187  1.00  0.00     0.158 A 
BRANCH  15  18
ATOM     18  O   UNL     1      -3.990  -6.926  -8.617  1.00  0.00    -0.504 OA
ATOM     19  H   UNL     1      -3.923  -7.690  -7.957  1.00  0.00     0.293 HD
ENDBRANCH  15  18
BRANCH  17  20
ATOM     20  O   UNL     1      -2.660  -4.449  -8.343  1.00  0.00    -0.504 OA
ATOM     21  H   UNL     1      -2.234  -4.334  -9.255  1.00  0.00     0.293 HD
ENDBRANCH  17  20
ENDBRANCH   1  12
BRANCH   2  22
ATOM     22  O   UNL     1      -7.309  -1.768  -9.807  1.00  0.00    -0.502 OA
ATOM     23  H   UNL     1      -6.529  -1.383 -10.326  1.00  0.00     0.293 HD
ENDBRANCH   2  22
BRANCH   6  24
ATOM     24  O   UNL     1     -10.125   1.871  -7.123  1.00  0.00    -0.507 OA
ATOM     25  H   UNL     1     -10.639   2.684  -6.818  1.00  0.00     0.293 HD
ENDBRANCH   6  24
BRANCH   8  26
ATOM     26  O   UNL     1      -8.750   0.898  -2.645  1.00  0.00    -0.508 OA
ATOM     27  H   UNL     1      -8.744   0.177  -1.932  1.00  0.00     0.293 HD
ENDBRANCH   8  26
TORSDOF 6
ENDMDL
MODEL 6
REMARK VINA RESULT:    -5.747      1.716      7.114
REMARK INTER + INTRA:          -7.248
REMARK INTER:                  -6.962
REMARK INTRA:                  -0.286
REMARK UNBOUND:                -0.325
REMARK SMILES O=c1c(O)c(-c2ccc(O)c(O)c2)oc2cc(O)cc(O)c12
REMARK SMILES IDX 5 1 3 2 2 3 1 4 22 5 20 6 19 7 17 8 16 9 15 10 14 11 6 12
REMARK SMILES IDX 7 13 8 14 9 15 13 16 11 17 10 18 12 20 4 22 21 24 18 26
REMARK H PARENT 10 19 12 21 4 23 21 25 18 27
REMARK Flexibility Score: inf
ROOT
ATOM      1  C   UNL     1      -8.128  -1.860  -6.577  1.00  0.00     0.180 A 
ATOM      2  C   UNL     1      -8.821  -0.959  -7.404  1.00  0.00     0.208 A 
ATOM      3  C   UNL     1      -9.077   0.339  -6.932  1.00  0.00     0.238 A 
ATOM      4  O   UNL     1      -9.650   1.158  -7.698  1.00  0.00    -0.285 OA
ATOM      5  C   UNL     1      -8.651   0.714  -5.635  1.00  0.00     0.111 A 
ATOM      6  C   UNL     1      -8.891   1.989  -5.041  1.00  0.00     0.134 A 
ATOM      7  C   UNL     1      -8.310   2.295  -3.804  1.00  0.00     0.093 A 
ATOM      8  C   UNL     1      -7.554   1.351  -3.111  1.00  0.00     0.123 A 
ATOM      9  C   UNL     1      -7.362   0.081  -3.655  1.00  0.00     0.094 A 
ATOM     10  C   UNL     1      -7.898  -0.242  -4.904  1.00  0.00     0.146 A 
ATOM     11  O   UNL     1      -7.683  -1.458  -5.392  1.00  0.00    -0.452 OA
ENDROOT
BRANCH   1  12
ATOM     12  C   UNL     1      -7.843  -3.252  -6.993  1.00  0.00     0.025 A 
ATOM     13  C   UNL     1      -6.762  -3.509  -7.853  1.00  0.00     0.016 A 
ATOM     14  C   UNL     1      -6.463  -4.817  -8.242  1.00  0.00     0.051 A 
ATOM     15  C   UNL     1      -7.227  -5.888  -7.768  1.00  0.00     0.157 A 
ATOM     16  C   UNL     1      -8.597  -4.333  -6.502  1.00  0.00     0.062 A 
ATOM     17  C   UNL     1      -8.296  -5.647  -6.891  1.00  0.00     0.158 A 
BRANCH  15  18
ATOM     18  O   UNL     1      -6.906  -7.183  -8.177  1.00  0.00    -0.504 OA
ATOM     19  H   UNL     1      -7.526  -7.731  -8.760  1.00  0.00     0.293 HD
ENDBRANCH  15  18
BRANCH  17  20
ATOM     20  O   UNL     1      -9.054  -6.712  -6.404  1.00  0.00    -0.504 OA
ATOM     21  H   UNL     1      -9.457  -6.695  -5.474  1.00  0.00     0.293 HD
ENDBRANCH  17  20
ENDBRANCH   1  12
BRANCH   2  22
ATOM     22  O   UNL     1      -9.213  -1.344  -8.688  1.00  0.00    -0.502 OA
ATOM     23  H   UNL     1      -9.592  -2.262  -8.890  1.00  0.00     0.293 HD
ENDBRANCH   2  22
BRANCH   6  24
ATOM     24  O   UNL     1      -9.709   2.973  -5.606  1.00  0.00    -0.507 OA
ATOM     25  H   UNL     1     -10.558   3.323  -5.188  1.00  0.00     0.293 HD
ENDBRANCH   6  24
BRANCH   8  26
ATOM     26  O   UNL     1      -7.005   1.685  -1.874  1.00  0.00    -0.508 OA
ATOM     27  H   UNL     1      -6.193   1.201  -1.507  1.00  0.00     0.293 HD
ENDBRANCH   8  26
TORSDOF 6
ENDMDL
MODEL 7
REMARK VINA RESULT:    -5.626     14.201     17.133
REMARK INTER + INTRA:          -7.101
REMARK INTER:                  -6.972
REMARK INTRA:                  -0.129
REMARK UNBOUND:                -0.325
REMARK SMILES O=c1c(O)c(-c2ccc(O)c(O)c2)oc2cc(O)cc(O)c12
REMARK SMILES IDX 5 1 3 2 2 3 1 4 22 5 20 6 19 7 17 8 16 9 15 10 14 11 6 12
REMARK SMILES IDX 7 13 8 14 9 15 13 16 11 17 10 18 12 20 4 22 21 24 18 26
REMARK H PARENT 10 19 12 21 4 23 21 25 18 27
REMARK Flexibility Score: inf
ROOT
ATOM      1  C   UNL     1      -1.604   5.872   7.111  1.00  0.00     0.180 A 
ATOM      2  C   UNL     1      -1.822   5.680   5.736  1.00  0.00     0.208 A 
ATOM      3  C   UNL     1      -2.845   6.402   5.101  1.00  0.00     0.238 A 
ATOM      4  O   UNL     1      -3.000   6.266   3.859  1.00  0.00    -0.285 OA
ATOM      5  C   UNL     1      -3.648   7.295   5.852  1.00  0.00     0.111 A 
ATOM      6  C   UNL     1      -4.737   8.048   5.320  1.00  0.00     0.134 A 
ATOM      7  C   UNL     1      -5.378   8.998   6.125  1.00  0.00     0.093 A 
ATOM      8  C   UNL     1      -5.012   9.177   7.458  1.00  0.00     0.123 A 
ATOM      9  C   UNL     1      -3.987   8.404   8.005  1.00  0.00     0.094 A 
ATOM     10  C   UNL     1      -3.305   7.473   7.218  1.00  0.00     0.146 A 
ATOM     11  O   UNL     1      -2.329   6.766   7.774  1.00  0.00    -0.452 OA
ENDROOT
BRANCH   1  12
ATOM     12  C   UNL     1      -0.561   5.129   7.854  1.00  0.00     0.025 A 
ATOM     13  C   UNL     1      -0.941   4.233   8.867  1.00  0.00     0.016 A 
ATOM     14  C   UNL     1       0.026   3.506   9.567  1.00  0.00     0.051 A 
ATOM     15  C   UNL     1       1.381   3.650   9.256  1.00  0.00     0.157 A 
ATOM     16  C   UNL     1       0.802   5.257   7.531  1.00  0.00     0.062 A 
ATOM     17  C   UNL     1       1.773   4.526   8.231  1.00  0.00     0.158 A 
BRANCH  15  18
ATOM     18  O   UNL     1       2.324   2.913   9.974  1.00  0.00    -0.504 OA
ATOM     19  H   UNL     1       3.204   2.624   9.567  1.00  0.00     0.293 HD
ENDBRANCH  15  18
BRANCH  17  20
ATOM     20  O   UNL     1       3.122   4.665   7.907  1.00  0.00    -0.504 OA
ATOM     21  H   UNL     1       3.763   3.882   7.957  1.00  0.00     0.293 HD
ENDBRANCH  17  20
ENDBRANCH   1  12
BRANCH   2  22
ATOM     22  O   UNL     1      -1.004   4.810   5.010  1.00  0.00    -0.502 OA
ATOM     23  H   UNL     1      -0.117   4.473   5.365  1.00  0.00     0.293 HD
ENDBRANCH   2  22
BRANCH   6  24
ATOM     24  O   UNL     1      -5.244   7.882   4.027  1.00  0.00    -0.507 OA
ATOM     25  H   UNL     1      -5.099   8.528   3.266  1.00  0.00     0.293 HD
ENDBRANCH   6  24
BRANCH   8  26
ATOM     26  O   UNL     1      -5.682  10.120   8.234  1.00  0.00    -0.508 OA
ATOM     27  H   UNL     1      -5.403  10.317   9.188  1.00  0.00     0.293 HD
ENDBRANCH   8  26
TORSDOF 6
ENDMDL
MODEL 8
REMARK VINA RESULT:    -5.557      1.193      1.471
REMARK INTER + INTRA:          -7.019
REMARK INTER:                  -6.744
REMARK INTRA:                  -0.275
REMARK UNBOUND:                -0.325
REMARK SMILES O=c1c(O)c(-c2ccc(O)c(O)c2)oc2cc(O)cc(O)c12
REMARK SMILES IDX 5 1 3 2 2 3 1 4 22 5 20 6 19 7 17 8 16 9 15 10 14 11 6 12
REMARK SMILES IDX 7 13 8 14 9 15 13 16 11 17 10 18 12 20 4 22 21 24 18 26
REMARK H PARENT 10 19 12 21 4 23 21 25 18 27
REMARK Flexibility Score: inf
ROOT
ATOM      1  C   UNL     1      -7.920  -1.682  -5.845  1.00  0.00     0.180 A 
ATOM      2  C   UNL     1      -8.764  -2.804  -5.787  1.00  0.00     0.208 A 
ATOM      3  C   UNL     1      -8.475  -3.916  -6.595  1.00  0.00     0.238 A 
ATOM      4  O   UNL     1      -9.203  -4.939  -6.499  1.00  0.00    -0.285 OA
ATOM      5  C   UNL     1      -7.355  -3.886  -7.461  1.00  0.00     0.111 A 
ATOM      6  C   UNL     1      -6.991  -4.939  -8.351  1.00  0.00     0.134 A 
ATOM      7  C   UNL     1      -5.790  -4.855  -9.067  1.00  0.00     0.093 A 
ATOM      8  C   UNL     1      -4.974  -3.729  -8.973  1.00  0.00     0.123 A 
ATOM      9  C   UNL     1      -5.350  -2.667  -8.150  1.00  0.00     0.094 A 
ATOM     10  C   UNL     1      -6.524  -2.736  -7.397  1.00  0.00     0.146 A 
ATOM     11  O   UNL     1      -6.841  -1.709  -6.617  1.00  0.00    -0.452 OA
ENDROOT
BRANCH   1  12
ATOM     12  C   UNL     1      -8.174  -0.464  -5.043  1.00  0.00     0.025 A 
ATOM     13  C   UNL     1      -7.821  -0.446  -3.683  1.00  0.00     0.016 A 
ATOM     14  C   UNL     1      -8.033   0.700  -2.913  1.00  0.00     0.051 A 
ATOM     15  C   UNL     1      -8.584   1.849  -3.490  1.00  0.00     0.157 A 
ATOM     16  C   UNL     1      -8.709   0.699  -5.625  1.00  0.00     0.062 A 
ATOM     17  C   UNL     1      -8.921   1.851  -4.853  1.00  0.00     0.158 A 
BRANCH  15  18
ATOM     18  O   UNL     1      -8.786   2.977  -2.694  1.00  0.00    -0.504 OA
ATOM     19  H   UNL     1      -8.679   3.916  -3.057  1.00  0.00     0.293 HD
ENDBRANCH  15  18
BRANCH  17  20
ATOM     20  O   UNL     1      -9.458   2.997  -5.438  1.00  0.00    -0.504 OA
ATOM     21  H   UNL     1     -10.179   2.942  -6.148  1.00  0.00     0.293 HD
ENDBRANCH  17  20
ENDBRANCH   1  12
BRANCH   2  22
ATOM     22  O   UNL     1      -9.851  -2.822  -4.910  1.00  0.00    -0.502 OA
ATOM     23  H   UNL     1     -10.796  -2.610  -5.209  1.00  0.00     0.293 HD
ENDBRANCH   2  22
BRANCH   6  24
ATOM     24  O   UNL     1      -7.781  -6.068  -8.591  1.00  0.00    -0.507 OA
ATOM     25  H   UNL     1      -8.167  -6.319  -9.489  1.00  0.00     0.293 HD
ENDBRANCH   6  24
BRANCH   8  26
ATOM     26  O   UNL     1      -3.793  -3.672  -9.711  1.00  0.00    -0.508 OA
ATOM     27  H   UNL     1      -3.364  -4.510 -10.089  1.00  0.00     0.293 HD
ENDBRANCH   8  26
TORSDOF 6
ENDMDL
