MODEL 1
REMARK VINA RESULT:    -5.577      0.000      0.000
REMARK INTER + INTRA:          -6.854
REMARK INTER:                  -6.555
REMARK INTRA:                  -0.300
REMARK UNBOUND:                -0.300
REMARK SMILES O=c1cc(-c2ccc(O)c(O)c2)oc2cc(O)cc(O)c12
REMARK SMILES IDX 4 1 3 2 2 3 1 4 21 5 19 6 18 7 16 8 15 9 14 10 13 11 5 12
REMARK SMILES IDX 6 13 7 14 8 15 12 16 10 17 9 18 11 20 20 22 17 24
REMARK H PARENT 9 19 11 21 20 23 17 25
REMARK Flexibility Score: inf
ROOT
ATOM      1  C   UNL     1      69.621   8.932 356.488  1.00  0.00     0.138 A 
ATOM      2  C   UNL     1      68.270   9.142 356.180  1.00  0.00     0.100 A 
ATOM      3  C   UNL     1      67.603  10.246 356.714  1.00  0.00     0.197 A 
ATOM      4  O   UNL     1      66.407  10.437 356.374  1.00  0.00    -0.289 OA
ATOM      5  C   UNL     1      68.285  11.124 357.591  1.00  0.00     0.107 A 
ATOM      6  C   UNL     1      67.699  12.261 358.222  1.00  0.00     0.134 A 
ATOM      7  C   UNL     1      68.501  13.113 358.993  1.00  0.00     0.093 A 
ATOM      8  C   UNL     1      69.854  12.835 359.201  1.00  0.00     0.123 A 
ATOM      9  C   UNL     1      70.424  11.700 358.631  1.00  0.00     0.094 A 
ATOM     10  C   UNL     1      69.659  10.850 357.828  1.00  0.00     0.146 A 
ATOM     11  O   UNL     1      70.247   9.787 357.288  1.00  0.00    -0.456 OA
ENDROOT
BRANCH   1  12
ATOM     12  C   UNL     1      70.378   7.773 355.950  1.00  0.00     0.021 A 
ATOM     13  C   UNL     1      70.117   7.325 354.643  1.00  0.00     0.016 A 
ATOM     14  C   UNL     1      70.810   6.233 354.115  1.00  0.00     0.051 A 
ATOM     15  C   UNL     1      71.766   5.563 354.884  1.00  0.00     0.157 A 
ATOM     16  C   UNL     1      71.334   7.087 356.725  1.00  0.00     0.062 A 
ATOM     17  C   UNL     1      72.028   5.988 356.195  1.00  0.00     0.158 A 
BRANCH  15  18
ATOM     18  O   UNL     1      72.442   4.478 354.329  1.00  0.00    -0.504 OA
ATOM     19  H   UNL     1      72.770   3.702 354.892  1.00  0.00     0.293 HD
ENDBRANCH  15  18
BRANCH  17  20
ATOM     20  O   UNL     1      72.973   5.318 356.971  1.00  0.00    -0.504 OA
ATOM     21  H   UNL     1      73.926   5.190 356.654  1.00  0.00     0.293 HD
ENDBRANCH  17  20
ENDBRANCH   1  12
BRANCH   6  22
ATOM     22  O   UNL     1      66.342  12.587 358.146  1.00  0.00    -0.507 OA
ATOM     23  H   UNL     1      65.800  12.621 357.297  1.00  0.00     0.293 HD
ENDBRANCH   6  22
BRANCH   8  24
ATOM     24  O   UNL     1      70.640  13.680 359.982  1.00  0.00    -0.508 OA
ATOM     25  H   UNL     1      71.225  14.394 359.567  1.00  0.00     0.293 HD
ENDBRANCH   8  24
TORSDOF 5
ENDMDL
MODEL 2
REMARK VINA RESULT:    -5.402      6.983      8.423
REMARK INTER + INTRA:          -6.649
REMARK INTER:                  -6.370
REMARK INTRA:                  -0.279
REMARK UNBOUND:                -0.300
REMARK SMILES O=c1cc(-c2ccc(O)c(O)c2)oc2cc(O)cc(O)c12
REMARK SMILES IDX 4 1 3 2 2 3 1 4 21 5 19 6 18 7 16 8 15 9 14 10 13 11 5 12
REMARK SMILES IDX 6 13 7 14 8 15 12 16 10 17 9 18 11 20 20 22 17 24
REMARK H PARENT 9 19 11 21 20 23 17 25
REMARK Flexibility Score: inf
ROOT
ATOM      1  C   UNL     1      73.959  11.955 361.555  1.00  0.00     0.138 A 
ATOM      2  C   UNL     1      72.560  11.966 361.469  1.00  0.00     0.100 A 
ATOM      3  C   UNL     1      71.799  11.494 362.539  1.00  0.00     0.197 A 
ATOM      4  O   UNL     1      70.546  11.568 362.454  1.00  0.00    -0.289 OA
ATOM      5  C   UNL     1      72.444  10.974 363.687  1.00  0.00     0.107 A 
ATOM      6  C   UNL     1      71.772  10.434 364.824  1.00  0.00     0.134 A 
ATOM      7  C   UNL     1      72.518  10.039 365.944  1.00  0.00     0.093 A 
ATOM      8  C   UNL     1      73.913  10.112 365.943  1.00  0.00     0.123 A 
ATOM      9  C   UNL     1      74.580  10.591 364.819  1.00  0.00     0.094 A 
ATOM     10  C   UNL     1      73.864  11.025 363.701  1.00  0.00     0.146 A 
ATOM     11  O   UNL     1      74.540  11.491 362.656  1.00  0.00    -0.456 OA
ENDROOT
BRANCH   1  12
ATOM     12  C   UNL     1      74.817  12.443 360.446  1.00  0.00     0.021 A 
ATOM     13  C   UNL     1      75.965  11.713 360.089  1.00  0.00     0.016 A 
ATOM     14  C   UNL     1      76.793  12.152 359.053  1.00  0.00     0.051 A 
ATOM     15  C   UNL     1      76.498  13.332 358.364  1.00  0.00     0.157 A 
ATOM     16  C   UNL     1      74.532  13.638 359.756  1.00  0.00     0.062 A 
ATOM     17  C   UNL     1      75.365  14.081 358.718  1.00  0.00     0.158 A 
BRANCH  15  18
ATOM     18  O   UNL     1      77.343  13.745 357.335  1.00  0.00    -0.504 OA
ATOM     19  H   UNL     1      78.258  14.139 357.515  1.00  0.00     0.293 HD
ENDBRANCH  15  18
BRANCH  17  20
ATOM     20  O   UNL     1      75.071  15.265 358.042  1.00  0.00    -0.504 OA
ATOM     21  H   UNL     1      74.828  16.114 358.539  1.00  0.00     0.293 HD
ENDBRANCH  17  20
ENDBRANCH   1  12
BRANCH   6  22
ATOM     22  O   UNL     1      70.390  10.242 364.900  1.00  0.00    -0.507 OA
ATOM     23  H   UNL     1      69.694  10.912 364.610  1.00  0.00     0.293 HD
ENDBRANCH   6  22
BRANCH   8  24
ATOM     24  O   UNL     1      74.645   9.704 367.055  1.00  0.00    -0.508 OA
ATOM     25  H   UNL     1      74.495   8.799 367.486  1.00  0.00     0.293 HD
ENDBRANCH   8  24
TORSDOF 5
ENDMDL
MODEL 3
REMARK VINA RESULT:    -5.306      2.670      7.288
REMARK INTER + INTRA:          -6.536
REMARK INTER:                  -6.270
REMARK INTRA:                  -0.265
REMARK UNBOUND:                -0.300
REMARK SMILES O=c1cc(-c2ccc(O)c(O)c2)oc2cc(O)cc(O)c12
REMARK SMILES IDX 4 1 3 2 2 3 1 4 21 5 19 6 18 7 16 8 15 9 14 10 13 11 5 12
REMARK SMILES IDX 6 13 7 14 8 15 12 16 10 17 9 18 11 20 20 22 17 24
REMARK H PARENT 9 19 11 21 20 23 17 25
REMARK Flexibility Score: inf
ROOT
ATOM      1  C   UNL     1      69.162   7.872 355.195  1.00  0.00     0.138 A 
ATOM      2  C   UNL     1      67.817   7.594 354.915  1.00  0.00     0.100 A 
ATOM      3  C   UNL     1      67.490   6.489 354.129  1.00  0.00     0.197 A 
ATOM      4  O   UNL     1      66.272   6.234 353.941  1.00  0.00    -0.289 OA
ATOM      5  C   UNL     1      68.518   5.678 353.591  1.00  0.00     0.107 A 
ATOM      6  C   UNL     1      68.306   4.545 352.749  1.00  0.00     0.134 A 
ATOM      7  C   UNL     1      69.399   3.761 352.358  1.00  0.00     0.093 A 
ATOM      8  C   UNL     1      70.701   4.102 352.732  1.00  0.00     0.123 A 
ATOM      9  C   UNL     1      70.924   5.234 353.512  1.00  0.00     0.094 A 
ATOM     10  C   UNL     1      69.851   6.017 353.947  1.00  0.00     0.146 A 
ATOM     11  O   UNL     1      70.107   7.078 354.705  1.00  0.00    -0.456 OA
ENDROOT
BRANCH   1  12
ATOM     12  C   UNL     1      69.567   9.037 356.023  1.00  0.00     0.021 A 
ATOM     13  C   UNL     1      70.225   8.819 357.246  1.00  0.00     0.016 A 
ATOM     14  C   UNL     1      70.611   9.896 358.047  1.00  0.00     0.051 A 
ATOM     15  C   UNL     1      70.338  11.208 357.648  1.00  0.00     0.157 A 
ATOM     16  C   UNL     1      69.283  10.360 355.631  1.00  0.00     0.062 A 
ATOM     17  C   UNL     1      69.668  11.442 356.437  1.00  0.00     0.158 A 
BRANCH  15  18
ATOM     18  O   UNL     1      70.736  12.262 358.468  1.00  0.00    -0.504 OA
ATOM     19  H   UNL     1      71.708  12.530 358.567  1.00  0.00     0.293 HD
ENDBRANCH  15  18
BRANCH  17  20
ATOM     20  O   UNL     1      69.383  12.748 356.039  1.00  0.00    -0.504 OA
ATOM     21  H   UNL     1      70.108  13.371 355.705  1.00  0.00     0.293 HD
ENDBRANCH  17  20
ENDBRANCH   1  12
BRANCH   6  22
ATOM     22  O   UNL     1      67.057   4.162 352.252  1.00  0.00    -0.507 OA
ATOM     23  H   UNL     1      66.168   4.429 352.647  1.00  0.00     0.293 HD
ENDBRANCH   6  22
BRANCH   8  24
ATOM     24  O   UNL     1      71.783   3.324 352.326  1.00  0.00    -0.508 OA
ATOM     25  H   UNL     1      72.474   2.990 352.986  1.00  0.00     0.293 HD
ENDBRANCH   8  24
TORSDOF 5
ENDMDL
MODEL 4
REMARK VINA RESULT:    -5.251      1.433      2.570
REMARK INTER + INTRA:          -6.471
REMARK INTER:                  -6.175
REMARK INTRA:                  -0.297
REMARK UNBOUND:                -0.300
REMARK SMILES O=c1cc(-c2ccc(O)c(O)c2)oc2cc(O)cc(O)c12
REMARK SMILES IDX 4 1 3 2 2 3 1 4 21 5 19 6 18 7 16 8 15 9 14 10 13 11 5 12
REMARK SMILES IDX 6 13 7 14 8 15 12 16 10 17 9 18 11 20 20 22 17 24
REMARK H PARENT 9 19 11 21 20 23 17 25
REMARK Flexibility Score: inf
ROOT
ATOM      1  C   UNL     1      69.869   9.087 356.640  1.00  0.00     0.138 A 
ATOM      2  C   UNL     1      70.131   9.486 357.958  1.00  0.00     0.100 A 
ATOM      3  C   UNL     1      69.517  10.632 358.467  1.00  0.00     0.197 A 
ATOM      4  O   UNL     1      69.729  10.932 359.671  1.00  0.00    -0.289 OA
ATOM      5  C   UNL     1      68.665  11.401 357.640  1.00  0.00     0.107 A 
ATOM      6  C   UNL     1      68.012  12.606 358.039  1.00  0.00     0.134 A 
ATOM      7  C   UNL     1      67.113  13.227 357.162  1.00  0.00     0.093 A 
ATOM      8  C   UNL     1      66.890  12.719 355.880  1.00  0.00     0.123 A 
ATOM      9  C   UNL     1      67.560  11.573 355.462  1.00  0.00     0.094 A 
ATOM     10  C   UNL     1      68.436  10.910 356.326  1.00  0.00     0.146 A 
ATOM     11  O   UNL     1      69.042   9.809 355.893  1.00  0.00    -0.456 OA
ENDROOT
BRANCH   1  12
ATOM     12  C   UNL     1      70.497   7.879 356.046  1.00  0.00     0.021 A 
ATOM     13  C   UNL     1      70.113   7.464 354.759  1.00  0.00     0.016 A 
ATOM     14  C   UNL     1      70.683   6.328 354.180  1.00  0.00     0.051 A 
ATOM     15  C   UNL     1      71.636   5.580 354.878  1.00  0.00     0.157 A 
ATOM     16  C   UNL     1      71.449   7.116 356.750  1.00  0.00     0.062 A 
ATOM     17  C   UNL     1      72.019   5.972 356.170  1.00  0.00     0.158 A 
BRANCH  15  18
ATOM     18  O   UNL     1      72.187   4.452 354.273  1.00  0.00    -0.504 OA
ATOM     19  H   UNL     1      73.049   4.492 353.741  1.00  0.00     0.293 HD
ENDBRANCH  15  18
BRANCH  17  20
ATOM     20  O   UNL     1      72.961   5.225 356.875  1.00  0.00    -0.504 OA
ATOM     21  H   UNL     1      73.114   5.363 357.867  1.00  0.00     0.293 HD
ENDBRANCH  17  20
ENDBRANCH   1  12
BRANCH   6  22
ATOM     22  O   UNL     1      68.224  13.242 359.265  1.00  0.00    -0.507 OA
ATOM     23  H   UNL     1      67.498  13.596 359.869  1.00  0.00     0.293 HD
ENDBRANCH   6  22
BRANCH   8  24
ATOM     24  O   UNL     1      66.005  13.354 355.010  1.00  0.00    -0.508 OA
ATOM     25  H   UNL     1      66.257  14.207 354.527  1.00  0.00     0.293 HD
ENDBRANCH   8  24
TORSDOF 5
ENDMDL
MODEL 5
REMARK VINA RESULT:    -5.153      2.848      3.690
REMARK INTER + INTRA:          -6.357
REMARK INTER:                  -6.093
REMARK INTRA:                  -0.264
REMARK UNBOUND:                -0.300
REMARK SMILES O=c1cc(-c2ccc(O)c(O)c2)oc2cc(O)cc(O)c12
REMARK SMILES IDX 4 1 3 2 2 3 1 4 21 5 19 6 18 7 16 8 15 9 14 10 13 11 5 12
REMARK SMILES IDX 6 13 7 14 8 15 12 16 10 17 9 18 11 20 20 22 17 24
REMARK H PARENT 9 19 11 21 20 23 17 25
REMARK Flexibility Score: inf
ROOT
ATOM      1  C   UNL     1      68.890   9.664 356.090  1.00  0.00     0.138 A 
ATOM      2  C   UNL     1      68.816  10.911 355.454  1.00  0.00     0.100 A 
ATOM      3  C   UNL     1      69.542  11.989 355.963  1.00  0.00     0.197 A 
ATOM      4  O   UNL     1      69.499  13.080 355.338  1.00  0.00    -0.289 OA
ATOM      5  C   UNL     1      70.318  11.825 357.136  1.00  0.00     0.107 A 
ATOM      6  C   UNL     1      71.072  12.861 357.765  1.00  0.00     0.134 A 
ATOM      7  C   UNL     1      71.881  12.554 358.867  1.00  0.00     0.093 A 
ATOM      8  C   UNL     1      71.916  11.262 359.397  1.00  0.00     0.123 A 
ATOM      9  C   UNL     1      71.146  10.256 358.821  1.00  0.00     0.094 A 
ATOM     10  C   UNL     1      70.356  10.522 357.700  1.00  0.00     0.146 A 
ATOM     11  O   UNL     1      69.649   9.528 357.171  1.00  0.00    -0.456 OA
ENDROOT
BRANCH   1  12
ATOM     12  C   UNL     1      68.136   8.485 355.594  1.00  0.00     0.021 A 
ATOM     13  C   UNL     1      66.842   8.236 356.084  1.00  0.00     0.016 A 
ATOM     14  C   UNL     1      66.114   7.130 355.639  1.00  0.00     0.051 A 
ATOM     15  C   UNL     1      66.667   6.248 354.707  1.00  0.00     0.157 A 
ATOM     16  C   UNL     1      68.693   7.585 354.663  1.00  0.00     0.062 A 
ATOM     17  C   UNL     1      67.963   6.473 354.219  1.00  0.00     0.158 A 
BRANCH  15  18
ATOM     18  O   UNL     1      65.915   5.153 354.281  1.00  0.00    -0.504 OA
ATOM     19  H   UNL     1      66.162   4.619 353.457  1.00  0.00     0.293 HD
ENDBRANCH  15  18
BRANCH  17  20
ATOM     20  O   UNL     1      68.525   5.590 353.297  1.00  0.00    -0.504 OA
ATOM     21  H   UNL     1      68.563   4.593 353.471  1.00  0.00     0.293 HD
ENDBRANCH  17  20
ENDBRANCH   1  12
BRANCH   6  22
ATOM     22  O   UNL     1      71.047  14.201 357.366  1.00  0.00    -0.507 OA
ATOM     23  H   UNL     1      70.496  14.570 356.607  1.00  0.00     0.293 HD
ENDBRANCH   6  22
BRANCH   8  24
ATOM     24  O   UNL     1      72.712  10.970 360.502  1.00  0.00    -0.508 OA
ATOM     25  H   UNL     1      73.588  11.450 360.667  1.00  0.00     0.293 HD
ENDBRANCH   8  24
TORSDOF 5
ENDMDL
MODEL 6
REMARK VINA RESULT:    -5.151      1.527      6.799
REMARK INTER + INTRA:          -6.355
REMARK INTER:                  -6.075
REMARK INTRA:                  -0.280
REMARK UNBOUND:                -0.300
REMARK SMILES O=c1cc(-c2ccc(O)c(O)c2)oc2cc(O)cc(O)c12
REMARK SMILES IDX 4 1 3 2 2 3 1 4 21 5 19 6 18 7 16 8 15 9 14 10 13 11 5 12
REMARK SMILES IDX 6 13 7 14 8 15 12 16 10 17 9 18 11 20 20 22 17 24
REMARK H PARENT 9 19 11 21 20 23 17 25
REMARK Flexibility Score: inf
ROOT
ATOM      1  C   UNL     1      69.436   9.282 356.757  1.00  0.00     0.138 A 
ATOM      2  C   UNL     1      68.399   8.991 355.860  1.00  0.00     0.100 A 
ATOM      3  C   UNL     1      68.522   7.905 354.992  1.00  0.00     0.197 A 
ATOM      4  O   UNL     1      67.551   7.636 354.238  1.00  0.00    -0.289 OA
ATOM      5  C   UNL     1      69.706   7.129 354.998  1.00  0.00     0.107 A 
ATOM      6  C   UNL     1      69.957   6.020 354.136  1.00  0.00     0.134 A 
ATOM      7  C   UNL     1      71.127   5.267 354.303  1.00  0.00     0.093 A 
ATOM      8  C   UNL     1      72.079   5.618 355.262  1.00  0.00     0.123 A 
ATOM      9  C   UNL     1      71.867   6.728 356.075  1.00  0.00     0.094 A 
ATOM     10  C   UNL     1      70.694   7.479 355.957  1.00  0.00     0.146 A 
ATOM     11  O   UNL     1      70.523   8.520 356.765  1.00  0.00    -0.456 OA
ENDROOT
BRANCH   1  12
ATOM     12  C   UNL     1      69.359  10.427 357.700  1.00  0.00     0.021 A 
ATOM     13  C   UNL     1      68.279  10.513 358.595  1.00  0.00     0.016 A 
ATOM     14  C   UNL     1      68.179  11.583 359.488  1.00  0.00     0.051 A 
ATOM     15  C   UNL     1      69.149  12.590 359.496  1.00  0.00     0.157 A 
ATOM     16  C   UNL     1      70.327  11.451 357.704  1.00  0.00     0.062 A 
ATOM     17  C   UNL     1      70.226  12.527 358.599  1.00  0.00     0.158 A 
BRANCH  15  18
ATOM     18  O   UNL     1      69.023  13.644 360.400  1.00  0.00    -0.504 OA
ATOM     19  H   UNL     1      69.358  13.579 361.354  1.00  0.00     0.293 HD
ENDBRANCH  15  18
BRANCH  17  20
ATOM     20  O   UNL     1      71.190  13.534 358.595  1.00  0.00    -0.504 OA
ATOM     21  H   UNL     1      71.876  13.609 357.853  1.00  0.00     0.293 HD
ENDBRANCH  17  20
ENDBRANCH   1  12
BRANCH   6  22
ATOM     22  O   UNL     1      69.111   5.631 353.093  1.00  0.00    -0.507 OA
ATOM     23  H   UNL     1      68.870   6.202 352.297  1.00  0.00     0.293 HD
ENDBRANCH   6  22
BRANCH   8  24
ATOM     24  O   UNL     1      73.246   4.872 355.410  1.00  0.00    -0.508 OA
ATOM     25  H   UNL     1      73.953   4.843 354.685  1.00  0.00     0.293 HD
ENDBRANCH   8  24
TORSDOF 5
ENDMDL
MODEL 7
REMARK VINA RESULT:    -5.140      7.283      9.111
REMARK INTER + INTRA:          -6.341
REMARK INTER:                  -6.024
REMARK INTRA:                  -0.317
REMARK UNBOUND:                -0.300
REMARK SMILES O=c1cc(-c2ccc(O)c(O)c2)oc2cc(O)cc(O)c12
REMARK SMILES IDX 4 1 3 2 2 3 1 4 21 5 19 6 18 7 16 8 15 9 14 10 13 11 5 12
REMARK SMILES IDX 6 13 7 14 8 15 12 16 10 17 9 18 11 20 20 22 17 24
REMARK H PARENT 9 19 11 21 20 23 17 25
REMARK Flexibility Score: inf
ROOT
ATOM      1  C   UNL     1      74.518  12.129 361.562  1.00  0.00     0.138 A 
ATOM      2  C   UNL     1      73.650  12.763 360.661  1.00  0.00     0.100 A 
ATOM      3  C   UNL     1      74.169  13.383 359.523  1.00  0.00     0.197 A 
ATOM      4  O   UNL     1      73.361  13.894 358.706  1.00  0.00    -0.289 OA
ATOM      5  C   UNL     1      75.568  13.399 359.306  1.00  0.00     0.107 A 
ATOM      6  C   UNL     1      76.213  14.029 358.200  1.00  0.00     0.134 A 
ATOM      7  C   UNL     1      77.598  13.893 358.039  1.00  0.00     0.093 A 
ATOM      8  C   UNL     1      78.367  13.199 358.976  1.00  0.00     0.123 A 
ATOM      9  C   UNL     1      77.754  12.623 360.085  1.00  0.00     0.094 A 
ATOM     10  C   UNL     1      76.370  12.711 360.255  1.00  0.00     0.146 A 
ATOM     11  O   UNL     1      75.823  12.131 361.319  1.00  0.00    -0.456 OA
ENDROOT
BRANCH   1  12
ATOM     12  C   UNL     1      74.021  11.457 362.789  1.00  0.00     0.021 A 
ATOM     13  C   UNL     1      72.664  11.573 363.138  1.00  0.00     0.016 A 
ATOM     14  C   UNL     1      72.171  10.956 364.291  1.00  0.00     0.051 A 
ATOM     15  C   UNL     1      73.025  10.224 365.120  1.00  0.00     0.157 A 
ATOM     16  C   UNL     1      74.879  10.728 363.635  1.00  0.00     0.062 A 
ATOM     17  C   UNL     1      74.385  10.111 364.795  1.00  0.00     0.158 A 
BRANCH  15  18
ATOM     18  O   UNL     1      72.504   9.619 366.263  1.00  0.00    -0.504 OA
ATOM     19  H   UNL     1      72.808   8.704 366.575  1.00  0.00     0.293 HD
ENDBRANCH  15  18
BRANCH  17  20
ATOM     20  O   UNL     1      75.244   9.391 365.624  1.00  0.00    -0.504 OA
ATOM     21  H   UNL     1      75.067   8.421 365.858  1.00  0.00     0.293 HD
ENDBRANCH  17  20
ENDBRANCH   1  12
BRANCH   6  22
ATOM     22  O   UNL     1      75.551  14.813 357.250  1.00  0.00    -0.507 OA
ATOM     23  H   UNL     1      74.603  14.671 356.940  1.00  0.00     0.293 HD
ENDBRANCH   6  22
BRANCH   8  24
ATOM     24  O   UNL     1      79.746  13.083 358.816  1.00  0.00    -0.508 OA
ATOM     25  H   UNL     1      80.284  13.785 358.323  1.00  0.00     0.293 HD
ENDBRANCH   8  24
TORSDOF 5
ENDMDL
MODEL 8
REMARK VINA RESULT:    -5.027      6.376      8.885
REMARK INTER + INTRA:          -6.208
REMARK INTER:                  -5.912
REMARK INTRA:                  -0.296
REMARK UNBOUND:                -0.300
REMARK SMILES O=c1cc(-c2ccc(O)c(O)c2)oc2cc(O)cc(O)c12
REMARK SMILES IDX 4 1 3 2 2 3 1 4 21 5 19 6 18 7 16 8 15 9 14 10 13 11 5 12
REMARK SMILES IDX 6 13 7 14 8 15 12 16 10 17 9 18 11 20 20 22 17 24
REMARK H PARENT 9 19 11 21 20 23 17 25
REMARK Flexibility Score: inf
ROOT
ATOM      1  C   UNL     1      75.879  13.692 359.201  1.00  0.00     0.138 A 
ATOM      2  C   UNL     1      76.080  12.921 360.355  1.00  0.00     0.100 A 
ATOM      3  C   UNL     1      74.983  12.351 361.004  1.00  0.00     0.197 A 
ATOM      4  O   UNL     1      75.202  11.620 362.004  1.00  0.00    -0.289 OA
ATOM      5  C   UNL     1      73.676  12.584 360.514  1.00  0.00     0.107 A 
ATOM      6  C   UNL     1      72.481  12.083 361.113  1.00  0.00     0.134 A 
ATOM      7  C   UNL     1      71.249  12.299 360.480  1.00  0.00     0.093 A 
ATOM      8  C   UNL     1      71.165  13.046 359.303  1.00  0.00     0.123 A 
ATOM      9  C   UNL     1      72.318  13.582 358.738  1.00  0.00     0.094 A 
ATOM     10  C   UNL     1      73.566  13.355 359.326  1.00  0.00     0.146 A 
ATOM     11  O   UNL     1      74.644  13.870 358.744  1.00  0.00    -0.456 OA
ENDROOT
BRANCH   1  12
ATOM     12  C   UNL     1      77.008  14.324 358.473  1.00  0.00     0.021 A 
ATOM     13  C   UNL     1      76.770  14.942 357.233  1.00  0.00     0.016 A 
ATOM     14  C   UNL     1      77.815  15.539 356.524  1.00  0.00     0.051 A 
ATOM     15  C   UNL     1      79.117  15.520 357.034  1.00  0.00     0.157 A 
ATOM     16  C   UNL     1      78.323  14.298 358.976  1.00  0.00     0.062 A 
ATOM     17  C   UNL     1      79.374  14.894 358.263  1.00  0.00     0.158 A 
BRANCH  15  18
ATOM     18  O   UNL     1      80.139  16.125 356.304  1.00  0.00    -0.504 OA
ATOM     19  H   UNL     1      80.890  16.637 356.751  1.00  0.00     0.293 HD
ENDBRANCH  15  18
BRANCH  17  20
ATOM     20  O   UNL     1      80.672  14.862 358.772  1.00  0.00    -0.504 OA
ATOM     21  H   UNL     1      81.096  14.000 359.091  1.00  0.00     0.293 HD
ENDBRANCH  17  20
ENDBRANCH   1  12
BRANCH   6  22
ATOM     22  O   UNL     1      72.443  11.393 362.328  1.00  0.00    -0.507 OA
ATOM     23  H   UNL     1      73.111  10.697 362.621  1.00  0.00     0.293 HD
ENDBRANCH   6  22
BRANCH   8  24
ATOM     24  O   UNL     1      69.933  13.268 358.691  1.00  0.00    -0.508 OA
ATOM     25  H   UNL     1      69.361  14.070 358.925  1.00  0.00     0.293 HD
ENDBRANCH   8  24
TORSDOF 5
ENDMDL
MODEL 9
REMARK VINA RESULT:    -4.928      7.852     10.412
REMARK INTER + INTRA:          -6.092
REMARK INTER:                  -5.777
REMARK INTRA:                  -0.314
REMARK UNBOUND:                -0.300
REMARK SMILES O=c1cc(-c2ccc(O)c(O)c2)oc2cc(O)cc(O)c12
REMARK SMILES IDX 4 1 3 2 2 3 1 4 21 5 19 6 18 7 16 8 15 9 14 10 13 11 5 12
REMARK SMILES IDX 6 13 7 14 8 15 12 16 10 17 9 18 11 20 20 22 17 24
REMARK H PARENT 9 19 11 21 20 23 17 25
REMARK Flexibility Score: inf
ROOT
ATOM      1  C   UNL     1      70.208   9.436 365.452  1.00  0.00     0.138 A 
ATOM      2  C   UNL     1      69.096   9.915 364.745  1.00  0.00     0.100 A 
ATOM      3  C   UNL     1      68.224   9.011 364.136  1.00  0.00     0.197 A 
ATOM      4  O   UNL     1      67.205   9.469 363.558  1.00  0.00    -0.289 OA
ATOM      5  C   UNL     1      68.488   7.622 364.205  1.00  0.00     0.107 A 
ATOM      6  C   UNL     1      67.689   6.610 363.594  1.00  0.00     0.134 A 
ATOM      7  C   UNL     1      67.997   5.260 363.815  1.00  0.00     0.093 A 
ATOM      8  C   UNL     1      69.107   4.890 364.576  1.00  0.00     0.123 A 
ATOM      9  C   UNL     1      69.923   5.870 365.135  1.00  0.00     0.094 A 
ATOM     10  C   UNL     1      69.623   7.224 364.963  1.00  0.00     0.146 A 
ATOM     11  O   UNL     1      70.417   8.127 365.528  1.00  0.00    -0.456 OA
ENDROOT
BRANCH   1  12
ATOM     12  C   UNL     1      71.170  10.352 366.116  1.00  0.00     0.021 A 
ATOM     13  C   UNL     1      70.821  11.702 366.303  1.00  0.00     0.016 A 
ATOM     14  C   UNL     1      71.709  12.586 366.919  1.00  0.00     0.051 A 
ATOM     15  C   UNL     1      72.964  12.144 367.349  1.00  0.00     0.157 A 
ATOM     16  C   UNL     1      72.440   9.915 366.540  1.00  0.00     0.062 A 
ATOM     17  C   UNL     1      73.334  10.804 367.156  1.00  0.00     0.158 A 
BRANCH  15  18
ATOM     18  O   UNL     1      73.828  13.050 367.961  1.00  0.00    -0.504 OA
ATOM     19  H   UNL     1      73.707  14.052 367.876  1.00  0.00     0.293 HD
ENDBRANCH  15  18
BRANCH  17  20
ATOM     20  O   UNL     1      74.588  10.359 367.573  1.00  0.00    -0.504 OA
ATOM     21  H   UNL     1      74.849  10.349 368.551  1.00  0.00     0.293 HD
ENDBRANCH  17  20
ENDBRANCH   1  12
BRANCH   6  22
ATOM     22  O   UNL     1      66.606   6.870 362.750  1.00  0.00    -0.507 OA
ATOM     23  H   UNL     1      66.112   7.747 362.693  1.00  0.00     0.293 HD
ENDBRANCH   6  22
BRANCH   8  24
ATOM     24  O   UNL     1      69.413   3.545 364.777  1.00  0.00    -0.508 OA
ATOM     25  H   UNL     1      69.082   3.041 365.590  1.00  0.00     0.293 HD
ENDBRANCH   8  24
TORSDOF 5
ENDMDL
