MODEL 1
REMARK VINA RESULT:    -5.492      0.000      0.000
REMARK INTER + INTRA:         -12.174
REMARK INTER:                 -10.630
REMARK INTRA:                  -1.545
REMARK UNBOUND:                -1.545
REMARK SMILES CCCCCCCCCCCCCCCCCC(=O)[O-]
REMARK SMILES IDX 10 1 11 2 12 3 13 4 14 5 15 6 16 7 17 8 18 9 19 10 20 11
REMARK SMILES IDX 9 12 8 13 7 14 6 15 5 16 4 17 3 18 2 19 1 20
REMARK H PARENT
REMARK Flexibility Score: inf
ROOT
ATOM      1  C   UNL     1      16.226 -22.638 -27.092  1.00  0.00     0.000 C 
ENDROOT
BRANCH   1   2
ATOM      2  C   UNL     1      16.500 -23.730 -26.044  1.00  0.00     0.000 C 
BRANCH   2   3
ATOM      3  C   UNL     1      17.948 -23.708 -25.535  1.00  0.00     0.000 C 
BRANCH   3   4
ATOM      4  C   UNL     1      18.805 -24.746 -26.276  1.00  0.00     0.000 C 
BRANCH   4   5
ATOM      5  C   UNL     1      18.014 -26.010 -26.650  1.00  0.00     0.000 C 
BRANCH   5   6
ATOM      6  C   UNL     1      18.526 -26.672 -27.938  1.00  0.00     0.000 C 
BRANCH   6   7
ATOM      7  C   UNL     1      17.626 -27.844 -28.347  1.00  0.00     0.006 C 
BRANCH   7   8
ATOM      8  C   UNL     1      17.142 -27.690 -29.792  1.00  0.00     0.053 C 
BRANCH   8   9
ATOM      9  C   UNL     1      15.817 -28.359 -29.975  1.00  0.00     0.041 C 
ATOM     10  O   UNL     1      15.725 -29.402 -30.675  1.00  0.00    -0.550 OA
ATOM     11  O   UNL     1      14.694 -27.865 -29.324  1.00  0.00    -0.550 OA
ENDBRANCH   8   9
ENDBRANCH   7   8
ENDBRANCH   6   7
ENDBRANCH   5   6
ENDBRANCH   4   5
ENDBRANCH   3   4
ENDBRANCH   2   3
ENDBRANCH   1   2
BRANCH   1  12
ATOM     12  C   UNL     1      16.155 -23.196 -28.521  1.00  0.00     0.000 C 
BRANCH  12  13
ATOM     13  C   UNL     1      14.815 -23.906 -28.765  1.00  0.00    -0.000 C 
BRANCH  13  14
ATOM     14  C   UNL     1      13.600 -22.977 -28.585  1.00  0.00    -0.000 C 
BRANCH  14  15
ATOM     15  C   UNL     1      12.565 -23.452 -27.550  1.00  0.00    -0.000 C 
BRANCH  15  16
ATOM     16  C   UNL     1      12.122 -22.338 -26.590  1.00  0.00    -0.000 C 
BRANCH  16  17
ATOM     17  C   UNL     1      12.584 -20.962 -27.094  1.00  0.00    -0.000 C 
BRANCH  17  18
ATOM     18  C   UNL     1      11.870 -19.801 -26.385  1.00  0.00    -0.000 C 
BRANCH  18  19
ATOM     19  C   UNL     1      12.848 -18.755 -25.831  1.00  0.00    -0.003 C 
ATOM     20  C   UNL     1      12.531 -18.424 -24.376  1.00  0.00     0.004 C 
ENDBRANCH  18  19
ENDBRANCH  17  18
ENDBRANCH  16  17
ENDBRANCH  15  16
ENDBRANCH  14  15
ENDBRANCH  13  14
ENDBRANCH  12  13
ENDBRANCH   1  12
TORSDOF 16
ENDMDL
MODEL 2
REMARK VINA RESULT:    -5.312      3.637      8.176
REMARK INTER + INTRA:         -11.825
REMARK INTER:                 -10.106
REMARK INTRA:                  -1.719
REMARK UNBOUND:                -1.545
REMARK SMILES CCCCCCCCCCCCCCCCCC(=O)[O-]
REMARK SMILES IDX 10 1 11 2 12 3 13 4 14 5 15 6 16 7 17 8 18 9 19 10 20 11
REMARK SMILES IDX 9 12 8 13 7 14 6 15 5 16 4 17 3 18 2 19 1 20
REMARK H PARENT
REMARK Flexibility Score: inf
ROOT
ATOM      1  C   UNL     1      16.023 -23.700 -28.461  1.00  0.00     0.000 C 
ENDROOT
BRANCH   1   2
ATOM      2  C   UNL     1      14.581 -24.022 -28.889  1.00  0.00     0.000 C 
BRANCH   2   3
ATOM      3  C   UNL     1      13.611 -22.866 -28.610  1.00  0.00     0.000 C 
BRANCH   3   4
ATOM      4  C   UNL     1      12.505 -23.300 -27.636  1.00  0.00     0.000 C 
BRANCH   4   5
ATOM      5  C   UNL     1      12.039 -22.159 -26.719  1.00  0.00     0.000 C 
BRANCH   5   6
ATOM      6  C   UNL     1      12.796 -20.846 -26.972  1.00  0.00     0.000 C 
BRANCH   6   7
ATOM      7  C   UNL     1      11.936 -19.636 -26.591  1.00  0.00     0.006 C 
BRANCH   7   8
ATOM      8  C   UNL     1      12.334 -18.399 -27.402  1.00  0.00     0.053 C 
BRANCH   8   9
ATOM      9  C   UNL     1      11.604 -18.371 -28.707  1.00  0.00     0.041 C 
ATOM     10  O   UNL     1      12.201 -18.019 -29.759  1.00  0.00    -0.550 OA
ATOM     11  O   UNL     1      10.282 -18.791 -28.773  1.00  0.00    -0.550 OA
ENDBRANCH   8   9
ENDBRANCH   7   8
ENDBRANCH   6   7
ENDBRANCH   5   6
ENDBRANCH   4   5
ENDBRANCH   3   4
ENDBRANCH   2   3
ENDBRANCH   1   2
BRANCH   1  12
ATOM     12  C   UNL     1      16.082 -22.831 -27.196  1.00  0.00     0.000 C 
BRANCH  12  13
ATOM     13  C   UNL     1      16.571 -23.650 -25.992  1.00  0.00    -0.000 C 
BRANCH  13  14
ATOM     14  C   UNL     1      17.999 -23.277 -25.551  1.00  0.00    -0.000 C 
BRANCH  14  15
ATOM     15  C   UNL     1      19.087 -24.294 -25.942  1.00  0.00    -0.000 C 
BRANCH  15  16
ATOM     16  C   UNL     1      19.569 -24.129 -27.390  1.00  0.00    -0.000 C 
BRANCH  16  17
ATOM     17  C   UNL     1      19.607 -25.484 -28.115  1.00  0.00    -0.000 C 
BRANCH  17  18
ATOM     18  C   UNL     1      18.599 -26.491 -27.539  1.00  0.00    -0.000 C 
BRANCH  18  19
ATOM     19  C   UNL     1      17.905 -27.321 -28.629  1.00  0.00    -0.003 C 
ATOM     20  C   UNL     1      17.048 -28.425 -28.016  1.00  0.00     0.004 C 
ENDBRANCH  18  19
ENDBRANCH  17  18
ENDBRANCH  16  17
ENDBRANCH  15  16
ENDBRANCH  14  15
ENDBRANCH  13  14
ENDBRANCH  12  13
ENDBRANCH   1  12
TORSDOF 16
ENDMDL
MODEL 3
REMARK VINA RESULT:    -5.293      4.084      8.388
REMARK INTER + INTRA:         -11.788
REMARK INTER:                 -10.211
REMARK INTRA:                  -1.577
REMARK UNBOUND:                -1.545
REMARK SMILES CCCCCCCCCCCCCCCCCC(=O)[O-]
REMARK SMILES IDX 10 1 11 2 12 3 13 4 14 5 15 6 16 7 17 8 18 9 19 10 20 11
REMARK SMILES IDX 9 12 8 13 7 14 6 15 5 16 4 17 3 18 2 19 1 20
REMARK H PARENT
REMARK Flexibility Score: inf
ROOT
ATOM      1  C   UNL     1      13.450 -23.130 -28.945  1.00  0.00     0.000 C 
ENDROOT
BRANCH   1   2
ATOM      2  C   UNL     1      12.098 -23.771 -28.592  1.00  0.00     0.000 C 
BRANCH   2   3
ATOM      3  C   UNL     1      11.504 -23.216 -27.289  1.00  0.00     0.000 C 
BRANCH   3   4
ATOM      4  C   UNL     1      12.467 -22.215 -26.631  1.00  0.00     0.000 C 
BRANCH   4   5
ATOM      5  C   UNL     1      11.875 -20.801 -26.531  1.00  0.00     0.000 C 
BRANCH   5   6
ATOM      6  C   UNL     1      12.058 -19.986 -27.820  1.00  0.00     0.000 C 
BRANCH   6   7
ATOM      7  C   UNL     1      11.825 -18.493 -27.562  1.00  0.00     0.006 C 
BRANCH   7   8
ATOM      8  C   UNL     1      10.335 -18.191 -27.375  1.00  0.00     0.053 C 
BRANCH   8   9
ATOM      9  C   UNL     1       9.685 -17.926 -28.696  1.00  0.00     0.041 C 
ATOM     10  O   UNL     1      10.369 -17.508 -29.667  1.00  0.00    -0.550 OA
ATOM     11  O   UNL     1       8.334 -18.199 -28.872  1.00  0.00    -0.550 OA
ENDBRANCH   8   9
ENDBRANCH   7   8
ENDBRANCH   6   7
ENDBRANCH   5   6
ENDBRANCH   4   5
ENDBRANCH   3   4
ENDBRANCH   2   3
ENDBRANCH   1   2
BRANCH   1  12
ATOM     12  C   UNL     1      14.607 -24.140 -28.916  1.00  0.00     0.000 C 
BRANCH  12  13
ATOM     13  C   UNL     1      15.925 -23.452 -28.532  1.00  0.00    -0.000 C 
BRANCH  13  14
ATOM     14  C   UNL     1      15.944 -22.959 -27.073  1.00  0.00    -0.000 C 
BRANCH  14  15
ATOM     15  C   UNL     1      17.318 -23.023 -26.382  1.00  0.00    -0.000 C 
BRANCH  15  16
ATOM     16  C   UNL     1      17.356 -24.019 -25.214  1.00  0.00    -0.000 C 
BRANCH  16  17
ATOM     17  C   UNL     1      17.615 -25.448 -25.718  1.00  0.00    -0.000 C 
BRANCH  17  18
ATOM     18  C   UNL     1      18.843 -25.538 -26.637  1.00  0.00    -0.000 C 
BRANCH  18  19
ATOM     19  C   UNL     1      18.536 -26.240 -27.968  1.00  0.00    -0.003 C 
ATOM     20  C   UNL     1      17.622 -27.444 -27.754  1.00  0.00     0.004 C 
ENDBRANCH  18  19
ENDBRANCH  17  18
ENDBRANCH  16  17
ENDBRANCH  15  16
ENDBRANCH  14  15
ENDBRANCH  13  14
ENDBRANCH  12  13
ENDBRANCH   1  12
TORSDOF 16
ENDMDL
MODEL 4
REMARK VINA RESULT:    -5.194      4.815      9.211
REMARK INTER + INTRA:         -11.596
REMARK INTER:                 -10.371
REMARK INTRA:                  -1.225
REMARK UNBOUND:                -1.545
REMARK SMILES CCCCCCCCCCCCCCCCCC(=O)[O-]
REMARK SMILES IDX 10 1 11 2 12 3 13 4 14 5 15 6 16 7 17 8 18 9 19 10 20 11
REMARK SMILES IDX 9 12 8 13 7 14 6 15 5 16 4 17 3 18 2 19 1 20
REMARK H PARENT
REMARK Flexibility Score: inf
ROOT
ATOM      1  C   UNL     1      12.094 -20.494 -27.999  1.00  0.00     0.000 C 
ENDROOT
BRANCH   1   2
ATOM      2  C   UNL     1      12.565 -19.128 -27.472  1.00  0.00     0.000 C 
BRANCH   2   3
ATOM      3  C   UNL     1      12.705 -19.103 -25.943  1.00  0.00     0.000 C 
BRANCH   3   4
ATOM      4  C   UNL     1      11.653 -18.178 -25.312  1.00  0.00     0.000 C 
BRANCH   4   5
ATOM      5  C   UNL     1      10.243 -18.409 -25.880  1.00  0.00     0.000 C 
BRANCH   5   6
ATOM      6  C   UNL     1       9.709 -17.195 -26.654  1.00  0.00     0.000 C 
BRANCH   6   7
ATOM      7  C   UNL     1       9.060 -17.629 -27.974  1.00  0.00     0.006 C 
BRANCH   7   8
ATOM      8  C   UNL     1       8.048 -16.587 -28.460  1.00  0.00     0.053 C 
BRANCH   8   9
ATOM      9  C   UNL     1       8.122 -16.438 -29.947  1.00  0.00     0.041 C 
ATOM     10  O   UNL     1       7.850 -15.334 -30.487  1.00  0.00    -0.550 OA
ATOM     11  O   UNL     1       8.549 -17.502 -30.731  1.00  0.00    -0.550 OA
ENDBRANCH   8   9
ENDBRANCH   7   8
ENDBRANCH   6   7
ENDBRANCH   5   6
ENDBRANCH   4   5
ENDBRANCH   3   4
ENDBRANCH   2   3
ENDBRANCH   1   2
BRANCH   1  12
ATOM     12  C   UNL     1      12.334 -21.629 -26.993  1.00  0.00     0.000 C 
BRANCH  12  13
ATOM     13  C   UNL     1      12.178 -23.000 -27.667  1.00  0.00    -0.000 C 
BRANCH  13  14
ATOM     14  C   UNL     1      13.413 -23.410 -28.491  1.00  0.00    -0.000 C 
BRANCH  14  15
ATOM     15  C   UNL     1      14.767 -23.038 -27.861  1.00  0.00    -0.000 C 
BRANCH  15  16
ATOM     16  C   UNL     1      15.967 -23.537 -28.680  1.00  0.00    -0.000 C 
BRANCH  16  17
ATOM     17  C   UNL     1      17.291 -23.078 -28.051  1.00  0.00    -0.000 C 
BRANCH  17  18
ATOM     18  C   UNL     1      17.088 -22.320 -26.730  1.00  0.00    -0.000 C 
BRANCH  18  19
ATOM     19  C   UNL     1      17.764 -23.017 -25.539  1.00  0.00    -0.003 C 
ATOM     20  C   UNL     1      16.869 -24.113 -24.966  1.00  0.00     0.004 C 
ENDBRANCH  18  19
ENDBRANCH  17  18
ENDBRANCH  16  17
ENDBRANCH  15  16
ENDBRANCH  14  15
ENDBRANCH  13  14
ENDBRANCH  12  13
ENDBRANCH   1  12
TORSDOF 16
ENDMDL
MODEL 5
REMARK VINA RESULT:    -5.183      4.422      8.049
REMARK INTER + INTRA:         -11.576
REMARK INTER:                 -10.151
REMARK INTRA:                  -1.425
REMARK UNBOUND:                -1.545
REMARK SMILES CCCCCCCCCCCCCCCCCC(=O)[O-]
REMARK SMILES IDX 10 1 11 2 12 3 13 4 14 5 15 6 16 7 17 8 18 9 19 10 20 11
REMARK SMILES IDX 9 12 8 13 7 14 6 15 5 16 4 17 3 18 2 19 1 20
REMARK H PARENT
REMARK Flexibility Score: inf
ROOT
ATOM      1  C   UNL     1      15.481 -23.032 -26.971  1.00  0.00     0.000 C 
ENDROOT
BRANCH   1   2
ATOM      2  C   UNL     1      15.008 -23.364 -28.397  1.00  0.00     0.000 C 
BRANCH   2   3
ATOM      3  C   UNL     1      13.538 -22.990 -28.632  1.00  0.00     0.000 C 
BRANCH   3   4
ATOM      4  C   UNL     1      12.940 -22.311 -27.390  1.00  0.00     0.000 C 
BRANCH   4   5
ATOM      5  C   UNL     1      12.239 -20.983 -27.719  1.00  0.00     0.000 C 
BRANCH   5   6
ATOM      6  C   UNL     1      12.541 -19.882 -26.693  1.00  0.00     0.000 C 
BRANCH   6   7
ATOM      7  C   UNL     1      12.316 -18.492 -27.299  1.00  0.00     0.006 C 
BRANCH   7   8
ATOM      8  C   UNL     1      10.822 -18.169 -27.401  1.00  0.00     0.053 C 
BRANCH   8   9
ATOM      9  C   UNL     1      10.429 -17.952 -28.828  1.00  0.00     0.041 C 
ATOM     10  O   UNL     1      11.305 -17.683 -29.692  1.00  0.00    -0.550 OA
ATOM     11  O   UNL     1       9.104 -18.105 -29.215  1.00  0.00    -0.550 OA
ENDBRANCH   8   9
ENDBRANCH   7   8
ENDBRANCH   6   7
ENDBRANCH   5   6
ENDBRANCH   4   5
ENDBRANCH   3   4
ENDBRANCH   2   3
ENDBRANCH   1   2
BRANCH   1  12
ATOM     12  C   UNL     1      16.785 -22.222 -26.956  1.00  0.00     0.000 C 
BRANCH  12  13
ATOM     13  C   UNL     1      17.926 -23.008 -27.621  1.00  0.00    -0.000 C 
BRANCH  13  14
ATOM     14  C   UNL     1      18.971 -23.519 -26.613  1.00  0.00    -0.000 C 
BRANCH  14  15
ATOM     15  C   UNL     1      19.804 -22.422 -25.925  1.00  0.00    -0.000 C 
BRANCH  15  16
ATOM     16  C   UNL     1      19.307 -22.090 -24.511  1.00  0.00    -0.000 C 
BRANCH  16  17
ATOM     17  C   UNL     1      19.286 -23.346 -23.626  1.00  0.00    -0.000 C 
BRANCH  17  18
ATOM     18  C   UNL     1      17.923 -23.574 -22.953  1.00  0.00    -0.000 C 
BRANCH  18  19
ATOM     19  C   UNL     1      17.098 -24.668 -23.645  1.00  0.00    -0.003 C 
ATOM     20  C   UNL     1      15.726 -24.815 -22.993  1.00  0.00     0.004 C 
ENDBRANCH  18  19
ENDBRANCH  17  18
ENDBRANCH  16  17
ENDBRANCH  15  16
ENDBRANCH  14  15
ENDBRANCH  13  14
ENDBRANCH  12  13
ENDBRANCH   1  12
TORSDOF 16
ENDMDL
MODEL 6
REMARK VINA RESULT:    -5.151      4.719      9.542
REMARK INTER + INTRA:         -11.515
REMARK INTER:                 -10.568
REMARK INTRA:                  -0.947
REMARK UNBOUND:                -1.545
REMARK SMILES CCCCCCCCCCCCCCCCCC(=O)[O-]
REMARK SMILES IDX 10 1 11 2 12 3 13 4 14 5 15 6 16 7 17 8 18 9 19 10 20 11
REMARK SMILES IDX 9 12 8 13 7 14 6 15 5 16 4 17 3 18 2 19 1 20
REMARK H PARENT
REMARK Flexibility Score: inf
ROOT
ATOM      1  C   UNL     1      11.978 -21.747 -27.945  1.00  0.00     0.000 C 
ENDROOT
BRANCH   1   2
ATOM      2  C   UNL     1      12.214 -21.020 -26.610  1.00  0.00     0.000 C 
BRANCH   2   3
ATOM      3  C   UNL     1      12.792 -19.610 -26.802  1.00  0.00     0.000 C 
BRANCH   3   4
ATOM      4  C   UNL     1      11.735 -18.659 -27.384  1.00  0.00     0.000 C 
BRANCH   4   5
ATOM      5  C   UNL     1      10.631 -18.308 -26.373  1.00  0.00     0.000 C 
BRANCH   5   6
ATOM      6  C   UNL     1       9.399 -17.673 -27.035  1.00  0.00     0.000 C 
BRANCH   6   7
ATOM      7  C   UNL     1       9.527 -17.692 -28.563  1.00  0.00     0.006 C 
BRANCH   7   8
ATOM      8  C   UNL     1       8.338 -16.989 -29.224  1.00  0.00     0.053 C 
BRANCH   8   9
ATOM      9  C   UNL     1       8.642 -16.681 -30.656  1.00  0.00     0.041 C 
ATOM     10  O   UNL     1       7.748 -16.205 -31.405  1.00  0.00    -0.550 OA
ATOM     11  O   UNL     1       9.928 -16.863 -31.149  1.00  0.00    -0.550 OA
ENDBRANCH   8   9
ENDBRANCH   7   8
ENDBRANCH   6   7
ENDBRANCH   5   6
ENDBRANCH   4   5
ENDBRANCH   3   4
ENDBRANCH   2   3
ENDBRANCH   1   2
BRANCH   1  12
ATOM     12  C   UNL     1      13.236 -22.465 -28.456  1.00  0.00     0.000 C 
BRANCH  12  13
ATOM     13  C   UNL     1      14.119 -22.922 -27.286  1.00  0.00    -0.000 C 
BRANCH  13  14
ATOM     14  C   UNL     1      15.608 -23.035 -27.664  1.00  0.00    -0.000 C 
BRANCH  14  15
ATOM     15  C   UNL     1      16.579 -23.098 -26.472  1.00  0.00    -0.000 C 
BRANCH  15  16
ATOM     16  C   UNL     1      17.260 -24.466 -26.325  1.00  0.00    -0.000 C 
BRANCH  16  17
ATOM     17  C   UNL     1      18.446 -24.597 -27.294  1.00  0.00    -0.000 C 
BRANCH  17  18
ATOM     18  C   UNL     1      18.913 -26.051 -27.465  1.00  0.00    -0.000 C 
BRANCH  18  19
ATOM     19  C   UNL     1      18.049 -26.836 -28.463  1.00  0.00    -0.003 C 
ATOM     20  C   UNL     1      17.309 -27.976 -27.769  1.00  0.00     0.004 C 
ENDBRANCH  18  19
ENDBRANCH  17  18
ENDBRANCH  16  17
ENDBRANCH  15  16
ENDBRANCH  14  15
ENDBRANCH  13  14
ENDBRANCH  12  13
ENDBRANCH   1  12
TORSDOF 16
ENDMDL
MODEL 7
REMARK VINA RESULT:    -5.127      3.952      8.639
REMARK INTER + INTRA:         -11.467
REMARK INTER:                  -9.850
REMARK INTRA:                  -1.617
REMARK UNBOUND:                -1.545
REMARK SMILES CCCCCCCCCCCCCCCCCC(=O)[O-]
REMARK SMILES IDX 10 1 11 2 12 3 13 4 14 5 15 6 16 7 17 8 18 9 19 10 20 11
REMARK SMILES IDX 9 12 8 13 7 14 6 15 5 16 4 17 3 18 2 19 1 20
REMARK H PARENT
REMARK Flexibility Score: inf
ROOT
ATOM      1  C   UNL     1      14.464 -22.998 -27.294  1.00  0.00     0.000 C 
ENDROOT
BRANCH   1   2
ATOM      2  C   UNL     1      13.590 -22.640 -28.507  1.00  0.00     0.000 C 
BRANCH   2   3
ATOM      3  C   UNL     1      12.183 -22.175 -28.104  1.00  0.00     0.000 C 
BRANCH   3   4
ATOM      4  C   UNL     1      12.114 -21.885 -26.596  1.00  0.00     0.000 C 
BRANCH   4   5
ATOM      5  C   UNL     1      11.720 -20.431 -26.290  1.00  0.00     0.000 C 
BRANCH   5   6
ATOM      6  C   UNL     1      12.837 -19.430 -26.619  1.00  0.00     0.000 C 
BRANCH   6   7
ATOM      7  C   UNL     1      12.270 -18.186 -27.314  1.00  0.00     0.006 C 
BRANCH   7   8
ATOM      8  C   UNL     1      10.741 -18.246 -27.391  1.00  0.00     0.053 C 
BRANCH   8   9
ATOM      9  C   UNL     1      10.280 -18.050 -28.801  1.00  0.00     0.041 C 
ATOM     10  O   UNL     1       9.062 -18.182 -29.093  1.00  0.00    -0.550 OA
ATOM     11  O   UNL     1      11.185 -17.663 -29.781  1.00  0.00    -0.550 OA
ENDBRANCH   8   9
ENDBRANCH   7   8
ENDBRANCH   6   7
ENDBRANCH   5   6
ENDBRANCH   4   5
ENDBRANCH   3   4
ENDBRANCH   2   3
ENDBRANCH   1   2
BRANCH   1  12
ATOM     12  C   UNL     1      15.896 -23.384 -27.693  1.00  0.00     0.000 C 
BRANCH  12  13
ATOM     13  C   UNL     1      15.917 -24.065 -29.069  1.00  0.00    -0.000 C 
BRANCH  13  14
ATOM     14  C   UNL     1      17.334 -24.458 -29.525  1.00  0.00    -0.000 C 
BRANCH  14  15
ATOM     15  C   UNL     1      18.293 -24.865 -28.391  1.00  0.00    -0.000 C 
BRANCH  15  16
ATOM     16  C   UNL     1      18.580 -26.373 -28.360  1.00  0.00    -0.000 C 
BRANCH  16  17
ATOM     17  C   UNL     1      17.626 -27.095 -27.396  1.00  0.00    -0.000 C 
BRANCH  17  18
ATOM     18  C   UNL     1      16.954 -28.321 -28.034  1.00  0.00    -0.000 C 
BRANCH  18  19
ATOM     19  C   UNL     1      15.888 -27.938 -29.071  1.00  0.00    -0.003 C 
ATOM     20  C   UNL     1      16.308 -28.368 -30.473  1.00  0.00     0.004 C 
ENDBRANCH  18  19
ENDBRANCH  17  18
ENDBRANCH  16  17
ENDBRANCH  15  16
ENDBRANCH  14  15
ENDBRANCH  13  14
ENDBRANCH  12  13
ENDBRANCH   1  12
TORSDOF 16
ENDMDL
MODEL 8
REMARK VINA RESULT:    -5.124      3.679      7.981
REMARK INTER + INTRA:         -11.461
REMARK INTER:                  -9.983
REMARK INTRA:                  -1.478
REMARK UNBOUND:                -1.545
REMARK SMILES CCCCCCCCCCCCCCCCCC(=O)[O-]
REMARK SMILES IDX 10 1 11 2 12 3 13 4 14 5 15 6 16 7 17 8 18 9 19 10 20 11
REMARK SMILES IDX 9 12 8 13 7 14 6 15 5 16 4 17 3 18 2 19 1 20
REMARK H PARENT
REMARK Flexibility Score: inf
ROOT
ATOM      1  C   UNL     1      16.614 -23.433 -27.313  1.00  0.00     0.000 C 
ENDROOT
BRANCH   1   2
ATOM      2  C   UNL     1      15.143 -22.999 -27.193  1.00  0.00     0.000 C 
BRANCH   2   3
ATOM      3  C   UNL     1      14.324 -23.340 -28.446  1.00  0.00     0.000 C 
BRANCH   3   4
ATOM      4  C   UNL     1      12.818 -23.292 -28.145  1.00  0.00     0.000 C 
BRANCH   4   5
ATOM      5  C   UNL     1      12.516 -22.943 -26.679  1.00  0.00     0.000 C 
BRANCH   5   6
ATOM      6  C   UNL     1      11.808 -21.589 -26.523  1.00  0.00     0.000 C 
BRANCH   6   7
ATOM      7  C   UNL     1      12.263 -20.605 -27.606  1.00  0.00     0.006 C 
BRANCH   7   8
ATOM      8  C   UNL     1      11.686 -19.207 -27.359  1.00  0.00     0.053 C 
BRANCH   8   9
ATOM      9  C   UNL     1      11.156 -18.627 -28.632  1.00  0.00     0.041 C 
ATOM     10  O   UNL     1       9.913 -18.532 -28.815  1.00  0.00    -0.550 OA
ATOM     11  O   UNL     1      12.033 -18.137 -29.591  1.00  0.00    -0.550 OA
ENDBRANCH   8   9
ENDBRANCH   7   8
ENDBRANCH   6   7
ENDBRANCH   5   6
ENDBRANCH   4   5
ENDBRANCH   3   4
ENDBRANCH   2   3
ENDBRANCH   1   2
BRANCH   1  12
ATOM     12  C   UNL     1      17.239 -23.783 -25.955  1.00  0.00     0.000 C 
BRANCH  12  13
ATOM     13  C   UNL     1      17.773 -25.222 -25.952  1.00  0.00    -0.000 C 
BRANCH  13  14
ATOM     14  C   UNL     1      18.889 -25.452 -26.988  1.00  0.00    -0.000 C 
BRANCH  14  15
ATOM     15  C   UNL     1      18.739 -26.728 -27.835  1.00  0.00    -0.000 C 
BRANCH  15  16
ATOM     16  C   UNL     1      17.436 -27.489 -27.547  1.00  0.00    -0.000 C 
BRANCH  16  17
ATOM     17  C   UNL     1      17.067 -28.411 -28.720  1.00  0.00    -0.000 C 
BRANCH  17  18
ATOM     18  C   UNL     1      15.869 -27.890 -29.529  1.00  0.00    -0.000 C 
BRANCH  18  19
ATOM     19  C   UNL     1      15.798 -26.356 -29.557  1.00  0.00    -0.003 C 
ATOM     20  C   UNL     1      16.409 -25.803 -30.842  1.00  0.00     0.004 C 
ENDBRANCH  18  19
ENDBRANCH  17  18
ENDBRANCH  16  17
ENDBRANCH  15  16
ENDBRANCH  14  15
ENDBRANCH  13  14
ENDBRANCH  12  13
ENDBRANCH   1  12
TORSDOF 16
ENDMDL
MODEL 9
REMARK VINA RESULT:    -5.047      1.679      2.822
REMARK INTER + INTRA:         -11.312
REMARK INTER:                  -8.863
REMARK INTRA:                  -2.449
REMARK UNBOUND:                -1.545
REMARK SMILES CCCCCCCCCCCCCCCCCC(=O)[O-]
REMARK SMILES IDX 10 1 11 2 12 3 13 4 14 5 15 6 16 7 17 8 18 9 19 10 20 11
REMARK SMILES IDX 9 12 8 13 7 14 6 15 5 16 4 17 3 18 2 19 1 20
REMARK H PARENT
REMARK Flexibility Score: inf
ROOT
ATOM      1  C   UNL     1      18.923 -21.986 -26.731  1.00  0.00     0.000 C 
ENDROOT
BRANCH   1   2
ATOM      2  C   UNL     1      17.636 -22.606 -26.163  1.00  0.00     0.000 C 
BRANCH   2   3
ATOM      3  C   UNL     1      17.911 -23.587 -25.014  1.00  0.00     0.000 C 
BRANCH   3   4
ATOM      4  C   UNL     1      18.575 -24.870 -25.536  1.00  0.00     0.000 C 
BRANCH   4   5
ATOM      5  C   UNL     1      17.694 -25.627 -26.543  1.00  0.00     0.000 C 
BRANCH   5   6
ATOM      6  C   UNL     1      18.505 -26.260 -27.683  1.00  0.00     0.000 C 
BRANCH   6   7
ATOM      7  C   UNL     1      17.870 -27.580 -28.139  1.00  0.00     0.006 C 
BRANCH   7   8
ATOM      8  C   UNL     1      17.425 -27.501 -29.602  1.00  0.00     0.053 C 
BRANCH   8   9
ATOM      9  C   UNL     1      16.185 -28.311 -29.817  1.00  0.00     0.041 C 
ATOM     10  O   UNL     1      16.264 -29.482 -30.272  1.00  0.00    -0.550 OA
ATOM     11  O   UNL     1      14.947 -27.793 -29.458  1.00  0.00    -0.550 OA
ENDBRANCH   8   9
ENDBRANCH   7   8
ENDBRANCH   6   7
ENDBRANCH   5   6
ENDBRANCH   4   5
ENDBRANCH   3   4
ENDBRANCH   2   3
ENDBRANCH   1   2
BRANCH   1  12
ATOM     12  C   UNL     1      18.990 -22.065 -28.263  1.00  0.00     0.000 C 
BRANCH  12  13
ATOM     13  C   UNL     1      17.595 -22.297 -28.861  1.00  0.00    -0.000 C 
BRANCH  13  14
ATOM     14  C   UNL     1      17.526 -23.545 -29.761  1.00  0.00    -0.000 C 
BRANCH  14  15
ATOM     15  C   UNL     1      16.103 -24.006 -30.126  1.00  0.00    -0.000 C 
BRANCH  15  16
ATOM     16  C   UNL     1      15.244 -24.331 -28.896  1.00  0.00    -0.000 C 
BRANCH  16  17
ATOM     17  C   UNL     1      14.048 -23.371 -28.791  1.00  0.00    -0.000 C 
BRANCH  17  18
ATOM     18  C   UNL     1      13.970 -22.670 -27.426  1.00  0.00    -0.000 C 
BRANCH  18  19
ATOM     19  C   UNL     1      12.542 -22.230 -27.069  1.00  0.00    -0.003 C 
ATOM     20  C   UNL     1      11.597 -23.427 -27.015  1.00  0.00     0.004 C 
ENDBRANCH  18  19
ENDBRANCH  17  18
ENDBRANCH  16  17
ENDBRANCH  15  16
ENDBRANCH  14  15
ENDBRANCH  13  14
ENDBRANCH  12  13
ENDBRANCH   1  12
TORSDOF 16
ENDMDL
