MODEL 1
REMARK VINA RESULT:    -5.240      0.000      0.000
REMARK INTER + INTRA:          -5.393
REMARK INTER:                  -5.393
REMARK INTRA:                   0.000
REMARK UNBOUND:                 0.000
REMARK SMILES O=c1ccc2ccc(O)cc2o1
REMARK SMILES IDX 6 1 7 2 8 3 10 4 11 5 5 6 4 7 3 8 2 9 1 10 12 11 9 12
REMARK H PARENT 9 13
REMARK Flexibility Score: inf
ROOT
ATOM      1  C   UNL     1       4.526   8.971   3.381  1.00  0.00     0.016 A 
ATOM      2  C   UNL     1       5.559   9.509   2.606  1.00  0.00     0.047 A 
ATOM      3  C   UNL     1       5.989  10.826   2.816  1.00  0.00     0.119 A 
ATOM      4  C   UNL     1       5.384  11.610   3.807  1.00  0.00     0.094 A 
ATOM      5  C   UNL     1       4.351  11.080   4.587  1.00  0.00     0.142 A 
ATOM      6  C   UNL     1       3.918   9.753   4.372  1.00  0.00     0.018 A 
ATOM      7  C   UNL     1       2.882   9.252   5.168  1.00  0.00     0.019 A 
ATOM      8  C   UNL     1       2.311  10.071   6.142  1.00  0.00     0.094 A 
ATOM      9  C   UNL     1       2.791  11.376   6.298  1.00  0.00     0.336 A 
ATOM     10  O   UNL     1       2.287  12.130   7.171  1.00  0.00    -0.246 OA
ATOM     11  O   UNL     1       3.777  11.828   5.527  1.00  0.00    -0.423 OA
ENDROOT
BRANCH   3  12
ATOM     12  O   UNL     1       7.018  11.367   2.048  1.00  0.00    -0.508 OA
ATOM     13  H   UNL     1       7.654  10.777   1.524  1.00  0.00     0.293 HD
ENDBRANCH   3  12
TORSDOF 1
ENDMDL
MODEL 2
REMARK VINA RESULT:    -4.882      2.236      4.109
REMARK INTER + INTRA:          -5.025
REMARK INTER:                  -5.025
REMARK INTRA:                   0.000
REMARK UNBOUND:                 0.000
REMARK SMILES O=c1ccc2ccc(O)cc2o1
REMARK SMILES IDX 6 1 7 2 8 3 10 4 11 5 5 6 4 7 3 8 2 9 1 10 12 11 9 12
REMARK H PARENT 9 13
REMARK Flexibility Score: inf
ROOT
ATOM      1  C   UNL     1       3.913  10.353   4.638  1.00  0.00     0.016 A 
ATOM      2  C   UNL     1       4.438  11.642   4.508  1.00  0.00     0.047 A 
ATOM      3  C   UNL     1       5.410  11.916   3.535  1.00  0.00     0.119 A 
ATOM      4  C   UNL     1       5.858  10.895   2.688  1.00  0.00     0.094 A 
ATOM      5  C   UNL     1       5.338   9.602   2.810  1.00  0.00     0.142 A 
ATOM      6  C   UNL     1       4.360   9.329   3.791  1.00  0.00     0.018 A 
ATOM      7  C   UNL     1       3.859   8.026   3.889  1.00  0.00     0.019 A 
ATOM      8  C   UNL     1       4.337   7.043   3.023  1.00  0.00     0.094 A 
ATOM      9  C   UNL     1       5.307   7.387   2.075  1.00  0.00     0.336 A 
ATOM     10  O   UNL     1       5.750   6.513   1.285  1.00  0.00    -0.246 OA
ATOM     11  O   UNL     1       5.767   8.634   2.003  1.00  0.00    -0.423 OA
ENDROOT
BRANCH   3  12
ATOM     12  O   UNL     1       5.936  13.199   3.401  1.00  0.00    -0.508 OA
ATOM     13  H   UNL     1       6.905  13.350   3.145  1.00  0.00     0.293 HD
ENDBRANCH   3  12
TORSDOF 1
ENDMDL
MODEL 3
REMARK VINA RESULT:    -4.781      5.874      6.957
REMARK INTER + INTRA:          -4.921
REMARK INTER:                  -4.921
REMARK INTRA:                   0.000
REMARK UNBOUND:                 0.000
REMARK SMILES O=c1ccc2ccc(O)cc2o1
REMARK SMILES IDX 6 1 7 2 8 3 10 4 11 5 5 6 4 7 3 8 2 9 1 10 12 11 9 12
REMARK H PARENT 9 13
REMARK Flexibility Score: inf
ROOT
ATOM      1  C   UNL     1       4.201   6.641  -0.331  1.00  0.00     0.016 A 
ATOM      2  C   UNL     1       3.261   5.616  -0.185  1.00  0.00     0.047 A 
ATOM      3  C   UNL     1       3.412   4.656   0.826  1.00  0.00     0.119 A 
ATOM      4  C   UNL     1       4.510   4.722   1.694  1.00  0.00     0.094 A 
ATOM      5  C   UNL     1       5.455   5.743   1.555  1.00  0.00     0.142 A 
ATOM      6  C   UNL     1       5.300   6.709   0.536  1.00  0.00     0.018 A 
ATOM      7  C   UNL     1       6.262   7.718   0.421  1.00  0.00     0.019 A 
ATOM      8  C   UNL     1       7.337   7.741   1.309  1.00  0.00     0.094 A 
ATOM      9  C   UNL     1       7.426   6.752   2.295  1.00  0.00     0.336 A 
ATOM     10  O   UNL     1       8.389   6.757   3.104  1.00  0.00    -0.246 OA
ATOM     11  O   UNL     1       6.497   5.802   2.381  1.00  0.00    -0.423 OA
ENDROOT
BRANCH   3  12
ATOM     12  O   UNL     1       2.479   3.633   0.977  1.00  0.00    -0.508 OA
ATOM     13  H   UNL     1       2.638   2.860   1.613  1.00  0.00     0.293 HD
ENDBRANCH   3  12
TORSDOF 1
ENDMDL
MODEL 4
REMARK VINA RESULT:    -4.740      1.634      4.722
REMARK INTER + INTRA:          -4.879
REMARK INTER:                  -4.879
REMARK INTRA:                   0.000
REMARK UNBOUND:                 0.000
REMARK SMILES O=c1ccc2ccc(O)cc2o1
REMARK SMILES IDX 6 1 7 2 8 3 10 4 11 5 5 6 4 7 3 8 2 9 1 10 12 11 9 12
REMARK H PARENT 9 13
REMARK Flexibility Score: inf
ROOT
ATOM      1  C   UNL     1       4.010  12.291   5.565  1.00  0.00     0.016 A 
ATOM      2  C   UNL     1       2.893  12.127   6.390  1.00  0.00     0.047 A 
ATOM      3  C   UNL     1       2.131  10.952   6.325  1.00  0.00     0.119 A 
ATOM      4  C   UNL     1       2.488   9.936   5.430  1.00  0.00     0.094 A 
ATOM      5  C   UNL     1       3.603  10.091   4.600  1.00  0.00     0.142 A 
ATOM      6  C   UNL     1       4.369  11.275   4.667  1.00  0.00     0.018 A 
ATOM      7  C   UNL     1       5.479  11.401   3.825  1.00  0.00     0.019 A 
ATOM      8  C   UNL     1       5.794  10.362   2.950  1.00  0.00     0.094 A 
ATOM      9  C   UNL     1       4.989   9.217   2.938  1.00  0.00     0.336 A 
ATOM     10  O   UNL     1       5.258   8.269   2.155  1.00  0.00    -0.246 OA
ATOM     11  O   UNL     1       3.939   9.123   3.750  1.00  0.00    -0.423 OA
ENDROOT
BRANCH   3  12
ATOM     12  O   UNL     1       1.018  10.783   7.146  1.00  0.00    -0.508 OA
ATOM     13  H   UNL     1       0.597   9.872   7.287  1.00  0.00     0.293 HD
ENDBRANCH   3  12
TORSDOF 1
ENDMDL
MODEL 5
REMARK VINA RESULT:    -4.720      1.895      2.800
REMARK INTER + INTRA:          -4.858
REMARK INTER:                  -4.858
REMARK INTRA:                   0.000
REMARK UNBOUND:                 0.000
REMARK SMILES O=c1ccc2ccc(O)cc2o1
REMARK SMILES IDX 6 1 7 2 8 3 10 4 11 5 5 6 4 7 3 8 2 9 1 10 12 11 9 12
REMARK H PARENT 9 13
REMARK Flexibility Score: inf
ROOT
ATOM      1  C   UNL     1       4.907   7.242   2.028  1.00  0.00     0.016 A 
ATOM      2  C   UNL     1       5.916   7.216   1.061  1.00  0.00     0.047 A 
ATOM      3  C   UNL     1       6.795   8.300   0.925  1.00  0.00     0.119 A 
ATOM      4  C   UNL     1       6.662   9.416   1.760  1.00  0.00     0.094 A 
ATOM      5  C   UNL     1       5.655   9.452   2.731  1.00  0.00     0.142 A 
ATOM      6  C   UNL     1       4.771   8.359   2.865  1.00  0.00     0.018 A 
ATOM      7  C   UNL     1       3.774   8.424   3.844  1.00  0.00     0.019 A 
ATOM      8  C   UNL     1       3.682   9.557   4.652  1.00  0.00     0.094 A 
ATOM      9  C   UNL     1       4.593  10.603   4.461  1.00  0.00     0.336 A 
ATOM     10  O   UNL     1       4.525  11.633   5.180  1.00  0.00    -0.246 OA
ATOM     11  O   UNL     1       5.532  10.515   3.522  1.00  0.00    -0.423 OA
ENDROOT
BRANCH   3  12
ATOM     12  O   UNL     1       7.803   8.279  -0.035  1.00  0.00    -0.508 OA
ATOM     13  H   UNL     1       8.475   7.521  -0.083  1.00  0.00     0.293 HD
ENDBRANCH   3  12
TORSDOF 1
ENDMDL
MODEL 6
REMARK VINA RESULT:    -4.713      2.393      5.294
REMARK INTER + INTRA:          -4.851
REMARK INTER:                  -4.851
REMARK INTRA:                   0.000
REMARK UNBOUND:                 0.000
REMARK SMILES O=c1ccc2ccc(O)cc2o1
REMARK SMILES IDX 6 1 7 2 8 3 10 4 11 5 5 6 4 7 3 8 2 9 1 10 12 11 9 12
REMARK H PARENT 9 13
REMARK Flexibility Score: inf
ROOT
ATOM      1  C   UNL     1       4.993  10.740   3.798  1.00  0.00     0.016 A 
ATOM      2  C   UNL     1       3.880  10.545   4.622  1.00  0.00     0.047 A 
ATOM      3  C   UNL     1       3.242   9.296   4.666  1.00  0.00     0.119 A 
ATOM      4  C   UNL     1       3.720   8.239   3.882  1.00  0.00     0.094 A 
ATOM      5  C   UNL     1       4.833   8.425   3.055  1.00  0.00     0.142 A 
ATOM      6  C   UNL     1       5.473   9.684   3.012  1.00  0.00     0.018 A 
ATOM      7  C   UNL     1       6.583   9.839   2.175  1.00  0.00     0.019 A 
ATOM      8  C   UNL     1       7.021   8.757   1.412  1.00  0.00     0.094 A 
ATOM      9  C   UNL     1       6.338   7.539   1.506  1.00  0.00     0.336 A 
ATOM     10  O   UNL     1       6.719   6.552   0.826  1.00  0.00    -0.246 OA
ATOM     11  O   UNL     1       5.284   7.418   2.310  1.00  0.00    -0.423 OA
ENDROOT
BRANCH   3  12
ATOM     12  O   UNL     1       2.134   9.096   5.486  1.00  0.00    -0.508 OA
ATOM     13  H   UNL     1       2.208   9.131   6.496  1.00  0.00     0.293 HD
ENDBRANCH   3  12
TORSDOF 1
ENDMDL
MODEL 7
REMARK VINA RESULT:    -4.694      8.376     10.275
REMARK INTER + INTRA:          -4.831
REMARK INTER:                  -4.831
REMARK INTRA:                   0.000
REMARK UNBOUND:                 0.000
REMARK SMILES O=c1ccc2ccc(O)cc2o1
REMARK SMILES IDX 6 1 7 2 8 3 10 4 11 5 5 6 4 7 3 8 2 9 1 10 12 11 9 12
REMARK H PARENT 9 13
REMARK Flexibility Score: inf
ROOT
ATOM      1  C   UNL     1       2.826   4.150  -1.633  1.00  0.00     0.016 A 
ATOM      2  C   UNL     1       2.739   5.015  -0.537  1.00  0.00     0.047 A 
ATOM      3  C   UNL     1       3.387   4.699   0.666  1.00  0.00     0.119 A 
ATOM      4  C   UNL     1       4.123   3.513   0.774  1.00  0.00     0.094 A 
ATOM      5  C   UNL     1       4.216   2.642  -0.317  1.00  0.00     0.142 A 
ATOM      6  C   UNL     1       3.563   2.962  -1.528  1.00  0.00     0.018 A 
ATOM      7  C   UNL     1       3.673   2.071  -2.601  1.00  0.00     0.019 A 
ATOM      8  C   UNL     1       4.418   0.902  -2.445  1.00  0.00     0.094 A 
ATOM      9  C   UNL     1       5.038   0.651  -1.216  1.00  0.00     0.336 A 
ATOM     10  O   UNL     1       5.714  -0.398  -1.057  1.00  0.00    -0.246 OA
ATOM     11  O   UNL     1       4.916   1.515  -0.211  1.00  0.00    -0.423 OA
ENDROOT
BRANCH   3  12
ATOM     12  O   UNL     1       3.305   5.557   1.760  1.00  0.00    -0.508 OA
ATOM     13  H   UNL     1       4.026   5.579   2.472  1.00  0.00     0.293 HD
ENDBRANCH   3  12
TORSDOF 1
ENDMDL
MODEL 8
REMARK VINA RESULT:    -4.575      6.430      7.860
REMARK INTER + INTRA:          -4.709
REMARK INTER:                  -4.709
REMARK INTRA:                   0.000
REMARK UNBOUND:                 0.000
REMARK SMILES O=c1ccc2ccc(O)cc2o1
REMARK SMILES IDX 6 1 7 2 8 3 10 4 11 5 5 6 4 7 3 8 2 9 1 10 12 11 9 12
REMARK H PARENT 9 13
REMARK Flexibility Score: inf
ROOT
ATOM      1  C   UNL     1       3.979   6.535  -0.304  1.00  0.00     0.016 A 
ATOM      2  C   UNL     1       5.079   6.938   0.459  1.00  0.00     0.047 A 
ATOM      3  C   UNL     1       5.646   6.066   1.400  1.00  0.00     0.119 A 
ATOM      4  C   UNL     1       5.110   4.785   1.577  1.00  0.00     0.094 A 
ATOM      5  C   UNL     1       4.009   4.373   0.818  1.00  0.00     0.142 A 
ATOM      6  C   UNL     1       3.440   5.253  -0.128  1.00  0.00     0.018 A 
ATOM      7  C   UNL     1       2.340   4.813  -0.872  1.00  0.00     0.019 A 
ATOM      8  C   UNL     1       1.841   3.528  -0.659  1.00  0.00     0.094 A 
ATOM      9  C   UNL     1       2.456   2.711   0.296  1.00  0.00     0.336 A 
ATOM     10  O   UNL     1       2.020   1.548   0.502  1.00  0.00    -0.246 OA
ATOM     11  O   UNL     1       3.501   3.155   0.990  1.00  0.00    -0.423 OA
ENDROOT
BRANCH   3  12
ATOM     12  O   UNL     1       6.743   6.462   2.162  1.00  0.00    -0.508 OA
ATOM     13  H   UNL     1       7.692   6.333   1.832  1.00  0.00     0.293 HD
ENDBRANCH   3  12
TORSDOF 1
ENDMDL
MODEL 9
REMARK VINA RESULT:    -4.539      6.445      8.213
REMARK INTER + INTRA:          -4.672
REMARK INTER:                  -4.672
REMARK INTRA:                   0.000
REMARK UNBOUND:                 0.000
REMARK SMILES O=c1ccc2ccc(O)cc2o1
REMARK SMILES IDX 6 1 7 2 8 3 10 4 11 5 5 6 4 7 3 8 2 9 1 10 12 11 9 12
REMARK H PARENT 9 13
REMARK Flexibility Score: inf
ROOT
ATOM      1  C   UNL     1       2.567   4.670  -0.982  1.00  0.00     0.016 A 
ATOM      2  C   UNL     1       2.250   3.310  -0.903  1.00  0.00     0.047 A 
ATOM      3  C   UNL     1       3.005   2.454  -0.088  1.00  0.00     0.119 A 
ATOM      4  C   UNL     1       4.081   2.961   0.651  1.00  0.00     0.094 A 
ATOM      5  C   UNL     1       4.405   4.320   0.578  1.00  0.00     0.142 A 
ATOM      6  C   UNL     1       3.644   5.180  -0.244  1.00  0.00     0.018 A 
ATOM      7  C   UNL     1       3.993   6.534  -0.297  1.00  0.00     0.019 A 
ATOM      8  C   UNL     1       5.074   6.991   0.457  1.00  0.00     0.094 A 
ATOM      9  C   UNL     1       5.782   6.081   1.249  1.00  0.00     0.336 A 
ATOM     10  O   UNL     1       6.760   6.475   1.936  1.00  0.00    -0.246 OA
ATOM     11  O   UNL     1       5.430   4.798   1.281  1.00  0.00    -0.423 OA
ENDROOT
BRANCH   3  12
ATOM     12  O   UNL     1       2.693   1.099  -0.004  1.00  0.00    -0.508 OA
ATOM     13  H   UNL     1       3.412   0.386  -0.047  1.00  0.00     0.293 HD
ENDBRANCH   3  12
TORSDOF 1
ENDMDL
