MODEL 1
REMARK VINA RESULT:    -4.826      0.000      0.000
REMARK INTER + INTRA:          -6.067
REMARK INTER:                  -5.813
REMARK INTRA:                  -0.254
REMARK UNBOUND:                -0.254
REMARK SMILES O=c1c(O)c(-c2ccc(O)c(O)c2)oc2cc(O)cc(O)c12
REMARK SMILES IDX 5 1 3 2 2 3 1 4 22 5 20 6 19 7 17 8 16 9 15 10 14 11 6 12
REMARK SMILES IDX 7 13 8 14 9 15 13 16 11 17 10 18 12 20 4 22 21 24 18 26
REMARK H PARENT 10 19 12 21 4 23 21 25 18 27
REMARK Flexibility Score: inf
ROOT
ATOM      1  C   UNL     1      -3.907  -5.302 -27.964  1.00  0.00     0.180 A 
ATOM      2  C   UNL     1      -4.407  -6.496 -28.512  1.00  0.00     0.208 A 
ATOM      3  C   UNL     1      -4.564  -6.593 -29.904  1.00  0.00     0.238 A 
ATOM      4  O   UNL     1      -5.063  -7.645 -30.383  1.00  0.00    -0.285 OA
ATOM      5  C   UNL     1      -4.203  -5.503 -30.731  1.00  0.00     0.111 A 
ATOM      6  C   UNL     1      -4.282  -5.506 -32.156  1.00  0.00     0.134 A 
ATOM      7  C   UNL     1      -4.024  -4.326 -32.865  1.00  0.00     0.093 A 
ATOM      8  C   UNL     1      -3.627  -3.163 -32.207  1.00  0.00     0.123 A 
ATOM      9  C   UNL     1      -3.488  -3.165 -30.819  1.00  0.00     0.094 A 
ATOM     10  C   UNL     1      -3.774  -4.317 -30.081  1.00  0.00     0.146 A 
ATOM     11  O   UNL     1      -3.640  -4.273 -28.761  1.00  0.00    -0.452 OA
ENDROOT
BRANCH   1  12
ATOM     12  C   UNL     1      -3.691  -5.132 -26.509  1.00  0.00     0.025 A 
ATOM     13  C   UNL     1      -2.647  -5.798 -25.841  1.00  0.00     0.016 A 
ATOM     14  C   UNL     1      -2.448  -5.604 -24.472  1.00  0.00     0.051 A 
ATOM     15  C   UNL     1      -3.276  -4.733 -23.753  1.00  0.00     0.157 A 
ATOM     16  C   UNL     1      -4.505  -4.244 -25.787  1.00  0.00     0.062 A 
ATOM     17  C   UNL     1      -4.304  -4.049 -24.413  1.00  0.00     0.158 A 
BRANCH  15  18
ATOM     18  O   UNL     1      -3.080  -4.538 -22.388  1.00  0.00    -0.504 OA
ATOM     19  H   UNL     1      -3.032  -3.609 -21.987  1.00  0.00     0.293 HD
ENDBRANCH  15  18
BRANCH  17  20
ATOM     20  O   UNL     1      -5.124  -3.178 -23.698  1.00  0.00    -0.504 OA
ATOM     21  H   UNL     1      -6.110  -3.368 -23.561  1.00  0.00     0.293 HD
ENDBRANCH  17  20
ENDBRANCH   1  12
BRANCH   2  22
ATOM     22  O   UNL     1      -4.777  -7.553 -27.674  1.00  0.00    -0.502 OA
ATOM     23  H   UNL     1      -4.213  -7.844 -26.885  1.00  0.00     0.293 HD
ENDBRANCH   2  22
BRANCH   6  24
ATOM     24  O   UNL     1      -4.581  -6.639 -32.919  1.00  0.00    -0.507 OA
ATOM     25  H   UNL     1      -4.452  -7.591 -32.608  1.00  0.00     0.293 HD
ENDBRANCH   6  24
BRANCH   8  26
ATOM     26  O   UNL     1      -3.362  -2.012 -32.946  1.00  0.00    -0.508 OA
ATOM     27  H   UNL     1      -3.308  -2.033 -33.958  1.00  0.00     0.293 HD
ENDBRANCH   8  26
TORSDOF 6
ENDMDL
MODEL 2
REMARK VINA RESULT:    -4.804      4.449      9.285
REMARK INTER + INTRA:          -6.041
REMARK INTER:                  -5.710
REMARK INTRA:                  -0.330
REMARK UNBOUND:                -0.254
REMARK SMILES O=c1c(O)c(-c2ccc(O)c(O)c2)oc2cc(O)cc(O)c12
REMARK SMILES IDX 5 1 3 2 2 3 1 4 22 5 20 6 19 7 17 8 16 9 15 10 14 11 6 12
REMARK SMILES IDX 7 13 8 14 9 15 13 16 11 17 10 18 12 20 4 22 21 24 18 26
REMARK H PARENT 10 19 12 21 4 23 21 25 18 27
REMARK Flexibility Score: inf
ROOT
ATOM      1  C   UNL     1      -1.997  -2.281 -35.196  1.00  0.00     0.180 A 
ATOM      2  C   UNL     1      -2.306  -3.513 -35.798  1.00  0.00     0.208 A 
ATOM      3  C   UNL     1      -3.099  -4.434 -35.095  1.00  0.00     0.238 A 
ATOM      4  O   UNL     1      -3.328  -5.557 -35.616  1.00  0.00    -0.285 OA
ATOM      5  C   UNL     1      -3.586  -4.105 -33.806  1.00  0.00     0.111 A 
ATOM      6  C   UNL     1      -4.430  -4.945 -33.020  1.00  0.00     0.134 A 
ATOM      7  C   UNL     1      -4.743  -4.575 -31.706  1.00  0.00     0.093 A 
ATOM      8  C   UNL     1      -4.298  -3.366 -31.174  1.00  0.00     0.123 A 
ATOM      9  C   UNL     1      -3.521  -2.509 -31.954  1.00  0.00     0.094 A 
ATOM     10  C   UNL     1      -3.162  -2.868 -33.256  1.00  0.00     0.146 A 
ATOM     11  O   UNL     1      -2.413  -2.029 -33.960  1.00  0.00    -0.452 OA
ENDROOT
BRANCH   1  12
ATOM     12  C   UNL     1      -1.187  -1.250 -35.885  1.00  0.00     0.025 A 
ATOM     13  C   UNL     1      -1.776  -0.321 -36.761  1.00  0.00     0.016 A 
ATOM     14  C   UNL     1      -0.996   0.659 -37.381  1.00  0.00     0.051 A 
ATOM     15  C   UNL     1       0.378   0.735 -37.124  1.00  0.00     0.157 A 
ATOM     16  C   UNL     1       0.188  -1.156 -35.615  1.00  0.00     0.062 A 
ATOM     17  C   UNL     1       0.971  -0.172 -36.237  1.00  0.00     0.158 A 
BRANCH  15  18
ATOM     18  O   UNL     1       1.159   1.710 -37.741  1.00  0.00    -0.504 OA
ATOM     19  H   UNL     1       1.276   2.631 -37.335  1.00  0.00     0.293 HD
ENDBRANCH  15  18
BRANCH  17  20
ATOM     20  O   UNL     1       2.338  -0.091 -35.977  1.00  0.00    -0.504 OA
ATOM     21  H   UNL     1       2.760  -0.581 -35.197  1.00  0.00     0.293 HD
ENDBRANCH  17  20
ENDBRANCH   1  12
BRANCH   2  22
ATOM     22  O   UNL     1      -1.798  -3.826 -37.062  1.00  0.00    -0.502 OA
ATOM     23  H   UNL     1      -1.065  -3.284 -37.503  1.00  0.00     0.293 HD
ENDBRANCH   2  22
BRANCH   6  24
ATOM     24  O   UNL     1      -5.005  -6.131 -33.487  1.00  0.00    -0.507 OA
ATOM     25  H   UNL     1      -5.998  -6.303 -33.547  1.00  0.00     0.293 HD
ENDBRANCH   6  24
BRANCH   8  26
ATOM     26  O   UNL     1      -4.642  -3.022 -29.868  1.00  0.00    -0.508 OA
ATOM     27  H   UNL     1      -4.467  -3.649 -29.091  1.00  0.00     0.293 HD
ENDBRANCH   8  26
TORSDOF 6
ENDMDL
MODEL 3
REMARK VINA RESULT:    -4.709      1.409      1.963
REMARK INTER + INTRA:          -5.927
REMARK INTER:                  -5.875
REMARK INTRA:                  -0.051
REMARK UNBOUND:                -0.254
REMARK SMILES O=c1c(O)c(-c2ccc(O)c(O)c2)oc2cc(O)cc(O)c12
REMARK SMILES IDX 5 1 3 2 2 3 1 4 22 5 20 6 19 7 17 8 16 9 15 10 14 11 6 12
REMARK SMILES IDX 7 13 8 14 9 15 13 16 11 17 10 18 12 20 4 22 21 24 18 26
REMARK H PARENT 10 19 12 21 4 23 21 25 18 27
REMARK Flexibility Score: inf
ROOT
ATOM      1  C   UNL     1      -3.222  -5.482 -28.721  1.00  0.00     0.180 A 
ATOM      2  C   UNL     1      -3.081  -6.699 -29.409  1.00  0.00     0.208 A 
ATOM      3  C   UNL     1      -3.173  -6.704 -30.810  1.00  0.00     0.238 A 
ATOM      4  O   UNL     1      -3.100  -7.804 -31.417  1.00  0.00    -0.285 OA
ATOM      5  C   UNL     1      -3.387  -5.490 -31.506  1.00  0.00     0.111 A 
ATOM      6  C   UNL     1      -3.457  -5.371 -32.927  1.00  0.00     0.134 A 
ATOM      7  C   UNL     1      -3.803  -4.141 -33.501  1.00  0.00     0.093 A 
ATOM      8  C   UNL     1      -4.019  -3.013 -32.711  1.00  0.00     0.123 A 
ATOM      9  C   UNL     1      -3.894  -3.104 -31.325  1.00  0.00     0.094 A 
ATOM     10  C   UNL     1      -3.586  -4.325 -30.720  1.00  0.00     0.146 A 
ATOM     11  O   UNL     1      -3.488  -4.371 -29.397  1.00  0.00    -0.452 OA
ENDROOT
BRANCH   1  12
ATOM     12  C   UNL     1      -3.113  -5.394 -27.246  1.00  0.00     0.025 A 
ATOM     13  C   UNL     1      -4.162  -4.878 -26.465  1.00  0.00     0.016 A 
ATOM     14  C   UNL     1      -4.047  -4.827 -25.074  1.00  0.00     0.051 A 
ATOM     15  C   UNL     1      -2.891  -5.302 -24.442  1.00  0.00     0.157 A 
ATOM     16  C   UNL     1      -1.965  -5.888 -26.607  1.00  0.00     0.062 A 
ATOM     17  C   UNL     1      -1.849  -5.837 -25.209  1.00  0.00     0.158 A 
BRANCH  15  18
ATOM     18  O   UNL     1      -2.772  -5.251 -23.054  1.00  0.00    -0.504 OA
ATOM     19  H   UNL     1      -2.936  -6.068 -22.478  1.00  0.00     0.293 HD
ENDBRANCH  15  18
BRANCH  17  20
ATOM     20  O   UNL     1      -0.703  -6.315 -24.579  1.00  0.00    -0.504 OA
ATOM     21  H   UNL     1       0.154  -6.487 -25.094  1.00  0.00     0.293 HD
ENDBRANCH  17  20
ENDBRANCH   1  12
BRANCH   2  22
ATOM     22  O   UNL     1      -2.891  -7.890 -28.701  1.00  0.00    -0.502 OA
ATOM     23  H   UNL     1      -2.640  -7.905 -27.720  1.00  0.00     0.293 HD
ENDBRANCH   2  22
BRANCH   6  24
ATOM     24  O   UNL     1      -3.170  -6.414 -33.813  1.00  0.00    -0.507 OA
ATOM     25  H   UNL     1      -2.321  -6.961 -33.800  1.00  0.00     0.293 HD
ENDBRANCH   6  24
BRANCH   8  26
ATOM     26  O   UNL     1      -4.346  -1.802 -33.318  1.00  0.00    -0.508 OA
ATOM     27  H   UNL     1      -4.908  -1.106 -32.842  1.00  0.00     0.293 HD
ENDBRANCH   8  26
TORSDOF 6
ENDMDL
MODEL 4
REMARK VINA RESULT:    -4.643      1.188      1.833
REMARK INTER + INTRA:          -5.847
REMARK INTER:                  -5.571
REMARK INTRA:                  -0.276
REMARK UNBOUND:                -0.254
REMARK SMILES O=c1c(O)c(-c2ccc(O)c(O)c2)oc2cc(O)cc(O)c12
REMARK SMILES IDX 5 1 3 2 2 3 1 4 22 5 20 6 19 7 17 8 16 9 15 10 14 11 6 12
REMARK SMILES IDX 7 13 8 14 9 15 13 16 11 17 10 18 12 20 4 22 21 24 18 26
REMARK H PARENT 10 19 12 21 4 23 21 25 18 27
REMARK Flexibility Score: inf
ROOT
ATOM      1  C   UNL     1      -4.088  -5.111 -29.083  1.00  0.00     0.180 A 
ATOM      2  C   UNL     1      -4.542  -6.288 -29.701  1.00  0.00     0.208 A 
ATOM      3  C   UNL     1      -4.625  -6.334 -31.102  1.00  0.00     0.238 A 
ATOM      4  O   UNL     1      -5.083  -7.372 -31.647  1.00  0.00    -0.285 OA
ATOM      5  C   UNL     1      -4.237  -5.208 -31.867  1.00  0.00     0.111 A 
ATOM      6  C   UNL     1      -4.242  -5.156 -33.293  1.00  0.00     0.134 A 
ATOM      7  C   UNL     1      -3.963  -3.947 -33.942  1.00  0.00     0.093 A 
ATOM      8  C   UNL     1      -3.617  -2.806 -33.220  1.00  0.00     0.123 A 
ATOM      9  C   UNL     1      -3.551  -2.860 -31.828  1.00  0.00     0.094 A 
ATOM     10  C   UNL     1      -3.859  -4.043 -31.150  1.00  0.00     0.146 A 
ATOM     11  O   UNL     1      -3.795  -4.049 -29.825  1.00  0.00    -0.452 OA
ENDROOT
BRANCH   1  12
ATOM     12  C   UNL     1      -3.951  -4.995 -27.612  1.00  0.00     0.025 A 
ATOM     13  C   UNL     1      -4.916  -4.329 -26.837  1.00  0.00     0.016 A 
ATOM     14  C   UNL     1      -4.778  -4.253 -25.449  1.00  0.00     0.051 A 
ATOM     15  C   UNL     1      -3.684  -4.853 -24.814  1.00  0.00     0.157 A 
ATOM     16  C   UNL     1      -2.866  -5.613 -26.969  1.00  0.00     0.062 A 
ATOM     17  C   UNL     1      -2.728  -5.537 -25.575  1.00  0.00     0.158 A 
BRANCH  15  18
ATOM     18  O   UNL     1      -3.542  -4.778 -23.430  1.00  0.00    -0.504 OA
ATOM     19  H   UNL     1      -3.671  -3.906 -22.930  1.00  0.00     0.293 HD
ENDBRANCH  15  18
BRANCH  17  20
ATOM     20  O   UNL     1      -1.642  -6.139 -24.941  1.00  0.00    -0.504 OA
ATOM     21  H   UNL     1      -1.674  -7.106 -24.636  1.00  0.00     0.293 HD
ENDBRANCH  17  20
ENDBRANCH   1  12
BRANCH   2  22
ATOM     22  O   UNL     1      -4.940  -7.381 -28.925  1.00  0.00    -0.502 OA
ATOM     23  H   UNL     1      -4.885  -8.335 -29.261  1.00  0.00     0.293 HD
ENDBRANCH   2  22
BRANCH   6  24
ATOM     24  O   UNL     1      -4.484  -6.262 -34.114  1.00  0.00    -0.507 OA
ATOM     25  H   UNL     1      -3.831  -7.016 -34.269  1.00  0.00     0.293 HD
ENDBRANCH   6  24
BRANCH   8  26
ATOM     26  O   UNL     1      -3.331  -1.623 -33.900  1.00  0.00    -0.508 OA
ATOM     27  H   UNL     1      -2.427  -1.466 -34.331  1.00  0.00     0.293 HD
ENDBRANCH   8  26
TORSDOF 6
ENDMDL
MODEL 5
REMARK VINA RESULT:    -4.627      1.442      6.730
REMARK INTER + INTRA:          -5.827
REMARK INTER:                  -5.576
REMARK INTRA:                  -0.252
REMARK UNBOUND:                -0.254
REMARK SMILES O=c1c(O)c(-c2ccc(O)c(O)c2)oc2cc(O)cc(O)c12
REMARK SMILES IDX 5 1 3 2 2 3 1 4 22 5 20 6 19 7 17 8 16 9 15 10 14 11 6 12
REMARK SMILES IDX 7 13 8 14 9 15 13 16 11 17 10 18 12 20 4 22 21 24 18 26
REMARK H PARENT 10 19 12 21 4 23 21 25 18 27
REMARK Flexibility Score: inf
ROOT
ATOM      1  C   UNL     1      -3.721  -5.220 -28.672  1.00  0.00     0.180 A 
ATOM      2  C   UNL     1      -3.030  -6.413 -28.400  1.00  0.00     0.208 A 
ATOM      3  C   UNL     1      -2.852  -6.808 -27.064  1.00  0.00     0.238 A 
ATOM      4  O   UNL     1      -2.185  -7.848 -26.824  1.00  0.00    -0.285 OA
ATOM      5  C   UNL     1      -3.382  -6.014 -26.018  1.00  0.00     0.111 A 
ATOM      6  C   UNL     1      -3.297  -6.337 -24.631  1.00  0.00     0.134 A 
ATOM      7  C   UNL     1      -3.741  -5.414 -23.677  1.00  0.00     0.093 A 
ATOM      8  C   UNL     1      -4.327  -4.208 -24.061  1.00  0.00     0.123 A 
ATOM      9  C   UNL     1      -4.470  -3.907 -25.415  1.00  0.00     0.094 A 
ATOM     10  C   UNL     1      -4.003  -4.793 -26.390  1.00  0.00     0.146 A 
ATOM     11  O   UNL     1      -4.148  -4.463 -27.668  1.00  0.00    -0.452 OA
ENDROOT
BRANCH   1  12
ATOM     12  C   UNL     1      -3.969  -4.752 -30.055  1.00  0.00     0.025 A 
ATOM     13  C   UNL     1      -4.889  -5.404 -30.895  1.00  0.00     0.016 A 
ATOM     14  C   UNL     1      -5.125  -4.929 -32.187  1.00  0.00     0.051 A 
ATOM     15  C   UNL     1      -4.457  -3.790 -32.655  1.00  0.00     0.157 A 
ATOM     16  C   UNL     1      -3.318  -3.598 -30.521  1.00  0.00     0.062 A 
ATOM     17  C   UNL     1      -3.555  -3.121 -31.819  1.00  0.00     0.158 A 
BRANCH  15  18
ATOM     18  O   UNL     1      -4.689  -3.315 -33.944  1.00  0.00    -0.504 OA
ATOM     19  H   UNL     1      -5.390  -2.607 -34.130  1.00  0.00     0.293 HD
ENDBRANCH  15  18
BRANCH  17  20
ATOM     20  O   UNL     1      -2.896  -1.984 -32.283  1.00  0.00    -0.504 OA
ATOM     21  H   UNL     1      -2.697  -1.851 -33.268  1.00  0.00     0.293 HD
ENDBRANCH  17  20
ENDBRANCH   1  12
BRANCH   2  22
ATOM     22  O   UNL     1      -2.496  -7.171 -29.446  1.00  0.00    -0.502 OA
ATOM     23  H   UNL     1      -1.817  -7.907 -29.293  1.00  0.00     0.293 HD
ENDBRANCH   2  22
BRANCH   6  24
ATOM     24  O   UNL     1      -2.812  -7.555 -24.142  1.00  0.00    -0.507 OA
ATOM     25  H   UNL     1      -3.179  -8.035 -23.332  1.00  0.00     0.293 HD
ENDBRANCH   6  24
BRANCH   8  26
ATOM     26  O   UNL     1      -4.773  -3.320 -23.084  1.00  0.00    -0.508 OA
ATOM     27  H   UNL     1      -5.692  -3.409 -22.666  1.00  0.00     0.293 HD
ENDBRANCH   8  26
TORSDOF 6
ENDMDL
MODEL 6
REMARK VINA RESULT:    -4.600      3.813      6.763
REMARK INTER + INTRA:          -5.795
REMARK INTER:                  -5.473
REMARK INTRA:                  -0.322
REMARK UNBOUND:                -0.254
REMARK SMILES O=c1c(O)c(-c2ccc(O)c(O)c2)oc2cc(O)cc(O)c12
REMARK SMILES IDX 5 1 3 2 2 3 1 4 22 5 20 6 19 7 17 8 16 9 15 10 14 11 6 12
REMARK SMILES IDX 7 13 8 14 9 15 13 16 11 17 10 18 12 20 4 22 21 24 18 26
REMARK H PARENT 10 19 12 21 4 23 21 25 18 27
REMARK Flexibility Score: inf
ROOT
ATOM      1  C   UNL     1      -0.603  -6.143 -23.815  1.00  0.00     0.180 A 
ATOM      2  C   UNL     1      -1.347  -5.298 -22.974  1.00  0.00     0.208 A 
ATOM      3  C   UNL     1      -2.525  -4.712 -23.466  1.00  0.00     0.238 A 
ATOM      4  O   UNL     1      -3.157  -3.913 -22.727  1.00  0.00    -0.285 OA
ATOM      5  C   UNL     1      -2.952  -4.991 -24.787  1.00  0.00     0.111 A 
ATOM      6  C   UNL     1      -4.148  -4.485 -25.376  1.00  0.00     0.134 A 
ATOM      7  C   UNL     1      -4.404  -4.720 -26.733  1.00  0.00     0.093 A 
ATOM      8  C   UNL     1      -3.541  -5.497 -27.503  1.00  0.00     0.123 A 
ATOM      9  C   UNL     1      -2.398  -6.048 -26.923  1.00  0.00     0.094 A 
ATOM     10  C   UNL     1      -2.097  -5.800 -25.581  1.00  0.00     0.146 A 
ATOM     11  O   UNL     1      -0.994  -6.332 -25.070  1.00  0.00    -0.452 OA
ENDROOT
BRANCH   1  12
ATOM     12  C   UNL     1       0.635  -6.816 -23.359  1.00  0.00     0.025 A 
ATOM     13  C   UNL     1       0.610  -8.125 -22.847  1.00  0.00     0.016 A 
ATOM     14  C   UNL     1       1.794  -8.749 -22.446  1.00  0.00     0.051 A 
ATOM     15  C   UNL     1       3.020  -8.083 -22.563  1.00  0.00     0.157 A 
ATOM     16  C   UNL     1       1.869  -6.159 -23.494  1.00  0.00     0.062 A 
ATOM     17  C   UNL     1       3.058  -6.786 -23.092  1.00  0.00     0.158 A 
BRANCH  15  18
ATOM     18  O   UNL     1       4.202  -8.701 -22.163  1.00  0.00    -0.504 OA
ATOM     19  H   UNL     1       5.106  -8.375 -22.485  1.00  0.00     0.293 HD
ENDBRANCH  15  18
BRANCH  17  20
ATOM     20  O   UNL     1       4.279  -6.126 -23.214  1.00  0.00    -0.504 OA
ATOM     21  H   UNL     1       4.946  -6.097 -22.451  1.00  0.00     0.293 HD
ENDBRANCH  17  20
ENDBRANCH   1  12
BRANCH   2  22
ATOM     22  O   UNL     1      -0.896  -5.018 -21.680  1.00  0.00    -0.502 OA
ATOM     23  H   UNL     1      -1.185  -4.192 -21.170  1.00  0.00     0.293 HD
ENDBRANCH   2  22
BRANCH   6  24
ATOM     24  O   UNL     1      -5.125  -3.773 -24.672  1.00  0.00    -0.507 OA
ATOM     25  H   UNL     1      -5.062  -3.525 -23.696  1.00  0.00     0.293 HD
ENDBRANCH   6  24
BRANCH   8  26
ATOM     26  O   UNL     1      -3.835  -5.725 -28.847  1.00  0.00    -0.508 OA
ATOM     27  H   UNL     1      -3.129  -5.629 -29.567  1.00  0.00     0.293 HD
ENDBRANCH   8  26
TORSDOF 6
ENDMDL
MODEL 7
REMARK VINA RESULT:    -4.500      2.451      7.910
REMARK INTER + INTRA:          -5.675
REMARK INTER:                  -5.345
REMARK INTRA:                  -0.330
REMARK UNBOUND:                -0.254
REMARK SMILES O=c1c(O)c(-c2ccc(O)c(O)c2)oc2cc(O)cc(O)c12
REMARK SMILES IDX 5 1 3 2 2 3 1 4 22 5 20 6 19 7 17 8 16 9 15 10 14 11 6 12
REMARK SMILES IDX 7 13 8 14 9 15 13 16 11 17 10 18 12 20 4 22 21 24 18 26
REMARK H PARENT 10 19 12 21 4 23 21 25 18 27
REMARK Flexibility Score: inf
ROOT
ATOM      1  C   UNL     1      -2.401  -5.795 -25.824  1.00  0.00     0.180 A 
ATOM      2  C   UNL     1      -3.302  -5.089 -25.010  1.00  0.00     0.208 A 
ATOM      3  C   UNL     1      -3.028  -4.966 -23.638  1.00  0.00     0.238 A 
ATOM      4  O   UNL     1      -3.867  -4.380 -22.904  1.00  0.00    -0.285 OA
ATOM      5  C   UNL     1      -1.849  -5.537 -23.101  1.00  0.00     0.111 A 
ATOM      6  C   UNL     1      -1.451  -5.440 -21.734  1.00  0.00     0.134 A 
ATOM      7  C   UNL     1      -0.332  -6.154 -21.288  1.00  0.00     0.093 A 
ATOM      8  C   UNL     1       0.439  -6.908 -22.170  1.00  0.00     0.123 A 
ATOM      9  C   UNL     1       0.094  -6.961 -23.521  1.00  0.00     0.094 A 
ATOM     10  C   UNL     1      -1.038  -6.289 -23.990  1.00  0.00     0.146 A 
ATOM     11  O   UNL     1      -1.337  -6.375 -25.279  1.00  0.00    -0.452 OA
ENDROOT
BRANCH   1  12
ATOM     12  C   UNL     1      -2.608  -5.946 -27.283  1.00  0.00     0.025 A 
ATOM     13  C   UNL     1      -2.179  -4.960 -28.189  1.00  0.00     0.016 A 
ATOM     14  C   UNL     1      -2.363  -5.135 -29.563  1.00  0.00     0.051 A 
ATOM     15  C   UNL     1      -2.966  -6.301 -30.052  1.00  0.00     0.157 A 
ATOM     16  C   UNL     1      -3.193  -7.122 -27.780  1.00  0.00     0.062 A 
ATOM     17  C   UNL     1      -3.378  -7.298 -29.160  1.00  0.00     0.158 A 
BRANCH  15  18
ATOM     18  O   UNL     1      -3.153  -6.478 -31.422  1.00  0.00    -0.504 OA
ATOM     19  H   UNL     1      -3.914  -7.041 -31.784  1.00  0.00     0.293 HD
ENDBRANCH  15  18
BRANCH  17  20
ATOM     20  O   UNL     1      -3.972  -8.460 -29.648  1.00  0.00    -0.504 OA
ATOM     21  H   UNL     1      -4.002  -8.664 -30.641  1.00  0.00     0.293 HD
ENDBRANCH  17  20
ENDBRANCH   1  12
BRANCH   2  22
ATOM     22  O   UNL     1      -4.472  -4.552 -25.556  1.00  0.00    -0.502 OA
ATOM     23  H   UNL     1      -5.291  -4.351 -24.996  1.00  0.00     0.293 HD
ENDBRANCH   2  22
BRANCH   6  24
ATOM     24  O   UNL     1      -2.099  -4.641 -20.787  1.00  0.00    -0.507 OA
ATOM     25  H   UNL     1      -3.087  -4.431 -20.792  1.00  0.00     0.293 HD
ENDBRANCH   6  24
BRANCH   8  26
ATOM     26  O   UNL     1       1.556  -7.593 -21.694  1.00  0.00    -0.508 OA
ATOM     27  H   UNL     1       1.621  -7.893 -20.728  1.00  0.00     0.293 HD
ENDBRANCH   8  26
TORSDOF 6
ENDMDL
MODEL 8
REMARK VINA RESULT:    -4.487      3.489      7.912
REMARK INTER + INTRA:          -5.659
REMARK INTER:                  -5.539
REMARK INTRA:                  -0.120
REMARK UNBOUND:                -0.254
REMARK SMILES O=c1c(O)c(-c2ccc(O)c(O)c2)oc2cc(O)cc(O)c12
REMARK SMILES IDX 5 1 3 2 2 3 1 4 22 5 20 6 19 7 17 8 16 9 15 10 14 11 6 12
REMARK SMILES IDX 7 13 8 14 9 15 13 16 11 17 10 18 12 20 4 22 21 24 18 26
REMARK H PARENT 10 19 12 21 4 23 21 25 18 27
REMARK Flexibility Score: inf
ROOT
ATOM      1  C   UNL     1      -1.374  -6.347 -25.425  1.00  0.00     0.180 A 
ATOM      2  C   UNL     1      -0.738  -7.584 -25.625  1.00  0.00     0.208 A 
ATOM      3  C   UNL     1       0.177  -8.042 -24.664  1.00  0.00     0.238 A 
ATOM      4  O   UNL     1       0.785  -9.125 -24.875  1.00  0.00    -0.285 OA
ATOM      5  C   UNL     1       0.434  -7.266 -23.508  1.00  0.00     0.111 A 
ATOM      6  C   UNL     1       1.312  -7.650 -22.451  1.00  0.00     0.134 A 
ATOM      7  C   UNL     1       1.590  -6.745 -21.420  1.00  0.00     0.093 A 
ATOM      8  C   UNL     1       0.972  -5.496 -21.372  1.00  0.00     0.123 A 
ATOM      9  C   UNL     1       0.066  -5.133 -22.368  1.00  0.00     0.094 A 
ATOM     10  C   UNL     1      -0.204  -6.000 -23.430  1.00  0.00     0.146 A 
ATOM     11  O   UNL     1      -1.064  -5.611 -24.363  1.00  0.00    -0.452 OA
ENDROOT
BRANCH   1  12
ATOM     12  C   UNL     1      -2.370  -5.809 -26.380  1.00  0.00     0.025 A 
ATOM     13  C   UNL     1      -3.693  -5.541 -25.986  1.00  0.00     0.016 A 
ATOM     14  C   UNL     1      -4.608  -5.011 -26.898  1.00  0.00     0.051 A 
ATOM     15  C   UNL     1      -4.214  -4.728 -28.212  1.00  0.00     0.157 A 
ATOM     16  C   UNL     1      -1.974  -5.505 -27.693  1.00  0.00     0.062 A 
ATOM     17  C   UNL     1      -2.894  -4.972 -28.609  1.00  0.00     0.158 A 
BRANCH  15  18
ATOM     18  O   UNL     1      -5.125  -4.201 -29.125  1.00  0.00    -0.504 OA
ATOM     19  H   UNL     1      -5.928  -3.662 -28.822  1.00  0.00     0.293 HD
ENDBRANCH  15  18
BRANCH  17  20
ATOM     20  O   UNL     1      -2.501  -4.684 -29.915  1.00  0.00    -0.504 OA
ATOM     21  H   UNL     1      -2.683  -5.326 -30.678  1.00  0.00     0.293 HD
ENDBRANCH  17  20
ENDBRANCH   1  12
BRANCH   2  22
ATOM     22  O   UNL     1      -0.990  -8.325 -26.783  1.00  0.00    -0.502 OA
ATOM     23  H   UNL     1      -0.247  -8.680 -27.374  1.00  0.00     0.293 HD
ENDBRANCH   2  22
BRANCH   6  24
ATOM     24  O   UNL     1       1.911  -8.910 -22.353  1.00  0.00    -0.507 OA
ATOM     25  H   UNL     1       1.669  -9.707 -22.924  1.00  0.00     0.293 HD
ENDBRANCH   6  24
BRANCH   8  26
ATOM     26  O   UNL     1       1.261  -4.627 -20.322  1.00  0.00    -0.508 OA
ATOM     27  H   UNL     1       0.578  -3.956 -19.987  1.00  0.00     0.293 HD
ENDBRANCH   8  26
TORSDOF 6
ENDMDL
MODEL 9
REMARK VINA RESULT:    -4.331      4.068      6.821
REMARK INTER + INTRA:          -5.471
REMARK INTER:                  -5.154
REMARK INTRA:                  -0.317
REMARK UNBOUND:                -0.254
REMARK SMILES O=c1c(O)c(-c2ccc(O)c(O)c2)oc2cc(O)cc(O)c12
REMARK SMILES IDX 5 1 3 2 2 3 1 4 22 5 20 6 19 7 17 8 16 9 15 10 14 11 6 12
REMARK SMILES IDX 7 13 8 14 9 15 13 16 11 17 10 18 12 20 4 22 21 24 18 26
REMARK H PARENT 10 19 12 21 4 23 21 25 18 27
REMARK Flexibility Score: inf
ROOT
ATOM      1  C   UNL     1      -0.568  -6.628 -23.908  1.00  0.00     0.180 A 
ATOM      2  C   UNL     1      -0.965  -7.265 -25.096  1.00  0.00     0.208 A 
ATOM      3  C   UNL     1      -2.140  -6.839 -25.737  1.00  0.00     0.238 A 
ATOM      4  O   UNL     1      -2.520  -7.448 -26.771  1.00  0.00    -0.285 OA
ATOM      5  C   UNL     1      -2.893  -5.772 -25.190  1.00  0.00     0.111 A 
ATOM      6  C   UNL     1      -4.077  -5.232 -25.775  1.00  0.00     0.134 A 
ATOM      7  C   UNL     1      -4.814  -4.265 -25.080  1.00  0.00     0.093 A 
ATOM      8  C   UNL     1      -4.375  -3.772 -23.852  1.00  0.00     0.123 A 
ATOM      9  C   UNL     1      -3.187  -4.250 -23.298  1.00  0.00     0.094 A 
ATOM     10  C   UNL     1      -2.449  -5.241 -23.951  1.00  0.00     0.146 A 
ATOM     11  O   UNL     1      -1.331  -5.676 -23.384  1.00  0.00    -0.452 OA
ENDROOT
BRANCH   1  12
ATOM     12  C   UNL     1       0.671  -7.005 -23.189  1.00  0.00     0.025 A 
ATOM     13  C   UNL     1       0.687  -8.063 -22.262  1.00  0.00     0.016 A 
ATOM     14  C   UNL     1       1.873  -8.416 -21.614  1.00  0.00     0.051 A 
ATOM     15  C   UNL     1       3.061  -7.729 -21.890  1.00  0.00     0.157 A 
ATOM     16  C   UNL     1       1.870  -6.333 -23.478  1.00  0.00     0.062 A 
ATOM     17  C   UNL     1       3.061  -6.688 -22.827  1.00  0.00     0.158 A 
BRANCH  15  18
ATOM     18  O   UNL     1       4.246  -8.078 -21.245  1.00  0.00    -0.504 OA
ATOM     19  H   UNL     1       4.462  -7.739 -20.314  1.00  0.00     0.293 HD
ENDBRANCH  15  18
BRANCH  17  20
ATOM     20  O   UNL     1       4.246  -6.010 -23.107  1.00  0.00    -0.504 OA
ATOM     21  H   UNL     1       4.760  -6.171 -23.966  1.00  0.00     0.293 HD
ENDBRANCH  17  20
ENDBRANCH   1  12
BRANCH   2  22
ATOM     22  O   UNL     1      -0.218  -8.330 -25.607  1.00  0.00    -0.502 OA
ATOM     23  H   UNL     1       0.612  -8.683 -25.147  1.00  0.00     0.293 HD
ENDBRANCH   2  22
BRANCH   6  24
ATOM     24  O   UNL     1      -4.555  -5.588 -27.040  1.00  0.00    -0.507 OA
ATOM     25  H   UNL     1      -4.184  -6.340 -27.604  1.00  0.00     0.293 HD
ENDBRANCH   6  24
BRANCH   8  26
ATOM     26  O   UNL     1      -5.125  -2.798 -23.195  1.00  0.00    -0.508 OA
ATOM     27  H   UNL     1      -6.136  -2.851 -23.147  1.00  0.00     0.293 HD
ENDBRANCH   8  26
TORSDOF 6
ENDMDL
