MODEL 1
REMARK VINA RESULT:    -1.455      0.000      0.000
REMARK INTER + INTRA:          -4.891
REMARK INTER:                  -3.667
REMARK INTRA:                  -1.224
REMARK UNBOUND:                -1.224
REMARK SMILES CCCCCCCCCCCCCCCCCCCCCCCCCCCC(=O)[O-]
REMARK SMILES IDX 15 1 16 2 17 3 18 4 19 5 20 6 21 7 22 8 23 9 24 10 25 11
REMARK SMILES IDX 26 12 27 13 28 14 29 15 30 16 14 17 13 18 12 19 11 20 10 21
REMARK SMILES IDX 9 22 8 23 7 24 6 25 5 26 4 27 3 28 2 29 1 30
REMARK H PARENT
REMARK Flexibility Score: inf
ROOT
ATOM      1  C   UNL     1     -16.877  -6.089 -20.739  1.00  0.00     0.000 C 
ENDROOT
BRANCH   1   2
ATOM      2  C   UNL     1     -15.725  -5.447 -19.951  1.00  0.00     0.000 C 
BRANCH   2   3
ATOM      3  C   UNL     1     -14.419  -6.256 -20.045  1.00  0.00     0.000 C 
BRANCH   3   4
ATOM      4  C   UNL     1     -13.529  -6.146 -18.789  1.00  0.00     0.000 C 
BRANCH   4   5
ATOM      5  C   UNL     1     -13.556  -4.736 -18.170  1.00  0.00     0.000 C 
BRANCH   5   6
ATOM      6  C   UNL     1     -14.002  -4.726 -16.694  1.00  0.00     0.000 C 
BRANCH   6   7
ATOM      7  C   UNL     1     -14.399  -3.347 -16.136  1.00  0.00     0.000 C 
BRANCH   7   8
ATOM      8  C   UNL     1     -13.206  -2.384 -16.002  1.00  0.00     0.000 C 
BRANCH   8   9
ATOM      9  C   UNL     1     -12.533  -2.474 -14.623  1.00  0.00     0.000 C 
BRANCH   9  10
ATOM     10  C   UNL     1     -13.447  -3.124 -13.571  1.00  0.00     0.000 C 
BRANCH  10  11
ATOM     11  C   UNL     1     -12.629  -3.904 -12.532  1.00  0.00     0.000 C 
BRANCH  11  12
ATOM     12  C   UNL     1     -12.687  -3.279 -11.126  1.00  0.00     0.006 C 
BRANCH  12  13
ATOM     13  C   UNL     1     -12.629  -4.308  -9.982  1.00  0.00     0.053 C 
BRANCH  13  14
ATOM     14  C   UNL     1     -13.990  -4.698  -9.489  1.00  0.00     0.041 C 
ATOM     15  O   UNL     1     -14.765  -3.826  -9.017  1.00  0.00    -0.550 OA
ATOM     16  O   UNL     1     -14.420  -6.015  -9.587  1.00  0.00    -0.550 OA
ENDBRANCH  13  14
ENDBRANCH  12  13
ENDBRANCH  11  12
ENDBRANCH  10  11
ENDBRANCH   9  10
ENDBRANCH   8   9
ENDBRANCH   7   8
ENDBRANCH   6   7
ENDBRANCH   5   6
ENDBRANCH   4   5
ENDBRANCH   3   4
ENDBRANCH   2   3
ENDBRANCH   1   2
BRANCH   1  17
ATOM     17  C   UNL     1     -16.816  -5.791 -22.247  1.00  0.00     0.000 C 
BRANCH  17  18
ATOM     18  C   UNL     1     -17.134  -7.012 -23.136  1.00  0.00     0.000 C 
BRANCH  18  19
ATOM     19  C   UNL     1     -16.775  -6.757 -24.611  1.00  0.00     0.000 C 
BRANCH  19  20
ATOM     20  C   UNL     1     -15.525  -7.538 -25.071  1.00  0.00     0.000 C 
BRANCH  20  21
ATOM     21  C   UNL     1     -15.844  -8.824 -25.858  1.00  0.00     0.000 C 
BRANCH  21  22
ATOM     22  C   UNL     1     -16.387  -9.994 -25.015  1.00  0.00    -0.000 C 
BRANCH  22  23
ATOM     23  C   UNL     1     -15.631 -11.326 -25.183  1.00  0.00    -0.000 C 
BRANCH  23  24
ATOM     24  C   UNL     1     -16.552 -12.491 -25.579  1.00  0.00    -0.000 C 
BRANCH  24  25
ATOM     25  C   UNL     1     -15.835 -13.835 -25.407  1.00  0.00    -0.000 C 
BRANCH  25  26
ATOM     26  C   UNL     1     -14.438 -13.644 -24.800  1.00  0.00    -0.000 C 
BRANCH  26  27
ATOM     27  C   UNL     1     -13.534 -14.876 -24.980  1.00  0.00    -0.000 C 
BRANCH  27  28
ATOM     28  C   UNL     1     -12.125 -14.534 -25.512  1.00  0.00    -0.000 C 
BRANCH  28  29
ATOM     29  C   UNL     1     -12.071 -14.525 -27.048  1.00  0.00    -0.003 C 
ATOM     30  C   UNL     1     -13.350 -15.101 -27.647  1.00  0.00     0.004 C 
ENDBRANCH  28  29
ENDBRANCH  27  28
ENDBRANCH  26  27
ENDBRANCH  25  26
ENDBRANCH  24  25
ENDBRANCH  23  24
ENDBRANCH  22  23
ENDBRANCH  21  22
ENDBRANCH  20  21
ENDBRANCH  19  20
ENDBRANCH  18  19
ENDBRANCH  17  18
ENDBRANCH   1  17
TORSDOF 26
ENDMDL
MODEL 2
REMARK VINA RESULT:    -0.360      5.117     14.197
REMARK INTER + INTRA:          -2.132
REMARK INTER:                  -0.775
REMARK INTRA:                  -1.357
REMARK UNBOUND:                -1.224
REMARK SMILES CCCCCCCCCCCCCCCCCCCCCCCCCCCC(=O)[O-]
REMARK SMILES IDX 15 1 16 2 17 3 18 4 19 5 20 6 21 7 22 8 23 9 24 10 25 11
REMARK SMILES IDX 26 12 27 13 28 14 29 15 30 16 14 17 13 18 12 19 11 20 10 21
REMARK SMILES IDX 9 22 8 23 7 24 6 25 5 26 4 27 3 28 2 29 1 30
REMARK H PARENT
REMARK Flexibility Score: inf
ROOT
ATOM      1  C   UNL     1     -16.299  -5.031 -21.069  1.00  0.00     0.000 C 
ENDROOT
BRANCH   1   2
ATOM      2  C   UNL     1     -17.227  -5.535 -22.185  1.00  0.00     0.000 C 
BRANCH   2   3
ATOM      3  C   UNL     1     -16.674  -6.783 -22.897  1.00  0.00     0.000 C 
BRANCH   3   4
ATOM      4  C   UNL     1     -17.102  -6.892 -24.376  1.00  0.00     0.000 C 
BRANCH   4   5
ATOM      5  C   UNL     1     -15.926  -7.249 -25.304  1.00  0.00     0.000 C 
BRANCH   5   6
ATOM      6  C   UNL     1     -16.030  -8.666 -25.906  1.00  0.00     0.000 C 
BRANCH   6   7
ATOM      7  C   UNL     1     -15.597  -9.810 -24.971  1.00  0.00     0.000 C 
BRANCH   7   8
ATOM      8  C   UNL     1     -16.166 -11.178 -25.390  1.00  0.00     0.000 C 
BRANCH   8   9
ATOM      9  C   UNL     1     -15.189 -12.330 -25.107  1.00  0.00     0.000 C 
BRANCH   9  10
ATOM     10  C   UNL     1     -15.823 -13.707 -25.362  1.00  0.00     0.000 C 
BRANCH  10  11
ATOM     11  C   UNL     1     -14.749 -14.792 -25.518  1.00  0.00     0.000 C 
BRANCH  11  12
ATOM     12  C   UNL     1     -13.538 -14.580 -24.590  1.00  0.00     0.006 C 
BRANCH  12  13
ATOM     13  C   UNL     1     -12.181 -14.859 -25.261  1.00  0.00     0.053 C 
BRANCH  13  14
ATOM     14  C   UNL     1     -12.110 -14.330 -26.662  1.00  0.00     0.041 C 
ATOM     15  O   UNL     1     -12.021 -15.125 -27.634  1.00  0.00    -0.550 OA
ATOM     16  O   UNL     1     -12.186 -12.964 -26.900  1.00  0.00    -0.550 OA
ENDBRANCH  13  14
ENDBRANCH  12  13
ENDBRANCH  11  12
ENDBRANCH  10  11
ENDBRANCH   9  10
ENDBRANCH   8   9
ENDBRANCH   7   8
ENDBRANCH   6   7
ENDBRANCH   5   6
ENDBRANCH   4   5
ENDBRANCH   3   4
ENDBRANCH   2   3
ENDBRANCH   1   2
BRANCH   1  17
ATOM     17  C   UNL     1     -16.400  -5.861 -19.778  1.00  0.00     0.000 C 
BRANCH  17  18
ATOM     18  C   UNL     1     -15.180  -6.772 -19.528  1.00  0.00     0.000 C 
BRANCH  18  19
ATOM     19  C   UNL     1     -13.869  -5.968 -19.449  1.00  0.00     0.000 C 
BRANCH  19  20
ATOM     20  C   UNL     1     -13.401  -5.716 -18.000  1.00  0.00     0.000 C 
BRANCH  20  21
ATOM     21  C   UNL     1     -14.127  -4.552 -17.299  1.00  0.00     0.000 C 
BRANCH  21  22
ATOM     22  C   UNL     1     -14.003  -4.526 -15.764  1.00  0.00    -0.000 C 
BRANCH  22  23
ATOM     23  C   UNL     1     -14.129  -3.132 -15.122  1.00  0.00    -0.000 C 
BRANCH  23  24
ATOM     24  C   UNL     1     -12.958  -2.796 -14.185  1.00  0.00    -0.000 C 
BRANCH  24  25
ATOM     25  C   UNL     1     -12.859  -3.818 -13.046  1.00  0.00    -0.000 C 
BRANCH  25  26
ATOM     26  C   UNL     1     -12.771  -3.120 -11.682  1.00  0.00    -0.000 C 
BRANCH  26  27
ATOM     27  C   UNL     1     -12.421  -4.086 -10.537  1.00  0.00    -0.000 C 
BRANCH  27  28
ATOM     28  C   UNL     1     -13.042  -3.685  -9.182  1.00  0.00    -0.000 C 
BRANCH  28  29
ATOM     29  C   UNL     1     -14.473  -4.223  -9.018  1.00  0.00    -0.003 C 
ATOM     30  C   UNL     1     -14.484  -5.747  -8.959  1.00  0.00     0.004 C 
ENDBRANCH  28  29
ENDBRANCH  27  28
ENDBRANCH  26  27
ENDBRANCH  25  26
ENDBRANCH  24  25
ENDBRANCH  23  24
ENDBRANCH  22  23
ENDBRANCH  21  22
ENDBRANCH  20  21
ENDBRANCH  19  20
ENDBRANCH  18  19
ENDBRANCH  17  18
ENDBRANCH   1  17
TORSDOF 26
ENDMDL
MODEL 3
REMARK VINA RESULT:     0.726      4.888     13.654
REMARK INTER + INTRA:           0.604
REMARK INTER:                   1.266
REMARK INTRA:                  -0.662
REMARK UNBOUND:                -1.224
REMARK SMILES CCCCCCCCCCCCCCCCCCCCCCCCCCCC(=O)[O-]
REMARK SMILES IDX 15 1 16 2 17 3 18 4 19 5 20 6 21 7 22 8 23 9 24 10 25 11
REMARK SMILES IDX 26 12 27 13 28 14 29 15 30 16 14 17 13 18 12 19 11 20 10 21
REMARK SMILES IDX 9 22 8 23 7 24 6 25 5 26 4 27 3 28 2 29 1 30
REMARK H PARENT
REMARK Flexibility Score: inf
ROOT
ATOM      1  C   UNL     1     -14.876  -5.515 -20.145  1.00  0.00     0.000 C 
ENDROOT
BRANCH   1   2
ATOM      2  C   UNL     1     -16.390  -5.425 -19.896  1.00  0.00     0.000 C 
BRANCH   2   3
ATOM      3  C   UNL     1     -17.213  -6.153 -20.974  1.00  0.00     0.000 C 
BRANCH   3   4
ATOM      4  C   UNL     1     -16.777  -5.820 -22.417  1.00  0.00     0.000 C 
BRANCH   4   5
ATOM      5  C   UNL     1     -16.989  -7.000 -23.383  1.00  0.00     0.000 C 
BRANCH   5   6
ATOM      6  C   UNL     1     -16.921  -6.593 -24.869  1.00  0.00     0.000 C 
BRANCH   6   7
ATOM      7  C   UNL     1     -15.988  -7.451 -25.744  1.00  0.00     0.000 C 
BRANCH   7   8
ATOM      8  C   UNL     1     -15.565  -8.766 -25.065  1.00  0.00     0.000 C 
BRANCH   8   9
ATOM      9  C   UNL     1     -16.070 -10.004 -25.822  1.00  0.00     0.000 C 
BRANCH   9  10
ATOM     10  C   UNL     1     -16.143 -11.248 -24.921  1.00  0.00     0.000 C 
BRANCH  10  11
ATOM     11  C   UNL     1     -14.914 -12.147 -25.115  1.00  0.00     0.000 C 
BRANCH  11  12
ATOM     12  C   UNL     1     -15.279 -13.623 -25.360  1.00  0.00     0.006 C 
BRANCH  12  13
ATOM     13  C   UNL     1     -14.083 -14.587 -25.265  1.00  0.00     0.053 C 
BRANCH  13  14
ATOM     14  C   UNL     1     -12.850 -14.042 -25.921  1.00  0.00     0.041 C 
ATOM     15  O   UNL     1     -12.017 -13.378 -25.250  1.00  0.00    -0.550 OA
ATOM     16  O   UNL     1     -12.597 -14.300 -27.262  1.00  0.00    -0.550 OA
ENDBRANCH  13  14
ENDBRANCH  12  13
ENDBRANCH  11  12
ENDBRANCH  10  11
ENDBRANCH   9  10
ENDBRANCH   8   9
ENDBRANCH   7   8
ENDBRANCH   6   7
ENDBRANCH   5   6
ENDBRANCH   4   5
ENDBRANCH   3   4
ENDBRANCH   2   3
ENDBRANCH   1   2
BRANCH   1  17
ATOM     17  C   UNL     1     -14.170  -6.522 -19.221  1.00  0.00     0.000 C 
BRANCH  17  18
ATOM     18  C   UNL     1     -13.583  -5.887 -17.942  1.00  0.00     0.000 C 
BRANCH  18  19
ATOM     19  C   UNL     1     -13.810  -6.775 -16.705  1.00  0.00     0.000 C 
BRANCH  19  20
ATOM     20  C   UNL     1     -13.476  -6.058 -15.379  1.00  0.00     0.000 C 
BRANCH  20  21
ATOM     21  C   UNL     1     -14.276  -4.761 -15.149  1.00  0.00     0.000 C 
BRANCH  21  22
ATOM     22  C   UNL     1     -14.301  -3.783 -16.340  1.00  0.00    -0.000 C 
BRANCH  22  23
ATOM     23  C   UNL     1     -13.103  -2.818 -16.418  1.00  0.00    -0.000 C 
BRANCH  23  24
ATOM     24  C   UNL     1     -13.401  -1.444 -15.798  1.00  0.00    -0.000 C 
BRANCH  24  25
ATOM     25  C   UNL     1     -13.212  -1.479 -14.276  1.00  0.00    -0.000 C 
BRANCH  25  26
ATOM     26  C   UNL     1     -12.100  -2.460 -13.879  1.00  0.00    -0.000 C 
BRANCH  26  27
ATOM     27  C   UNL     1     -12.061  -2.740 -12.366  1.00  0.00    -0.000 C 
BRANCH  27  28
ATOM     28  C   UNL     1     -12.594  -4.137 -11.984  1.00  0.00    -0.000 C 
BRANCH  28  29
ATOM     29  C   UNL     1     -13.757  -4.061 -10.982  1.00  0.00    -0.003 C 
ATOM     30  C   UNL     1     -13.362  -4.656  -9.634  1.00  0.00     0.004 C 
ENDBRANCH  28  29
ENDBRANCH  27  28
ENDBRANCH  26  27
ENDBRANCH  25  26
ENDBRANCH  24  25
ENDBRANCH  23  24
ENDBRANCH  22  23
ENDBRANCH  21  22
ENDBRANCH  20  21
ENDBRANCH  19  20
ENDBRANCH  18  19
ENDBRANCH  17  18
ENDBRANCH   1  17
TORSDOF 26
ENDMDL
MODEL 4
REMARK VINA RESULT:     0.828      4.788     14.227
REMARK INTER + INTRA:           0.862
REMARK INTER:                   1.710
REMARK INTRA:                  -0.848
REMARK UNBOUND:                -1.224
REMARK SMILES CCCCCCCCCCCCCCCCCCCCCCCCCCCC(=O)[O-]
REMARK SMILES IDX 15 1 16 2 17 3 18 4 19 5 20 6 21 7 22 8 23 9 24 10 25 11
REMARK SMILES IDX 26 12 27 13 28 14 29 15 30 16 14 17 13 18 12 19 11 20 10 21
REMARK SMILES IDX 9 22 8 23 7 24 6 25 5 26 4 27 3 28 2 29 1 30
REMARK H PARENT
REMARK Flexibility Score: inf
ROOT
ATOM      1  C   UNL     1     -14.255  -5.915 -20.239  1.00  0.00     0.000 C 
ENDROOT
BRANCH   1   2
ATOM      2  C   UNL     1     -15.691  -5.770 -19.711  1.00  0.00     0.000 C 
BRANCH   2   3
ATOM      3  C   UNL     1     -16.740  -6.353 -20.675  1.00  0.00     0.000 C 
BRANCH   3   4
ATOM      4  C   UNL     1     -16.531  -5.934 -22.146  1.00  0.00     0.000 C 
BRANCH   4   5
ATOM      5  C   UNL     1     -17.166  -6.927 -23.137  1.00  0.00     0.000 C 
BRANCH   5   6
ATOM      6  C   UNL     1     -16.790  -6.648 -24.607  1.00  0.00     0.000 C 
BRANCH   6   7
ATOM      7  C   UNL     1     -15.928  -7.732 -25.281  1.00  0.00     0.000 C 
BRANCH   7   8
ATOM      8  C   UNL     1     -15.994  -9.090 -24.560  1.00  0.00     0.000 C 
BRANCH   8   9
ATOM      9  C   UNL     1     -16.122 -10.267 -25.539  1.00  0.00     0.000 C 
BRANCH   9  10
ATOM     10  C   UNL     1     -15.422 -11.534 -25.021  1.00  0.00     0.000 C 
BRANCH  10  11
ATOM     11  C   UNL     1     -16.204 -12.798 -25.407  1.00  0.00     0.000 C 
BRANCH  11  12
ATOM     12  C   UNL     1     -15.441 -14.098 -25.094  1.00  0.00     0.006 C 
BRANCH  12  13
ATOM     13  C   UNL     1     -14.447 -14.519 -26.191  1.00  0.00     0.053 C 
BRANCH  13  14
ATOM     14  C   UNL     1     -13.101 -13.881 -26.026  1.00  0.00     0.041 C 
ATOM     15  O   UNL     1     -12.380 -13.658 -27.034  1.00  0.00    -0.550 OA
ATOM     16  O   UNL     1     -12.658 -13.493 -24.768  1.00  0.00    -0.550 OA
ENDBRANCH  13  14
ENDBRANCH  12  13
ENDBRANCH  11  12
ENDBRANCH  10  11
ENDBRANCH   9  10
ENDBRANCH   8   9
ENDBRANCH   7   8
ENDBRANCH   6   7
ENDBRANCH   5   6
ENDBRANCH   4   5
ENDBRANCH   3   4
ENDBRANCH   2   3
ENDBRANCH   1   2
BRANCH   1  17
ATOM     17  C   UNL     1     -13.190  -5.765 -19.140  1.00  0.00     0.000 C 
BRANCH  17  18
ATOM     18  C   UNL     1     -13.759  -5.310 -17.779  1.00  0.00     0.000 C 
BRANCH  18  19
ATOM     19  C   UNL     1     -13.790  -6.461 -16.757  1.00  0.00     0.000 C 
BRANCH  19  20
ATOM     20  C   UNL     1     -14.165  -5.994 -15.334  1.00  0.00     0.000 C 
BRANCH  20  21
ATOM     21  C   UNL     1     -13.285  -4.849 -14.798  1.00  0.00     0.000 C 
BRANCH  21  22
ATOM     22  C   UNL     1     -14.013  -3.815 -13.918  1.00  0.00    -0.000 C 
BRANCH  22  23
ATOM     23  C   UNL     1     -13.094  -2.914 -13.073  1.00  0.00    -0.000 C 
BRANCH  23  24
ATOM     24  C   UNL     1     -12.239  -3.704 -12.069  1.00  0.00    -0.000 C 
BRANCH  24  25
ATOM     25  C   UNL     1     -11.875  -2.835 -10.860  1.00  0.00    -0.000 C 
BRANCH  25  26
ATOM     26  C   UNL     1     -12.896  -3.007  -9.727  1.00  0.00    -0.000 C 
BRANCH  26  27
ATOM     27  C   UNL     1     -14.167  -3.751 -10.173  1.00  0.00    -0.000 C 
BRANCH  27  28
ATOM     28  C   UNL     1     -14.585  -4.887  -9.216  1.00  0.00    -0.000 C 
BRANCH  28  29
ATOM     29  C   UNL     1     -13.733  -6.152  -9.409  1.00  0.00    -0.003 C 
ATOM     30  C   UNL     1     -12.316  -5.947  -8.883  1.00  0.00     0.004 C 
ENDBRANCH  28  29
ENDBRANCH  27  28
ENDBRANCH  26  27
ENDBRANCH  25  26
ENDBRANCH  24  25
ENDBRANCH  23  24
ENDBRANCH  22  23
ENDBRANCH  21  22
ENDBRANCH  20  21
ENDBRANCH  19  20
ENDBRANCH  18  19
ENDBRANCH  17  18
ENDBRANCH   1  17
TORSDOF 26
ENDMDL
MODEL 5
REMARK VINA RESULT:     0.930      4.934     13.890
REMARK INTER + INTRA:           1.120
REMARK INTER:                   2.763
REMARK INTRA:                  -1.643
REMARK UNBOUND:                -1.224
REMARK SMILES CCCCCCCCCCCCCCCCCCCCCCCCCCCC(=O)[O-]
REMARK SMILES IDX 15 1 16 2 17 3 18 4 19 5 20 6 21 7 22 8 23 9 24 10 25 11
REMARK SMILES IDX 26 12 27 13 28 14 29 15 30 16 14 17 13 18 12 19 11 20 10 21
REMARK SMILES IDX 9 22 8 23 7 24 6 25 5 26 4 27 3 28 2 29 1 30
REMARK H PARENT
REMARK Flexibility Score: inf
ROOT
ATOM      1  C   UNL     1     -13.173  -4.774 -18.617  1.00  0.00     0.000 C 
ENDROOT
BRANCH   1   2
ATOM      2  C   UNL     1     -13.654  -5.667 -19.772  1.00  0.00     0.000 C 
BRANCH   2   3
ATOM      3  C   UNL     1     -14.907  -6.484 -19.408  1.00  0.00     0.000 C 
BRANCH   3   4
ATOM      4  C   UNL     1     -16.231  -5.799 -19.806  1.00  0.00     0.000 C 
BRANCH   4   5
ATOM      5  C   UNL     1     -16.251  -5.372 -21.286  1.00  0.00     0.000 C 
BRANCH   5   6
ATOM      6  C   UNL     1     -17.037  -6.342 -22.191  1.00  0.00     0.000 C 
BRANCH   6   7
ATOM      7  C   UNL     1     -16.609  -6.353 -23.670  1.00  0.00     0.000 C 
BRANCH   7   8
ATOM      8  C   UNL     1     -16.890  -7.695 -24.369  1.00  0.00     0.000 C 
BRANCH   8   9
ATOM      9  C   UNL     1     -15.722  -8.147 -25.260  1.00  0.00     0.000 C 
BRANCH   9  10
ATOM     10  C   UNL     1     -15.975  -9.523 -25.897  1.00  0.00     0.000 C 
BRANCH  10  11
ATOM     11  C   UNL     1     -15.944 -10.638 -24.842  1.00  0.00     0.000 C 
BRANCH  11  12
ATOM     12  C   UNL     1     -15.700 -12.033 -25.445  1.00  0.00     0.006 C 
BRANCH  12  13
ATOM     13  C   UNL     1     -14.232 -12.492 -25.384  1.00  0.00     0.053 C 
BRANCH  13  14
ATOM     14  C   UNL     1     -14.098 -13.982 -25.280  1.00  0.00     0.041 C 
ATOM     15  O   UNL     1     -15.109 -14.719 -25.418  1.00  0.00    -0.550 OA
ATOM     16  O   UNL     1     -12.853 -14.561 -25.072  1.00  0.00    -0.550 OA
ENDBRANCH  13  14
ENDBRANCH  12  13
ENDBRANCH  11  12
ENDBRANCH  10  11
ENDBRANCH   9  10
ENDBRANCH   8   9
ENDBRANCH   7   8
ENDBRANCH   6   7
ENDBRANCH   5   6
ENDBRANCH   4   5
ENDBRANCH   3   4
ENDBRANCH   2   3
ENDBRANCH   1   2
BRANCH   1  17
ATOM     17  C   UNL     1     -13.531  -5.336 -17.230  1.00  0.00     0.000 C 
BRANCH  17  18
ATOM     18  C   UNL     1     -14.130  -4.287 -16.270  1.00  0.00     0.000 C 
BRANCH  18  19
ATOM     19  C   UNL     1     -13.885  -2.849 -16.765  1.00  0.00     0.000 C 
BRANCH  19  20
ATOM     20  C   UNL     1     -12.669  -2.178 -16.091  1.00  0.00     0.000 C 
BRANCH  20  21
ATOM     21  C   UNL     1     -12.863  -1.894 -14.589  1.00  0.00     0.000 C 
BRANCH  21  22
ATOM     22  C   UNL     1     -12.151  -2.874 -13.637  1.00  0.00    -0.000 C 
BRANCH  22  23
ATOM     23  C   UNL     1     -13.021  -4.037 -13.126  1.00  0.00    -0.000 C 
BRANCH  23  24
ATOM     24  C   UNL     1     -14.411  -3.583 -12.652  1.00  0.00    -0.000 C 
BRANCH  24  25
ATOM     25  C   UNL     1     -14.468  -3.510 -11.121  1.00  0.00    -0.000 C 
BRANCH  25  26
ATOM     26  C   UNL     1     -13.087  -3.195 -10.530  1.00  0.00    -0.000 C 
BRANCH  26  27
ATOM     27  C   UNL     1     -12.676  -4.174  -9.416  1.00  0.00    -0.000 C 
BRANCH  27  28
ATOM     28  C   UNL     1     -13.848  -5.020  -8.875  1.00  0.00    -0.000 C 
BRANCH  28  29
ATOM     29  C   UNL     1     -13.547  -6.526  -8.925  1.00  0.00    -0.003 C 
ATOM     30  C   UNL     1     -12.046  -6.790  -8.875  1.00  0.00     0.004 C 
ENDBRANCH  28  29
ENDBRANCH  27  28
ENDBRANCH  26  27
ENDBRANCH  25  26
ENDBRANCH  24  25
ENDBRANCH  23  24
ENDBRANCH  22  23
ENDBRANCH  21  22
ENDBRANCH  20  21
ENDBRANCH  19  20
ENDBRANCH  18  19
ENDBRANCH  17  18
ENDBRANCH   1  17
TORSDOF 26
ENDMDL
