MODEL 1
REMARK VINA RESULT:    -4.163      0.000      0.000
REMARK INTER + INTRA:         -11.613
REMARK INTER:                  -9.030
REMARK INTRA:                  -2.583
REMARK UNBOUND:                -2.583
REMARK SMILES CCCCCCCCCCCCCCCCCCCCCC(=O)[O-]
REMARK SMILES IDX 12 1 11 2 10 3 9 4 8 5 7 6 6 7 5 8 4 9 3 10 2 11 1 12 13 13
REMARK SMILES IDX 14 14 15 15 16 16 17 17 18 18 19 19 20 20 21 21 22 22 23 23
REMARK SMILES IDX 24 24
REMARK H PARENT
REMARK Flexibility Score: inf
ROOT
ATOM      1  C   UNL     1      12.903  25.265  33.404  1.00  0.00     0.000 C 
ENDROOT
BRANCH   1   2
ATOM      2  C   UNL     1      12.520  26.551  34.159  1.00  0.00     0.000 C 
BRANCH   2   3
ATOM      3  C   UNL     1      13.357  26.775  35.429  1.00  0.00     0.000 C 
BRANCH   3   4
ATOM      4  C   UNL     1      14.162  28.086  35.390  1.00  0.00    -0.000 C 
BRANCH   4   5
ATOM      5  C   UNL     1      15.692  27.913  35.370  1.00  0.00    -0.000 C 
BRANCH   5   6
ATOM      6  C   UNL     1      16.326  28.339  34.035  1.00  0.00    -0.000 C 
BRANCH   6   7
ATOM      7  C   UNL     1      15.977  29.795  33.660  1.00  0.00    -0.000 C 
BRANCH   7   8
ATOM      8  C   UNL     1      16.742  30.320  32.429  1.00  0.00    -0.000 C 
BRANCH   8   9
ATOM      9  C   UNL     1      16.384  31.755  32.007  1.00  0.00    -0.000 C 
BRANCH   9  10
ATOM     10  C   UNL     1      16.610  32.008  30.510  1.00  0.00    -0.000 C 
BRANCH  10  11
ATOM     11  C   UNL     1      16.474  30.708  29.708  1.00  0.00    -0.003 C 
ATOM     12  C   UNL     1      16.510  30.979  28.206  1.00  0.00     0.004 C 
ENDBRANCH  10  11
ENDBRANCH   9  10
ENDBRANCH   8   9
ENDBRANCH   7   8
ENDBRANCH   6   7
ENDBRANCH   5   6
ENDBRANCH   4   5
ENDBRANCH   3   4
ENDBRANCH   2   3
ENDBRANCH   1   2
BRANCH   1  13
ATOM     13  C   UNL     1      14.395  25.135  33.043  1.00  0.00     0.000 C 
BRANCH  13  14
ATOM     14  C   UNL     1      14.887  23.680  33.022  1.00  0.00     0.000 C 
BRANCH  14  15
ATOM     15  C   UNL     1      16.371  23.593  33.410  1.00  0.00     0.000 C 
BRANCH  15  16
ATOM     16  C   UNL     1      16.787  24.668  34.430  1.00  0.00     0.000 C 
BRANCH  16  17
ATOM     17  C   UNL     1      16.879  24.177  35.889  1.00  0.00     0.000 C 
BRANCH  17  18
ATOM     18  C   UNL     1      15.528  24.061  36.623  1.00  0.00     0.000 C 
BRANCH  18  19
ATOM     19  C   UNL     1      14.888  22.658  36.591  1.00  0.00     0.000 C 
BRANCH  19  20
ATOM     20  C   UNL     1      15.887  21.488  36.526  1.00  0.00     0.006 C 
BRANCH  20  21
ATOM     21  C   UNL     1      15.208  20.137  36.263  1.00  0.00     0.053 C 
BRANCH  21  22
ATOM     22  C   UNL     1      15.604  19.593  34.924  1.00  0.00     0.041 C 
ATOM     23  O   UNL     1      15.559  20.329  33.903  1.00  0.00    -0.550 OA
ATOM     24  O   UNL     1      16.048  18.280  34.806  1.00  0.00    -0.550 OA
ENDBRANCH  21  22
ENDBRANCH  20  21
ENDBRANCH  19  20
ENDBRANCH  18  19
ENDBRANCH  17  18
ENDBRANCH  16  17
ENDBRANCH  15  16
ENDBRANCH  14  15
ENDBRANCH  13  14
ENDBRANCH   1  13
TORSDOF 20
ENDMDL
MODEL 2
REMARK VINA RESULT:    -4.132      2.397      4.257
REMARK INTER + INTRA:         -11.547
REMARK INTER:                  -8.855
REMARK INTRA:                  -2.691
REMARK UNBOUND:                -2.583
REMARK SMILES CCCCCCCCCCCCCCCCCCCCCC(=O)[O-]
REMARK SMILES IDX 12 1 11 2 10 3 9 4 8 5 7 6 6 7 5 8 4 9 3 10 2 11 1 12 13 13
REMARK SMILES IDX 14 14 15 15 16 16 17 17 18 18 19 19 20 20 21 21 22 22 23 23
REMARK SMILES IDX 24 24
REMARK H PARENT
REMARK Flexibility Score: inf
ROOT
ATOM      1  C   UNL     1      14.619  24.035  33.319  1.00  0.00     0.000 C 
ENDROOT
BRANCH   1   2
ATOM      2  C   UNL     1      13.970  25.398  33.014  1.00  0.00     0.000 C 
BRANCH   2   3
ATOM      3  C   UNL     1      12.568  25.548  33.627  1.00  0.00     0.000 C 
BRANCH   3   4
ATOM      4  C   UNL     1      12.275  26.981  34.105  1.00  0.00    -0.000 C 
BRANCH   4   5
ATOM      5  C   UNL     1      12.563  27.245  35.595  1.00  0.00    -0.000 C 
BRANCH   5   6
ATOM      6  C   UNL     1      12.957  25.971  36.363  1.00  0.00    -0.000 C 
BRANCH   6   7
ATOM      7  C   UNL     1      14.448  25.964  36.760  1.00  0.00    -0.000 C 
BRANCH   7   8
ATOM      8  C   UNL     1      15.179  27.287  36.453  1.00  0.00    -0.000 C 
BRANCH   8   9
ATOM      9  C   UNL     1      16.329  27.172  35.440  1.00  0.00    -0.000 C 
BRANCH   9  10
ATOM     10  C   UNL     1      16.058  27.947  34.143  1.00  0.00    -0.000 C 
BRANCH  10  11
ATOM     11  C   UNL     1      17.125  27.636  33.087  1.00  0.00    -0.003 C 
ATOM     12  C   UNL     1      16.867  28.410  31.796  1.00  0.00     0.004 C 
ENDBRANCH  10  11
ENDBRANCH   9  10
ENDBRANCH   8   9
ENDBRANCH   7   8
ENDBRANCH   6   7
ENDBRANCH   5   6
ENDBRANCH   4   5
ENDBRANCH   3   4
ENDBRANCH   2   3
ENDBRANCH   1   2
BRANCH   1  13
ATOM     13  C   UNL     1      16.158  24.037  33.367  1.00  0.00     0.000 C 
BRANCH  13  14
ATOM     14  C   UNL     1      16.720  23.684  34.752  1.00  0.00     0.000 C 
BRANCH  14  15
ATOM     15  C   UNL     1      16.275  22.279  35.188  1.00  0.00     0.000 C 
BRANCH  15  16
ATOM     16  C   UNL     1      16.606  21.197  34.145  1.00  0.00     0.000 C 
BRANCH  16  17
ATOM     17  C   UNL     1      15.546  20.087  34.000  1.00  0.00     0.000 C 
BRANCH  17  18
ATOM     18  C   UNL     1      15.283  19.268  35.280  1.00  0.00     0.000 C 
BRANCH  18  19
ATOM     19  C   UNL     1      16.273  18.111  35.528  1.00  0.00     0.000 C 
BRANCH  19  20
ATOM     20  C   UNL     1      16.296  17.029  34.433  1.00  0.00     0.006 C 
BRANCH  20  21
ATOM     21  C   UNL     1      15.022  16.173  34.411  1.00  0.00     0.053 C 
BRANCH  21  22
ATOM     22  C   UNL     1      15.274  14.858  33.740  1.00  0.00     0.041 C 
ATOM     23  O   UNL     1      14.310  14.113  33.423  1.00  0.00    -0.550 OA
ATOM     24  O   UNL     1      16.574  14.464  33.439  1.00  0.00    -0.550 OA
ENDBRANCH  21  22
ENDBRANCH  20  21
ENDBRANCH  19  20
ENDBRANCH  18  19
ENDBRANCH  17  18
ENDBRANCH  16  17
ENDBRANCH  15  16
ENDBRANCH  14  15
ENDBRANCH  13  14
ENDBRANCH   1  13
TORSDOF 20
ENDMDL
MODEL 3
REMARK VINA RESULT:    -4.125      1.443      2.385
REMARK INTER + INTRA:         -11.530
REMARK INTER:                  -8.828
REMARK INTRA:                  -2.702
REMARK UNBOUND:                -2.583
REMARK SMILES CCCCCCCCCCCCCCCCCCCCCC(=O)[O-]
REMARK SMILES IDX 12 1 11 2 10 3 9 4 8 5 7 6 6 7 5 8 4 9 3 10 2 11 1 12 13 13
REMARK SMILES IDX 14 14 15 15 16 16 17 17 18 18 19 19 20 20 21 21 22 22 23 23
REMARK SMILES IDX 24 24
REMARK H PARENT
REMARK Flexibility Score: inf
ROOT
ATOM      1  C   UNL     1      12.714  25.478  33.448  1.00  0.00     0.000 C 
ENDROOT
BRANCH   1   2
ATOM      2  C   UNL     1      12.605  26.332  34.725  1.00  0.00     0.000 C 
BRANCH   2   3
ATOM      3  C   UNL     1      11.615  27.499  34.586  1.00  0.00     0.000 C 
BRANCH   3   4
ATOM      4  C   UNL     1      11.474  28.320  35.880  1.00  0.00    -0.000 C 
BRANCH   4   5
ATOM      5  C   UNL     1      12.502  29.454  36.049  1.00  0.00    -0.000 C 
BRANCH   5   6
ATOM      6  C   UNL     1      13.665  29.075  36.982  1.00  0.00    -0.000 C 
BRANCH   6   7
ATOM      7  C   UNL     1      14.952  28.732  36.203  1.00  0.00    -0.000 C 
BRANCH   7   8
ATOM      8  C   UNL     1      15.092  29.493  34.870  1.00  0.00    -0.000 C 
BRANCH   8   9
ATOM      9  C   UNL     1      16.540  29.770  34.431  1.00  0.00    -0.000 C 
BRANCH   9  10
ATOM     10  C   UNL     1      16.630  30.343  33.010  1.00  0.00    -0.000 C 
BRANCH  10  11
ATOM     11  C   UNL     1      16.880  29.229  31.986  1.00  0.00    -0.003 C 
ATOM     12  C   UNL     1      16.816  29.767  30.558  1.00  0.00     0.004 C 
ENDBRANCH  10  11
ENDBRANCH   9  10
ENDBRANCH   8   9
ENDBRANCH   7   8
ENDBRANCH   6   7
ENDBRANCH   5   6
ENDBRANCH   4   5
ENDBRANCH   3   4
ENDBRANCH   2   3
ENDBRANCH   1   2
BRANCH   1  13
ATOM     13  C   UNL     1      14.150  25.143  33.002  1.00  0.00     0.000 C 
BRANCH  13  14
ATOM     14  C   UNL     1      15.131  26.308  33.199  1.00  0.00     0.000 C 
BRANCH  14  15
ATOM     15  C   UNL     1      16.559  25.794  33.441  1.00  0.00     0.000 C 
BRANCH  15  16
ATOM     16  C   UNL     1      16.980  25.872  34.919  1.00  0.00     0.000 C 
BRANCH  16  17
ATOM     17  C   UNL     1      16.010  25.194  35.908  1.00  0.00     0.000 C 
BRANCH  17  18
ATOM     18  C   UNL     1      16.146  23.661  36.005  1.00  0.00     0.000 C 
BRANCH  18  19
ATOM     19  C   UNL     1      16.823  22.988  34.794  1.00  0.00     0.000 C 
BRANCH  19  20
ATOM     20  C   UNL     1      15.924  22.022  34.000  1.00  0.00     0.006 C 
BRANCH  20  21
ATOM     21  C   UNL     1      16.368  20.557  34.121  1.00  0.00     0.053 C 
BRANCH  21  22
ATOM     22  C   UNL     1      15.414  19.780  34.976  1.00  0.00     0.041 C 
ATOM     23  O   UNL     1      15.165  20.157  36.151  1.00  0.00    -0.550 OA
ATOM     24  O   UNL     1      14.779  18.652  34.466  1.00  0.00    -0.550 OA
ENDBRANCH  21  22
ENDBRANCH  20  21
ENDBRANCH  19  20
ENDBRANCH  18  19
ENDBRANCH  17  18
ENDBRANCH  16  17
ENDBRANCH  15  16
ENDBRANCH  14  15
ENDBRANCH  13  14
ENDBRANCH   1  13
TORSDOF 20
ENDMDL
MODEL 4
REMARK VINA RESULT:    -4.061      1.390      2.189
REMARK INTER + INTRA:         -11.391
REMARK INTER:                  -9.400
REMARK INTRA:                  -1.991
REMARK UNBOUND:                -2.583
REMARK SMILES CCCCCCCCCCCCCCCCCCCCCC(=O)[O-]
REMARK SMILES IDX 12 1 11 2 10 3 9 4 8 5 7 6 6 7 5 8 4 9 3 10 2 11 1 12 13 13
REMARK SMILES IDX 14 14 15 15 16 16 17 17 18 18 19 19 20 20 21 21 22 22 23 23
REMARK SMILES IDX 24 24
REMARK H PARENT
REMARK Flexibility Score: inf
ROOT
ATOM      1  C   UNL     1      12.733  25.273  33.388  1.00  0.00     0.000 C 
ENDROOT
BRANCH   1   2
ATOM      2  C   UNL     1      12.485  26.599  34.131  1.00  0.00     0.000 C 
BRANCH   2   3
ATOM      3  C   UNL     1      13.337  26.743  35.403  1.00  0.00     0.000 C 
BRANCH   3   4
ATOM      4  C   UNL     1      14.188  28.026  35.409  1.00  0.00    -0.000 C 
BRANCH   4   5
ATOM      5  C   UNL     1      15.695  27.809  35.635  1.00  0.00    -0.000 C 
BRANCH   5   6
ATOM      6  C   UNL     1      16.564  28.453  34.540  1.00  0.00    -0.000 C 
BRANCH   6   7
ATOM      7  C   UNL     1      16.550  27.639  33.228  1.00  0.00    -0.000 C 
BRANCH   7   8
ATOM      8  C   UNL     1      16.699  28.502  31.960  1.00  0.00    -0.000 C 
BRANCH   8   9
ATOM      9  C   UNL     1      16.628  30.020  32.197  1.00  0.00    -0.000 C 
BRANCH   9  10
ATOM     10  C   UNL     1      16.897  30.834  30.924  1.00  0.00    -0.000 C 
BRANCH  10  11
ATOM     11  C   UNL     1      16.627  29.994  29.670  1.00  0.00    -0.003 C 
ATOM     12  C   UNL     1      16.210  30.875  28.494  1.00  0.00     0.004 C 
ENDBRANCH  10  11
ENDBRANCH   9  10
ENDBRANCH   8   9
ENDBRANCH   7   8
ENDBRANCH   6   7
ENDBRANCH   5   6
ENDBRANCH   4   5
ENDBRANCH   3   4
ENDBRANCH   2   3
ENDBRANCH   1   2
BRANCH   1  13
ATOM     13  C   UNL     1      14.174  25.061  32.886  1.00  0.00     0.000 C 
BRANCH  13  14
ATOM     14  C   UNL     1      14.796  23.744  33.373  1.00  0.00     0.000 C 
BRANCH  14  15
ATOM     15  C   UNL     1      15.758  23.987  34.546  1.00  0.00     0.000 C 
BRANCH  15  16
ATOM     16  C   UNL     1      15.382  23.185  35.804  1.00  0.00     0.000 C 
BRANCH  16  17
ATOM     17  C   UNL     1      15.570  21.660  35.684  1.00  0.00     0.000 C 
BRANCH  17  18
ATOM     18  C   UNL     1      16.745  21.218  34.787  1.00  0.00     0.000 C 
BRANCH  18  19
ATOM     19  C   UNL     1      16.810  19.705  34.497  1.00  0.00     0.000 C 
BRANCH  19  20
ATOM     20  C   UNL     1      15.519  18.926  34.808  1.00  0.00     0.006 C 
BRANCH  20  21
ATOM     21  C   UNL     1      15.785  17.565  35.466  1.00  0.00     0.053 C 
BRANCH  21  22
ATOM     22  C   UNL     1      15.884  16.484  34.433  1.00  0.00     0.041 C 
ATOM     23  O   UNL     1      16.979  16.262  33.852  1.00  0.00    -0.550 OA
ATOM     24  O   UNL     1      14.774  15.703  34.129  1.00  0.00    -0.550 OA
ENDBRANCH  21  22
ENDBRANCH  20  21
ENDBRANCH  19  20
ENDBRANCH  18  19
ENDBRANCH  17  18
ENDBRANCH  16  17
ENDBRANCH  15  16
ENDBRANCH  14  15
ENDBRANCH  13  14
ENDBRANCH   1  13
TORSDOF 20
ENDMDL
MODEL 5
REMARK VINA RESULT:    -4.039      3.652      9.140
REMARK INTER + INTRA:         -11.343
REMARK INTER:                  -9.033
REMARK INTRA:                  -2.310
REMARK UNBOUND:                -2.583
REMARK SMILES CCCCCCCCCCCCCCCCCCCCCC(=O)[O-]
REMARK SMILES IDX 12 1 11 2 10 3 9 4 8 5 7 6 6 7 5 8 4 9 3 10 2 11 1 12 13 13
REMARK SMILES IDX 14 14 15 15 16 16 17 17 18 18 19 19 20 20 21 21 22 22 23 23
REMARK SMILES IDX 24 24
REMARK H PARENT
REMARK Flexibility Score: inf
ROOT
ATOM      1  C   UNL     1      16.255  25.499  33.398  1.00  0.00     0.000 C 
ENDROOT
BRANCH   1   2
ATOM      2  C   UNL     1      14.954  24.792  32.977  1.00  0.00     0.000 C 
BRANCH   2   3
ATOM      3  C   UNL     1      14.836  23.365  33.536  1.00  0.00     0.000 C 
BRANCH   3   4
ATOM      4  C   UNL     1      16.004  22.990  34.465  1.00  0.00    -0.000 C 
BRANCH   4   5
ATOM      5  C   UNL     1      15.773  21.741  35.335  1.00  0.00    -0.000 C 
BRANCH   5   6
ATOM      6  C   UNL     1      16.469  20.486  34.779  1.00  0.00    -0.000 C 
BRANCH   6   7
ATOM      7  C   UNL     1      15.475  19.338  34.505  1.00  0.00    -0.000 C 
BRANCH   7   8
ATOM      8  C   UNL     1      16.070  17.933  34.730  1.00  0.00    -0.000 C 
BRANCH   8   9
ATOM      9  C   UNL     1      15.112  16.768  34.432  1.00  0.00    -0.000 C 
BRANCH   9  10
ATOM     10  C   UNL     1      15.814  15.403  34.449  1.00  0.00    -0.000 C 
BRANCH  10  11
ATOM     11  C   UNL     1      15.631  14.677  33.111  1.00  0.00    -0.003 C 
ATOM     12  C   UNL     1      14.374  13.810  33.121  1.00  0.00     0.004 C 
ENDBRANCH  10  11
ENDBRANCH   9  10
ENDBRANCH   8   9
ENDBRANCH   7   8
ENDBRANCH   6   7
ENDBRANCH   5   6
ENDBRANCH   4   5
ENDBRANCH   3   4
ENDBRANCH   2   3
ENDBRANCH   1   2
BRANCH   1  13
ATOM     13  C   UNL     1      16.306  27.011  33.107  1.00  0.00     0.000 C 
BRANCH  13  14
ATOM     14  C   UNL     1      15.324  27.824  33.963  1.00  0.00     0.000 C 
BRANCH  14  15
ATOM     15  C   UNL     1      16.068  28.652  35.022  1.00  0.00     0.000 C 
BRANCH  15  16
ATOM     16  C   UNL     1      16.620  27.793  36.173  1.00  0.00     0.000 C 
BRANCH  16  17
ATOM     17  C   UNL     1      15.549  27.176  37.096  1.00  0.00     0.000 C 
BRANCH  17  18
ATOM     18  C   UNL     1      15.342  25.657  36.927  1.00  0.00     0.000 C 
BRANCH  18  19
ATOM     19  C   UNL     1      13.874  25.187  36.996  1.00  0.00     0.000 C 
BRANCH  19  20
ATOM     20  C   UNL     1      12.977  25.688  35.849  1.00  0.00     0.006 C 
BRANCH  20  21
ATOM     21  C   UNL     1      12.121  26.899  36.245  1.00  0.00     0.053 C 
BRANCH  21  22
ATOM     22  C   UNL     1      11.639  27.632  35.031  1.00  0.00     0.041 C 
ATOM     23  O   UNL     1      11.846  27.159  33.882  1.00  0.00    -0.550 OA
ATOM     24  O   UNL     1      10.938  28.826  35.167  1.00  0.00    -0.550 OA
ENDBRANCH  21  22
ENDBRANCH  20  21
ENDBRANCH  19  20
ENDBRANCH  18  19
ENDBRANCH  17  18
ENDBRANCH  16  17
ENDBRANCH  15  16
ENDBRANCH  14  15
ENDBRANCH  13  14
ENDBRANCH   1  13
TORSDOF 20
ENDMDL
MODEL 6
REMARK VINA RESULT:    -3.914      3.014      5.278
REMARK INTER + INTRA:         -11.072
REMARK INTER:                  -9.021
REMARK INTRA:                  -2.051
REMARK UNBOUND:                -2.583
REMARK SMILES CCCCCCCCCCCCCCCCCCCCCC(=O)[O-]
REMARK SMILES IDX 12 1 11 2 10 3 9 4 8 5 7 6 6 7 5 8 4 9 3 10 2 11 1 12 13 13
REMARK SMILES IDX 14 14 15 15 16 16 17 17 18 18 19 19 20 20 21 21 22 22 23 23
REMARK SMILES IDX 24 24
REMARK H PARENT
REMARK Flexibility Score: inf
ROOT
ATOM      1  C   UNL     1      15.899  24.772  34.602  1.00  0.00     0.000 C 
ENDROOT
BRANCH   1   2
ATOM      2  C   UNL     1      16.968  25.820  34.244  1.00  0.00     0.000 C 
BRANCH   2   3
ATOM      3  C   UNL     1      16.592  26.668  33.018  1.00  0.00     0.000 C 
BRANCH   3   4
ATOM      4  C   UNL     1      15.916  27.998  33.397  1.00  0.00    -0.000 C 
BRANCH   4   5
ATOM      5  C   UNL     1      15.969  28.355  34.894  1.00  0.00    -0.000 C 
BRANCH   5   6
ATOM      6  C   UNL     1      14.933  29.420  35.294  1.00  0.00    -0.000 C 
BRANCH   6   7
ATOM      7  C   UNL     1      14.124  29.010  36.543  1.00  0.00    -0.000 C 
BRANCH   7   8
ATOM      8  C   UNL     1      14.112  27.491  36.804  1.00  0.00    -0.000 C 
BRANCH   8   9
ATOM      9  C   UNL     1      12.861  26.756  36.295  1.00  0.00    -0.000 C 
BRANCH   9  10
ATOM     10  C   UNL     1      11.838  27.702  35.651  1.00  0.00    -0.000 C 
BRANCH  10  11
ATOM     11  C   UNL     1      11.534  27.280  34.209  1.00  0.00    -0.003 C 
ATOM     12  C   UNL     1      12.558  26.268  33.702  1.00  0.00     0.004 C 
ENDBRANCH  10  11
ENDBRANCH   9  10
ENDBRANCH   8   9
ENDBRANCH   7   8
ENDBRANCH   6   7
ENDBRANCH   5   6
ENDBRANCH   4   5
ENDBRANCH   3   4
ENDBRANCH   2   3
ENDBRANCH   1   2
BRANCH   1  13
ATOM     13  C   UNL     1      15.322  23.987  33.409  1.00  0.00     0.000 C 
BRANCH  13  14
ATOM     14  C   UNL     1      16.023  22.639  33.177  1.00  0.00     0.000 C 
BRANCH  14  15
ATOM     15  C   UNL     1      15.945  21.753  34.429  1.00  0.00     0.000 C 
BRANCH  15  16
ATOM     16  C   UNL     1      16.343  20.292  34.153  1.00  0.00     0.000 C 
BRANCH  16  17
ATOM     17  C   UNL     1      15.265  19.247  34.506  1.00  0.00     0.000 C 
BRANCH  17  18
ATOM     18  C   UNL     1      15.726  18.138  35.473  1.00  0.00     0.000 C 
BRANCH  18  19
ATOM     19  C   UNL     1      16.562  17.014  34.825  1.00  0.00     0.000 C 
BRANCH  19  20
ATOM     20  C   UNL     1      15.898  15.625  34.830  1.00  0.00     0.006 C 
BRANCH  20  21
ATOM     21  C   UNL     1      15.592  15.104  33.419  1.00  0.00     0.053 C 
BRANCH  21  22
ATOM     22  C   UNL     1      14.582  13.998  33.466  1.00  0.00     0.041 C 
ATOM     23  O   UNL     1      14.159  13.481  32.399  1.00  0.00    -0.550 OA
ATOM     24  O   UNL     1      14.127  13.518  34.690  1.00  0.00    -0.550 OA
ENDBRANCH  21  22
ENDBRANCH  20  21
ENDBRANCH  19  20
ENDBRANCH  18  19
ENDBRANCH  17  18
ENDBRANCH  16  17
ENDBRANCH  15  16
ENDBRANCH  14  15
ENDBRANCH  13  14
ENDBRANCH   1  13
TORSDOF 20
ENDMDL
MODEL 7
REMARK VINA RESULT:    -3.904      3.730      8.080
REMARK INTER + INTRA:         -11.051
REMARK INTER:                  -8.238
REMARK INTRA:                  -2.812
REMARK UNBOUND:                -2.583
REMARK SMILES CCCCCCCCCCCCCCCCCCCCCC(=O)[O-]
REMARK SMILES IDX 12 1 11 2 10 3 9 4 8 5 7 6 6 7 5 8 4 9 3 10 2 11 1 12 13 13
REMARK SMILES IDX 14 14 15 15 16 16 17 17 18 18 19 19 20 20 21 21 22 22 23 23
REMARK SMILES IDX 24 24
REMARK H PARENT
REMARK Flexibility Score: inf
ROOT
ATOM      1  C   UNL     1      12.763  25.495  33.980  1.00  0.00     0.000 C 
ENDROOT
BRANCH   1   2
ATOM      2  C   UNL     1      13.963  25.251  33.045  1.00  0.00     0.000 C 
BRANCH   2   3
ATOM      3  C   UNL     1      15.026  26.358  33.132  1.00  0.00     0.000 C 
BRANCH   3   4
ATOM      4  C   UNL     1      16.442  25.807  33.382  1.00  0.00    -0.000 C 
BRANCH   4   5
ATOM      5  C   UNL     1      17.117  26.301  34.674  1.00  0.00    -0.000 C 
BRANCH   5   6
ATOM      6  C   UNL     1      16.268  26.044  35.931  1.00  0.00    -0.000 C 
BRANCH   6   7
ATOM      7  C   UNL     1      16.695  24.759  36.673  1.00  0.00    -0.000 C 
BRANCH   7   8
ATOM      8  C   UNL     1      15.650  23.628  36.607  1.00  0.00    -0.000 C 
BRANCH   8   9
ATOM      9  C   UNL     1      15.693  22.779  35.326  1.00  0.00    -0.000 C 
BRANCH   9  10
ATOM     10  C   UNL     1      15.632  21.271  35.610  1.00  0.00    -0.000 C 
BRANCH  10  11
ATOM     11  C   UNL     1      15.705  20.466  34.307  1.00  0.00    -0.003 C 
ATOM     12  C   UNL     1      15.267  19.020  34.527  1.00  0.00     0.004 C 
ENDBRANCH  10  11
ENDBRANCH   9  10
ENDBRANCH   8   9
ENDBRANCH   7   8
ENDBRANCH   6   7
ENDBRANCH   5   6
ENDBRANCH   4   5
ENDBRANCH   3   4
ENDBRANCH   2   3
ENDBRANCH   1   2
BRANCH   1  13
ATOM     13  C   UNL     1      13.104  26.153  35.330  1.00  0.00     0.000 C 
BRANCH  13  14
ATOM     14  C   UNL     1      11.931  26.941  35.932  1.00  0.00     0.000 C 
BRANCH  14  15
ATOM     15  C   UNL     1      11.697  28.254  35.168  1.00  0.00     0.000 C 
BRANCH  15  16
ATOM     16  C   UNL     1      11.995  29.501  36.018  1.00  0.00     0.000 C 
BRANCH  16  17
ATOM     17  C   UNL     1      13.349  29.479  36.754  1.00  0.00     0.000 C 
BRANCH  17  18
ATOM     18  C   UNL     1      14.489  30.236  36.043  1.00  0.00     0.000 C 
BRANCH  18  19
ATOM     19  C   UNL     1      15.181  29.456  34.906  1.00  0.00     0.000 C 
BRANCH  19  20
ATOM     20  C   UNL     1      16.389  30.168  34.270  1.00  0.00     0.006 C 
BRANCH  20  21
ATOM     21  C   UNL     1      16.735  29.628  32.875  1.00  0.00     0.053 C 
BRANCH  21  22
ATOM     22  C   UNL     1      16.527  30.680  31.830  1.00  0.00     0.041 C 
ATOM     23  O   UNL     1      16.057  31.805  32.148  1.00  0.00    -0.550 OA
ATOM     24  O   UNL     1      16.875  30.430  30.507  1.00  0.00    -0.550 OA
ENDBRANCH  21  22
ENDBRANCH  20  21
ENDBRANCH  19  20
ENDBRANCH  18  19
ENDBRANCH  17  18
ENDBRANCH  16  17
ENDBRANCH  15  16
ENDBRANCH  14  15
ENDBRANCH  13  14
ENDBRANCH   1  13
TORSDOF 20
ENDMDL
MODEL 8
REMARK VINA RESULT:    -3.837      3.361      9.846
REMARK INTER + INTRA:         -10.906
REMARK INTER:                  -9.154
REMARK INTRA:                  -1.752
REMARK UNBOUND:                -2.583
REMARK SMILES CCCCCCCCCCCCCCCCCCCCCC(=O)[O-]
REMARK SMILES IDX 12 1 11 2 10 3 9 4 8 5 7 6 6 7 5 8 4 9 3 10 2 11 1 12 13 13
REMARK SMILES IDX 14 14 15 15 16 16 17 17 18 18 19 19 20 20 21 21 22 22 23 23
REMARK SMILES IDX 24 24
REMARK H PARENT
REMARK Flexibility Score: inf
ROOT
ATOM      1  C   UNL     1      15.919  23.008  33.832  1.00  0.00     0.000 C 
ENDROOT
BRANCH   1   2
ATOM      2  C   UNL     1      15.553  22.879  35.322  1.00  0.00     0.000 C 
BRANCH   2   3
ATOM      3  C   UNL     1      16.668  22.234  36.161  1.00  0.00     0.000 C 
BRANCH   3   4
ATOM      4  C   UNL     1      16.771  20.713  35.950  1.00  0.00    -0.000 C 
BRANCH   4   5
ATOM      5  C   UNL     1      15.433  19.954  36.002  1.00  0.00    -0.000 C 
BRANCH   5   6
ATOM      6  C   UNL     1      15.213  19.040  34.783  1.00  0.00    -0.000 C 
BRANCH   6   7
ATOM      7  C   UNL     1      16.501  18.295  34.371  1.00  0.00    -0.000 C 
BRANCH   7   8
ATOM      8  C   UNL     1      16.510  16.805  34.769  1.00  0.00    -0.000 C 
BRANCH   8   9
ATOM      9  C   UNL     1      15.249  16.021  34.371  1.00  0.00    -0.000 C 
BRANCH   9  10
ATOM     10  C   UNL     1      14.993  14.808  35.276  1.00  0.00    -0.000 C 
BRANCH  10  11
ATOM     11  C   UNL     1      14.508  13.606  34.457  1.00  0.00    -0.003 C 
ATOM     12  C   UNL     1      14.426  13.947  32.971  1.00  0.00     0.004 C 
ENDBRANCH  10  11
ENDBRANCH   9  10
ENDBRANCH   8   9
ENDBRANCH   7   8
ENDBRANCH   6   7
ENDBRANCH   5   6
ENDBRANCH   4   5
ENDBRANCH   3   4
ENDBRANCH   2   3
ENDBRANCH   1   2
BRANCH   1  13
ATOM     13  C   UNL     1      15.149  24.096  33.058  1.00  0.00     0.000 C 
BRANCH  13  14
ATOM     14  C   UNL     1      14.327  25.019  33.970  1.00  0.00     0.000 C 
BRANCH  14  15
ATOM     15  C   UNL     1      12.928  25.268  33.388  1.00  0.00     0.000 C 
BRANCH  15  16
ATOM     16  C   UNL     1      12.323  26.610  33.837  1.00  0.00     0.000 C 
BRANCH  16  17
ATOM     17  C   UNL     1      12.338  26.852  35.360  1.00  0.00     0.000 C 
BRANCH  17  18
ATOM     18  C   UNL     1      12.845  28.243  35.793  1.00  0.00     0.000 C 
BRANCH  18  19
ATOM     19  C   UNL     1      14.342  28.306  36.157  1.00  0.00     0.000 C 
BRANCH  19  20
ATOM     20  C   UNL     1      15.244  28.956  35.091  1.00  0.00     0.006 C 
BRANCH  20  21
ATOM     21  C   UNL     1      16.374  28.031  34.619  1.00  0.00     0.053 C 
BRANCH  21  22
ATOM     22  C   UNL     1      16.577  28.149  33.139  1.00  0.00     0.041 C 
ATOM     23  O   UNL     1      16.864  27.130  32.456  1.00  0.00    -0.550 OA
ATOM     24  O   UNL     1      16.425  29.379  32.509  1.00  0.00    -0.550 OA
ENDBRANCH  21  22
ENDBRANCH  20  21
ENDBRANCH  19  20
ENDBRANCH  18  19
ENDBRANCH  17  18
ENDBRANCH  16  17
ENDBRANCH  15  16
ENDBRANCH  14  15
ENDBRANCH  13  14
ENDBRANCH   1  13
TORSDOF 20
ENDMDL
MODEL 9
REMARK VINA RESULT:    -3.825      3.144      8.792
REMARK INTER + INTRA:         -10.881
REMARK INTER:                  -8.785
REMARK INTRA:                  -2.095
REMARK UNBOUND:                -2.583
REMARK SMILES CCCCCCCCCCCCCCCCCCCCCC(=O)[O-]
REMARK SMILES IDX 12 1 11 2 10 3 9 4 8 5 7 6 6 7 5 8 4 9 3 10 2 11 1 12 13 13
REMARK SMILES IDX 14 14 15 15 16 16 17 17 18 18 19 19 20 20 21 21 22 22 23 23
REMARK SMILES IDX 24 24
REMARK H PARENT
REMARK Flexibility Score: inf
ROOT
ATOM      1  C   UNL     1      12.655  25.636  33.936  1.00  0.00     0.000 C 
ENDROOT
BRANCH   1   2
ATOM      2  C   UNL     1      13.731  25.117  32.965  1.00  0.00     0.000 C 
BRANCH   2   3
ATOM      3  C   UNL     1      15.160  25.481  33.401  1.00  0.00     0.000 C 
BRANCH   3   4
ATOM      4  C   UNL     1      16.038  24.245  33.664  1.00  0.00    -0.000 C 
BRANCH   4   5
ATOM      5  C   UNL     1      16.200  23.861  35.146  1.00  0.00    -0.000 C 
BRANCH   5   6
ATOM      6  C   UNL     1      15.986  22.359  35.403  1.00  0.00    -0.000 C 
BRANCH   6   7
ATOM      7  C   UNL     1      16.382  21.495  34.187  1.00  0.00    -0.000 C 
BRANCH   7   8
ATOM      8  C   UNL     1      15.579  20.185  34.068  1.00  0.00    -0.000 C 
BRANCH   8   9
ATOM      9  C   UNL     1      15.302  19.471  35.402  1.00  0.00    -0.000 C 
BRANCH   9  10
ATOM     10  C   UNL     1      16.037  18.129  35.521  1.00  0.00    -0.000 C 
BRANCH  10  11
ATOM     11  C   UNL     1      15.410  17.077  34.598  1.00  0.00    -0.003 C 
ATOM     12  C   UNL     1      16.469  16.130  34.040  1.00  0.00     0.004 C 
ENDBRANCH  10  11
ENDBRANCH   9  10
ENDBRANCH   8   9
ENDBRANCH   7   8
ENDBRANCH   6   7
ENDBRANCH   5   6
ENDBRANCH   4   5
ENDBRANCH   3   4
ENDBRANCH   2   3
ENDBRANCH   1   2
BRANCH   1  13
ATOM     13  C   UNL     1      13.100  25.760  35.405  1.00  0.00     0.000 C 
BRANCH  13  14
ATOM     14  C   UNL     1      12.232  26.732  36.220  1.00  0.00     0.000 C 
BRANCH  14  15
ATOM     15  C   UNL     1      11.617  27.813  35.317  1.00  0.00     0.000 C 
BRANCH  15  16
ATOM     16  C   UNL     1      11.937  29.241  35.792  1.00  0.00     0.000 C 
BRANCH  16  17
ATOM     17  C   UNL     1      13.259  29.386  36.573  1.00  0.00     0.000 C 
BRANCH  17  18
ATOM     18  C   UNL     1      14.487  29.745  35.712  1.00  0.00     0.000 C 
BRANCH  18  19
ATOM     19  C   UNL     1      15.318  28.540  35.226  1.00  0.00     0.000 C 
BRANCH  19  20
ATOM     20  C   UNL     1      16.584  28.902  34.427  1.00  0.00     0.006 C 
BRANCH  20  21
ATOM     21  C   UNL     1      16.336  29.996  33.378  1.00  0.00     0.053 C 
BRANCH  21  22
ATOM     22  C   UNL     1      16.663  29.500  32.003  1.00  0.00     0.041 C 
ATOM     23  O   UNL     1      16.926  28.283  31.814  1.00  0.00    -0.550 OA
ATOM     24  O   UNL     1      16.652  30.377  30.923  1.00  0.00    -0.550 OA
ENDBRANCH  21  22
ENDBRANCH  20  21
ENDBRANCH  19  20
ENDBRANCH  18  19
ENDBRANCH  17  18
ENDBRANCH  16  17
ENDBRANCH  15  16
ENDBRANCH  14  15
ENDBRANCH  13  14
ENDBRANCH   1  13
TORSDOF 20
ENDMDL
