MODEL 1
REMARK VINA RESULT:    -5.566      0.000      0.000
REMARK INTER + INTRA:          -6.117
REMARK INTER:                  -6.054
REMARK INTRA:                  -0.063
REMARK UNBOUND:                -0.063
REMARK SMILES COc1cc2ccc(=O)oc2cc1O
REMARK SMILES IDX 3 1 13 2 12 3 11 4 5 5 4 6 6 7 7 8 8 9 9 10 10 11 2 12 1 13
REMARK SMILES IDX 14 14
REMARK H PARENT 14 15
REMARK Flexibility Score: inf
ROOT
ATOM      1  C   UNL     1     -21.797  -2.256  21.487  1.00  0.00     0.161 A 
ATOM      2  C   UNL     1     -21.058  -3.408  21.825  1.00  0.00     0.161 A 
ATOM      3  C   UNL     1     -20.292  -4.063  20.856  1.00  0.00     0.098 A 
ATOM      4  C   UNL     1     -20.252  -3.586  19.544  1.00  0.00     0.142 A 
ATOM      5  C   UNL     1     -20.988  -2.435  19.194  1.00  0.00     0.022 A 
ATOM      6  C   UNL     1     -21.757  -1.775  20.162  1.00  0.00     0.062 A 
ATOM      7  C   UNL     1     -20.928  -1.982  17.873  1.00  0.00     0.019 A 
ATOM      8  C   UNL     1     -20.149  -2.673  16.946  1.00  0.00     0.094 A 
ATOM      9  C   UNL     1     -19.446  -3.807  17.365  1.00  0.00     0.336 A 
ATOM     10  O   UNL     1     -18.737  -4.446  16.544  1.00  0.00    -0.246 OA
ATOM     11  O   UNL     1     -19.520  -4.218  18.629  1.00  0.00    -0.423 OA
ENDROOT
BRANCH   1  12
ATOM     12  O   UNL     1     -22.556  -1.622  22.484  1.00  0.00    -0.493 OA
ATOM     13  C   UNL     1     -22.235  -0.363  23.065  1.00  0.00     0.278 C 
ENDBRANCH   1  12
BRANCH   2  14
ATOM     14  O   UNL     1     -21.072  -3.914  23.125  1.00  0.00    -0.504 OA
ATOM     15  H   UNL     1     -21.933  -4.066  23.636  1.00  0.00     0.293 HD
ENDBRANCH   2  14
TORSDOF 2
ENDMDL
MODEL 2
REMARK VINA RESULT:    -5.533     16.368     18.425
REMARK INTER + INTRA:          -6.081
REMARK INTER:                  -6.017
REMARK INTRA:                  -0.064
REMARK UNBOUND:                -0.063
REMARK SMILES COc1cc2ccc(=O)oc2cc1O
REMARK SMILES IDX 3 1 13 2 12 3 11 4 5 5 4 6 6 7 7 8 8 9 9 10 10 11 2 12 1 13
REMARK SMILES IDX 14 14
REMARK H PARENT 14 15
REMARK Flexibility Score: inf
ROOT
ATOM      1  C   UNL     1      -8.509  -4.775   5.548  1.00  0.00     0.161 A 
ATOM      2  C   UNL     1      -9.767  -4.569   6.150  1.00  0.00     0.161 A 
ATOM      3  C   UNL     1     -10.048  -5.125   7.404  1.00  0.00     0.098 A 
ATOM      4  C   UNL     1      -9.088  -5.890   8.069  1.00  0.00     0.142 A 
ATOM      5  C   UNL     1      -7.826  -6.103   7.475  1.00  0.00     0.022 A 
ATOM      6  C   UNL     1      -7.540  -5.548   6.221  1.00  0.00     0.062 A 
ATOM      7  C   UNL     1      -6.886  -6.874   8.166  1.00  0.00     0.019 A 
ATOM      8  C   UNL     1      -7.217  -7.404   9.412  1.00  0.00     0.094 A 
ATOM      9  C   UNL     1      -8.489  -7.152   9.939  1.00  0.00     0.336 A 
ATOM     10  O   UNL     1      -8.809  -7.622  11.062  1.00  0.00    -0.246 OA
ATOM     11  O   UNL     1      -9.365  -6.415   9.260  1.00  0.00    -0.423 OA
ENDROOT
BRANCH   1  12
ATOM     12  O   UNL     1      -8.260  -4.203   4.290  1.00  0.00    -0.493 OA
ATOM     13  C   UNL     1      -8.251  -4.923   3.063  1.00  0.00     0.278 C 
ENDBRANCH   1  12
BRANCH   2  14
ATOM     14  O   UNL     1     -10.751  -3.811   5.517  1.00  0.00    -0.504 OA
ATOM     15  H   UNL     1     -11.103  -2.946   5.910  1.00  0.00     0.293 HD
ENDBRANCH   2  14
TORSDOF 2
ENDMDL
MODEL 3
REMARK VINA RESULT:    -5.395      1.266      5.372
REMARK INTER + INTRA:          -5.931
REMARK INTER:                  -5.992
REMARK INTRA:                   0.062
REMARK UNBOUND:                -0.063
REMARK SMILES COc1cc2ccc(=O)oc2cc1O
REMARK SMILES IDX 3 1 13 2 12 3 11 4 5 5 4 6 6 7 7 8 8 9 9 10 10 11 2 12 1 13
REMARK SMILES IDX 14 14
REMARK H PARENT 14 15
REMARK Flexibility Score: inf
ROOT
ATOM      1  C   UNL     1     -19.882  -3.567  17.992  1.00  0.00     0.161 A 
ATOM      2  C   UNL     1     -20.679  -2.437  17.721  1.00  0.00     0.161 A 
ATOM      3  C   UNL     1     -21.427  -1.840  18.743  1.00  0.00     0.098 A 
ATOM      4  C   UNL     1     -21.394  -2.359  20.038  1.00  0.00     0.142 A 
ATOM      5  C   UNL     1     -20.600  -3.490  20.321  1.00  0.00     0.022 A 
ATOM      6  C   UNL     1     -19.848  -4.090  19.301  1.00  0.00     0.062 A 
ATOM      7  C   UNL     1     -20.587  -3.986  21.628  1.00  0.00     0.019 A 
ATOM      8  C   UNL     1     -21.351  -3.353  22.609  1.00  0.00     0.094 A 
ATOM      9  C   UNL     1     -22.115  -2.236  22.255  1.00  0.00     0.336 A 
ATOM     10  O   UNL     1     -22.812  -1.651  23.125  1.00  0.00    -0.246 OA
ATOM     11  O   UNL     1     -22.109  -1.785  21.003  1.00  0.00    -0.423 OA
ENDROOT
BRANCH   1  12
ATOM     12  O   UNL     1     -19.144  -4.141  16.945  1.00  0.00    -0.493 OA
ATOM     13  C   UNL     1     -17.976  -3.566  16.369  1.00  0.00     0.278 C 
ENDBRANCH   1  12
BRANCH   2  14
ATOM     14  O   UNL     1     -20.738  -1.890  16.440  1.00  0.00    -0.504 OA
ATOM     15  H   UNL     1     -20.404  -0.956  16.235  1.00  0.00     0.293 HD
ENDBRANCH   2  14
TORSDOF 2
ENDMDL
MODEL 4
REMARK VINA RESULT:    -5.325      2.317      3.993
REMARK INTER + INTRA:          -5.855
REMARK INTER:                  -5.790
REMARK INTRA:                  -0.065
REMARK UNBOUND:                -0.063
REMARK SMILES COc1cc2ccc(=O)oc2cc1O
REMARK SMILES IDX 3 1 13 2 12 3 11 4 5 5 4 6 6 7 7 8 8 9 9 10 10 11 2 12 1 13
REMARK SMILES IDX 14 14
REMARK H PARENT 14 15
REMARK Flexibility Score: inf
ROOT
ATOM      1  C   UNL     1     -22.462   0.846  21.834  1.00  0.00     0.161 A 
ATOM      2  C   UNL     1     -22.454   0.891  20.426  1.00  0.00     0.161 A 
ATOM      3  C   UNL     1     -22.096  -0.241  19.686  1.00  0.00     0.098 A 
ATOM      4  C   UNL     1     -21.740  -1.425  20.333  1.00  0.00     0.142 A 
ATOM      5  C   UNL     1     -21.744  -1.482  21.742  1.00  0.00     0.022 A 
ATOM      6  C   UNL     1     -22.103  -0.351  22.488  1.00  0.00     0.062 A 
ATOM      7  C   UNL     1     -21.382  -2.683  22.362  1.00  0.00     0.019 A 
ATOM      8  C   UNL     1     -21.034  -3.781  21.577  1.00  0.00     0.094 A 
ATOM      9  C   UNL     1     -21.053  -3.651  20.184  1.00  0.00     0.336 A 
ATOM     10  O   UNL     1     -20.740  -4.630  19.456  1.00  0.00    -0.246 OA
ATOM     11  O   UNL     1     -21.400  -2.496  19.620  1.00  0.00    -0.423 OA
ENDROOT
BRANCH   1  12
ATOM     12  O   UNL     1     -22.827   1.999  22.547  1.00  0.00    -0.493 OA
ATOM     13  C   UNL     1     -24.112   2.225  23.115  1.00  0.00     0.278 C 
ENDBRANCH   1  12
BRANCH   2  14
ATOM     14  O   UNL     1     -22.804   2.056  19.743  1.00  0.00    -0.504 OA
ATOM     15  H   UNL     1     -23.552   2.663  20.057  1.00  0.00     0.293 HD
ENDBRANCH   2  14
TORSDOF 2
ENDMDL
MODEL 5
REMARK VINA RESULT:    -5.310      1.993      5.171
REMARK INTER + INTRA:          -5.839
REMARK INTER:                  -5.785
REMARK INTRA:                  -0.054
REMARK UNBOUND:                -0.063
REMARK SMILES COc1cc2ccc(=O)oc2cc1O
REMARK SMILES IDX 3 1 13 2 12 3 11 4 5 5 4 6 6 7 7 8 8 9 9 10 10 11 2 12 1 13
REMARK SMILES IDX 14 14
REMARK H PARENT 14 15
REMARK Flexibility Score: inf
ROOT
ATOM      1  C   UNL     1     -21.362  -2.722  20.297  1.00  0.00     0.161 A 
ATOM      2  C   UNL     1     -21.371  -2.885  21.697  1.00  0.00     0.161 A 
ATOM      3  C   UNL     1     -21.733  -1.820  22.529  1.00  0.00     0.098 A 
ATOM      4  C   UNL     1     -22.087  -0.585  21.983  1.00  0.00     0.142 A 
ATOM      5  C   UNL     1     -22.081  -0.410  20.584  1.00  0.00     0.022 A 
ATOM      6  C   UNL     1     -21.720  -1.474  19.746  1.00  0.00     0.062 A 
ATOM      7  C   UNL     1     -22.440   0.839  20.067  1.00  0.00     0.019 A 
ATOM      8  C   UNL     1     -22.793   1.867  20.941  1.00  0.00     0.094 A 
ATOM      9  C   UNL     1     -22.776   1.620  22.318  1.00  0.00     0.336 A 
ATOM     10  O   UNL     1     -23.090   2.534  23.124  1.00  0.00    -0.246 OA
ATOM     11  O   UNL     1     -22.429   0.422  22.783  1.00  0.00    -0.423 OA
ENDROOT
BRANCH   1  12
ATOM     12  O   UNL     1     -20.994  -3.811  19.491  1.00  0.00    -0.493 OA
ATOM     13  C   UNL     1     -19.982  -3.770  18.491  1.00  0.00     0.278 C 
ENDBRANCH   1  12
BRANCH   2  14
ATOM     14  O   UNL     1     -21.024  -4.104  22.280  1.00  0.00    -0.504 OA
ATOM     15  H   UNL     1     -20.506  -4.160  23.148  1.00  0.00     0.293 HD
ENDBRANCH   2  14
TORSDOF 2
ENDMDL
MODEL 6
REMARK VINA RESULT:    -5.227      2.238      3.326
REMARK INTER + INTRA:          -5.748
REMARK INTER:                  -5.704
REMARK INTRA:                  -0.044
REMARK UNBOUND:                -0.063
REMARK SMILES COc1cc2ccc(=O)oc2cc1O
REMARK SMILES IDX 3 1 13 2 12 3 11 4 5 5 4 6 6 7 7 8 8 9 9 10 10 11 2 12 1 13
REMARK SMILES IDX 14 14
REMARK H PARENT 14 15
REMARK Flexibility Score: inf
ROOT
ATOM      1  C   UNL     1     -20.500  -2.994  19.903  1.00  0.00     0.161 A 
ATOM      2  C   UNL     1     -19.503  -3.336  18.967  1.00  0.00     0.161 A 
ATOM      3  C   UNL     1     -19.642  -2.968  17.624  1.00  0.00     0.098 A 
ATOM      4  C   UNL     1     -20.768  -2.262  17.197  1.00  0.00     0.142 A 
ATOM      5  C   UNL     1     -21.772  -1.915  18.125  1.00  0.00     0.022 A 
ATOM      6  C   UNL     1     -21.637  -2.281  19.471  1.00  0.00     0.062 A 
ATOM      7  C   UNL     1     -22.888  -1.207  17.667  1.00  0.00     0.019 A 
ATOM      8  C   UNL     1     -22.976  -0.866  16.318  1.00  0.00     0.094 A 
ATOM      9  C   UNL     1     -21.942  -1.243  15.455  1.00  0.00     0.336 A 
ATOM     10  O   UNL     1     -22.002  -0.946  14.233  1.00  0.00    -0.246 OA
ATOM     11  O   UNL     1     -20.891  -1.917  15.917  1.00  0.00    -0.423 OA
ENDROOT
BRANCH   1  12
ATOM     12  O   UNL     1     -20.330  -3.378  21.243  1.00  0.00    -0.493 OA
ATOM     13  C   UNL     1     -21.368  -3.400  22.216  1.00  0.00     0.278 C 
ENDBRANCH   1  12
BRANCH   2  14
ATOM     14  O   UNL     1     -18.364  -4.040  19.356  1.00  0.00    -0.504 OA
ATOM     15  H   UNL     1     -17.729  -3.693  20.064  1.00  0.00     0.293 HD
ENDBRANCH   2  14
TORSDOF 2
ENDMDL
MODEL 7
REMARK VINA RESULT:    -5.023     16.994     18.145
REMARK INTER + INTRA:          -5.526
REMARK INTER:                  -5.478
REMARK INTRA:                  -0.048
REMARK UNBOUND:                -0.063
REMARK SMILES COc1cc2ccc(=O)oc2cc1O
REMARK SMILES IDX 3 1 13 2 12 3 11 4 5 5 4 6 6 7 7 8 8 9 9 10 10 11 2 12 1 13
REMARK SMILES IDX 14 14
REMARK H PARENT 14 15
REMARK Flexibility Score: inf
ROOT
ATOM      1  C   UNL     1      -8.178  -4.646   6.759  1.00  0.00     0.161 A 
ATOM      2  C   UNL     1      -9.548  -4.974   6.790  1.00  0.00     0.161 A 
ATOM      3  C   UNL     1      -9.980  -6.139   7.433  1.00  0.00     0.098 A 
ATOM      4  C   UNL     1      -9.060  -6.989   8.049  1.00  0.00     0.142 A 
ATOM      5  C   UNL     1      -7.685  -6.671   8.024  1.00  0.00     0.022 A 
ATOM      6  C   UNL     1      -7.248  -5.505   7.381  1.00  0.00     0.062 A 
ATOM      7  C   UNL     1      -6.788  -7.542   8.650  1.00  0.00     0.019 A 
ATOM      8  C   UNL     1      -7.272  -8.690   9.277  1.00  0.00     0.094 A 
ATOM      9  C   UNL     1      -8.648  -8.941   9.261  1.00  0.00     0.336 A 
ATOM     10  O   UNL     1      -9.105  -9.972   9.821  1.00  0.00    -0.246 OA
ATOM     11  O   UNL     1      -9.480  -8.095   8.658  1.00  0.00    -0.423 OA
ENDROOT
BRANCH   1  12
ATOM     12  O   UNL     1      -7.778  -3.469   6.105  1.00  0.00    -0.493 OA
ATOM     13  C   UNL     1      -6.782  -2.575   6.588  1.00  0.00     0.278 C 
ENDBRANCH   1  12
BRANCH   2  14
ATOM     14  O   UNL     1     -10.497  -4.149   6.186  1.00  0.00    -0.504 OA
ATOM     15  H   UNL     1     -11.380  -3.927   6.630  1.00  0.00     0.293 HD
ENDBRANCH   2  14
TORSDOF 2
ENDMDL
MODEL 8
REMARK VINA RESULT:    -4.990     18.701     19.133
REMARK INTER + INTRA:          -5.491
REMARK INTER:                  -5.447
REMARK INTRA:                  -0.044
REMARK UNBOUND:                -0.063
REMARK SMILES COc1cc2ccc(=O)oc2cc1O
REMARK SMILES IDX 3 1 13 2 12 3 11 4 5 5 4 6 6 7 7 8 8 9 9 10 10 11 2 12 1 13
REMARK SMILES IDX 14 14
REMARK H PARENT 14 15
REMARK Flexibility Score: inf
ROOT
ATOM      1  C   UNL     1      -7.103  -3.592   6.716  1.00  0.00     0.161 A 
ATOM      2  C   UNL     1      -7.853  -4.210   5.696  1.00  0.00     0.161 A 
ATOM      3  C   UNL     1      -8.144  -5.577   5.764  1.00  0.00     0.098 A 
ATOM      4  C   UNL     1      -7.692  -6.343   6.840  1.00  0.00     0.142 A 
ATOM      5  C   UNL     1      -6.940  -5.735   7.867  1.00  0.00     0.022 A 
ATOM      6  C   UNL     1      -6.647  -4.366   7.803  1.00  0.00     0.062 A 
ATOM      7  C   UNL     1      -6.502  -6.529   8.931  1.00  0.00     0.019 A 
ATOM      8  C   UNL     1      -6.819  -7.887   8.949  1.00  0.00     0.094 A 
ATOM      9  C   UNL     1      -7.569  -8.421   7.896  1.00  0.00     0.336 A 
ATOM     10  O   UNL     1      -7.866  -9.645   7.893  1.00  0.00    -0.246 OA
ATOM     11  O   UNL     1      -7.973  -7.643   6.895  1.00  0.00    -0.423 OA
ENDROOT
BRANCH   1  12
ATOM     12  O   UNL     1      -6.829  -2.218   6.618  1.00  0.00    -0.493 OA
ATOM     13  C   UNL     1      -6.400  -1.400   7.700  1.00  0.00     0.278 C 
ENDBRANCH   1  12
BRANCH   2  14
ATOM     14  O   UNL     1      -8.322  -3.477   4.606  1.00  0.00    -0.504 OA
ATOM     15  H   UNL     1      -8.744  -3.920   3.798  1.00  0.00     0.293 HD
ENDBRANCH   2  14
TORSDOF 2
ENDMDL
MODEL 9
REMARK VINA RESULT:    -4.970      1.140      4.884
REMARK INTER + INTRA:          -5.469
REMARK INTER:                  -5.423
REMARK INTRA:                  -0.046
REMARK UNBOUND:                -0.063
REMARK SMILES COc1cc2ccc(=O)oc2cc1O
REMARK SMILES IDX 3 1 13 2 12 3 11 4 5 5 4 6 6 7 7 8 8 9 9 10 10 11 2 12 1 13
REMARK SMILES IDX 14 14
REMARK H PARENT 14 15
REMARK Flexibility Score: inf
ROOT
ATOM      1  C   UNL     1     -20.038  -2.671  17.172  1.00  0.00     0.161 A 
ATOM      2  C   UNL     1     -19.501  -3.891  17.628  1.00  0.00     0.161 A 
ATOM      3  C   UNL     1     -19.717  -4.308  18.946  1.00  0.00     0.098 A 
ATOM      4  C   UNL     1     -20.465  -3.520  19.823  1.00  0.00     0.142 A 
ATOM      5  C   UNL     1     -21.008  -2.297  19.378  1.00  0.00     0.022 A 
ATOM      6  C   UNL     1     -20.794  -1.875  18.058  1.00  0.00     0.062 A 
ATOM      7  C   UNL     1     -21.752  -1.530  20.280  1.00  0.00     0.019 A 
ATOM      8  C   UNL     1     -21.937  -1.993  21.582  1.00  0.00     0.094 A 
ATOM      9  C   UNL     1     -21.369  -3.216  21.953  1.00  0.00     0.336 A 
ATOM     10  O   UNL     1     -21.524  -3.651  23.125  1.00  0.00    -0.246 OA
ATOM     11  O   UNL     1     -20.665  -3.925  21.075  1.00  0.00    -0.423 OA
ENDROOT
BRANCH   1  12
ATOM     12  O   UNL     1     -19.803  -2.281  15.843  1.00  0.00    -0.493 OA
ATOM     13  C   UNL     1     -20.699  -1.505  15.058  1.00  0.00     0.278 C 
ENDBRANCH   1  12
BRANCH   2  14
ATOM     14  O   UNL     1     -18.749  -4.705  16.781  1.00  0.00    -0.504 OA
ATOM     15  H   UNL     1     -18.254  -4.338  15.977  1.00  0.00     0.293 HD
ENDBRANCH   2  14
TORSDOF 2
ENDMDL
