MODEL 1
REMARK VINA RESULT:    -4.152      0.000      0.000
REMARK INTER + INTRA:         -10.247
REMARK INTER:                  -9.007
REMARK INTRA:                  -1.240
REMARK UNBOUND:                -1.240
REMARK SMILES CCCCCCCCCCCCCCCCCCCCCC(=O)[O-]
REMARK SMILES IDX 12 1 11 2 10 3 9 4 8 5 7 6 6 7 5 8 4 9 3 10 2 11 1 12 13 13
REMARK SMILES IDX 14 14 15 15 16 16 17 17 18 18 19 19 20 20 21 21 22 22 23 23
REMARK SMILES IDX 24 24
REMARK H PARENT
REMARK Flexibility Score: inf
ROOT
ATOM      1  C   UNL     1      65.757  40.582  58.251  1.00  0.00     0.000 C 
ENDROOT
BRANCH   1   2
ATOM      2  C   UNL     1      64.230  40.528  58.428  1.00  0.00     0.000 C 
BRANCH   2   3
ATOM      3  C   UNL     1      63.644  39.156  58.058  1.00  0.00     0.000 C 
BRANCH   3   4
ATOM      4  C   UNL     1      62.428  38.770  58.924  1.00  0.00    -0.000 C 
BRANCH   4   5
ATOM      5  C   UNL     1      61.496  37.708  58.310  1.00  0.00    -0.000 C 
BRANCH   5   6
ATOM      6  C   UNL     1      61.942  37.157  56.941  1.00  0.00    -0.000 C 
BRANCH   6   7
ATOM      7  C   UNL     1      60.919  37.395  55.809  1.00  0.00    -0.000 C 
BRANCH   7   8
ATOM      8  C   UNL     1      59.598  37.987  56.328  1.00  0.00    -0.000 C 
BRANCH   8   9
ATOM      9  C   UNL     1      58.436  37.797  55.337  1.00  0.00    -0.000 C 
BRANCH   9  10
ATOM     10  C   UNL     1      58.716  36.701  54.299  1.00  0.00    -0.000 C 
BRANCH  10  11
ATOM     11  C   UNL     1      57.409  36.154  53.715  1.00  0.00    -0.003 C 
ATOM     12  C   UNL     1      56.977  36.947  52.485  1.00  0.00     0.004 C 
ENDBRANCH  10  11
ENDBRANCH   9  10
ENDBRANCH   8   9
ENDBRANCH   7   8
ENDBRANCH   6   7
ENDBRANCH   5   6
ENDBRANCH   4   5
ENDBRANCH   3   4
ENDBRANCH   2   3
ENDBRANCH   1   2
BRANCH   1  13
ATOM     13  C   UNL     1      66.343  41.972  58.544  1.00  0.00     0.000 C 
BRANCH  13  14
ATOM     14  C   UNL     1      66.562  42.757  57.244  1.00  0.00     0.000 C 
BRANCH  14  15
ATOM     15  C   UNL     1      65.468  43.816  57.046  1.00  0.00     0.000 C 
BRANCH  15  16
ATOM     16  C   UNL     1      65.129  44.580  58.340  1.00  0.00     0.000 C 
BRANCH  16  17
ATOM     17  C   UNL     1      66.149  45.658  58.750  1.00  0.00     0.000 C 
BRANCH  17  18
ATOM     18  C   UNL     1      66.269  46.793  57.719  1.00  0.00     0.000 C 
BRANCH  18  19
ATOM     19  C   UNL     1      65.594  48.097  58.182  1.00  0.00     0.000 C 
BRANCH  19  20
ATOM     20  C   UNL     1      66.457  49.370  58.051  1.00  0.00     0.006 C 
BRANCH  20  21
ATOM     21  C   UNL     1      67.963  49.146  58.266  1.00  0.00     0.053 C 
BRANCH  21  22
ATOM     22  C   UNL     1      68.747  49.360  57.007  1.00  0.00     0.041 C 
ATOM     23  O   UNL     1      69.839  48.760  56.833  1.00  0.00    -0.550 OA
ATOM     24  O   UNL     1      68.256  50.200  56.016  1.00  0.00    -0.550 OA
ENDBRANCH  21  22
ENDBRANCH  20  21
ENDBRANCH  19  20
ENDBRANCH  18  19
ENDBRANCH  17  18
ENDBRANCH  16  17
ENDBRANCH  15  16
ENDBRANCH  14  15
ENDBRANCH  13  14
ENDBRANCH   1  13
TORSDOF 20
ENDMDL
MODEL 2
REMARK VINA RESULT:    -4.147      5.519     12.569
REMARK INTER + INTRA:         -10.235
REMARK INTER:                  -8.717
REMARK INTRA:                  -1.519
REMARK UNBOUND:                -1.240
REMARK SMILES CCCCCCCCCCCCCCCCCCCCCC(=O)[O-]
REMARK SMILES IDX 12 1 11 2 10 3 9 4 8 5 7 6 6 7 5 8 4 9 3 10 2 11 1 12 13 13
REMARK SMILES IDX 14 14 15 15 16 16 17 17 18 18 19 19 20 20 21 21 22 22 23 23
REMARK SMILES IDX 24 24
REMARK H PARENT
REMARK Flexibility Score: inf
ROOT
ATOM      1  C   UNL     1      69.192  49.489  56.925  1.00  0.00     0.000 C 
ENDROOT
BRANCH   1   2
ATOM      2  C   UNL     1      70.178  48.902  57.950  1.00  0.00     0.000 C 
BRANCH   2   3
ATOM      3  C   UNL     1      71.427  48.300  57.285  1.00  0.00     0.000 C 
BRANCH   3   4
ATOM      4  C   UNL     1      72.684  49.172  57.471  1.00  0.00    -0.000 C 
BRANCH   4   5
ATOM      5  C   UNL     1      72.924  50.219  56.367  1.00  0.00    -0.000 C 
BRANCH   5   6
ATOM      6  C   UNL     1      72.263  51.590  56.609  1.00  0.00    -0.000 C 
BRANCH   6   7
ATOM      7  C   UNL     1      71.285  52.018  55.494  1.00  0.00    -0.000 C 
BRANCH   7   8
ATOM      8  C   UNL     1      71.297  51.047  54.300  1.00  0.00    -0.000 C 
BRANCH   8   9
ATOM      9  C   UNL     1      70.244  51.405  53.238  1.00  0.00    -0.000 C 
BRANCH   9  10
ATOM     10  C   UNL     1      70.862  51.675  51.858  1.00  0.00    -0.000 C 
BRANCH  10  11
ATOM     11  C   UNL     1      69.796  51.607  50.758  1.00  0.00    -0.003 C 
ATOM     12  C   UNL     1      68.741  50.551  51.075  1.00  0.00     0.004 C 
ENDBRANCH  10  11
ENDBRANCH   9  10
ENDBRANCH   8   9
ENDBRANCH   7   8
ENDBRANCH   6   7
ENDBRANCH   5   6
ENDBRANCH   4   5
ENDBRANCH   3   4
ENDBRANCH   2   3
ENDBRANCH   1   2
BRANCH   1  13
ATOM     13  C   UNL     1      67.895  48.674  56.811  1.00  0.00     0.000 C 
BRANCH  13  14
ATOM     14  C   UNL     1      67.287  48.417  58.195  1.00  0.00     0.000 C 
BRANCH  14  15
ATOM     15  C   UNL     1      65.767  48.215  58.105  1.00  0.00     0.000 C 
BRANCH  15  16
ATOM     16  C   UNL     1      65.321  46.808  58.545  1.00  0.00     0.000 C 
BRANCH  16  17
ATOM     17  C   UNL     1      65.910  45.647  57.721  1.00  0.00     0.000 C 
BRANCH  17  18
ATOM     18  C   UNL     1      65.062  44.366  57.801  1.00  0.00     0.000 C 
BRANCH  18  19
ATOM     19  C   UNL     1      65.519  43.281  56.808  1.00  0.00     0.000 C 
BRANCH  19  20
ATOM     20  C   UNL     1      66.710  42.419  57.273  1.00  0.00     0.006 C 
BRANCH  20  21
ATOM     21  C   UNL     1      66.444  41.593  58.542  1.00  0.00     0.053 C 
BRANCH  21  22
ATOM     22  C   UNL     1      65.429  40.516  58.306  1.00  0.00     0.041 C 
ATOM     23  O   UNL     1      65.794  39.379  57.909  1.00  0.00    -0.550 OA
ATOM     24  O   UNL     1      64.084  40.761  58.552  1.00  0.00    -0.550 OA
ENDBRANCH  21  22
ENDBRANCH  20  21
ENDBRANCH  19  20
ENDBRANCH  18  19
ENDBRANCH  17  18
ENDBRANCH  16  17
ENDBRANCH  15  16
ENDBRANCH  14  15
ENDBRANCH  13  14
ENDBRANCH   1  13
TORSDOF 20
ENDMDL
MODEL 3
REMARK VINA RESULT:    -4.091     10.909     13.183
REMARK INTER + INTRA:         -10.115
REMARK INTER:                  -6.600
REMARK INTRA:                  -3.515
REMARK UNBOUND:                -1.240
REMARK SMILES CCCCCCCCCCCCCCCCCCCCCC(=O)[O-]
REMARK SMILES IDX 12 1 11 2 10 3 9 4 8 5 7 6 6 7 5 8 4 9 3 10 2 11 1 12 13 13
REMARK SMILES IDX 14 14 15 15 16 16 17 17 18 18 19 19 20 20 21 21 22 22 23 23
REMARK SMILES IDX 24 24
REMARK H PARENT
REMARK Flexibility Score: inf
ROOT
ATOM      1  C   UNL     1      71.863  48.037  57.733  1.00  0.00     0.000 C 
ENDROOT
BRANCH   1   2
ATOM      2  C   UNL     1      73.253  48.165  58.377  1.00  0.00     0.000 C 
BRANCH   2   3
ATOM      3  C   UNL     1      74.141  49.196  57.659  1.00  0.00     0.000 C 
BRANCH   3   4
ATOM      4  C   UNL     1      73.952  50.628  58.196  1.00  0.00    -0.000 C 
BRANCH   4   5
ATOM      5  C   UNL     1      73.247  51.602  57.232  1.00  0.00    -0.000 C 
BRANCH   5   6
ATOM      6  C   UNL     1      72.521  52.782  57.908  1.00  0.00    -0.000 C 
BRANCH   6   7
ATOM      7  C   UNL     1      71.104  52.436  58.415  1.00  0.00    -0.000 C 
BRANCH   7   8
ATOM      8  C   UNL     1      70.028  53.362  57.823  1.00  0.00    -0.000 C 
BRANCH   8   9
ATOM      9  C   UNL     1      68.600  52.889  58.145  1.00  0.00    -0.000 C 
BRANCH   9  10
ATOM     10  C   UNL     1      67.584  53.294  57.067  1.00  0.00    -0.000 C 
BRANCH  10  11
ATOM     11  C   UNL     1      66.262  52.540  57.251  1.00  0.00    -0.003 C 
ATOM     12  C   UNL     1      66.483  51.194  57.936  1.00  0.00     0.004 C 
ENDBRANCH  10  11
ENDBRANCH   9  10
ENDBRANCH   8   9
ENDBRANCH   7   8
ENDBRANCH   6   7
ENDBRANCH   5   6
ENDBRANCH   4   5
ENDBRANCH   3   4
ENDBRANCH   2   3
ENDBRANCH   1   2
BRANCH   1  13
ATOM     13  C   UNL     1      70.755  48.696  58.568  1.00  0.00     0.000 C 
BRANCH  13  14
ATOM     14  C   UNL     1      69.631  49.222  57.666  1.00  0.00     0.000 C 
BRANCH  14  15
ATOM     15  C   UNL     1      70.171  49.623  56.285  1.00  0.00     0.000 C 
BRANCH  15  16
ATOM     16  C   UNL     1      69.098  50.265  55.385  1.00  0.00     0.000 C 
BRANCH  16  17
ATOM     17  C   UNL     1      69.549  51.527  54.627  1.00  0.00     0.000 C 
BRANCH  17  18
ATOM     18  C   UNL     1      71.061  51.547  54.342  1.00  0.00     0.000 C 
BRANCH  18  19
ATOM     19  C   UNL     1      71.395  51.306  52.858  1.00  0.00     0.000 C 
BRANCH  19  20
ATOM     20  C   UNL     1      70.727  52.279  51.865  1.00  0.00     0.006 C 
BRANCH  20  21
ATOM     21  C   UNL     1      70.387  51.663  50.498  1.00  0.00     0.053 C 
BRANCH  21  22
ATOM     22  C   UNL     1      68.934  51.317  50.385  1.00  0.00     0.041 C 
ATOM     23  O   UNL     1      68.166  52.030  49.688  1.00  0.00    -0.550 OA
ATOM     24  O   UNL     1      68.435  50.191  51.027  1.00  0.00    -0.550 OA
ENDBRANCH  21  22
ENDBRANCH  20  21
ENDBRANCH  19  20
ENDBRANCH  18  19
ENDBRANCH  17  18
ENDBRANCH  16  17
ENDBRANCH  15  16
ENDBRANCH  14  15
ENDBRANCH  13  14
ENDBRANCH   1  13
TORSDOF 20
ENDMDL
MODEL 4
REMARK VINA RESULT:    -4.074     10.405     13.457
REMARK INTER + INTRA:         -10.077
REMARK INTER:                  -6.284
REMARK INTRA:                  -3.793
REMARK UNBOUND:                -1.240
REMARK SMILES CCCCCCCCCCCCCCCCCCCCCC(=O)[O-]
REMARK SMILES IDX 12 1 11 2 10 3 9 4 8 5 7 6 6 7 5 8 4 9 3 10 2 11 1 12 13 13
REMARK SMILES IDX 14 14 15 15 16 16 17 17 18 18 19 19 20 20 21 21 22 22 23 23
REMARK SMILES IDX 24 24
REMARK H PARENT
REMARK Flexibility Score: inf
ROOT
ATOM      1  C   UNL     1      67.320  49.746  58.240  1.00  0.00     0.000 C 
ENDROOT
BRANCH   1   2
ATOM      2  C   UNL     1      66.917  50.937  59.125  1.00  0.00     0.000 C 
BRANCH   2   3
ATOM      3  C   UNL     1      65.836  51.815  58.471  1.00  0.00     0.000 C 
BRANCH   3   4
ATOM      4  C   UNL     1      66.283  52.410  57.121  1.00  0.00    -0.000 C 
BRANCH   4   5
ATOM      5  C   UNL     1      67.037  53.750  57.212  1.00  0.00    -0.000 C 
BRANCH   5   6
ATOM      6  C   UNL     1      68.569  53.650  57.081  1.00  0.00    -0.000 C 
BRANCH   6   7
ATOM      7  C   UNL     1      69.308  53.569  58.435  1.00  0.00    -0.000 C 
BRANCH   7   8
ATOM      8  C   UNL     1      70.548  52.661  58.373  1.00  0.00    -0.000 C 
BRANCH   8   9
ATOM      9  C   UNL     1      71.753  53.352  57.713  1.00  0.00    -0.000 C 
BRANCH   9  10
ATOM     10  C   UNL     1      72.847  52.359  57.291  1.00  0.00    -0.000 C 
BRANCH  10  11
ATOM     11  C   UNL     1      72.503  50.938  57.750  1.00  0.00    -0.003 C 
ATOM     12  C   UNL     1      73.232  49.893  56.911  1.00  0.00     0.004 C 
ENDBRANCH  10  11
ENDBRANCH   9  10
ENDBRANCH   8   9
ENDBRANCH   7   8
ENDBRANCH   6   7
ENDBRANCH   5   6
ENDBRANCH   4   5
ENDBRANCH   3   4
ENDBRANCH   2   3
ENDBRANCH   1   2
BRANCH   1  13
ATOM     13  C   UNL     1      68.836  49.493  58.233  1.00  0.00     0.000 C 
BRANCH  13  14
ATOM     14  C   UNL     1      69.393  49.560  56.806  1.00  0.00     0.000 C 
BRANCH  14  15
ATOM     15  C   UNL     1      68.295  49.934  55.798  1.00  0.00     0.000 C 
BRANCH  15  16
ATOM     16  C   UNL     1      68.831  50.730  54.594  1.00  0.00     0.000 C 
BRANCH  16  17
ATOM     17  C   UNL     1      70.321  51.112  54.671  1.00  0.00     0.000 C 
BRANCH  17  18
ATOM     18  C   UNL     1      70.577  52.594  54.352  1.00  0.00     0.000 C 
BRANCH  18  19
ATOM     19  C   UNL     1      70.781  52.857  52.848  1.00  0.00     0.000 C 
BRANCH  19  20
ATOM     20  C   UNL     1      71.072  51.606  51.993  1.00  0.00     0.006 C 
BRANCH  20  21
ATOM     21  C   UNL     1      70.547  51.681  50.550  1.00  0.00     0.053 C 
BRANCH  21  22
ATOM     22  C   UNL     1      69.095  51.321  50.463  1.00  0.00     0.041 C 
ATOM     23  O   UNL     1      68.650  50.331  51.099  1.00  0.00    -0.550 OA
ATOM     24  O   UNL     1      68.230  52.097  49.702  1.00  0.00    -0.550 OA
ENDBRANCH  21  22
ENDBRANCH  20  21
ENDBRANCH  19  20
ENDBRANCH  18  19
ENDBRANCH  17  18
ENDBRANCH  16  17
ENDBRANCH  15  16
ENDBRANCH  14  15
ENDBRANCH  13  14
ENDBRANCH   1  13
TORSDOF 20
ENDMDL
MODEL 5
REMARK VINA RESULT:    -4.052      6.533     13.303
REMARK INTER + INTRA:         -10.029
REMARK INTER:                  -7.965
REMARK INTRA:                  -2.065
REMARK UNBOUND:                -1.240
REMARK SMILES CCCCCCCCCCCCCCCCCCCCCC(=O)[O-]
REMARK SMILES IDX 12 1 11 2 10 3 9 4 8 5 7 6 6 7 5 8 4 9 3 10 2 11 1 12 13 13
REMARK SMILES IDX 14 14 15 15 16 16 17 17 18 18 19 19 20 20 21 21 22 22 23 23
REMARK SMILES IDX 24 24
REMARK H PARENT
REMARK Flexibility Score: inf
ROOT
ATOM      1  C   UNL     1      71.599  51.402  56.139  1.00  0.00     0.000 C 
ENDROOT
BRANCH   1   2
ATOM      2  C   UNL     1      71.022  51.949  54.823  1.00  0.00     0.000 C 
BRANCH   2   3
ATOM      3  C   UNL     1      69.504  51.725  54.709  1.00  0.00     0.000 C 
BRANCH   3   4
ATOM      4  C   UNL     1      69.131  50.682  53.637  1.00  0.00    -0.000 C 
BRANCH   4   5
ATOM      5  C   UNL     1      69.585  51.023  52.205  1.00  0.00    -0.000 C 
BRANCH   5   6
ATOM      6  C   UNL     1      68.588  50.641  51.093  1.00  0.00    -0.000 C 
BRANCH   6   7
ATOM      7  C   UNL     1      68.799  51.413  49.773  1.00  0.00    -0.000 C 
BRANCH   7   8
ATOM      8  C   UNL     1      68.353  52.882  49.875  1.00  0.00    -0.000 C 
BRANCH   8   9
ATOM      9  C   UNL     1      69.540  53.860  49.896  1.00  0.00    -0.000 C 
BRANCH   9  10
ATOM     10  C   UNL     1      69.636  54.647  51.210  1.00  0.00    -0.000 C 
BRANCH  10  11
ATOM     11  C   UNL     1      70.940  54.323  51.948  1.00  0.00    -0.003 C 
ATOM     12  C   UNL     1      71.978  53.729  51.001  1.00  0.00     0.004 C 
ENDBRANCH  10  11
ENDBRANCH   9  10
ENDBRANCH   8   9
ENDBRANCH   7   8
ENDBRANCH   6   7
ENDBRANCH   5   6
ENDBRANCH   4   5
ENDBRANCH   3   4
ENDBRANCH   2   3
ENDBRANCH   1   2
BRANCH   1  13
ATOM     13  C   UNL     1      71.185  49.949  56.415  1.00  0.00     0.000 C 
BRANCH  13  14
ATOM     14  C   UNL     1      71.219  49.648  57.919  1.00  0.00     0.000 C 
BRANCH  14  15
ATOM     15  C   UNL     1      69.799  49.493  58.486  1.00  0.00     0.000 C 
BRANCH  15  16
ATOM     16  C   UNL     1      68.763  49.107  57.413  1.00  0.00     0.000 C 
BRANCH  16  17
ATOM     17  C   UNL     1      67.443  49.898  57.462  1.00  0.00     0.000 C 
BRANCH  17  18
ATOM     18  C   UNL     1      66.292  49.104  58.101  1.00  0.00     0.000 C 
BRANCH  18  19
ATOM     19  C   UNL     1      66.568  47.590  58.159  1.00  0.00     0.000 C 
BRANCH  19  20
ATOM     20  C   UNL     1      65.316  46.693  58.244  1.00  0.00     0.006 C 
BRANCH  20  21
ATOM     21  C   UNL     1      65.609  45.184  58.242  1.00  0.00     0.053 C 
BRANCH  21  22
ATOM     22  C   UNL     1      65.710  44.635  56.851  1.00  0.00     0.041 C 
ATOM     23  O   UNL     1      65.842  45.413  55.872  1.00  0.00    -0.550 OA
ATOM     24  O   UNL     1      65.686  43.261  56.642  1.00  0.00    -0.550 OA
ENDBRANCH  21  22
ENDBRANCH  20  21
ENDBRANCH  19  20
ENDBRANCH  18  19
ENDBRANCH  17  18
ENDBRANCH  16  17
ENDBRANCH  15  16
ENDBRANCH  14  15
ENDBRANCH  13  14
ENDBRANCH   1  13
TORSDOF 20
ENDMDL
MODEL 6
REMARK VINA RESULT:    -3.958      1.655      2.805
REMARK INTER + INTRA:          -9.827
REMARK INTER:                  -8.423
REMARK INTRA:                  -1.404
REMARK UNBOUND:                -1.240
REMARK SMILES CCCCCCCCCCCCCCCCCCCCCC(=O)[O-]
REMARK SMILES IDX 12 1 11 2 10 3 9 4 8 5 7 6 6 7 5 8 4 9 3 10 2 11 1 12 13 13
REMARK SMILES IDX 14 14 15 15 16 16 17 17 18 18 19 19 20 20 21 21 22 22 23 23
REMARK SMILES IDX 24 24
REMARK H PARENT
REMARK Flexibility Score: inf
ROOT
ATOM      1  C   UNL     1      66.814  42.465  57.551  1.00  0.00     0.000 C 
ENDROOT
BRANCH   1   2
ATOM      2  C   UNL     1      66.287  41.308  58.417  1.00  0.00     0.000 C 
BRANCH   2   3
ATOM      3  C   UNL     1      64.936  41.635  59.076  1.00  0.00     0.000 C 
BRANCH   3   4
ATOM      4  C   UNL     1      63.985  40.423  59.125  1.00  0.00    -0.000 C 
BRANCH   4   5
ATOM      5  C   UNL     1      64.203  39.374  58.019  1.00  0.00    -0.000 C 
BRANCH   5   6
ATOM      6  C   UNL     1      62.928  38.654  57.537  1.00  0.00    -0.000 C 
BRANCH   6   7
ATOM      7  C   UNL     1      63.091  37.936  56.180  1.00  0.00    -0.000 C 
BRANCH   7   8
ATOM      8  C   UNL     1      61.777  37.889  55.380  1.00  0.00    -0.000 C 
BRANCH   8   9
ATOM      9  C   UNL     1      60.614  37.289  56.189  1.00  0.00    -0.000 C 
BRANCH   9  10
ATOM     10  C   UNL     1      59.261  37.928  55.846  1.00  0.00    -0.000 C 
BRANCH  10  11
ATOM     11  C   UNL     1      58.659  38.625  57.070  1.00  0.00    -0.003 C 
ATOM     12  C   UNL     1      59.349  38.178  58.356  1.00  0.00     0.004 C 
ENDBRANCH  10  11
ENDBRANCH   9  10
ENDBRANCH   8   9
ENDBRANCH   7   8
ENDBRANCH   6   7
ENDBRANCH   5   6
ENDBRANCH   4   5
ENDBRANCH   3   4
ENDBRANCH   2   3
ENDBRANCH   1   2
BRANCH   1  13
ATOM     13  C   UNL     1      65.690  43.250  56.856  1.00  0.00     0.000 C 
BRANCH  13  14
ATOM     14  C   UNL     1      65.818  44.752  57.140  1.00  0.00     0.000 C 
BRANCH  14  15
ATOM     15  C   UNL     1      64.883  45.181  58.282  1.00  0.00     0.000 C 
BRANCH  15  16
ATOM     16  C   UNL     1      64.993  46.680  58.616  1.00  0.00     0.000 C 
BRANCH  16  17
ATOM     17  C   UNL     1      66.147  47.424  57.919  1.00  0.00     0.000 C 
BRANCH  17  18
ATOM     18  C   UNL     1      66.130  48.939  58.185  1.00  0.00     0.000 C 
BRANCH  18  19
ATOM     19  C   UNL     1      67.535  49.519  58.438  1.00  0.00     0.000 C 
BRANCH  19  20
ATOM     20  C   UNL     1      68.708  48.570  58.117  1.00  0.00     0.006 C 
BRANCH  20  21
ATOM     21  C   UNL     1      70.061  49.007  58.700  1.00  0.00     0.053 C 
BRANCH  21  22
ATOM     22  C   UNL     1      71.011  49.462  57.634  1.00  0.00     0.041 C 
ATOM     23  O   UNL     1      71.130  50.687  57.374  1.00  0.00    -0.550 OA
ATOM     24  O   UNL     1      71.784  48.534  56.948  1.00  0.00    -0.550 OA
ENDBRANCH  21  22
ENDBRANCH  20  21
ENDBRANCH  19  20
ENDBRANCH  18  19
ENDBRANCH  17  18
ENDBRANCH  16  17
ENDBRANCH  15  16
ENDBRANCH  14  15
ENDBRANCH  13  14
ENDBRANCH   1  13
TORSDOF 20
ENDMDL
MODEL 7
REMARK VINA RESULT:    -3.925      4.600     12.192
REMARK INTER + INTRA:          -9.755
REMARK INTER:                  -8.265
REMARK INTRA:                  -1.490
REMARK UNBOUND:                -1.240
REMARK SMILES CCCCCCCCCCCCCCCCCCCCCC(=O)[O-]
REMARK SMILES IDX 12 1 11 2 10 3 9 4 8 5 7 6 6 7 5 8 4 9 3 10 2 11 1 12 13 13
REMARK SMILES IDX 14 14 15 15 16 16 17 17 18 18 19 19 20 20 21 21 22 22 23 23
REMARK SMILES IDX 24 24
REMARK H PARENT
REMARK Flexibility Score: inf
ROOT
ATOM      1  C   UNL     1      65.705  44.453  56.877  1.00  0.00     0.000 C 
ENDROOT
BRANCH   1   2
ATOM      2  C   UNL     1      64.905  44.946  58.094  1.00  0.00     0.000 C 
BRANCH   2   3
ATOM      3  C   UNL     1      65.474  46.248  58.684  1.00  0.00     0.000 C 
BRANCH   3   4
ATOM      4  C   UNL     1      66.163  47.134  57.627  1.00  0.00    -0.000 C 
BRANCH   4   5
ATOM      5  C   UNL     1      66.467  48.575  58.077  1.00  0.00    -0.000 C 
BRANCH   5   6
ATOM      6  C   UNL     1      67.951  48.987  57.998  1.00  0.00    -0.000 C 
BRANCH   6   7
ATOM      7  C   UNL     1      68.492  49.098  56.556  1.00  0.00    -0.000 C 
BRANCH   7   8
ATOM      8  C   UNL     1      69.071  50.491  56.253  1.00  0.00    -0.000 C 
BRANCH   8   9
ATOM      9  C   UNL     1      68.468  51.588  57.147  1.00  0.00    -0.000 C 
BRANCH   9  10
ATOM     10  C   UNL     1      67.223  52.239  56.527  1.00  0.00    -0.000 C 
BRANCH  10  11
ATOM     11  C   UNL     1      66.086  52.328  57.551  1.00  0.00    -0.003 C 
ATOM     12  C   UNL     1      66.625  52.312  58.979  1.00  0.00     0.004 C 
ENDBRANCH  10  11
ENDBRANCH   9  10
ENDBRANCH   8   9
ENDBRANCH   7   8
ENDBRANCH   6   7
ENDBRANCH   5   6
ENDBRANCH   4   5
ENDBRANCH   3   4
ENDBRANCH   2   3
ENDBRANCH   1   2
BRANCH   1  13
ATOM     13  C   UNL     1      65.882  42.927  56.856  1.00  0.00     0.000 C 
BRANCH  13  14
ATOM     14  C   UNL     1      66.776  42.466  58.014  1.00  0.00     0.000 C 
BRANCH  14  15
ATOM     15  C   UNL     1      66.032  41.482  58.930  1.00  0.00     0.000 C 
BRANCH  15  16
ATOM     16  C   UNL     1      64.748  40.920  58.291  1.00  0.00     0.000 C 
BRANCH  16  17
ATOM     17  C   UNL     1      64.495  39.422  58.538  1.00  0.00     0.000 C 
BRANCH  17  18
ATOM     18  C   UNL     1      63.391  38.844  57.636  1.00  0.00     0.000 C 
BRANCH  18  19
ATOM     19  C   UNL     1      62.203  38.274  58.432  1.00  0.00     0.000 C 
BRANCH  19  20
ATOM     20  C   UNL     1      61.190  37.451  57.609  1.00  0.00     0.006 C 
BRANCH  20  21
ATOM     21  C   UNL     1      59.731  37.586  58.072  1.00  0.00     0.053 C 
BRANCH  21  22
ATOM     22  C   UNL     1      58.913  38.402  57.119  1.00  0.00     0.041 C 
ATOM     23  O   UNL     1      58.372  39.471  57.504  1.00  0.00    -0.550 OA
ATOM     24  O   UNL     1      58.773  37.996  55.797  1.00  0.00    -0.550 OA
ENDBRANCH  21  22
ENDBRANCH  20  21
ENDBRANCH  19  20
ENDBRANCH  18  19
ENDBRANCH  17  18
ENDBRANCH  16  17
ENDBRANCH  15  16
ENDBRANCH  14  15
ENDBRANCH  13  14
ENDBRANCH   1  13
TORSDOF 20
ENDMDL
MODEL 8
REMARK VINA RESULT:    -3.915     10.770     13.454
REMARK INTER + INTRA:          -9.732
REMARK INTER:                  -6.446
REMARK INTRA:                  -3.286
REMARK UNBOUND:                -1.240
REMARK SMILES CCCCCCCCCCCCCCCCCCCCCC(=O)[O-]
REMARK SMILES IDX 12 1 11 2 10 3 9 4 8 5 7 6 6 7 5 8 4 9 3 10 2 11 1 12 13 13
REMARK SMILES IDX 14 14 15 15 16 16 17 17 18 18 19 19 20 20 21 21 22 22 23 23
REMARK SMILES IDX 24 24
REMARK H PARENT
REMARK Flexibility Score: inf
ROOT
ATOM      1  C   UNL     1      67.832  51.302  56.126  1.00  0.00     0.000 C 
ENDROOT
BRANCH   1   2
ATOM      2  C   UNL     1      68.056  49.892  56.696  1.00  0.00     0.000 C 
BRANCH   2   3
ATOM      3  C   UNL     1      69.547  49.525  56.786  1.00  0.00     0.000 C 
BRANCH   3   4
ATOM      4  C   UNL     1      70.300  50.333  57.861  1.00  0.00    -0.000 C 
BRANCH   4   5
ATOM      5  C   UNL     1      71.514  51.131  57.351  1.00  0.00    -0.000 C 
BRANCH   5   6
ATOM      6  C   UNL     1      72.040  50.710  55.964  1.00  0.00    -0.000 C 
BRANCH   6   7
ATOM      7  C   UNL     1      73.402  49.984  56.007  1.00  0.00    -0.000 C 
BRANCH   7   8
ATOM      8  C   UNL     1      74.271  50.436  57.193  1.00  0.00    -0.000 C 
BRANCH   8   9
ATOM      9  C   UNL     1      74.929  49.255  57.928  1.00  0.00    -0.000 C 
BRANCH   9  10
ATOM     10  C   UNL     1      74.021  48.650  59.009  1.00  0.00    -0.000 C 
BRANCH  10  11
ATOM     11  C   UNL     1      73.792  47.156  58.757  1.00  0.00    -0.003 C 
ATOM     12  C   UNL     1      72.567  46.925  57.876  1.00  0.00     0.004 C 
ENDBRANCH  10  11
ENDBRANCH   9  10
ENDBRANCH   8   9
ENDBRANCH   7   8
ENDBRANCH   6   7
ENDBRANCH   5   6
ENDBRANCH   4   5
ENDBRANCH   3   4
ENDBRANCH   2   3
ENDBRANCH   1   2
BRANCH   1  13
ATOM     13  C   UNL     1      66.759  52.092  56.891  1.00  0.00     0.000 C 
BRANCH  13  14
ATOM     14  C   UNL     1      67.168  53.563  57.040  1.00  0.00     0.000 C 
BRANCH  14  15
ATOM     15  C   UNL     1      68.612  53.688  57.551  1.00  0.00     0.000 C 
BRANCH  15  16
ATOM     16  C   UNL     1      69.469  54.641  56.697  1.00  0.00     0.000 C 
BRANCH  16  17
ATOM     17  C   UNL     1      69.337  54.456  55.175  1.00  0.00     0.000 C 
BRANCH  17  18
ATOM     18  C   UNL     1      70.406  53.518  54.590  1.00  0.00     0.000 C 
BRANCH  18  19
ATOM     19  C   UNL     1      70.012  52.941  53.217  1.00  0.00     0.000 C 
BRANCH  19  20
ATOM     20  C   UNL     1      69.957  51.401  53.139  1.00  0.00     0.006 C 
BRANCH  20  21
ATOM     21  C   UNL     1      69.189  50.850  51.927  1.00  0.00     0.053 C 
BRANCH  21  22
ATOM     22  C   UNL     1      69.442  51.656  50.690  1.00  0.00     0.041 C 
ATOM     23  O   UNL     1      68.497  52.271  50.131  1.00  0.00    -0.550 OA
ATOM     24  O   UNL     1      70.727  51.748  50.170  1.00  0.00    -0.550 OA
ENDBRANCH  21  22
ENDBRANCH  20  21
ENDBRANCH  19  20
ENDBRANCH  18  19
ENDBRANCH  17  18
ENDBRANCH  16  17
ENDBRANCH  15  16
ENDBRANCH  14  15
ENDBRANCH  13  14
ENDBRANCH   1  13
TORSDOF 20
ENDMDL
MODEL 9
REMARK VINA RESULT:    -3.885     11.212     14.372
REMARK INTER + INTRA:          -9.668
REMARK INTER:                  -5.973
REMARK INTRA:                  -3.695
REMARK UNBOUND:                -1.240
REMARK SMILES CCCCCCCCCCCCCCCCCCCCCC(=O)[O-]
REMARK SMILES IDX 12 1 11 2 10 3 9 4 8 5 7 6 6 7 5 8 4 9 3 10 2 11 1 12 13 13
REMARK SMILES IDX 14 14 15 15 16 16 17 17 18 18 19 19 20 20 21 21 22 22 23 23
REMARK SMILES IDX 24 24
REMARK H PARENT
REMARK Flexibility Score: inf
ROOT
ATOM      1  C   UNL     1      69.836  53.903  50.317  1.00  0.00     0.000 C 
ENDROOT
BRANCH   1   2
ATOM      2  C   UNL     1      70.538  54.599  51.495  1.00  0.00     0.000 C 
BRANCH   2   3
ATOM      3  C   UNL     1      69.557  55.007  52.606  1.00  0.00     0.000 C 
BRANCH   3   4
ATOM      4  C   UNL     1      70.116  54.759  54.021  1.00  0.00    -0.000 C 
BRANCH   4   5
ATOM      5  C   UNL     1      69.084  54.861  55.161  1.00  0.00    -0.000 C 
BRANCH   5   6
ATOM      6  C   UNL     1      69.563  54.334  56.528  1.00  0.00    -0.000 C 
BRANCH   6   7
ATOM      7  C   UNL     1      71.045  53.901  56.546  1.00  0.00    -0.000 C 
BRANCH   7   8
ATOM      8  C   UNL     1      71.276  52.635  57.388  1.00  0.00    -0.000 C 
BRANCH   8   9
ATOM      9  C   UNL     1      72.575  51.902  57.010  1.00  0.00    -0.000 C 
BRANCH   9  10
ATOM     10  C   UNL     1      72.695  50.525  57.679  1.00  0.00    -0.000 C 
BRANCH  10  11
ATOM     11  C   UNL     1      72.367  49.405  56.686  1.00  0.00    -0.003 C 
ATOM     12  C   UNL     1      71.796  48.182  57.400  1.00  0.00     0.004 C 
ENDBRANCH  10  11
ENDBRANCH   9  10
ENDBRANCH   8   9
ENDBRANCH   7   8
ENDBRANCH   6   7
ENDBRANCH   5   6
ENDBRANCH   4   5
ENDBRANCH   3   4
ENDBRANCH   2   3
ENDBRANCH   1   2
BRANCH   1  13
ATOM     13  C   UNL     1      70.337  52.469  50.086  1.00  0.00     0.000 C 
BRANCH  13  14
ATOM     14  C   UNL     1      69.214  51.453  50.332  1.00  0.00     0.000 C 
BRANCH  14  15
ATOM     15  C   UNL     1      69.226  50.954  51.785  1.00  0.00     0.000 C 
BRANCH  15  16
ATOM     16  C   UNL     1      70.596  51.125  52.467  1.00  0.00     0.000 C 
BRANCH  16  17
ATOM     17  C   UNL     1      70.562  51.153  54.006  1.00  0.00     0.000 C 
BRANCH  17  18
ATOM     18  C   UNL     1      69.134  51.224  54.573  1.00  0.00     0.000 C 
BRANCH  18  19
ATOM     19  C   UNL     1      68.903  50.245  55.739  1.00  0.00     0.000 C 
BRANCH  19  20
ATOM     20  C   UNL     1      68.159  50.832  56.957  1.00  0.00     0.006 C 
BRANCH  20  21
ATOM     21  C   UNL     1      66.969  51.738  56.603  1.00  0.00     0.053 C 
BRANCH  21  22
ATOM     22  C   UNL     1      66.306  52.296  57.826  1.00  0.00     0.041 C 
ATOM     23  O   UNL     1      65.656  51.540  58.593  1.00  0.00    -0.550 OA
ATOM     24  O   UNL     1      66.432  53.645  58.131  1.00  0.00    -0.550 OA
ENDBRANCH  21  22
ENDBRANCH  20  21
ENDBRANCH  19  20
ENDBRANCH  18  19
ENDBRANCH  17  18
ENDBRANCH  16  17
ENDBRANCH  15  16
ENDBRANCH  14  15
ENDBRANCH  13  14
ENDBRANCH   1  13
TORSDOF 20
ENDMDL
