MODEL 1
REMARK VINA RESULT:     9.218      0.000      0.000
REMARK INTER + INTRA:          10.781
REMARK INTER:                  11.104
REMARK INTRA:                  -0.323
REMARK UNBOUND:                -0.323
REMARK SMILES O=c1c(O)c(-c2ccc(O)c(O)c2)oc2cc(O)cc(O)c12
REMARK SMILES IDX 5 1 3 2 2 3 1 4 22 5 20 6 19 7 17 8 16 9 15 10 14 11 6 12
REMARK SMILES IDX 7 13 8 14 9 15 13 16 11 17 10 18 12 20 4 22 21 24 18 26
REMARK H PARENT 10 19 12 21 4 23 21 25 18 27
REMARK Flexibility Score: inf
ROOT
ATOM      1  C   UNL     1       4.786  14.598  18.233  1.00  0.00     0.180 A 
ATOM      2  C   UNL     1       5.538  13.688  19.002  1.00  0.00     0.208 A 
ATOM      3  C   UNL     1       6.180  14.148  20.162  1.00  0.00     0.238 A 
ATOM      4  O   UNL     1       6.847  13.340  20.864  1.00  0.00    -0.285 OA
ATOM      5  C   UNL     1       6.078  15.508  20.523  1.00  0.00     0.111 A 
ATOM      6  C   UNL     1       6.697  16.052  21.674  1.00  0.00     0.134 A 
ATOM      7  C   UNL     1       6.556  17.418  21.959  1.00  0.00     0.093 A 
ATOM      8  C   UNL     1       5.810  18.248  21.120  1.00  0.00     0.123 A 
ATOM      9  C   UNL     1       5.196  17.716  19.982  1.00  0.00     0.094 A 
ATOM     10  C   UNL     1       5.323  16.357  19.680  1.00  0.00     0.146 A 
ATOM     11  O   UNL     1       4.725  15.876  18.596  1.00  0.00    -0.452 OA
ENDROOT
BRANCH   1  12
ATOM     12  C   UNL     1       4.066  14.185  17.008  1.00  0.00     0.025 A 
ATOM     13  C   UNL     1       2.707  13.834  17.041  1.00  0.00     0.016 A 
ATOM     14  C   UNL     1       2.043  13.472  15.868  1.00  0.00     0.051 A 
ATOM     15  C   UNL     1       2.714  13.465  14.639  1.00  0.00     0.157 A 
ATOM     16  C   UNL     1       4.735  14.200  15.774  1.00  0.00     0.062 A 
ATOM     17  C   UNL     1       4.078  13.839  14.592  1.00  0.00     0.158 A 
BRANCH  15  18
ATOM     18  O   UNL     1       1.993  13.088  13.505  1.00  0.00    -0.504 OA
ATOM     19  H   UNL     1       0.994  13.198  13.407  1.00  0.00     0.293 HD
ENDBRANCH  15  18
BRANCH  17  20
ATOM     20  O   UNL     1       4.810  13.865  13.403  1.00  0.00    -0.504 OA
ATOM     21  H   UNL     1       5.816  13.798  13.358  1.00  0.00     0.293 HD
ENDBRANCH  17  20
ENDBRANCH   1  12
BRANCH   2  22
ATOM     22  O   UNL     1       5.665  12.357  18.596  1.00  0.00    -0.502 OA
ATOM     23  H   UNL     1       5.174  11.600  19.056  1.00  0.00     0.293 HD
ENDBRANCH   2  22
BRANCH   6  24
ATOM     24  O   UNL     1       7.450  15.250  22.531  1.00  0.00    -0.507 OA
ATOM     25  H   UNL     1       8.243  14.713  22.199  1.00  0.00     0.293 HD
ENDBRANCH   6  24
BRANCH   8  26
ATOM     26  O   UNL     1       5.686  19.602  21.426  1.00  0.00    -0.508 OA
ATOM     27  H   UNL     1       5.458  19.913  22.363  1.00  0.00     0.293 HD
ENDBRANCH   8  26
TORSDOF 6
ENDMDL
MODEL 2
REMARK VINA RESULT:    10.634      1.538      7.077
REMARK INTER + INTRA:          12.487
REMARK INTER:                  12.716
REMARK INTRA:                  -0.229
REMARK UNBOUND:                -0.323
REMARK SMILES O=c1c(O)c(-c2ccc(O)c(O)c2)oc2cc(O)cc(O)c12
REMARK SMILES IDX 5 1 3 2 2 3 1 4 22 5 20 6 19 7 17 8 16 9 15 10 14 11 6 12
REMARK SMILES IDX 7 13 8 14 9 15 13 16 11 17 10 18 12 20 4 22 21 24 18 26
REMARK H PARENT 10 19 12 21 4 23 21 25 18 27
REMARK Flexibility Score: inf
ROOT
ATOM      1  C   UNL     1       4.761  14.279  17.301  1.00  0.00     0.180 A 
ATOM      2  C   UNL     1       5.555  14.078  16.155  1.00  0.00     0.208 A 
ATOM      3  C   UNL     1       4.925  13.805  14.932  1.00  0.00     0.238 A 
ATOM      4  O   UNL     1       5.626  13.634  13.897  1.00  0.00    -0.285 OA
ATOM      5  C   UNL     1       3.519  13.717  14.876  1.00  0.00     0.111 A 
ATOM      6  C   UNL     1       2.806  13.442  13.684  1.00  0.00     0.134 A 
ATOM      7  C   UNL     1       1.406  13.361  13.713  1.00  0.00     0.093 A 
ATOM      8  C   UNL     1       0.706  13.549  14.906  1.00  0.00     0.123 A 
ATOM      9  C   UNL     1       1.404  13.822  16.087  1.00  0.00     0.094 A 
ATOM     10  C   UNL     1       2.800  13.908  16.079  1.00  0.00     0.146 A 
ATOM     11  O   UNL     1       3.438  14.174  17.213  1.00  0.00    -0.452 OA
ENDROOT
BRANCH   1  12
ATOM     12  C   UNL     1       5.350  14.590  18.622  1.00  0.00     0.025 A 
ATOM     13  C   UNL     1       6.060  13.623  19.353  1.00  0.00     0.016 A 
ATOM     14  C   UNL     1       6.628  13.947  20.586  1.00  0.00     0.051 A 
ATOM     15  C   UNL     1       6.513  15.240  21.109  1.00  0.00     0.157 A 
ATOM     16  C   UNL     1       5.253  15.893  19.134  1.00  0.00     0.062 A 
ATOM     17  C   UNL     1       5.819  16.228  20.370  1.00  0.00     0.158 A 
BRANCH  15  18
ATOM     18  O   UNL     1       7.100  15.497  22.349  1.00  0.00    -0.504 OA
ATOM     19  H   UNL     1       8.095  15.595  22.494  1.00  0.00     0.293 HD
ENDBRANCH  15  18
BRANCH  17  20
ATOM     20  O   UNL     1       5.672  17.541  20.822  1.00  0.00    -0.504 OA
ATOM     21  H   UNL     1       6.379  18.254  20.726  1.00  0.00     0.293 HD
ENDBRANCH  17  20
ENDBRANCH   1  12
BRANCH   2  22
ATOM     22  O   UNL     1       6.949  14.121  16.247  1.00  0.00    -0.502 OA
ATOM     23  H   UNL     1       7.429  14.632  16.978  1.00  0.00     0.293 HD
ENDBRANCH   2  22
BRANCH   6  24
ATOM     24  O   UNL     1       3.477  13.247  12.476  1.00  0.00    -0.507 OA
ATOM     25  H   UNL     1       3.647  14.011  11.832  1.00  0.00     0.293 HD
ENDBRANCH   6  24
BRANCH   8  26
ATOM     26  O   UNL     1      -0.684  13.464  14.908  1.00  0.00    -0.508 OA
ATOM     27  H   UNL     1      -1.202  13.255  14.062  1.00  0.00     0.293 HD
ENDBRANCH   8  26
TORSDOF 6
ENDMDL
MODEL 3
REMARK VINA RESULT:    11.208      1.784      7.457
REMARK INTER + INTRA:          13.179
REMARK INTER:                  13.500
REMARK INTRA:                  -0.322
REMARK UNBOUND:                -0.323
REMARK SMILES O=c1c(O)c(-c2ccc(O)c(O)c2)oc2cc(O)cc(O)c12
REMARK SMILES IDX 5 1 3 2 2 3 1 4 22 5 20 6 19 7 17 8 16 9 15 10 14 11 6 12
REMARK SMILES IDX 7 13 8 14 9 15 13 16 11 17 10 18 12 20 4 22 21 24 18 26
REMARK H PARENT 10 19 12 21 4 23 21 25 18 27
REMARK Flexibility Score: inf
ROOT
ATOM      1  C   UNL     1       4.139  13.914  16.480  1.00  0.00     0.180 A 
ATOM      2  C   UNL     1       2.838  13.389  16.365  1.00  0.00     0.208 A 
ATOM      3  C   UNL     1       2.355  13.044  15.094  1.00  0.00     0.238 A 
ATOM      4  O   UNL     1       1.194  12.562  14.980  1.00  0.00    -0.285 OA
ATOM      5  C   UNL     1       3.167  13.248  13.960  1.00  0.00     0.111 A 
ATOM      6  C   UNL     1       2.755  12.931  12.643  1.00  0.00     0.134 A 
ATOM      7  C   UNL     1       3.620  13.172  11.566  1.00  0.00     0.093 A 
ATOM      8  C   UNL     1       4.885  13.724  11.777  1.00  0.00     0.123 A 
ATOM      9  C   UNL     1       5.299  14.038  13.076  1.00  0.00     0.094 A 
ATOM     10  C   UNL     1       4.452  13.803  14.163  1.00  0.00     0.146 A 
ATOM     11  O   UNL     1       4.872  14.107  15.387  1.00  0.00    -0.452 OA
ENDROOT
BRANCH   1  12
ATOM     12  C   UNL     1       4.726  14.284  17.787  1.00  0.00     0.025 A 
ATOM     13  C   UNL     1       5.546  13.394  18.500  1.00  0.00     0.016 A 
ATOM     14  C   UNL     1       6.107  13.775  19.720  1.00  0.00     0.051 A 
ATOM     15  C   UNL     1       5.876  15.051  20.246  1.00  0.00     0.157 A 
ATOM     16  C   UNL     1       4.511  15.572  18.303  1.00  0.00     0.062 A 
ATOM     17  C   UNL     1       5.070  15.963  19.525  1.00  0.00     0.158 A 
BRANCH  15  18
ATOM     18  O   UNL     1       6.464  15.367  21.473  1.00  0.00    -0.504 OA
ATOM     19  H   UNL     1       6.607  14.702  22.219  1.00  0.00     0.293 HD
ENDBRANCH  15  18
BRANCH  17  20
ATOM     20  O   UNL     1       4.802  17.256  19.982  1.00  0.00    -0.504 OA
ATOM     21  H   UNL     1       5.459  18.019  19.933  1.00  0.00     0.293 HD
ENDBRANCH  17  20
ENDBRANCH   1  12
BRANCH   2  22
ATOM     22  O   UNL     1       2.033  13.243  17.499  1.00  0.00    -0.502 OA
ATOM     23  H   UNL     1       1.317  12.530  17.568  1.00  0.00     0.293 HD
ENDBRANCH   2  22
BRANCH   6  24
ATOM     24  O   UNL     1       1.496  12.381  12.399  1.00  0.00    -0.507 OA
ATOM     25  H   UNL     1       0.647  12.830  12.721  1.00  0.00     0.293 HD
ENDBRANCH   6  24
BRANCH   8  26
ATOM     26  O   UNL     1       5.725  13.954  10.690  1.00  0.00    -0.508 OA
ATOM     27  H   UNL     1       5.395  14.431   9.859  1.00  0.00     0.293 HD
ENDBRANCH   8  26
TORSDOF 6
ENDMDL
MODEL 4
REMARK VINA RESULT:    12.068      1.827      7.494
REMARK INTER + INTRA:          14.214
REMARK INTER:                  14.538
REMARK INTRA:                  -0.324
REMARK UNBOUND:                -0.323
REMARK SMILES O=c1c(O)c(-c2ccc(O)c(O)c2)oc2cc(O)cc(O)c12
REMARK SMILES IDX 5 1 3 2 2 3 1 4 22 5 20 6 19 7 17 8 16 9 15 10 14 11 6 12
REMARK SMILES IDX 7 13 8 14 9 15 13 16 11 17 10 18 12 20 4 22 21 24 18 26
REMARK H PARENT 10 19 12 21 4 23 21 25 18 27
REMARK Flexibility Score: inf
ROOT
ATOM      1  C   UNL     1       4.062  13.922  16.376  1.00  0.00     0.180 A 
ATOM      2  C   UNL     1       2.766  13.385  16.256  1.00  0.00     0.208 A 
ATOM      3  C   UNL     1       2.302  13.010  14.986  1.00  0.00     0.238 A 
ATOM      4  O   UNL     1       1.146  12.518  14.868  1.00  0.00    -0.285 OA
ATOM      5  C   UNL     1       3.128  13.196  13.859  1.00  0.00     0.111 A 
ATOM      6  C   UNL     1       2.735  12.848  12.544  1.00  0.00     0.134 A 
ATOM      7  C   UNL     1       3.612  13.073  11.473  1.00  0.00     0.093 A 
ATOM      8  C   UNL     1       4.871  13.637  11.689  1.00  0.00     0.123 A 
ATOM      9  C   UNL     1       5.265  13.982  12.986  1.00  0.00     0.094 A 
ATOM     10  C   UNL     1       4.406  13.764  14.067  1.00  0.00     0.146 A 
ATOM     11  O   UNL     1       4.807  14.097  15.289  1.00  0.00    -0.452 OA
ENDROOT
BRANCH   1  12
ATOM     12  C   UNL     1       4.629  14.323  17.683  1.00  0.00     0.025 A 
ATOM     13  C   UNL     1       4.470  15.627  18.181  1.00  0.00     0.016 A 
ATOM     14  C   UNL     1       4.993  15.975  19.428  1.00  0.00     0.051 A 
ATOM     15  C   UNL     1       5.670  15.031  20.208  1.00  0.00     0.157 A 
ATOM     16  C   UNL     1       5.288  13.369  18.474  1.00  0.00     0.062 A 
ATOM     17  C   UNL     1       5.816  13.709  19.725  1.00  0.00     0.158 A 
BRANCH  15  18
ATOM     18  O   UNL     1       6.173  15.444  21.443  1.00  0.00    -0.504 OA
ATOM     19  H   UNL     1       7.147  15.392  21.702  1.00  0.00     0.293 HD
ENDBRANCH  15  18
BRANCH  17  20
ATOM     20  O   UNL     1       6.471  12.710  20.451  1.00  0.00    -0.504 OA
ATOM     21  H   UNL     1       6.125  12.322  21.315  1.00  0.00     0.293 HD
ENDBRANCH  17  20
ENDBRANCH   1  12
BRANCH   2  22
ATOM     22  O   UNL     1       1.947  13.258  17.382  1.00  0.00    -0.502 OA
ATOM     23  H   UNL     1       0.967  13.511  17.372  1.00  0.00     0.293 HD
ENDBRANCH   2  22
BRANCH   6  24
ATOM     24  O   UNL     1       1.483  12.284  12.295  1.00  0.00    -0.507 OA
ATOM     25  H   UNL     1       0.708  12.840  11.951  1.00  0.00     0.293 HD
ENDBRANCH   6  24
BRANCH   8  26
ATOM     26  O   UNL     1       5.723  13.850  10.608  1.00  0.00    -0.508 OA
ATOM     27  H   UNL     1       6.725  13.933  10.732  1.00  0.00     0.293 HD
ENDBRANCH   8  26
TORSDOF 6
ENDMDL
