MODEL 1
REMARK VINA RESULT:    -6.415      0.000      0.000
REMARK INTER + INTRA:          -7.682
REMARK INTER:                  -7.540
REMARK INTRA:                  -0.143
REMARK UNBOUND:                -0.143
REMARK SMILES O=C([O-])C=Cc1ccc(O)c(O)c1
REMARK SMILES IDX 6 1 13 2 7 3 11 4 8 5 9 6 5 7 4 8 2 9 1 10 3 11 12 12 10 14
REMARK H PARENT 12 13 10 15
REMARK Flexibility Score: inf
ROOT
ATOM      1  C   UNL     1     -15.412 -29.218 -13.222  1.00  0.00    -0.022 A 
ATOM      2  C   UNL     1     -14.720 -29.005 -14.423  1.00  0.00     0.058 A 
ATOM      3  C   UNL     1     -15.627 -28.137 -12.351  1.00  0.00     0.012 A 
ATOM      4  C   UNL     1     -14.200 -27.743 -14.730  1.00  0.00     0.157 A 
ATOM      5  C   UNL     1     -15.110 -26.875 -12.654  1.00  0.00     0.051 A 
ATOM      6  C   UNL     1     -14.392 -26.672 -13.842  1.00  0.00     0.157 A 
ENDROOT
BRANCH   1   7
ATOM      7  C   UNL     1     -15.994 -30.548 -12.948  1.00  0.00     0.010 C 
ATOM      8  C   UNL     1     -15.723 -31.309 -11.876  1.00  0.00     0.025 C 
BRANCH   8   9
ATOM      9  C   UNL     1     -14.664 -31.044 -10.884  1.00  0.00     0.064 C 
ATOM     10  O   UNL     1     -14.981 -30.616  -9.745  1.00  0.00    -0.545 OA
ATOM     11  O   UNL     1     -13.329 -31.326 -11.154  1.00  0.00    -0.545 OA
ENDBRANCH   8   9
ENDBRANCH   1   7
BRANCH   4  12
ATOM     12  O   UNL     1     -13.501 -27.571 -15.925  1.00  0.00    -0.504 OA
ATOM     13  H   UNL     1     -13.347 -26.656 -16.332  1.00  0.00     0.293 HD
ENDBRANCH   4  12
BRANCH   6  14
ATOM     14  O   UNL     1     -13.876 -25.413 -14.141  1.00  0.00    -0.504 OA
ATOM     15  H   UNL     1     -14.476 -24.647 -14.426  1.00  0.00     0.293 HD
ENDBRANCH   6  14
TORSDOF 4
ENDMDL
MODEL 2
REMARK VINA RESULT:    -6.390      3.619      5.164
REMARK INTER + INTRA:          -7.654
REMARK INTER:                  -7.369
REMARK INTRA:                  -0.285
REMARK UNBOUND:                -0.143
REMARK SMILES O=C([O-])C=Cc1ccc(O)c(O)c1
REMARK SMILES IDX 6 1 13 2 7 3 11 4 8 5 9 6 5 7 4 8 2 9 1 10 3 11 12 12 10 14
REMARK H PARENT 12 13 10 15
REMARK Flexibility Score: inf
ROOT
ATOM      1  C   UNL     1     -15.419 -32.535 -12.074  1.00  0.00    -0.022 A 
ATOM      2  C   UNL     1     -15.070 -33.867 -12.341  1.00  0.00     0.058 A 
ATOM      3  C   UNL     1     -15.662 -31.660 -13.146  1.00  0.00     0.012 A 
ATOM      4  C   UNL     1     -14.913 -34.311 -13.658  1.00  0.00     0.157 A 
ATOM      5  C   UNL     1     -15.506 -32.100 -14.463  1.00  0.00     0.051 A 
ATOM      6  C   UNL     1     -15.128 -33.424 -14.726  1.00  0.00     0.157 A 
ENDROOT
BRANCH   1   7
ATOM      7  C   UNL     1     -15.628 -32.108 -10.676  1.00  0.00     0.010 C 
ATOM      8  C   UNL     1     -14.761 -31.392  -9.944  1.00  0.00     0.025 C 
BRANCH   8   9
ATOM      9  C   UNL     1     -13.376 -31.067 -10.334  1.00  0.00     0.064 C 
ATOM     10  O   UNL     1     -12.444 -31.841  -9.997  1.00  0.00    -0.545 OA
ATOM     11  O   UNL     1     -13.085 -29.963 -11.128  1.00  0.00    -0.545 OA
ENDBRANCH   8   9
ENDBRANCH   1   7
BRANCH   4  12
ATOM     12  O   UNL     1     -14.546 -35.638 -13.887  1.00  0.00    -0.504 OA
ATOM     13  H   UNL     1     -14.007 -36.171 -13.215  1.00  0.00     0.293 HD
ENDBRANCH   4  12
BRANCH   6  14
ATOM     14  O   UNL     1     -14.971 -33.860 -16.041  1.00  0.00    -0.504 OA
ATOM     15  H   UNL     1     -15.586 -34.556 -16.446  1.00  0.00     0.293 HD
ENDBRANCH   6  14
TORSDOF 4
ENDMDL
MODEL 3
REMARK VINA RESULT:    -6.341      3.462      5.026
REMARK INTER + INTRA:          -7.596
REMARK INTER:                  -7.327
REMARK INTRA:                  -0.269
REMARK UNBOUND:                -0.143
REMARK SMILES O=C([O-])C=Cc1ccc(O)c(O)c1
REMARK SMILES IDX 6 1 13 2 7 3 11 4 8 5 9 6 5 7 4 8 2 9 1 10 3 11 12 12 10 14
REMARK H PARENT 12 13 10 15
REMARK Flexibility Score: inf
ROOT
ATOM      1  C   UNL     1     -15.532 -32.400 -12.263  1.00  0.00    -0.022 A 
ATOM      2  C   UNL     1     -15.520 -31.900 -13.573  1.00  0.00     0.058 A 
ATOM      3  C   UNL     1     -15.178 -33.741 -12.035  1.00  0.00     0.012 A 
ATOM      4  C   UNL     1     -15.210 -32.736 -14.651  1.00  0.00     0.157 A 
ATOM      5  C   UNL     1     -14.868 -34.579 -13.109  1.00  0.00     0.051 A 
ATOM      6  C   UNL     1     -14.886 -34.083 -14.421  1.00  0.00     0.157 A 
ENDROOT
BRANCH   1   7
ATOM      7  C   UNL     1     -15.813 -31.482 -11.140  1.00  0.00     0.010 C 
ATOM      8  C   UNL     1     -14.915 -30.673 -10.556  1.00  0.00     0.025 C 
BRANCH   8   9
ATOM      9  C   UNL     1     -13.460 -30.691 -10.799  1.00  0.00     0.064 C 
ATOM     10  O   UNL     1     -12.926 -29.729 -11.408  1.00  0.00    -0.545 OA
ATOM     11  O   UNL     1     -12.655 -31.712 -10.307  1.00  0.00    -0.545 OA
ENDBRANCH   8   9
ENDBRANCH   1   7
BRANCH   4  12
ATOM     12  O   UNL     1     -15.226 -32.210 -15.943  1.00  0.00    -0.504 OA
ATOM     13  H   UNL     1     -15.383 -31.225 -16.122  1.00  0.00     0.293 HD
ENDBRANCH   4  12
BRANCH   6  14
ATOM     14  O   UNL     1     -14.578 -34.922 -15.491  1.00  0.00    -0.504 OA
ATOM     15  H   UNL     1     -14.376 -35.905 -15.353  1.00  0.00     0.293 HD
ENDBRANCH   6  14
TORSDOF 4
ENDMDL
MODEL 4
REMARK VINA RESULT:    -6.077      1.319      1.549
REMARK INTER + INTRA:          -7.285
REMARK INTER:                  -7.576
REMARK INTRA:                   0.291
REMARK UNBOUND:                -0.143
REMARK SMILES O=C([O-])C=Cc1ccc(O)c(O)c1
REMARK SMILES IDX 6 1 13 2 7 3 11 4 8 5 9 6 5 7 4 8 2 9 1 10 3 11 12 12 10 14
REMARK H PARENT 12 13 10 15
REMARK Flexibility Score: inf
ROOT
ATOM      1  C   UNL     1     -15.376 -29.515 -12.776  1.00  0.00    -0.022 A 
ATOM      2  C   UNL     1     -14.070 -29.162 -12.405  1.00  0.00     0.058 A 
ATOM      3  C   UNL     1     -16.191 -28.563 -13.412  1.00  0.00     0.012 A 
ATOM      4  C   UNL     1     -13.596 -27.863 -12.618  1.00  0.00     0.157 A 
ATOM      5  C   UNL     1     -15.722 -27.265 -13.626  1.00  0.00     0.051 A 
ATOM      6  C   UNL     1     -14.426 -26.907 -13.227  1.00  0.00     0.157 A 
ENDROOT
BRANCH   1   7
ATOM      7  C   UNL     1     -15.830 -30.908 -12.587  1.00  0.00     0.010 C 
ATOM      8  C   UNL     1     -15.638 -31.644 -11.482  1.00  0.00     0.025 C 
BRANCH   8   9
ATOM      9  C   UNL     1     -14.783 -31.268 -10.341  1.00  0.00     0.064 C 
ATOM     10  O   UNL     1     -15.235 -30.489  -9.463  1.00  0.00    -0.545 OA
ATOM     11  O   UNL     1     -13.515 -31.814 -10.173  1.00  0.00    -0.545 OA
ENDBRANCH   8   9
ENDBRANCH   1   7
BRANCH   4  12
ATOM     12  O   UNL     1     -12.299 -27.541 -12.220  1.00  0.00    -0.504 OA
ATOM     13  H   UNL     1     -11.528 -27.500 -12.876  1.00  0.00     0.293 HD
ENDBRANCH   4  12
BRANCH   6  14
ATOM     14  O   UNL     1     -13.961 -25.610 -13.440  1.00  0.00    -0.504 OA
ATOM     15  H   UNL     1     -13.650 -25.301 -14.353  1.00  0.00     0.293 HD
ENDBRANCH   6  14
TORSDOF 4
ENDMDL
MODEL 5
REMARK VINA RESULT:    -5.997      1.169      5.010
REMARK INTER + INTRA:          -7.191
REMARK INTER:                  -6.930
REMARK INTRA:                  -0.261
REMARK UNBOUND:                -0.143
REMARK SMILES O=C([O-])C=Cc1ccc(O)c(O)c1
REMARK SMILES IDX 6 1 13 2 7 3 11 4 8 5 9 6 5 7 4 8 2 9 1 10 3 11 12 12 10 14
REMARK H PARENT 12 13 10 15
REMARK Flexibility Score: inf
ROOT
ATOM      1  C   UNL     1     -15.268 -28.842 -12.696  1.00  0.00    -0.022 A 
ATOM      2  C   UNL     1     -14.288 -29.228 -11.770  1.00  0.00     0.058 A 
ATOM      3  C   UNL     1     -16.131 -29.814 -13.229  1.00  0.00     0.012 A 
ATOM      4  C   UNL     1     -14.134 -30.573 -11.416  1.00  0.00     0.157 A 
ATOM      5  C   UNL     1     -15.980 -31.158 -12.879  1.00  0.00     0.051 A 
ATOM      6  C   UNL     1     -14.981 -31.545 -11.975  1.00  0.00     0.157 A 
ENDROOT
BRANCH   1   7
ATOM      7  C   UNL     1     -15.441 -27.409 -13.011  1.00  0.00     0.010 C 
ATOM      8  C   UNL     1     -14.894 -26.772 -14.058  1.00  0.00     0.025 C 
BRANCH   8   9
ATOM      9  C   UNL     1     -13.879 -27.335 -14.968  1.00  0.00     0.064 C 
ATOM     10  O   UNL     1     -14.244 -28.078 -15.914  1.00  0.00    -0.545 OA
ATOM     11  O   UNL     1     -12.534 -27.005 -14.848  1.00  0.00    -0.545 OA
ENDBRANCH   8   9
ENDBRANCH   1   7
BRANCH   4  12
ATOM     12  O   UNL     1     -13.137 -30.924 -10.506  1.00  0.00    -0.504 OA
ATOM     13  H   UNL     1     -12.705 -31.841 -10.507  1.00  0.00     0.293 HD
ENDBRANCH   4  12
BRANCH   6  14
ATOM     14  O   UNL     1     -14.831 -32.887 -11.628  1.00  0.00    -0.504 OA
ATOM     15  H   UNL     1     -14.161 -33.485 -12.098  1.00  0.00     0.293 HD
ENDBRANCH   6  14
TORSDOF 4
ENDMDL
MODEL 6
REMARK VINA RESULT:    -5.903      1.727      1.925
REMARK INTER + INTRA:          -7.081
REMARK INTER:                  -7.145
REMARK INTRA:                   0.064
REMARK UNBOUND:                -0.143
REMARK SMILES O=C([O-])C=Cc1ccc(O)c(O)c1
REMARK SMILES IDX 6 1 13 2 7 3 11 4 8 5 9 6 5 7 4 8 2 9 1 10 3 11 12 12 10 14
REMARK H PARENT 12 13 10 15
REMARK Flexibility Score: inf
ROOT
ATOM      1  C   UNL     1     -14.258 -28.569 -12.473  1.00  0.00    -0.022 A 
ATOM      2  C   UNL     1     -13.835 -28.606 -13.810  1.00  0.00     0.058 A 
ATOM      3  C   UNL     1     -14.819 -27.386 -11.962  1.00  0.00     0.012 A 
ATOM      4  C   UNL     1     -13.920 -27.464 -14.615  1.00  0.00     0.157 A 
ATOM      5  C   UNL     1     -14.905 -26.245 -12.762  1.00  0.00     0.051 A 
ATOM      6  C   UNL     1     -14.454 -26.276 -14.089  1.00  0.00     0.157 A 
ENDROOT
BRANCH   1   7
ATOM      7  C   UNL     1     -14.205 -29.803 -11.663  1.00  0.00     0.010 C 
ATOM      8  C   UNL     1     -14.775 -30.972 -11.991  1.00  0.00     0.025 C 
BRANCH   8   9
ATOM      9  C   UNL     1     -15.707 -31.185 -13.114  1.00  0.00     0.064 C 
ATOM     10  O   UNL     1     -16.775 -30.523 -13.162  1.00  0.00    -0.545 OA
ATOM     11  O   UNL     1     -15.399 -32.048 -14.160  1.00  0.00    -0.545 OA
ENDBRANCH   8   9
ENDBRANCH   1   7
BRANCH   4  12
ATOM     12  O   UNL     1     -13.472 -27.531 -15.934  1.00  0.00    -0.504 OA
ATOM     13  H   UNL     1     -14.097 -27.409 -16.722  1.00  0.00     0.293 HD
ENDBRANCH   4  12
BRANCH   6  14
ATOM     14  O   UNL     1     -14.539 -25.135 -14.885  1.00  0.00    -0.504 OA
ATOM     15  H   UNL     1     -13.716 -24.718 -15.305  1.00  0.00     0.293 HD
ENDBRANCH   6  14
TORSDOF 4
ENDMDL
MODEL 7
REMARK VINA RESULT:    -5.860      1.597      2.169
REMARK INTER + INTRA:          -7.030
REMARK INTER:                  -6.763
REMARK INTRA:                  -0.267
REMARK UNBOUND:                -0.143
REMARK SMILES O=C([O-])C=Cc1ccc(O)c(O)c1
REMARK SMILES IDX 6 1 13 2 7 3 11 4 8 5 9 6 5 7 4 8 2 9 1 10 3 11 12 12 10 14
REMARK H PARENT 12 13 10 15
REMARK Flexibility Score: inf
ROOT
ATOM      1  C   UNL     1     -14.616 -29.022 -12.080  1.00  0.00    -0.022 A 
ATOM      2  C   UNL     1     -13.468 -28.247 -12.302  1.00  0.00     0.058 A 
ATOM      3  C   UNL     1     -15.467 -29.316 -13.158  1.00  0.00     0.012 A 
ATOM      4  C   UNL     1     -13.197 -27.726 -13.572  1.00  0.00     0.157 A 
ATOM      5  C   UNL     1     -15.200 -28.797 -14.427  1.00  0.00     0.051 A 
ATOM      6  C   UNL     1     -14.067 -27.998 -14.640  1.00  0.00     0.157 A 
ENDROOT
BRANCH   1   7
ATOM      7  C   UNL     1     -14.849 -29.603 -10.741  1.00  0.00     0.010 C 
ATOM      8  C   UNL     1     -14.287 -30.729 -10.275  1.00  0.00     0.025 C 
BRANCH   8   9
ATOM      9  C   UNL     1     -13.493 -31.683 -11.071  1.00  0.00     0.064 C 
ATOM     10  O   UNL     1     -14.080 -32.466 -11.860  1.00  0.00    -0.545 OA
ATOM     11  O   UNL     1     -12.103 -31.686 -11.024  1.00  0.00    -0.545 OA
ENDBRANCH   8   9
ENDBRANCH   1   7
BRANCH   4  12
ATOM     12  O   UNL     1     -12.056 -26.944 -13.753  1.00  0.00    -0.504 OA
ATOM     13  H   UNL     1     -11.350 -27.172 -14.443  1.00  0.00     0.293 HD
ENDBRANCH   4  12
BRANCH   6  14
ATOM     14  O   UNL     1     -13.804 -27.479 -15.907  1.00  0.00    -0.504 OA
ATOM     15  H   UNL     1     -14.254 -26.635 -16.239  1.00  0.00     0.293 HD
ENDBRANCH   6  14
TORSDOF 4
ENDMDL
MODEL 8
REMARK VINA RESULT:    -5.787      2.923      3.865
REMARK INTER + INTRA:          -6.945
REMARK INTER:                  -7.026
REMARK INTRA:                   0.081
REMARK UNBOUND:                -0.143
REMARK SMILES O=C([O-])C=Cc1ccc(O)c(O)c1
REMARK SMILES IDX 6 1 13 2 7 3 11 4 8 5 9 6 5 7 4 8 2 9 1 10 3 11 12 12 10 14
REMARK H PARENT 12 13 10 15
REMARK Flexibility Score: inf
ROOT
ATOM      1  C   UNL     1     -14.919 -32.042 -12.103  1.00  0.00    -0.022 A 
ATOM      2  C   UNL     1     -15.738 -31.176 -12.843  1.00  0.00     0.058 A 
ATOM      3  C   UNL     1     -13.860 -31.510 -11.350  1.00  0.00     0.012 A 
ATOM      4  C   UNL     1     -15.476 -29.802 -12.875  1.00  0.00     0.157 A 
ATOM      5  C   UNL     1     -13.594 -30.139 -11.379  1.00  0.00     0.051 A 
ATOM      6  C   UNL     1     -14.397 -29.279 -12.143  1.00  0.00     0.157 A 
ENDROOT
BRANCH   1   7
ATOM      7  C   UNL     1     -15.252 -33.480 -12.046  1.00  0.00     0.010 C 
ATOM      8  C   UNL     1     -15.005 -34.373 -13.017  1.00  0.00     0.025 C 
BRANCH   8   9
ATOM      9  C   UNL     1     -14.534 -34.052 -14.377  1.00  0.00     0.064 C 
ATOM     10  O   UNL     1     -15.251 -33.336 -15.124  1.00  0.00    -0.545 OA
ATOM     11  O   UNL     1     -13.284 -34.459 -14.828  1.00  0.00    -0.545 OA
ENDBRANCH   8   9
ENDBRANCH   1   7
BRANCH   4  12
ATOM     12  O   UNL     1     -16.299 -28.973 -13.636  1.00  0.00    -0.504 OA
ATOM     13  H   UNL     1     -17.277 -29.185 -13.797  1.00  0.00     0.293 HD
ENDBRANCH   4  12
BRANCH   6  14
ATOM     14  O   UNL     1     -14.128 -27.912 -12.172  1.00  0.00    -0.504 OA
ATOM     15  H   UNL     1     -14.663 -27.279 -12.755  1.00  0.00     0.293 HD
ENDBRANCH   6  14
TORSDOF 4
ENDMDL
MODEL 9
REMARK VINA RESULT:    -5.747      1.811      4.769
REMARK INTER + INTRA:          -6.898
REMARK INTER:                  -6.740
REMARK INTRA:                  -0.158
REMARK UNBOUND:                -0.143
REMARK SMILES O=C([O-])C=Cc1ccc(O)c(O)c1
REMARK SMILES IDX 6 1 13 2 7 3 11 4 8 5 9 6 5 7 4 8 2 9 1 10 3 11 12 12 10 14
REMARK H PARENT 12 13 10 15
REMARK Flexibility Score: inf
ROOT
ATOM      1  C   UNL     1     -15.458 -29.333 -12.516  1.00  0.00    -0.022 A 
ATOM      2  C   UNL     1     -15.841 -30.115 -13.615  1.00  0.00     0.058 A 
ATOM      3  C   UNL     1     -14.814 -29.945 -11.427  1.00  0.00     0.012 A 
ATOM      4  C   UNL     1     -15.633 -31.499 -13.611  1.00  0.00     0.157 A 
ATOM      5  C   UNL     1     -14.605 -31.326 -11.419  1.00  0.00     0.051 A 
ATOM      6  C   UNL     1     -15.016 -32.110 -12.507  1.00  0.00     0.157 A 
ENDROOT
BRANCH   1   7
ATOM      7  C   UNL     1     -15.642 -27.868 -12.571  1.00  0.00     0.010 C 
ATOM      8  C   UNL     1     -14.989 -27.034 -13.393  1.00  0.00     0.025 C 
BRANCH   8   9
ATOM      9  C   UNL     1     -13.844 -27.397 -14.250  1.00  0.00     0.064 C 
ATOM     10  O   UNL     1     -12.680 -27.350 -13.776  1.00  0.00    -0.545 OA
ATOM     11  O   UNL     1     -14.028 -27.862 -15.548  1.00  0.00    -0.545 OA
ENDBRANCH   8   9
ENDBRANCH   1   7
BRANCH   4  12
ATOM     12  O   UNL     1     -16.043 -32.249 -14.713  1.00  0.00    -0.504 OA
ATOM     13  H   UNL     1     -17.021 -32.377 -14.944  1.00  0.00     0.293 HD
ENDBRANCH   4  12
BRANCH   6  14
ATOM     14  O   UNL     1     -14.808 -33.488 -12.496  1.00  0.00    -0.504 OA
ATOM     15  H   UNL     1     -14.914 -34.048 -13.334  1.00  0.00     0.293 HD
ENDBRANCH   6  14
TORSDOF 4
ENDMDL
