MODEL 1
REMARK VINA RESULT:    -3.862      0.000      0.000
REMARK INTER + INTRA:         -15.848
REMARK INTER:                 -10.184
REMARK INTRA:                  -5.664
REMARK UNBOUND:                -5.664
REMARK SMILES CCCCCCCCCCCCCCCCCCCCCCCCCCCCCC(=O)[O-]
REMARK SMILES IDX 16 1 17 2 18 3 19 4 20 5 21 6 22 7 23 8 24 9 25 10 26 11
REMARK SMILES IDX 27 12 28 13 29 14 30 15 31 16 32 17 15 18 14 19 13 20 12 21
REMARK SMILES IDX 11 22 10 23 9 24 8 25 7 26 6 27 5 28 4 29 3 30 2 31 1 32
REMARK H PARENT
REMARK Flexibility Score: inf
ROOT
ATOM      1  C   UNL     1       9.371 -13.361  33.563  1.00  0.00     0.000 C 
ENDROOT
BRANCH   1   2
ATOM      2  C   UNL     1       7.941 -12.890  33.899  1.00  0.00     0.000 C 
BRANCH   2   3
ATOM      3  C   UNL     1       7.217 -13.714  34.979  1.00  0.00     0.000 C 
BRANCH   3   4
ATOM      4  C   UNL     1       7.101 -12.966  36.318  1.00  0.00     0.000 C 
BRANCH   4   5
ATOM      5  C   UNL     1       7.382 -13.863  37.537  1.00  0.00     0.000 C 
BRANCH   5   6
ATOM      6  C   UNL     1       6.285 -14.895  37.862  1.00  0.00     0.000 C 
BRANCH   6   7
ATOM      7  C   UNL     1       5.526 -14.580  39.160  1.00  0.00     0.000 C 
BRANCH   7   8
ATOM      8  C   UNL     1       4.047 -14.283  38.875  1.00  0.00     0.000 C 
BRANCH   8   9
ATOM      9  C   UNL     1       3.763 -14.046  37.382  1.00  0.00     0.000 C 
BRANCH   9  10
ATOM     10  C   UNL     1       2.575 -14.847  36.814  1.00  0.00     0.000 C 
BRANCH  10  11
ATOM     11  C   UNL     1       2.953 -16.159  36.098  1.00  0.00     0.000 C 
BRANCH  11  12
ATOM     12  C   UNL     1       4.033 -16.023  35.009  1.00  0.00     0.000 C 
BRANCH  12  13
ATOM     13  C   UNL     1       5.291 -16.887  35.222  1.00  0.00     0.006 C 
BRANCH  13  14
ATOM     14  C   UNL     1       5.016 -18.402  35.222  1.00  0.00     0.053 C 
BRANCH  14  15
ATOM     15  C   UNL     1       5.052 -18.993  36.599  1.00  0.00     0.041 C 
ATOM     16  O   UNL     1       3.993 -19.405  37.140  1.00  0.00    -0.550 OA
ATOM     17  O   UNL     1       6.248 -19.043  37.306  1.00  0.00    -0.550 OA
ENDBRANCH  14  15
ENDBRANCH  13  14
ENDBRANCH  12  13
ENDBRANCH  11  12
ENDBRANCH  10  11
ENDBRANCH   9  10
ENDBRANCH   8   9
ENDBRANCH   7   8
ENDBRANCH   6   7
ENDBRANCH   5   6
ENDBRANCH   4   5
ENDBRANCH   3   4
ENDBRANCH   2   3
ENDBRANCH   1   2
BRANCH   1  18
ATOM     18  C   UNL     1      10.248 -13.710  34.780  1.00  0.00     0.000 C 
BRANCH  18  19
ATOM     19  C   UNL     1      10.700 -15.178  34.784  1.00  0.00     0.000 C 
BRANCH  19  20
ATOM     20  C   UNL     1       9.990 -15.972  35.892  1.00  0.00     0.000 C 
BRANCH  20  21
ATOM     21  C   UNL     1       8.979 -16.994  35.338  1.00  0.00     0.000 C 
BRANCH  21  22
ATOM     22  C   UNL     1       9.265 -17.457  33.897  1.00  0.00     0.000 C 
BRANCH  22  23
ATOM     23  C   UNL     1       7.986 -17.581  33.049  1.00  0.00     0.000 C 
BRANCH  23  24
ATOM     24  C   UNL     1       7.974 -16.611  31.848  1.00  0.00    -0.000 C 
BRANCH  24  25
ATOM     25  C   UNL     1       9.370 -16.111  31.426  1.00  0.00    -0.000 C 
BRANCH  25  26
ATOM     26  C   UNL     1       9.729 -16.341  29.946  1.00  0.00    -0.000 C 
BRANCH  26  27
ATOM     27  C   UNL     1      10.535 -17.626  29.663  1.00  0.00    -0.000 C 
BRANCH  27  28
ATOM     28  C   UNL     1      11.191 -18.266  30.903  1.00  0.00    -0.000 C 
BRANCH  28  29
ATOM     29  C   UNL     1      10.674 -19.673  31.265  1.00  0.00    -0.000 C 
BRANCH  29  30
ATOM     30  C   UNL     1       9.712 -20.296  30.237  1.00  0.00    -0.000 C 
BRANCH  30  31
ATOM     31  C   UNL     1       8.239 -20.177  30.651  1.00  0.00    -0.003 C 
ATOM     32  C   UNL     1       7.363 -19.783  29.465  1.00  0.00     0.004 C 
ENDBRANCH  30  31
ENDBRANCH  29  30
ENDBRANCH  28  29
ENDBRANCH  27  28
ENDBRANCH  26  27
ENDBRANCH  25  26
ENDBRANCH  24  25
ENDBRANCH  23  24
ENDBRANCH  22  23
ENDBRANCH  21  22
ENDBRANCH  20  21
ENDBRANCH  19  20
ENDBRANCH  18  19
ENDBRANCH   1  18
TORSDOF 28
ENDMDL
MODEL 2
REMARK VINA RESULT:    -3.763      2.221      4.095
REMARK INTER + INTRA:         -15.587
REMARK INTER:                 -10.717
REMARK INTRA:                  -4.870
REMARK UNBOUND:                -5.664
REMARK SMILES CCCCCCCCCCCCCCCCCCCCCCCCCCCCCC(=O)[O-]
REMARK SMILES IDX 16 1 17 2 18 3 19 4 20 5 21 6 22 7 23 8 24 9 25 10 26 11
REMARK SMILES IDX 27 12 28 13 29 14 30 15 31 16 32 17 15 18 14 19 13 20 12 21
REMARK SMILES IDX 11 22 10 23 9 24 8 25 7 26 6 27 5 28 4 29 3 30 2 31 1 32
REMARK H PARENT
REMARK Flexibility Score: inf
ROOT
ATOM      1  C   UNL     1       5.884 -17.677  35.451  1.00  0.00     0.000 C 
ENDROOT
BRANCH   1   2
ATOM      2  C   UNL     1       5.451 -16.784  34.270  1.00  0.00     0.000 C 
BRANCH   2   3
ATOM      3  C   UNL     1       4.236 -15.880  34.544  1.00  0.00     0.000 C 
BRANCH   3   4
ATOM      4  C   UNL     1       4.374 -14.488  33.905  1.00  0.00     0.000 C 
BRANCH   4   5
ATOM      5  C   UNL     1       4.875 -13.417  34.891  1.00  0.00     0.000 C 
BRANCH   5   6
ATOM      6  C   UNL     1       6.205 -12.740  34.508  1.00  0.00     0.000 C 
BRANCH   6   7
ATOM      7  C   UNL     1       7.432 -13.423  35.131  1.00  0.00     0.000 C 
BRANCH   7   8
ATOM      8  C   UNL     1       7.627 -12.981  36.588  1.00  0.00     0.000 C 
BRANCH   8   9
ATOM      9  C   UNL     1       7.603 -14.159  37.577  1.00  0.00     0.000 C 
BRANCH   9  10
ATOM     10  C   UNL     1       7.057 -13.817  38.978  1.00  0.00     0.000 C 
BRANCH  10  11
ATOM     11  C   UNL     1       5.593 -14.227  39.228  1.00  0.00     0.000 C 
BRANCH  11  12
ATOM     12  C   UNL     1       4.987 -15.171  38.172  1.00  0.00     0.000 C 
BRANCH  12  13
ATOM     13  C   UNL     1       3.453 -15.113  38.043  1.00  0.00     0.006 C 
BRANCH  13  14
ATOM     14  C   UNL     1       2.785 -14.094  38.984  1.00  0.00     0.053 C 
BRANCH  14  15
ATOM     15  C   UNL     1       1.375 -13.779  38.585  1.00  0.00     0.041 C 
ATOM     16  O   UNL     1       0.411 -14.217  39.265  1.00  0.00    -0.550 OA
ATOM     17  O   UNL     1       1.124 -13.044  37.432  1.00  0.00    -0.550 OA
ENDBRANCH  14  15
ENDBRANCH  13  14
ENDBRANCH  12  13
ENDBRANCH  11  12
ENDBRANCH  10  11
ENDBRANCH   9  10
ENDBRANCH   8   9
ENDBRANCH   7   8
ENDBRANCH   6   7
ENDBRANCH   5   6
ENDBRANCH   4   5
ENDBRANCH   3   4
ENDBRANCH   2   3
ENDBRANCH   1   2
BRANCH   1  18
ATOM     18  C   UNL     1       7.290 -17.387  36.009  1.00  0.00     0.000 C 
BRANCH  18  19
ATOM     19  C   UNL     1       8.317 -17.090  34.906  1.00  0.00     0.000 C 
BRANCH  19  20
ATOM     20  C   UNL     1       9.615 -16.519  35.499  1.00  0.00     0.000 C 
BRANCH  20  21
ATOM     21  C   UNL     1      10.343 -15.566  34.531  1.00  0.00     0.000 C 
BRANCH  21  22
ATOM     22  C   UNL     1       9.734 -15.504  33.118  1.00  0.00     0.000 C 
BRANCH  22  23
ATOM     23  C   UNL     1      10.751 -15.854  32.017  1.00  0.00     0.000 C 
BRANCH  23  24
ATOM     24  C   UNL     1      10.142 -16.728  30.900  1.00  0.00    -0.000 C 
BRANCH  24  25
ATOM     25  C   UNL     1       8.860 -17.478  31.315  1.00  0.00    -0.000 C 
BRANCH  25  26
ATOM     26  C   UNL     1       9.069 -18.937  31.759  1.00  0.00    -0.000 C 
BRANCH  26  27
ATOM     27  C   UNL     1      10.427 -19.552  31.362  1.00  0.00    -0.000 C 
BRANCH  27  28
ATOM     28  C   UNL     1      10.347 -20.684  30.319  1.00  0.00    -0.000 C 
BRANCH  28  29
ATOM     29  C   UNL     1       9.948 -20.239  28.898  1.00  0.00    -0.000 C 
BRANCH  29  30
ATOM     30  C   UNL     1       8.729 -20.970  28.307  1.00  0.00    -0.000 C 
BRANCH  30  31
ATOM     31  C   UNL     1       7.989 -21.829  29.343  1.00  0.00    -0.003 C 
ATOM     32  C   UNL     1       6.699 -21.152  29.798  1.00  0.00     0.004 C 
ENDBRANCH  30  31
ENDBRANCH  29  30
ENDBRANCH  28  29
ENDBRANCH  27  28
ENDBRANCH  26  27
ENDBRANCH  25  26
ENDBRANCH  24  25
ENDBRANCH  23  24
ENDBRANCH  22  23
ENDBRANCH  21  22
ENDBRANCH  20  21
ENDBRANCH  19  20
ENDBRANCH  18  19
ENDBRANCH   1  18
TORSDOF 28
ENDMDL
MODEL 3
REMARK VINA RESULT:    -3.749      4.359     10.010
REMARK INTER + INTRA:         -15.549
REMARK INTER:                 -12.260
REMARK INTRA:                  -3.289
REMARK UNBOUND:                -5.664
REMARK SMILES CCCCCCCCCCCCCCCCCCCCCCCCCCCCCC(=O)[O-]
REMARK SMILES IDX 16 1 17 2 18 3 19 4 20 5 21 6 22 7 23 8 24 9 25 10 26 11
REMARK SMILES IDX 27 12 28 13 29 14 30 15 31 16 32 17 15 18 14 19 13 20 12 21
REMARK SMILES IDX 11 22 10 23 9 24 8 25 7 26 6 27 5 28 4 29 3 30 2 31 1 32
REMARK H PARENT
REMARK Flexibility Score: inf
ROOT
ATOM      1  C   UNL     1      10.109 -16.566  30.940  1.00  0.00     0.000 C 
ENDROOT
BRANCH   1   2
ATOM      2  C   UNL     1      11.064 -17.763  31.131  1.00  0.00     0.000 C 
BRANCH   2   3
ATOM      3  C   UNL     1      10.418 -19.028  31.724  1.00  0.00     0.000 C 
BRANCH   3   4
ATOM      4  C   UNL     1       8.886 -19.034  31.584  1.00  0.00     0.000 C 
BRANCH   4   5
ATOM      5  C   UNL     1       8.380 -20.030  30.525  1.00  0.00     0.000 C 
BRANCH   5   6
ATOM      6  C   UNL     1       9.467 -20.910  29.878  1.00  0.00     0.000 C 
BRANCH   6   7
ATOM      7  C   UNL     1       9.786 -20.508  28.430  1.00  0.00     0.000 C 
BRANCH   7   8
ATOM      8  C   UNL     1       8.906 -19.335  27.978  1.00  0.00     0.000 C 
BRANCH   8   9
ATOM      9  C   UNL     1       9.720 -18.078  27.627  1.00  0.00     0.000 C 
BRANCH   9  10
ATOM     10  C   UNL     1       9.982 -17.875  26.122  1.00  0.00     0.000 C 
BRANCH  10  11
ATOM     11  C   UNL     1      11.302 -17.156  25.779  1.00  0.00     0.000 C 
BRANCH  11  12
ATOM     12  C   UNL     1      11.242 -15.618  25.832  1.00  0.00     0.000 C 
BRANCH  12  13
ATOM     13  C   UNL     1      12.275 -14.890  24.949  1.00  0.00     0.006 C 
BRANCH  13  14
ATOM     14  C   UNL     1      13.022 -13.753  25.670  1.00  0.00     0.053 C 
BRANCH  14  15
ATOM     15  C   UNL     1      14.225 -14.240  26.420  1.00  0.00     0.041 C 
ATOM     16  O   UNL     1      14.543 -15.458  26.388  1.00  0.00    -0.550 OA
ATOM     17  O   UNL     1      14.967 -13.357  27.196  1.00  0.00    -0.550 OA
ENDBRANCH  14  15
ENDBRANCH  13  14
ENDBRANCH  12  13
ENDBRANCH  11  12
ENDBRANCH  10  11
ENDBRANCH   9  10
ENDBRANCH   8   9
ENDBRANCH   7   8
ENDBRANCH   6   7
ENDBRANCH   5   6
ENDBRANCH   4   5
ENDBRANCH   3   4
ENDBRANCH   2   3
ENDBRANCH   1   2
BRANCH   1  18
ATOM     18  C   UNL     1      10.708 -15.189  31.283  1.00  0.00     0.000 C 
BRANCH  18  19
ATOM     19  C   UNL     1      11.018 -15.033  32.779  1.00  0.00     0.000 C 
BRANCH  19  20
ATOM     20  C   UNL     1       9.747 -15.199  33.628  1.00  0.00     0.000 C 
BRANCH  20  21
ATOM     21  C   UNL     1      10.007 -15.948  34.949  1.00  0.00     0.000 C 
BRANCH  21  22
ATOM     22  C   UNL     1       9.253 -17.284  35.084  1.00  0.00     0.000 C 
BRANCH  22  23
ATOM     23  C   UNL     1       7.737 -17.135  34.863  1.00  0.00     0.000 C 
BRANCH  23  24
ATOM     24  C   UNL     1       6.913 -17.515  36.112  1.00  0.00    -0.000 C 
BRANCH  24  25
ATOM     25  C   UNL     1       6.121 -16.343  36.725  1.00  0.00    -0.000 C 
BRANCH  25  26
ATOM     26  C   UNL     1       6.870 -14.998  36.775  1.00  0.00    -0.000 C 
BRANCH  26  27
ATOM     27  C   UNL     1       7.003 -14.378  38.181  1.00  0.00    -0.000 C 
BRANCH  27  28
ATOM     28  C   UNL     1       5.748 -14.502  39.067  1.00  0.00    -0.000 C 
BRANCH  28  29
ATOM     29  C   UNL     1       4.552 -13.632  38.634  1.00  0.00    -0.000 C 
BRANCH  29  30
ATOM     30  C   UNL     1       3.168 -14.260  38.881  1.00  0.00    -0.000 C 
BRANCH  30  31
ATOM     31  C   UNL     1       2.732 -15.203  37.750  1.00  0.00    -0.003 C 
ATOM     32  C   UNL     1       1.250 -15.028  37.429  1.00  0.00     0.004 C 
ENDBRANCH  30  31
ENDBRANCH  29  30
ENDBRANCH  28  29
ENDBRANCH  27  28
ENDBRANCH  26  27
ENDBRANCH  25  26
ENDBRANCH  24  25
ENDBRANCH  23  24
ENDBRANCH  22  23
ENDBRANCH  21  22
ENDBRANCH  20  21
ENDBRANCH  19  20
ENDBRANCH  18  19
ENDBRANCH   1  18
TORSDOF 28
ENDMDL
MODEL 4
REMARK VINA RESULT:    -3.725      1.784      5.796
REMARK INTER + INTRA:         -15.485
REMARK INTER:                  -9.869
REMARK INTRA:                  -5.616
REMARK UNBOUND:                -5.664
REMARK SMILES CCCCCCCCCCCCCCCCCCCCCCCCCCCCCC(=O)[O-]
REMARK SMILES IDX 16 1 17 2 18 3 19 4 20 5 21 6 22 7 23 8 24 9 25 10 26 11
REMARK SMILES IDX 27 12 28 13 29 14 30 15 31 16 32 17 15 18 14 19 13 20 12 21
REMARK SMILES IDX 11 22 10 23 9 24 8 25 7 26 6 27 5 28 4 29 3 30 2 31 1 32
REMARK H PARENT
REMARK Flexibility Score: inf
ROOT
ATOM      1  C   UNL     1       6.850 -18.998  29.968  1.00  0.00     0.000 C 
ENDROOT
BRANCH   1   2
ATOM      2  C   UNL     1       6.894 -17.857  31.006  1.00  0.00     0.000 C 
BRANCH   2   3
ATOM      3  C   UNL     1       7.305 -18.281  32.427  1.00  0.00     0.000 C 
BRANCH   3   4
ATOM      4  C   UNL     1       7.877 -17.115  33.252  1.00  0.00     0.000 C 
BRANCH   4   5
ATOM      5  C   UNL     1       9.218 -17.454  33.927  1.00  0.00     0.000 C 
BRANCH   5   6
ATOM      6  C   UNL     1       9.338 -17.028  35.403  1.00  0.00     0.000 C 
BRANCH   6   7
ATOM      7  C   UNL     1      10.055 -15.682  35.586  1.00  0.00     0.000 C 
BRANCH   7   8
ATOM      8  C   UNL     1       9.208 -14.716  36.427  1.00  0.00     0.000 C 
BRANCH   8   9
ATOM      9  C   UNL     1       7.994 -14.165  35.662  1.00  0.00     0.000 C 
BRANCH   9  10
ATOM     10  C   UNL     1       6.642 -14.330  36.385  1.00  0.00     0.000 C 
BRANCH  10  11
ATOM     11  C   UNL     1       5.850 -15.597  36.009  1.00  0.00     0.000 C 
BRANCH  11  12
ATOM     12  C   UNL     1       6.153 -16.839  36.867  1.00  0.00     0.000 C 
BRANCH  12  13
ATOM     13  C   UNL     1       5.388 -18.116  36.468  1.00  0.00     0.006 C 
BRANCH  13  14
ATOM     14  C   UNL     1       4.741 -18.045  35.073  1.00  0.00     0.053 C 
BRANCH  14  15
ATOM     15  C   UNL     1       4.134 -19.350  34.654  1.00  0.00     0.041 C 
ATOM     16  O   UNL     1       4.010 -19.628  33.432  1.00  0.00    -0.550 OA
ATOM     17  O   UNL     1       3.660 -20.238  35.612  1.00  0.00    -0.550 OA
ENDBRANCH  14  15
ENDBRANCH  13  14
ENDBRANCH  12  13
ENDBRANCH  11  12
ENDBRANCH  10  11
ENDBRANCH   9  10
ENDBRANCH   8   9
ENDBRANCH   7   8
ENDBRANCH   6   7
ENDBRANCH   5   6
ENDBRANCH   4   5
ENDBRANCH   3   4
ENDBRANCH   2   3
ENDBRANCH   1   2
BRANCH   1  18
ATOM     18  C   UNL     1       7.339 -20.367  30.478  1.00  0.00     0.000 C 
BRANCH  18  19
ATOM     19  C   UNL     1       8.120 -21.152  29.414  1.00  0.00     0.000 C 
BRANCH  19  20
ATOM     20  C   UNL     1       9.528 -20.569  29.218  1.00  0.00     0.000 C 
BRANCH  20  21
ATOM     21  C   UNL     1      10.384 -20.638  30.497  1.00  0.00     0.000 C 
BRANCH  21  22
ATOM     22  C   UNL     1      10.736 -19.267  31.104  1.00  0.00     0.000 C 
BRANCH  22  23
ATOM     23  C   UNL     1      10.423 -18.098  30.152  1.00  0.00     0.000 C 
BRANCH  23  24
ATOM     24  C   UNL     1      10.711 -16.721  30.788  1.00  0.00    -0.000 C 
BRANCH  24  25
ATOM     25  C   UNL     1       9.743 -15.606  30.342  1.00  0.00    -0.000 C 
BRANCH  25  26
ATOM     26  C   UNL     1      10.098 -14.192  30.838  1.00  0.00    -0.000 C 
BRANCH  26  27
ATOM     27  C   UNL     1      10.236 -14.054  32.368  1.00  0.00    -0.000 C 
BRANCH  27  28
ATOM     28  C   UNL     1      11.663 -13.749  32.866  1.00  0.00    -0.000 C 
BRANCH  28  29
ATOM     29  C   UNL     1      11.761 -12.646  33.939  1.00  0.00    -0.000 C 
BRANCH  29  30
ATOM     30  C   UNL     1      10.449 -11.885  34.210  1.00  0.00    -0.000 C 
BRANCH  30  31
ATOM     31  C   UNL     1      10.560 -10.911  35.391  1.00  0.00    -0.003 C 
ATOM     32  C   UNL     1      11.633 -11.361  36.378  1.00  0.00     0.004 C 
ENDBRANCH  30  31
ENDBRANCH  29  30
ENDBRANCH  28  29
ENDBRANCH  27  28
ENDBRANCH  26  27
ENDBRANCH  25  26
ENDBRANCH  24  25
ENDBRANCH  23  24
ENDBRANCH  22  23
ENDBRANCH  21  22
ENDBRANCH  20  21
ENDBRANCH  19  20
ENDBRANCH  18  19
ENDBRANCH   1  18
TORSDOF 28
ENDMDL
MODEL 5
REMARK VINA RESULT:    -3.707      3.484      8.213
REMARK INTER + INTRA:         -15.438
REMARK INTER:                  -9.619
REMARK INTRA:                  -5.819
REMARK UNBOUND:                -5.664
REMARK SMILES CCCCCCCCCCCCCCCCCCCCCCCCCCCCCC(=O)[O-]
REMARK SMILES IDX 16 1 17 2 18 3 19 4 20 5 21 6 22 7 23 8 24 9 25 10 26 11
REMARK SMILES IDX 27 12 28 13 29 14 30 15 31 16 32 17 15 18 14 19 13 20 12 21
REMARK SMILES IDX 11 22 10 23 9 24 8 25 7 26 6 27 5 28 4 29 3 30 2 31 1 32
REMARK H PARENT
REMARK Flexibility Score: inf
ROOT
ATOM      1  C   UNL     1       7.274 -17.368  32.924  1.00  0.00     0.000 C 
ENDROOT
BRANCH   1   2
ATOM      2  C   UNL     1       6.956 -18.638  32.108  1.00  0.00     0.000 C 
BRANCH   2   3
ATOM      3  C   UNL     1       6.484 -18.387  30.665  1.00  0.00     0.000 C 
BRANCH   3   4
ATOM      4  C   UNL     1       6.531 -16.901  30.274  1.00  0.00     0.000 C 
BRANCH   4   5
ATOM      5  C   UNL     1       7.827 -16.510  29.541  1.00  0.00     0.000 C 
BRANCH   5   6
ATOM      6  C   UNL     1       8.580 -15.304  30.133  1.00  0.00     0.000 C 
BRANCH   6   7
ATOM      7  C   UNL     1       9.912 -15.690  30.796  1.00  0.00     0.000 C 
BRANCH   7   8
ATOM      8  C   UNL     1      10.464 -16.994  30.203  1.00  0.00     0.000 C 
BRANCH   8   9
ATOM      9  C   UNL     1      11.155 -17.881  31.252  1.00  0.00     0.000 C 
BRANCH   9  10
ATOM     10  C   UNL     1      10.359 -19.134  31.667  1.00  0.00     0.000 C 
BRANCH  10  11
ATOM     11  C   UNL     1      10.545 -20.360  30.753  1.00  0.00     0.000 C 
BRANCH  11  12
ATOM     12  C   UNL     1       9.316 -20.736  29.903  1.00  0.00     0.000 C 
BRANCH  12  13
ATOM     13  C   UNL     1       9.250 -20.068  28.516  1.00  0.00     0.006 C 
BRANCH  13  14
ATOM     14  C   UNL     1       9.239 -21.066  27.343  1.00  0.00     0.053 C 
BRANCH  14  15
ATOM     15  C   UNL     1      10.000 -20.563  26.153  1.00  0.00     0.041 C 
ATOM     16  O   UNL     1      10.629 -21.367  25.417  1.00  0.00    -0.550 OA
ATOM     17  O   UNL     1      10.055 -19.200  25.886  1.00  0.00    -0.550 OA
ENDBRANCH  14  15
ENDBRANCH  13  14
ENDBRANCH  12  13
ENDBRANCH  11  12
ENDBRANCH  10  11
ENDBRANCH   9  10
ENDBRANCH   8   9
ENDBRANCH   7   8
ENDBRANCH   6   7
ENDBRANCH   5   6
ENDBRANCH   4   5
ENDBRANCH   3   4
ENDBRANCH   2   3
ENDBRANCH   1   2
BRANCH   1  18
ATOM     18  C   UNL     1       6.777 -17.384  34.382  1.00  0.00     0.000 C 
BRANCH  18  19
ATOM     19  C   UNL     1       7.907 -17.159  35.397  1.00  0.00     0.000 C 
BRANCH  19  20
ATOM     20  C   UNL     1       9.284 -17.242  34.719  1.00  0.00     0.000 C 
BRANCH  20  21
ATOM     21  C   UNL     1      10.064 -15.915  34.791  1.00  0.00     0.000 C 
BRANCH  21  22
ATOM     22  C   UNL     1       9.879 -15.136  36.106  1.00  0.00     0.000 C 
BRANCH  22  23
ATOM     23  C   UNL     1       9.853 -13.612  35.895  1.00  0.00     0.000 C 
BRANCH  23  24
ATOM     24  C   UNL     1      10.011 -13.214  34.412  1.00  0.00    -0.000 C 
BRANCH  24  25
ATOM     25  C   UNL     1       8.837 -12.387  33.852  1.00  0.00    -0.000 C 
BRANCH  25  26
ATOM     26  C   UNL     1       7.861 -13.161  32.947  1.00  0.00    -0.000 C 
BRANCH  26  27
ATOM     27  C   UNL     1       6.672 -13.816  33.682  1.00  0.00    -0.000 C 
BRANCH  27  28
ATOM     28  C   UNL     1       5.962 -12.908  34.705  1.00  0.00    -0.000 C 
BRANCH  28  29
ATOM     29  C   UNL     1       6.237 -13.247  36.184  1.00  0.00    -0.000 C 
BRANCH  29  30
ATOM     30  C   UNL     1       5.646 -14.585  36.664  1.00  0.00    -0.000 C 
BRANCH  30  31
ATOM     31  C   UNL     1       6.185 -15.015  38.036  1.00  0.00    -0.003 C 
ATOM     32  C   UNL     1       7.201 -14.009  38.569  1.00  0.00     0.004 C 
ENDBRANCH  30  31
ENDBRANCH  29  30
ENDBRANCH  28  29
ENDBRANCH  27  28
ENDBRANCH  26  27
ENDBRANCH  25  26
ENDBRANCH  24  25
ENDBRANCH  23  24
ENDBRANCH  22  23
ENDBRANCH  21  22
ENDBRANCH  20  21
ENDBRANCH  19  20
ENDBRANCH  18  19
ENDBRANCH   1  18
TORSDOF 28
ENDMDL
MODEL 6
REMARK VINA RESULT:    -3.674      2.673      6.580
REMARK INTER + INTRA:         -15.353
REMARK INTER:                 -10.005
REMARK INTRA:                  -5.348
REMARK UNBOUND:                -5.664
REMARK SMILES CCCCCCCCCCCCCCCCCCCCCCCCCCCCCC(=O)[O-]
REMARK SMILES IDX 16 1 17 2 18 3 19 4 20 5 21 6 22 7 23 8 24 9 25 10 26 11
REMARK SMILES IDX 27 12 28 13 29 14 30 15 31 16 32 17 15 18 14 19 13 20 12 21
REMARK SMILES IDX 11 22 10 23 9 24 8 25 7 26 6 27 5 28 4 29 3 30 2 31 1 32
REMARK H PARENT
REMARK Flexibility Score: inf
ROOT
ATOM      1  C   UNL     1       9.660 -18.628  32.299  1.00  0.00     0.000 C 
ENDROOT
BRANCH   1   2
ATOM      2  C   UNL     1       8.193 -18.918  31.920  1.00  0.00     0.000 C 
BRANCH   2   3
ATOM      3  C   UNL     1       7.190 -17.812  32.293  1.00  0.00     0.000 C 
BRANCH   3   4
ATOM      4  C   UNL     1       7.705 -16.403  31.954  1.00  0.00     0.000 C 
BRANCH   4   5
ATOM      5  C   UNL     1       8.047 -16.228  30.463  1.00  0.00     0.000 C 
BRANCH   5   6
ATOM      6  C   UNL     1       9.239 -15.297  30.167  1.00  0.00     0.000 C 
BRANCH   6   7
ATOM      7  C   UNL     1      10.489 -15.636  30.993  1.00  0.00     0.000 C 
BRANCH   7   8
ATOM      8  C   UNL     1      10.714 -14.598  32.101  1.00  0.00     0.000 C 
BRANCH   8   9
ATOM      9  C   UNL     1      11.071 -15.237  33.454  1.00  0.00     0.000 C 
BRANCH   9  10
ATOM     10  C   UNL     1       9.946 -15.198  34.506  1.00  0.00     0.000 C 
BRANCH  10  11
ATOM     11  C   UNL     1       9.750 -16.502  35.304  1.00  0.00     0.000 C 
BRANCH  11  12
ATOM     12  C   UNL     1       8.287 -16.859  35.626  1.00  0.00     0.000 C 
BRANCH  12  13
ATOM     13  C   UNL     1       7.306 -15.670  35.628  1.00  0.00     0.006 C 
BRANCH  13  14
ATOM     14  C   UNL     1       6.722 -15.345  37.015  1.00  0.00     0.053 C 
BRANCH  14  15
ATOM     15  C   UNL     1       7.334 -14.120  37.625  1.00  0.00     0.041 C 
ATOM     16  O   UNL     1       7.034 -13.779  38.799  1.00  0.00    -0.550 OA
ATOM     17  O   UNL     1       8.199 -13.328  36.879  1.00  0.00    -0.550 OA
ENDBRANCH  14  15
ENDBRANCH  13  14
ENDBRANCH  12  13
ENDBRANCH  11  12
ENDBRANCH  10  11
ENDBRANCH   9  10
ENDBRANCH   8   9
ENDBRANCH   7   8
ENDBRANCH   6   7
ENDBRANCH   5   6
ENDBRANCH   4   5
ENDBRANCH   3   4
ENDBRANCH   2   3
ENDBRANCH   1   2
BRANCH   1  18
ATOM     18  C   UNL     1      10.714 -19.291  31.393  1.00  0.00     0.000 C 
BRANCH  18  19
ATOM     19  C   UNL     1      10.113 -20.357  30.465  1.00  0.00     0.000 C 
BRANCH  19  20
ATOM     20  C   UNL     1       9.933 -19.811  29.039  1.00  0.00     0.000 C 
BRANCH  20  21
ATOM     21  C   UNL     1       9.548 -20.907  28.027  1.00  0.00     0.000 C 
BRANCH  21  22
ATOM     22  C   UNL     1       9.125 -20.378  26.644  1.00  0.00     0.000 C 
BRANCH  22  23
ATOM     23  C   UNL     1       8.070 -21.269  25.964  1.00  0.00     0.000 C 
BRANCH  23  24
ATOM     24  C   UNL     1       6.835 -20.474  25.491  1.00  0.00    -0.000 C 
BRANCH  24  25
ATOM     25  C   UNL     1       5.742 -20.307  26.566  1.00  0.00    -0.000 C 
BRANCH  25  26
ATOM     26  C   UNL     1       5.797 -18.989  27.360  1.00  0.00    -0.000 C 
BRANCH  26  27
ATOM     27  C   UNL     1       6.279 -19.126  28.819  1.00  0.00    -0.000 C 
BRANCH  27  28
ATOM     28  C   UNL     1       5.613 -20.264  29.618  1.00  0.00    -0.000 C 
BRANCH  28  29
ATOM     29  C   UNL     1       6.557 -21.405  30.046  1.00  0.00    -0.000 C 
BRANCH  29  30
ATOM     30  C   UNL     1       6.018 -22.824  29.789  1.00  0.00    -0.000 C 
BRANCH  30  31
ATOM     31  C   UNL     1       6.669 -23.496  28.571  1.00  0.00    -0.003 C 
ATOM     32  C   UNL     1       5.615 -23.949  27.564  1.00  0.00     0.004 C 
ENDBRANCH  30  31
ENDBRANCH  29  30
ENDBRANCH  28  29
ENDBRANCH  27  28
ENDBRANCH  26  27
ENDBRANCH  25  26
ENDBRANCH  24  25
ENDBRANCH  23  24
ENDBRANCH  22  23
ENDBRANCH  21  22
ENDBRANCH  20  21
ENDBRANCH  19  20
ENDBRANCH  18  19
ENDBRANCH   1  18
TORSDOF 28
ENDMDL
MODEL 7
REMARK VINA RESULT:    -3.668      3.876      8.565
REMARK INTER + INTRA:         -15.336
REMARK INTER:                  -9.329
REMARK INTRA:                  -6.007
REMARK UNBOUND:                -5.664
REMARK SMILES CCCCCCCCCCCCCCCCCCCCCCCCCCCCCC(=O)[O-]
REMARK SMILES IDX 16 1 17 2 18 3 19 4 20 5 21 6 22 7 23 8 24 9 25 10 26 11
REMARK SMILES IDX 27 12 28 13 29 14 30 15 31 16 32 17 15 18 14 19 13 20 12 21
REMARK SMILES IDX 11 22 10 23 9 24 8 25 7 26 6 27 5 28 4 29 3 30 2 31 1 32
REMARK H PARENT
REMARK Flexibility Score: inf
ROOT
ATOM      1  C   UNL     1       7.933 -14.802  31.133  1.00  0.00     0.000 C 
ENDROOT
BRANCH   1   2
ATOM      2  C   UNL     1       8.653 -15.821  30.225  1.00  0.00     0.000 C 
BRANCH   2   3
ATOM      3  C   UNL     1      10.175 -15.916  30.427  1.00  0.00     0.000 C 
BRANCH   3   4
ATOM      4  C   UNL     1      10.740 -17.296  30.048  1.00  0.00     0.000 C 
BRANCH   4   5
ATOM      5  C   UNL     1      11.160 -18.133  31.270  1.00  0.00     0.000 C 
BRANCH   5   6
ATOM      6  C   UNL     1      10.522 -19.532  31.360  1.00  0.00     0.000 C 
BRANCH   6   7
ATOM      7  C   UNL     1       9.052 -19.554  30.914  1.00  0.00     0.000 C 
BRANCH   7   8
ATOM      8  C   UNL     1       8.810 -20.652  29.868  1.00  0.00     0.000 C 
BRANCH   8   9
ATOM      9  C   UNL     1      10.003 -20.843  28.916  1.00  0.00     0.000 C 
BRANCH   9  10
ATOM     10  C   UNL     1       9.640 -20.861  27.419  1.00  0.00     0.000 C 
BRANCH  10  11
ATOM     11  C   UNL     1       8.245 -20.301  27.076  1.00  0.00     0.000 C 
BRANCH  11  12
ATOM     12  C   UNL     1       8.246 -18.979  26.287  1.00  0.00     0.000 C 
BRANCH  12  13
ATOM     13  C   UNL     1       8.953 -17.799  26.983  1.00  0.00     0.006 C 
BRANCH  13  14
ATOM     14  C   UNL     1      10.330 -17.457  26.387  1.00  0.00     0.053 C 
BRANCH  14  15
ATOM     15  C   UNL     1      10.651 -15.996  26.482  1.00  0.00     0.041 C 
ATOM     16  O   UNL     1      11.803 -15.579  26.190  1.00  0.00    -0.550 OA
ATOM     17  O   UNL     1       9.693 -15.100  26.942  1.00  0.00    -0.550 OA
ENDBRANCH  14  15
ENDBRANCH  13  14
ENDBRANCH  12  13
ENDBRANCH  11  12
ENDBRANCH  10  11
ENDBRANCH   9  10
ENDBRANCH   8   9
ENDBRANCH   7   8
ENDBRANCH   6   7
ENDBRANCH   5   6
ENDBRANCH   4   5
ENDBRANCH   3   4
ENDBRANCH   2   3
ENDBRANCH   1   2
BRANCH   1  18
ATOM     18  C   UNL     1       7.633 -15.294  32.561  1.00  0.00     0.000 C 
BRANCH  18  19
ATOM     19  C   UNL     1       7.267 -16.785  32.611  1.00  0.00     0.000 C 
BRANCH  19  20
ATOM     20  C   UNL     1       7.996 -17.495  33.762  1.00  0.00     0.000 C 
BRANCH  20  21
ATOM     21  C   UNL     1       9.349 -16.842  34.103  1.00  0.00     0.000 C 
BRANCH  21  22
ATOM     22  C   UNL     1       9.622 -16.690  35.611  1.00  0.00     0.000 C 
BRANCH  22  23
ATOM     23  C   UNL     1       9.393 -15.254  36.115  1.00  0.00     0.000 C 
BRANCH  23  24
ATOM     24  C   UNL     1       7.902 -14.942  36.364  1.00  0.00    -0.000 C 
BRANCH  24  25
ATOM     25  C   UNL     1       7.510 -13.475  36.095  1.00  0.00    -0.000 C 
BRANCH  25  26
ATOM     26  C   UNL     1       8.656 -12.455  36.224  1.00  0.00    -0.000 C 
BRANCH  26  27
ATOM     27  C   UNL     1       8.746 -11.428  35.077  1.00  0.00    -0.000 C 
BRANCH  27  28
ATOM     28  C   UNL     1       9.048 -12.029  33.690  1.00  0.00    -0.000 C 
BRANCH  28  29
ATOM     29  C   UNL     1      10.544 -12.219  33.369  1.00  0.00    -0.000 C 
BRANCH  29  30
ATOM     30  C   UNL     1      11.003 -13.684  33.256  1.00  0.00    -0.000 C 
BRANCH  30  31
ATOM     31  C   UNL     1      12.246 -13.986  34.106  1.00  0.00    -0.003 C 
ATOM     32  C   UNL     1      12.266 -13.136  35.373  1.00  0.00     0.004 C 
ENDBRANCH  30  31
ENDBRANCH  29  30
ENDBRANCH  28  29
ENDBRANCH  27  28
ENDBRANCH  26  27
ENDBRANCH  25  26
ENDBRANCH  24  25
ENDBRANCH  23  24
ENDBRANCH  22  23
ENDBRANCH  21  22
ENDBRANCH  20  21
ENDBRANCH  19  20
ENDBRANCH  18  19
ENDBRANCH   1  18
TORSDOF 28
ENDMDL
MODEL 8
REMARK VINA RESULT:    -3.664      3.144      8.081
REMARK INTER + INTRA:         -15.326
REMARK INTER:                  -9.828
REMARK INTRA:                  -5.498
REMARK UNBOUND:                -5.664
REMARK SMILES CCCCCCCCCCCCCCCCCCCCCCCCCCCCCC(=O)[O-]
REMARK SMILES IDX 16 1 17 2 18 3 19 4 20 5 21 6 22 7 23 8 24 9 25 10 26 11
REMARK SMILES IDX 27 12 28 13 29 14 30 15 31 16 32 17 15 18 14 19 13 20 12 21
REMARK SMILES IDX 11 22 10 23 9 24 8 25 7 26 6 27 5 28 4 29 3 30 2 31 1 32
REMARK H PARENT
REMARK Flexibility Score: inf
ROOT
ATOM      1  C   UNL     1       5.985 -17.729  32.878  1.00  0.00     0.000 C 
ENDROOT
BRANCH   1   2
ATOM      2  C   UNL     1       5.929 -18.981  31.978  1.00  0.00     0.000 C 
BRANCH   2   3
ATOM      3  C   UNL     1       7.037 -19.073  30.915  1.00  0.00     0.000 C 
BRANCH   3   4
ATOM      4  C   UNL     1       6.512 -18.844  29.487  1.00  0.00     0.000 C 
BRANCH   4   5
ATOM      5  C   UNL     1       6.427 -17.355  29.107  1.00  0.00     0.000 C 
BRANCH   5   6
ATOM      6  C   UNL     1       7.699 -16.531  29.386  1.00  0.00     0.000 C 
BRANCH   6   7
ATOM      7  C   UNL     1       8.738 -16.625  28.259  1.00  0.00     0.000 C 
BRANCH   7   8
ATOM      8  C   UNL     1      10.125 -16.975  28.816  1.00  0.00     0.000 C 
BRANCH   8   9
ATOM      9  C   UNL     1      10.181 -16.925  30.352  1.00  0.00     0.000 C 
BRANCH   9  10
ATOM     10  C   UNL     1      11.098 -17.981  31.001  1.00  0.00     0.000 C 
BRANCH  10  11
ATOM     11  C   UNL     1      10.377 -19.235  31.532  1.00  0.00     0.000 C 
BRANCH  11  12
ATOM     12  C   UNL     1      10.677 -20.537  30.765  1.00  0.00     0.000 C 
BRANCH  12  13
ATOM     13  C   UNL     1       9.610 -20.950  29.733  1.00  0.00     0.006 C 
BRANCH  13  14
ATOM     14  C   UNL     1       9.870 -20.409  28.315  1.00  0.00     0.053 C 
BRANCH  14  15
ATOM     15  C   UNL     1       8.973 -21.032  27.288  1.00  0.00     0.041 C 
ATOM     16  O   UNL     1       7.912 -21.611  27.640  1.00  0.00    -0.550 OA
ATOM     17  O   UNL     1       9.333 -21.016  25.946  1.00  0.00    -0.550 OA
ENDBRANCH  14  15
ENDBRANCH  13  14
ENDBRANCH  12  13
ENDBRANCH  11  12
ENDBRANCH  10  11
ENDBRANCH   9  10
ENDBRANCH   8   9
ENDBRANCH   7   8
ENDBRANCH   6   7
ENDBRANCH   5   6
ENDBRANCH   4   5
ENDBRANCH   3   4
ENDBRANCH   2   3
ENDBRANCH   1   2
BRANCH   1  18
ATOM     18  C   UNL     1       7.311 -16.947  32.830  1.00  0.00     0.000 C 
BRANCH  18  19
ATOM     19  C   UNL     1       8.307 -17.401  33.908  1.00  0.00     0.000 C 
BRANCH  19  20
ATOM     20  C   UNL     1       9.425 -16.365  34.100  1.00  0.00     0.000 C 
BRANCH  20  21
ATOM     21  C   UNL     1       9.992 -16.358  35.532  1.00  0.00     0.000 C 
BRANCH  21  22
ATOM     22  C   UNL     1       9.495 -15.194  36.410  1.00  0.00     0.000 C 
BRANCH  22  23
ATOM     23  C   UNL     1       8.887 -14.046  35.585  1.00  0.00     0.000 C 
BRANCH  23  24
ATOM     24  C   UNL     1       8.072 -13.060  36.449  1.00  0.00    -0.000 C 
BRANCH  24  25
ATOM     25  C   UNL     1       6.552 -13.315  36.435  1.00  0.00    -0.000 C 
BRANCH  25  26
ATOM     26  C   UNL     1       6.043 -14.183  35.270  1.00  0.00    -0.000 C 
BRANCH  26  27
ATOM     27  C   UNL     1       5.435 -15.539  35.685  1.00  0.00    -0.000 C 
BRANCH  27  28
ATOM     28  C   UNL     1       5.947 -16.096  37.028  1.00  0.00    -0.000 C 
BRANCH  28  29
ATOM     29  C   UNL     1       6.383 -17.575  37.001  1.00  0.00    -0.000 C 
BRANCH  29  30
ATOM     30  C   UNL     1       5.504 -18.495  36.134  1.00  0.00    -0.000 C 
BRANCH  30  31
ATOM     31  C   UNL     1       4.578 -19.392  36.967  1.00  0.00    -0.003 C 
ATOM     32  C   UNL     1       3.110 -19.070  36.697  1.00  0.00     0.004 C 
ENDBRANCH  30  31
ENDBRANCH  29  30
ENDBRANCH  28  29
ENDBRANCH  27  28
ENDBRANCH  26  27
ENDBRANCH  25  26
ENDBRANCH  24  25
ENDBRANCH  23  24
ENDBRANCH  22  23
ENDBRANCH  21  22
ENDBRANCH  20  21
ENDBRANCH  19  20
ENDBRANCH  18  19
ENDBRANCH   1  18
TORSDOF 28
ENDMDL
MODEL 9
REMARK VINA RESULT:    -3.652      2.009      4.855
REMARK INTER + INTRA:         -15.293
REMARK INTER:                  -9.549
REMARK INTRA:                  -5.744
REMARK UNBOUND:                -5.664
REMARK SMILES CCCCCCCCCCCCCCCCCCCCCCCCCCCCCC(=O)[O-]
REMARK SMILES IDX 16 1 17 2 18 3 19 4 20 5 21 6 22 7 23 8 24 9 25 10 26 11
REMARK SMILES IDX 27 12 28 13 29 14 30 15 31 16 32 17 15 18 14 19 13 20 12 21
REMARK SMILES IDX 11 22 10 23 9 24 8 25 7 26 6 27 5 28 4 29 3 30 2 31 1 32
REMARK H PARENT
REMARK Flexibility Score: inf
ROOT
ATOM      1  C   UNL     1       9.561 -17.793  32.815  1.00  0.00     0.000 C 
ENDROOT
BRANCH   1   2
ATOM      2  C   UNL     1       9.072 -16.646  33.724  1.00  0.00     0.000 C 
BRANCH   2   3
ATOM      3  C   UNL     1       9.456 -16.778  35.208  1.00  0.00     0.000 C 
BRANCH   3   4
ATOM      4  C   UNL     1      10.143 -15.516  35.759  1.00  0.00     0.000 C 
BRANCH   4   5
ATOM      5  C   UNL     1       9.219 -14.667  36.651  1.00  0.00     0.000 C 
BRANCH   5   6
ATOM      6  C   UNL     1       8.844 -13.285  36.083  1.00  0.00     0.000 C 
BRANCH   6   7
ATOM      7  C   UNL     1       9.478 -13.004  34.712  1.00  0.00     0.000 C 
BRANCH   7   8
ATOM      8  C   UNL     1       8.407 -12.922  33.616  1.00  0.00     0.000 C 
BRANCH   8   9
ATOM      9  C   UNL     1       6.979 -13.089  34.163  1.00  0.00     0.000 C 
BRANCH   9  10
ATOM     10  C   UNL     1       6.203 -14.291  33.591  1.00  0.00     0.000 C 
BRANCH  10  11
ATOM     11  C   UNL     1       5.237 -14.976  34.578  1.00  0.00     0.000 C 
BRANCH  11  12
ATOM     12  C   UNL     1       5.827 -16.175  35.345  1.00  0.00     0.000 C 
BRANCH  12  13
ATOM     13  C   UNL     1       5.916 -15.996  36.873  1.00  0.00     0.006 C 
BRANCH  13  14
ATOM     14  C   UNL     1       5.552 -14.581  37.359  1.00  0.00     0.053 C 
BRANCH  14  15
ATOM     15  C   UNL     1       5.105 -14.560  38.789  1.00  0.00     0.041 C 
ATOM     16  O   UNL     1       3.942 -14.179  39.085  1.00  0.00    -0.550 OA
ATOM     17  O   UNL     1       5.989 -14.916  39.801  1.00  0.00    -0.550 OA
ENDBRANCH  14  15
ENDBRANCH  13  14
ENDBRANCH  12  13
ENDBRANCH  11  12
ENDBRANCH  10  11
ENDBRANCH   9  10
ENDBRANCH   8   9
ENDBRANCH   7   8
ENDBRANCH   6   7
ENDBRANCH   5   6
ENDBRANCH   4   5
ENDBRANCH   3   4
ENDBRANCH   2   3
ENDBRANCH   1   2
BRANCH   1  18
ATOM     18  C   UNL     1      10.579 -17.384  31.734  1.00  0.00     0.000 C 
BRANCH  18  19
ATOM     19  C   UNL     1      10.697 -18.421  30.607  1.00  0.00     0.000 C 
BRANCH  19  20
ATOM     20  C   UNL     1      10.787 -19.846  31.173  1.00  0.00     0.000 C 
BRANCH  20  21
ATOM     21  C   UNL     1      10.337 -20.918  30.162  1.00  0.00     0.000 C 
BRANCH  21  22
ATOM     22  C   UNL     1       9.174 -20.487  29.250  1.00  0.00     0.000 C 
BRANCH  22  23
ATOM     23  C   UNL     1       8.017 -21.502  29.243  1.00  0.00     0.000 C 
BRANCH  23  24
ATOM     24  C   UNL     1       6.854 -21.084  30.169  1.00  0.00    -0.000 C 
BRANCH  24  25
ATOM     25  C   UNL     1       7.058 -19.722  30.861  1.00  0.00    -0.000 C 
BRANCH  25  26
ATOM     26  C   UNL     1       6.140 -18.590  30.366  1.00  0.00    -0.000 C 
BRANCH  26  27
ATOM     27  C   UNL     1       6.602 -17.898  29.066  1.00  0.00    -0.000 C 
BRANCH  27  28
ATOM     28  C   UNL     1       7.665 -16.798  29.259  1.00  0.00    -0.000 C 
BRANCH  28  29
ATOM     29  C   UNL     1       7.403 -15.832  30.431  1.00  0.00    -0.000 C 
BRANCH  29  30
ATOM     30  C   UNL     1       8.358 -14.626  30.504  1.00  0.00    -0.000 C 
BRANCH  30  31
ATOM     31  C   UNL     1       9.391 -14.615  29.369  1.00  0.00    -0.003 C 
ATOM     32  C   UNL     1      10.767 -14.196  29.880  1.00  0.00     0.004 C 
ENDBRANCH  30  31
ENDBRANCH  29  30
ENDBRANCH  28  29
ENDBRANCH  27  28
ENDBRANCH  26  27
ENDBRANCH  25  26
ENDBRANCH  24  25
ENDBRANCH  23  24
ENDBRANCH  22  23
ENDBRANCH  21  22
ENDBRANCH  20  21
ENDBRANCH  19  20
ENDBRANCH  18  19
ENDBRANCH   1  18
TORSDOF 28
ENDMDL
