MODEL 1
REMARK VINA RESULT:    23.694      0.000      0.000
REMARK INTER + INTRA:          28.859
REMARK INTER:                  29.235
REMARK INTRA:                  -0.376
REMARK UNBOUND:                -0.376
REMARK SMILES Oc1cc(O)c2cc(O)c(-c3cc(O)c(O)c(O)c3)[o+]c2c1
REMARK SMILES IDX 10 1 20 2 21 3 22 4 2 5 3 6 4 7 6 8 7 9 8 10 11 11 12 12
REMARK SMILES IDX 13 13 19 14 15 15 17 16 14 17 16 19 18 21 9 23 1 25 5 27
REMARK H PARENT 14 18 16 20 18 22 9 24 1 26 5 28
REMARK Flexibility Score: inf
ROOT
ATOM      1  C   UNL     1      -6.533  -7.669  15.767  1.00  0.00     0.402 A 
ATOM      2  O   UNL     1      -6.287  -8.652  16.629  1.00  0.00    -0.202 OA
ATOM      3  C   UNL     1      -6.447  -9.938  16.333  1.00  0.00     0.368 A 
ATOM      4  C   UNL     1      -6.159 -10.901  17.304  1.00  0.00     0.162 A 
ATOM      5  C   UNL     1      -6.314 -12.258  17.021  1.00  0.00     0.128 A 
ATOM      6  C   UNL     1      -6.761 -12.659  15.757  1.00  0.00     0.093 A 
ATOM      7  C   UNL     1      -7.056 -11.714  14.766  1.00  0.00     0.136 A 
ATOM      8  C   UNL     1      -6.901 -10.333  15.052  1.00  0.00     0.125 A 
ATOM      9  C   UNL     1      -7.186  -9.316  14.125  1.00  0.00     0.078 A 
ATOM     10  C   UNL     1      -7.014  -7.975  14.480  1.00  0.00     0.223 A 
ENDROOT
BRANCH   1  11
ATOM     11  C   UNL     1      -6.307  -6.275  16.213  1.00  0.00     0.091 A 
ATOM     12  C   UNL     1      -5.046  -5.687  16.031  1.00  0.00     0.068 A 
ATOM     13  C   UNL     1      -4.811  -4.367  16.426  1.00  0.00     0.162 A 
ATOM     14  C   UNL     1      -7.347  -5.506  16.765  1.00  0.00     0.068 A 
ATOM     15  C   UNL     1      -5.847  -3.608  16.997  1.00  0.00     0.200 A 
ATOM     16  C   UNL     1      -7.120  -4.181  17.162  1.00  0.00     0.162 A 
BRANCH  13  17
ATOM     17  O   UNL     1      -3.539  -3.824  16.241  1.00  0.00    -0.504 OA
ATOM     18  H   UNL     1      -2.777  -4.360  15.842  1.00  0.00     0.293 HD
ENDBRANCH  13  17
BRANCH  15  19
ATOM     19  O   UNL     1      -5.602  -2.292  17.390  1.00  0.00    -0.502 OA
ATOM     20  H   UNL     1      -5.569  -1.527  16.725  1.00  0.00     0.293 HD
ENDBRANCH  15  19
BRANCH  16  21
ATOM     21  O   UNL     1      -8.156  -3.430  17.713  1.00  0.00    -0.504 OA
ATOM     22  H   UNL     1      -7.982  -2.559  18.200  1.00  0.00     0.293 HD
ENDBRANCH  16  21
ENDBRANCH   1  11
BRANCH  10  23
ATOM     23  O   UNL     1      -7.343  -6.964  13.578  1.00  0.00    -0.500 OA
ATOM     24  H   UNL     1      -7.371  -7.130  12.579  1.00  0.00     0.294 HD
ENDBRANCH  10  23
BRANCH   5  25
ATOM     25  O   UNL     1      -6.022 -13.202  18.003  1.00  0.00    -0.507 OA
ATOM     26  H   UNL     1      -6.096 -14.196  17.821  1.00  0.00     0.293 HD
ENDBRANCH   5  25
BRANCH   7  27
ATOM     27  O   UNL     1      -7.493 -12.195  13.528  1.00  0.00    -0.507 OA
ATOM     28  H   UNL     1      -7.598 -11.627  12.700  1.00  0.00     0.293 HD
ENDBRANCH   7  27
TORSDOF 7
ENDMDL
MODEL 2
REMARK VINA RESULT:    24.187      1.126      3.122
REMARK INTER + INTRA:          29.467
REMARK INTER:                  29.781
REMARK INTRA:                  -0.314
REMARK UNBOUND:                -0.376
REMARK SMILES Oc1cc(O)c2cc(O)c(-c3cc(O)c(O)c(O)c3)[o+]c2c1
REMARK SMILES IDX 10 1 20 2 21 3 22 4 2 5 3 6 4 7 6 8 7 9 8 10 11 11 12 12
REMARK SMILES IDX 13 13 19 14 15 15 17 16 14 17 16 19 18 21 9 23 1 25 5 27
REMARK H PARENT 14 18 16 20 18 22 9 24 1 26 5 28
REMARK Flexibility Score: inf
ROOT
ATOM      1  C   UNL     1      -6.335  -7.398  16.563  1.00  0.00     0.402 A 
ATOM      2  O   UNL     1      -6.956  -7.932  15.513  1.00  0.00    -0.202 OA
ATOM      3  C   UNL     1      -7.036  -9.241  15.301  1.00  0.00     0.368 A 
ATOM      4  C   UNL     1      -7.711  -9.707  14.170  1.00  0.00     0.162 A 
ATOM      5  C   UNL     1      -7.814 -11.077  13.923  1.00  0.00     0.128 A 
ATOM      6  C   UNL     1      -7.237 -11.989  14.813  1.00  0.00     0.093 A 
ATOM      7  C   UNL     1      -6.555 -11.548  15.953  1.00  0.00     0.136 A 
ATOM      8  C   UNL     1      -6.446 -10.156  16.206  1.00  0.00     0.125 A 
ATOM      9  C   UNL     1      -5.770  -9.624  17.316  1.00  0.00     0.078 A 
ATOM     10  C   UNL     1      -5.700  -8.239  17.496  1.00  0.00     0.223 A 
ENDROOT
BRANCH   1  11
ATOM     11  C   UNL     1      -6.323  -5.924  16.693  1.00  0.00     0.091 A 
ATOM     12  C   UNL     1      -7.471  -5.261  17.155  1.00  0.00     0.068 A 
ATOM     13  C   UNL     1      -7.481  -3.871  17.305  1.00  0.00     0.162 A 
ATOM     14  C   UNL     1      -5.166  -5.175  16.419  1.00  0.00     0.068 A 
ATOM     15  C   UNL     1      -6.328  -3.124  17.010  1.00  0.00     0.200 A 
ATOM     16  C   UNL     1      -5.166  -3.781  16.568  1.00  0.00     0.162 A 
BRANCH  13  17
ATOM     17  O   UNL     1      -8.647  -3.250  17.753  1.00  0.00    -0.504 OA
ATOM     18  H   UNL     1      -9.532  -3.353  17.271  1.00  0.00     0.293 HD
ENDBRANCH  13  17
BRANCH  15  19
ATOM     19  O   UNL     1      -6.347  -1.737  17.161  1.00  0.00    -0.502 OA
ATOM     20  H   UNL     1      -7.164  -1.242  17.500  1.00  0.00     0.293 HD
ENDBRANCH  15  19
BRANCH  16  21
ATOM     21  O   UNL     1      -4.015  -3.048  16.287  1.00  0.00    -0.504 OA
ATOM     22  H   UNL     1      -3.223  -3.463  15.810  1.00  0.00     0.293 HD
ENDBRANCH  16  21
ENDBRANCH   1  11
BRANCH  10  23
ATOM     23  O   UNL     1      -4.987  -7.707  18.571  1.00  0.00    -0.500 OA
ATOM     24  H   UNL     1      -4.010  -7.927  18.722  1.00  0.00     0.294 HD
ENDBRANCH  10  23
BRANCH   5  25
ATOM     25  O   UNL     1      -8.493 -11.521  12.790  1.00  0.00    -0.507 OA
ATOM     26  H   UNL     1      -9.503 -11.480  12.728  1.00  0.00     0.293 HD
ENDBRANCH   5  25
BRANCH   7  27
ATOM     27  O   UNL     1      -6.009 -12.523  16.794  1.00  0.00    -0.507 OA
ATOM     28  H   UNL     1      -5.250 -13.137  16.539  1.00  0.00     0.293 HD
ENDBRANCH   7  27
TORSDOF 7
ENDMDL
MODEL 3
REMARK VINA RESULT:    24.343      1.112      2.561
REMARK INTER + INTRA:          29.659
REMARK INTER:                  29.976
REMARK INTRA:                  -0.317
REMARK UNBOUND:                -0.376
REMARK SMILES Oc1cc(O)c2cc(O)c(-c3cc(O)c(O)c(O)c3)[o+]c2c1
REMARK SMILES IDX 10 1 20 2 21 3 22 4 2 5 3 6 4 7 6 8 7 9 8 10 11 11 12 12
REMARK SMILES IDX 13 13 19 14 15 15 17 16 14 17 16 19 18 21 9 23 1 25 5 27
REMARK H PARENT 14 18 16 20 18 22 9 24 1 26 5 28
REMARK Flexibility Score: inf
ROOT
ATOM      1  C   UNL     1      -6.311  -7.421  16.591  1.00  0.00     0.402 A 
ATOM      2  O   UNL     1      -6.939  -7.930  15.533  1.00  0.00    -0.202 OA
ATOM      3  C   UNL     1      -7.045  -9.235  15.305  1.00  0.00     0.368 A 
ATOM      4  C   UNL     1      -7.726  -9.674  14.167  1.00  0.00     0.162 A 
ATOM      5  C   UNL     1      -7.855 -11.038  13.903  1.00  0.00     0.128 A 
ATOM      6  C   UNL     1      -7.299 -11.972  14.784  1.00  0.00     0.093 A 
ATOM      7  C   UNL     1      -6.612 -11.558  15.931  1.00  0.00     0.136 A 
ATOM      8  C   UNL     1      -6.476 -10.172  16.201  1.00  0.00     0.125 A 
ATOM      9  C   UNL     1      -5.793  -9.666  17.319  1.00  0.00     0.078 A 
ATOM     10  C   UNL     1      -5.696  -8.285  17.516  1.00  0.00     0.223 A 
ENDROOT
BRANCH   1  11
ATOM     11  C   UNL     1      -6.270  -5.949  16.738  1.00  0.00     0.091 A 
ATOM     12  C   UNL     1      -5.091  -5.256  16.424  1.00  0.00     0.068 A 
ATOM     13  C   UNL     1      -5.030  -3.863  16.536  1.00  0.00     0.162 A 
ATOM     14  C   UNL     1      -7.406  -5.221  17.133  1.00  0.00     0.068 A 
ATOM     15  C   UNL     1      -6.162  -3.141  16.951  1.00  0.00     0.200 A 
ATOM     16  C   UNL     1      -7.355  -3.825  17.247  1.00  0.00     0.162 A 
BRANCH  13  17
ATOM     17  O   UNL     1      -3.835  -3.213  16.228  1.00  0.00    -0.504 OA
ATOM     18  H   UNL     1      -3.511  -2.406  16.748  1.00  0.00     0.293 HD
ENDBRANCH  13  17
BRANCH  15  19
ATOM     19  O   UNL     1      -6.092  -1.752  17.062  1.00  0.00    -0.502 OA
ATOM     20  H   UNL     1      -5.451  -1.293  17.698  1.00  0.00     0.293 HD
ENDBRANCH  15  19
BRANCH  16  21
ATOM     21  O   UNL     1      -8.485  -3.115  17.645  1.00  0.00    -0.504 OA
ATOM     22  H   UNL     1      -8.836  -2.328  17.110  1.00  0.00     0.293 HD
ENDBRANCH  16  21
ENDBRANCH   1  11
BRANCH  10  23
ATOM     23  O   UNL     1      -4.976  -7.781  18.598  1.00  0.00    -0.500 OA
ATOM     24  H   UNL     1      -4.093  -7.300  18.473  1.00  0.00     0.294 HD
ENDBRANCH  10  23
BRANCH   5  25
ATOM     25  O   UNL     1      -8.539 -11.455  12.763  1.00  0.00    -0.507 OA
ATOM     26  H   UNL     1      -9.407 -11.019  12.477  1.00  0.00     0.293 HD
ENDBRANCH   5  25
BRANCH   7  27
ATOM     27  O   UNL     1      -6.088 -12.554  16.762  1.00  0.00    -0.507 OA
ATOM     28  H   UNL     1      -5.103 -12.702  16.925  1.00  0.00     0.293 HD
ENDBRANCH   7  27
TORSDOF 7
ENDMDL
MODEL 4
REMARK VINA RESULT:    24.853      1.516      7.256
REMARK INTER + INTRA:          30.289
REMARK INTER:                  30.659
REMARK INTRA:                  -0.369
REMARK UNBOUND:                -0.376
REMARK SMILES Oc1cc(O)c2cc(O)c(-c3cc(O)c(O)c(O)c3)[o+]c2c1
REMARK SMILES IDX 10 1 20 2 21 3 22 4 2 5 3 6 4 7 6 8 7 9 8 10 11 11 12 12
REMARK SMILES IDX 13 13 19 14 15 15 17 16 14 17 16 19 18 21 9 23 1 25 5 27
REMARK H PARENT 14 18 16 20 18 22 9 24 1 26 5 28
REMARK Flexibility Score: inf
ROOT
ATOM      1  C   UNL     1      -6.567  -6.956  16.441  1.00  0.00     0.402 A 
ATOM      2  O   UNL     1      -7.676  -6.313  16.796  1.00  0.00    -0.202 OA
ATOM      3  C   UNL     1      -7.718  -5.006  17.033  1.00  0.00     0.368 A 
ATOM      4  C   UNL     1      -8.932  -4.419  17.398  1.00  0.00     0.162 A 
ATOM      5  C   UNL     1      -9.007  -3.049  17.650  1.00  0.00     0.128 A 
ATOM      6  C   UNL     1      -7.859  -2.257  17.536  1.00  0.00     0.093 A 
ATOM      7  C   UNL     1      -6.630  -2.821  17.172  1.00  0.00     0.136 A 
ATOM      8  C   UNL     1      -6.550  -4.215  16.918  1.00  0.00     0.125 A 
ATOM      9  C   UNL     1      -5.359  -4.867  16.561  1.00  0.00     0.078 A 
ATOM     10  C   UNL     1      -5.357  -6.246  16.330  1.00  0.00     0.223 A 
ENDROOT
BRANCH   1  11
ATOM     11  C   UNL     1      -6.651  -8.414  16.195  1.00  0.00     0.091 A 
ATOM     12  C   UNL     1      -7.000  -8.880  14.918  1.00  0.00     0.068 A 
ATOM     13  C   UNL     1      -7.069 -10.251  14.653  1.00  0.00     0.162 A 
ATOM     14  C   UNL     1      -6.334  -9.344  17.199  1.00  0.00     0.068 A 
ATOM     15  C   UNL     1      -6.771 -11.179  15.666  1.00  0.00     0.200 A 
ATOM     16  C   UNL     1      -6.399 -10.721  16.942  1.00  0.00     0.162 A 
BRANCH  13  17
ATOM     17  O   UNL     1      -7.433 -10.673  13.374  1.00  0.00    -0.504 OA
ATOM     18  H   UNL     1      -7.608 -11.648  13.159  1.00  0.00     0.293 HD
ENDBRANCH  13  17
BRANCH  15  19
ATOM     19  O   UNL     1      -6.844 -12.545  15.393  1.00  0.00    -0.502 OA
ATOM     20  H   UNL     1      -6.141 -13.024  14.843  1.00  0.00     0.293 HD
ENDBRANCH  15  19
BRANCH  16  21
ATOM     21  O   UNL     1      -6.088 -11.634  17.947  1.00  0.00    -0.504 OA
ATOM     22  H   UNL     1      -6.762 -11.895  18.657  1.00  0.00     0.293 HD
ENDBRANCH  16  21
ENDBRANCH   1  11
BRANCH  10  23
ATOM     23  O   UNL     1      -4.165  -6.903  16.023  1.00  0.00    -0.500 OA
ATOM     24  H   UNL     1      -3.276  -6.418  16.019  1.00  0.00     0.294 HD
ENDBRANCH  10  23
BRANCH   5  25
ATOM     25  O   UNL     1     -10.227  -2.482  18.012  1.00  0.00    -0.507 OA
ATOM     26  H   UNL     1     -11.077  -3.032  18.045  1.00  0.00     0.293 HD
ENDBRANCH   5  25
BRANCH   7  27
ATOM     27  O   UNL     1      -5.530  -1.962  17.078  1.00  0.00    -0.507 OA
ATOM     28  H   UNL     1      -5.345  -1.356  16.292  1.00  0.00     0.293 HD
ENDBRANCH   7  27
TORSDOF 7
ENDMDL
MODEL 5
REMARK VINA RESULT:    26.030      1.568      2.044
REMARK INTER + INTRA:          31.741
REMARK INTER:                  31.407
REMARK INTRA:                   0.334
REMARK UNBOUND:                -0.376
REMARK SMILES Oc1cc(O)c2cc(O)c(-c3cc(O)c(O)c(O)c3)[o+]c2c1
REMARK SMILES IDX 10 1 20 2 21 3 22 4 2 5 3 6 4 7 6 8 7 9 8 10 11 11 12 12
REMARK SMILES IDX 13 13 19 14 15 15 17 16 14 17 16 19 18 21 9 23 1 25 5 27
REMARK H PARENT 14 18 16 20 18 22 9 24 1 26 5 28
REMARK Flexibility Score: inf
ROOT
ATOM      1  C   UNL     1      -7.064  -7.704  16.386  1.00  0.00     0.402 A 
ATOM      2  O   UNL     1      -6.761  -8.824  17.037  1.00  0.00    -0.202 OA
ATOM      3  C   UNL     1      -6.410  -9.951  16.426  1.00  0.00     0.368 A 
ATOM      4  C   UNL     1      -6.107 -11.077  17.196  1.00  0.00     0.162 A 
ATOM      5  C   UNL     1      -5.733 -12.273  16.583  1.00  0.00     0.128 A 
ATOM      6  C   UNL     1      -5.661 -12.346  15.187  1.00  0.00     0.093 A 
ATOM      7  C   UNL     1      -5.961 -11.233  14.393  1.00  0.00     0.136 A 
ATOM      8  C   UNL     1      -6.344 -10.016  15.014  1.00  0.00     0.125 A 
ATOM      9  C   UNL     1      -6.675  -8.854  14.297  1.00  0.00     0.078 A 
ATOM     10  C   UNL     1      -7.048  -7.692  14.979  1.00  0.00     0.223 A 
ENDROOT
BRANCH   1  11
ATOM     11  C   UNL     1      -7.430  -6.510  17.181  1.00  0.00     0.091 A 
ATOM     12  C   UNL     1      -7.330  -5.237  16.601  1.00  0.00     0.068 A 
ATOM     13  C   UNL     1      -7.687  -4.093  17.322  1.00  0.00     0.162 A 
ATOM     14  C   UNL     1      -7.932  -6.628  18.488  1.00  0.00     0.068 A 
ATOM     15  C   UNL     1      -8.168  -4.214  18.637  1.00  0.00     0.200 A 
ATOM     16  C   UNL     1      -8.294  -5.487  19.219  1.00  0.00     0.162 A 
BRANCH  13  17
ATOM     17  O   UNL     1      -7.559  -2.844  16.714  1.00  0.00    -0.504 OA
ATOM     18  H   UNL     1      -6.921  -2.138  17.063  1.00  0.00     0.293 HD
ENDBRANCH  13  17
BRANCH  15  19
ATOM     19  O   UNL     1      -8.521  -3.067  19.351  1.00  0.00    -0.502 OA
ATOM     20  H   UNL     1      -8.826  -3.105  20.316  1.00  0.00     0.293 HD
ENDBRANCH  15  19
BRANCH  16  21
ATOM     21  O   UNL     1      -8.784  -5.616  20.516  1.00  0.00    -0.504 OA
ATOM     22  H   UNL     1      -8.526  -4.966  21.250  1.00  0.00     0.293 HD
ENDBRANCH  16  21
ENDBRANCH   1  11
BRANCH  10  23
ATOM     23  O   UNL     1      -7.424  -6.553  14.267  1.00  0.00    -0.500 OA
ATOM     24  H   UNL     1      -7.433  -5.635  14.697  1.00  0.00     0.294 HD
ENDBRANCH  10  23
BRANCH   5  25
ATOM     25  O   UNL     1      -5.433 -13.384  17.369  1.00  0.00    -0.507 OA
ATOM     26  H   UNL     1      -6.162 -13.931  17.812  1.00  0.00     0.293 HD
ENDBRANCH   5  25
BRANCH   7  27
ATOM     27  O   UNL     1      -5.863 -11.386  13.006  1.00  0.00    -0.507 OA
ATOM     28  H   UNL     1      -5.255 -10.842  12.413  1.00  0.00     0.293 HD
ENDBRANCH   7  27
TORSDOF 7
ENDMDL
MODEL 6
REMARK VINA RESULT:    26.273      1.915      3.206
REMARK INTER + INTRA:          32.041
REMARK INTER:                  31.860
REMARK INTRA:                   0.182
REMARK UNBOUND:                -0.376
REMARK SMILES Oc1cc(O)c2cc(O)c(-c3cc(O)c(O)c(O)c3)[o+]c2c1
REMARK SMILES IDX 10 1 20 2 21 3 22 4 2 5 3 6 4 7 6 8 7 9 8 10 11 11 12 12
REMARK SMILES IDX 13 13 19 14 15 15 17 16 14 17 16 19 18 21 9 23 1 25 5 27
REMARK H PARENT 14 18 16 20 18 22 9 24 1 26 5 28
REMARK Flexibility Score: inf
ROOT
ATOM      1  C   UNL     1      -7.108  -7.054  16.350  1.00  0.00     0.402 A 
ATOM      2  O   UNL     1      -7.544  -7.842  15.371  1.00  0.00    -0.202 OA
ATOM      3  C   UNL     1      -7.133  -9.095  15.204  1.00  0.00     0.368 A 
ATOM      4  C   UNL     1      -7.651  -9.846  14.146  1.00  0.00     0.162 A 
ATOM      5  C   UNL     1      -7.240 -11.164  13.948  1.00  0.00     0.128 A 
ATOM      6  C   UNL     1      -6.302 -11.738  14.813  1.00  0.00     0.093 A 
ATOM      7  C   UNL     1      -5.767 -11.007  15.881  1.00  0.00     0.136 A 
ATOM      8  C   UNL     1      -6.182  -9.665  16.083  1.00  0.00     0.125 A 
ATOM      9  C   UNL     1      -5.689  -8.853  17.118  1.00  0.00     0.078 A 
ATOM     10  C   UNL     1      -6.142  -7.536  17.253  1.00  0.00     0.223 A 
ENDROOT
BRANCH   1  11
ATOM     11  C   UNL     1      -7.651  -5.679  16.437  1.00  0.00     0.091 A 
ATOM     12  C   UNL     1      -8.140  -5.056  15.279  1.00  0.00     0.068 A 
ATOM     13  C   UNL     1      -8.675  -3.765  15.335  1.00  0.00     0.162 A 
ATOM     14  C   UNL     1      -7.740  -5.004  17.666  1.00  0.00     0.068 A 
ATOM     15  C   UNL     1      -8.744  -3.085  16.562  1.00  0.00     0.200 A 
ATOM     16  C   UNL     1      -8.277  -3.711  17.732  1.00  0.00     0.162 A 
BRANCH  13  17
ATOM     17  O   UNL     1      -9.138  -3.175  14.158  1.00  0.00    -0.504 OA
ATOM     18  H   UNL     1      -9.472  -2.219  14.131  1.00  0.00     0.293 HD
ENDBRANCH  13  17
BRANCH  15  19
ATOM     19  O   UNL     1      -9.278  -1.797  16.609  1.00  0.00    -0.502 OA
ATOM     20  H   UNL     1     -10.175  -1.600  17.036  1.00  0.00     0.293 HD
ENDBRANCH  15  19
BRANCH  16  21
ATOM     21  O   UNL     1      -8.355  -3.049  18.955  1.00  0.00    -0.504 OA
ATOM     22  H   UNL     1      -8.919  -3.405  19.719  1.00  0.00     0.293 HD
ENDBRANCH  16  21
ENDBRANCH   1  11
BRANCH  10  23
ATOM     23  O   UNL     1      -5.617  -6.714  18.249  1.00  0.00    -0.500 OA
ATOM     24  H   UNL     1      -4.942  -5.988  18.040  1.00  0.00     0.294 HD
ENDBRANCH  10  23
BRANCH   5  25
ATOM     25  O   UNL     1      -7.769 -11.897  12.887  1.00  0.00    -0.507 OA
ATOM     26  H   UNL     1      -8.767 -12.036  12.786  1.00  0.00     0.293 HD
ENDBRANCH   5  25
BRANCH   7  27
ATOM     27  O   UNL     1      -4.838 -11.652  16.702  1.00  0.00    -0.507 OA
ATOM     28  H   UNL     1      -4.285 -12.449  16.422  1.00  0.00     0.293 HD
ENDBRANCH   7  27
TORSDOF 7
ENDMDL
