MODEL 1
REMARK VINA RESULT:    -2.782      0.000      0.000
REMARK INTER + INTRA:          -7.239
REMARK INTER:                  -6.035
REMARK INTRA:                  -1.204
REMARK UNBOUND:                -1.204
REMARK SMILES CCCCCCCCCCCCCCCCCCCCCC(=O)[O-]
REMARK SMILES IDX 12 1 11 2 10 3 9 4 8 5 7 6 6 7 5 8 4 9 3 10 2 11 1 12 13 13
REMARK SMILES IDX 14 14 15 15 16 16 17 17 18 18 19 19 20 20 21 21 22 22 23 23
REMARK SMILES IDX 24 24
REMARK H PARENT
REMARK Flexibility Score: inf
ROOT
ATOM      1  C   UNL     1       2.496  24.509   9.365  1.00  0.00     0.000 C 
ENDROOT
BRANCH   1   2
ATOM      2  C   UNL     1       3.862  23.985   9.837  1.00  0.00     0.000 C 
BRANCH   2   3
ATOM      3  C   UNL     1       5.028  24.896   9.422  1.00  0.00     0.000 C 
BRANCH   3   4
ATOM      4  C   UNL     1       5.046  25.103   7.902  1.00  0.00    -0.000 C 
BRANCH   4   5
ATOM      5  C   UNL     1       4.414  23.907   7.174  1.00  0.00    -0.000 C 
BRANCH   5   6
ATOM      6  C   UNL     1       4.617  23.960   5.650  1.00  0.00    -0.000 C 
BRANCH   6   7
ATOM      7  C   UNL     1       3.325  23.877   4.814  1.00  0.00    -0.000 C 
BRANCH   7   8
ATOM      8  C   UNL     1       2.047  24.338   5.536  1.00  0.00    -0.000 C 
BRANCH   8   9
ATOM      9  C   UNL     1       1.185  25.283   4.679  1.00  0.00    -0.000 C 
BRANCH   9  10
ATOM     10  C   UNL     1      -0.260  25.401   5.208  1.00  0.00    -0.000 C 
BRANCH  10  11
ATOM     11  C   UNL     1      -0.408  26.362   6.399  1.00  0.00    -0.003 C 
ATOM     12  C   UNL     1      -1.020  25.701   7.631  1.00  0.00     0.004 C 
ENDBRANCH  10  11
ENDBRANCH   9  10
ENDBRANCH   8   9
ENDBRANCH   7   8
ENDBRANCH   6   7
ENDBRANCH   5   6
ENDBRANCH   4   5
ENDBRANCH   3   4
ENDBRANCH   2   3
ENDBRANCH   1   2
BRANCH   1  13
ATOM     13  C   UNL     1       1.557  24.852  10.535  1.00  0.00     0.000 C 
BRANCH  13  14
ATOM     14  C   UNL     1       0.224  24.083  10.482  1.00  0.00     0.000 C 
BRANCH  14  15
ATOM     15  C   UNL     1      -0.879  24.603  11.422  1.00  0.00     0.000 C 
BRANCH  15  16
ATOM     16  C   UNL     1      -0.899  23.882  12.782  1.00  0.00     0.000 C 
BRANCH  16  17
ATOM     17  C   UNL     1      -0.969  24.852  13.974  1.00  0.00     0.000 C 
BRANCH  17  18
ATOM     18  C   UNL     1      -0.417  24.305  15.306  1.00  0.00     0.000 C 
BRANCH  18  19
ATOM     19  C   UNL     1       1.066  23.890  15.286  1.00  0.00     0.000 C 
BRANCH  19  20
ATOM     20  C   UNL     1       2.075  25.050  15.392  1.00  0.00     0.006 C 
BRANCH  20  21
ATOM     21  C   UNL     1       2.087  25.982  14.166  1.00  0.00     0.053 C 
BRANCH  21  22
ATOM     22  C   UNL     1       3.407  25.986  13.456  1.00  0.00     0.041 C 
ATOM     23  O   UNL     1       3.949  27.074  13.129  1.00  0.00    -0.550 OA
ATOM     24  O   UNL     1       4.016  24.784  13.116  1.00  0.00    -0.550 OA
ENDBRANCH  21  22
ENDBRANCH  20  21
ENDBRANCH  19  20
ENDBRANCH  18  19
ENDBRANCH  17  18
ENDBRANCH  16  17
ENDBRANCH  15  16
ENDBRANCH  14  15
ENDBRANCH  13  14
ENDBRANCH   1  13
TORSDOF 20
ENDMDL
MODEL 2
REMARK VINA RESULT:    -2.744      0.973      3.281
REMARK INTER + INTRA:          -7.156
REMARK INTER:                  -6.141
REMARK INTRA:                  -1.015
REMARK UNBOUND:                -1.204
REMARK SMILES CCCCCCCCCCCCCCCCCCCCCC(=O)[O-]
REMARK SMILES IDX 12 1 11 2 10 3 9 4 8 5 7 6 6 7 5 8 4 9 3 10 2 11 1 12 13 13
REMARK SMILES IDX 14 14 15 15 16 16 17 17 18 18 19 19 20 20 21 21 22 22 23 23
REMARK SMILES IDX 24 24
REMARK H PARENT
REMARK Flexibility Score: inf
ROOT
ATOM      1  C   UNL     1       1.898  25.149   9.608  1.00  0.00     0.000 C 
ENDROOT
BRANCH   1   2
ATOM      2  C   UNL     1       0.820  25.737   8.683  1.00  0.00     0.000 C 
BRANCH   2   3
ATOM      3  C   UNL     1      -0.142  24.672   8.135  1.00  0.00     0.000 C 
BRANCH   3   4
ATOM      4  C   UNL     1      -0.966  25.228   6.966  1.00  0.00    -0.000 C 
BRANCH   4   5
ATOM      5  C   UNL     1      -0.081  26.026   5.997  1.00  0.00    -0.000 C 
BRANCH   5   6
ATOM      6  C   UNL     1      -0.105  25.464   4.565  1.00  0.00    -0.000 C 
BRANCH   6   7
ATOM      7  C   UNL     1       1.196  24.772   4.110  1.00  0.00    -0.000 C 
BRANCH   7   8
ATOM      8  C   UNL     1       2.028  24.138   5.238  1.00  0.00    -0.000 C 
BRANCH   8   9
ATOM      9  C   UNL     1       2.877  25.169   6.004  1.00  0.00    -0.000 C 
BRANCH   9  10
ATOM     10  C   UNL     1       4.130  24.537   6.646  1.00  0.00    -0.000 C 
BRANCH  10  11
ATOM     11  C   UNL     1       4.976  25.529   7.463  1.00  0.00    -0.003 C 
ATOM     12  C   UNL     1       5.528  24.928   8.752  1.00  0.00     0.004 C 
ENDBRANCH  10  11
ENDBRANCH   9  10
ENDBRANCH   8   9
ENDBRANCH   7   8
ENDBRANCH   6   7
ENDBRANCH   5   6
ENDBRANCH   4   5
ENDBRANCH   3   4
ENDBRANCH   2   3
ENDBRANCH   1   2
BRANCH   1  13
ATOM     13  C   UNL     1       1.321  24.639  10.940  1.00  0.00     0.000 C 
BRANCH  13  14
ATOM     14  C   UNL     1      -0.218  24.583  10.947  1.00  0.00     0.000 C 
BRANCH  14  15
ATOM     15  C   UNL     1      -0.898  25.183  12.192  1.00  0.00     0.000 C 
BRANCH  15  16
ATOM     16  C   UNL     1      -1.108  24.153  13.316  1.00  0.00     0.000 C 
BRANCH  16  17
ATOM     17  C   UNL     1      -0.365  24.521  14.612  1.00  0.00     0.000 C 
BRANCH  17  18
ATOM     18  C   UNL     1       1.026  23.875  14.783  1.00  0.00     0.000 C 
BRANCH  18  19
ATOM     19  C   UNL     1       2.133  24.816  15.294  1.00  0.00     0.000 C 
BRANCH  19  20
ATOM     20  C   UNL     1       2.326  26.110  14.479  1.00  0.00     0.006 C 
BRANCH  20  21
ATOM     21  C   UNL     1       2.959  25.887  13.093  1.00  0.00     0.053 C 
BRANCH  21  22
ATOM     22  C   UNL     1       4.315  25.253  13.173  1.00  0.00     0.041 C 
ATOM     23  O   UNL     1       5.203  25.743  13.918  1.00  0.00    -0.550 OA
ATOM     24  O   UNL     1       4.611  24.145  12.388  1.00  0.00    -0.550 OA
ENDBRANCH  21  22
ENDBRANCH  20  21
ENDBRANCH  19  20
ENDBRANCH  18  19
ENDBRANCH  17  18
ENDBRANCH  16  17
ENDBRANCH  15  16
ENDBRANCH  14  15
ENDBRANCH  13  14
ENDBRANCH   1  13
TORSDOF 20
ENDMDL
MODEL 3
REMARK VINA RESULT:    -2.413      2.350      8.166
REMARK INTER + INTRA:          -6.438
REMARK INTER:                  -4.727
REMARK INTRA:                  -1.711
REMARK UNBOUND:                -1.204
REMARK SMILES CCCCCCCCCCCCCCCCCCCCCC(=O)[O-]
REMARK SMILES IDX 12 1 11 2 10 3 9 4 8 5 7 6 6 7 5 8 4 9 3 10 2 11 1 12 13 13
REMARK SMILES IDX 14 14 15 15 16 16 17 17 18 18 19 19 20 20 21 21 22 22 23 23
REMARK SMILES IDX 24 24
REMARK H PARENT
REMARK Flexibility Score: inf
ROOT
ATOM      1  C   UNL     1       3.301  25.465   9.873  1.00  0.00     0.000 C 
ENDROOT
BRANCH   1   2
ATOM      2  C   UNL     1       2.755  24.513  10.950  1.00  0.00     0.000 C 
BRANCH   2   3
ATOM      3  C   UNL     1       1.312  24.063  10.673  1.00  0.00     0.000 C 
BRANCH   3   4
ATOM      4  C   UNL     1       0.322  24.815  11.574  1.00  0.00    -0.000 C 
BRANCH   4   5
ATOM      5  C   UNL     1      -0.778  23.875  12.088  1.00  0.00    -0.000 C 
BRANCH   5   6
ATOM      6  C   UNL     1      -1.063  24.053  13.590  1.00  0.00    -0.000 C 
BRANCH   6   7
ATOM      7  C   UNL     1      -0.320  25.225  14.263  1.00  0.00    -0.000 C 
BRANCH   7   8
ATOM      8  C   UNL     1       0.284  24.911  15.642  1.00  0.00    -0.000 C 
BRANCH   8   9
ATOM      9  C   UNL     1       1.823  24.919  15.635  1.00  0.00    -0.000 C 
BRANCH   9  10
ATOM     10  C   UNL     1       2.411  23.906  14.629  1.00  0.00    -0.000 C 
BRANCH  10  11
ATOM     11  C   UNL     1       3.665  24.415  13.897  1.00  0.00    -0.003 C 
ATOM     12  C   UNL     1       3.746  25.938  13.834  1.00  0.00     0.004 C 
ENDBRANCH  10  11
ENDBRANCH   9  10
ENDBRANCH   8   9
ENDBRANCH   7   8
ENDBRANCH   6   7
ENDBRANCH   5   6
ENDBRANCH   4   5
ENDBRANCH   3   4
ENDBRANCH   2   3
ENDBRANCH   1   2
BRANCH   1  13
ATOM     13  C   UNL     1       4.749  25.132   9.470  1.00  0.00     0.000 C 
BRANCH  13  14
ATOM     14  C   UNL     1       4.919  24.928   7.953  1.00  0.00     0.000 C 
BRANCH  14  15
ATOM     15  C   UNL     1       3.831  24.077   7.272  1.00  0.00     0.000 C 
BRANCH  15  16
ATOM     16  C   UNL     1       4.081  23.875   5.767  1.00  0.00     0.000 C 
BRANCH  16  17
ATOM     17  C   UNL     1       2.912  24.367   4.895  1.00  0.00     0.000 C 
BRANCH  17  18
ATOM     18  C   UNL     1       1.512  23.893   5.337  1.00  0.00     0.000 C 
BRANCH  18  19
ATOM     19  C   UNL     1       0.354  24.293   4.405  1.00  0.00     0.000 C 
BRANCH  19  20
ATOM     20  C   UNL     1      -1.003  24.518   5.101  1.00  0.00     0.006 C 
BRANCH  20  21
ATOM     21  C   UNL     1      -0.908  24.636   6.633  1.00  0.00     0.053 C 
BRANCH  21  22
ATOM     22  C   UNL     1      -0.580  26.026   7.087  1.00  0.00     0.041 C 
ATOM     23  O   UNL     1       0.022  26.214   8.176  1.00  0.00    -0.550 OA
ATOM     24  O   UNL     1      -0.980  27.118   6.326  1.00  0.00    -0.550 OA
ENDBRANCH  21  22
ENDBRANCH  20  21
ENDBRANCH  19  20
ENDBRANCH  18  19
ENDBRANCH  17  18
ENDBRANCH  16  17
ENDBRANCH  15  16
ENDBRANCH  14  15
ENDBRANCH  13  14
ENDBRANCH   1  13
TORSDOF 20
ENDMDL
MODEL 4
REMARK VINA RESULT:    -2.407      2.039      4.386
REMARK INTER + INTRA:          -6.425
REMARK INTER:                  -4.591
REMARK INTRA:                  -1.834
REMARK UNBOUND:                -1.204
REMARK SMILES CCCCCCCCCCCCCCCCCCCCCC(=O)[O-]
REMARK SMILES IDX 12 1 11 2 10 3 9 4 8 5 7 6 6 7 5 8 4 9 3 10 2 11 1 12 13 13
REMARK SMILES IDX 14 14 15 15 16 16 17 17 18 18 19 19 20 20 21 21 22 22 23 23
REMARK SMILES IDX 24 24
REMARK H PARENT
REMARK Flexibility Score: inf
ROOT
ATOM      1  C   UNL     1       0.550  25.918   8.224  1.00  0.00     0.000 C 
ENDROOT
BRANCH   1   2
ATOM      2  C   UNL     1      -0.729  25.972   7.372  1.00  0.00     0.000 C 
BRANCH   2   3
ATOM      3  C   UNL     1      -0.577  26.852   6.122  1.00  0.00     0.000 C 
BRANCH   3   4
ATOM      4  C   UNL     1      -0.769  26.025   4.844  1.00  0.00    -0.000 C 
BRANCH   4   5
ATOM      5  C   UNL     1       0.520  25.993   4.009  1.00  0.00    -0.000 C 
BRANCH   5   6
ATOM      6  C   UNL     1       0.816  24.603   3.420  1.00  0.00    -0.000 C 
BRANCH   6   7
ATOM      7  C   UNL     1       2.028  23.875   4.037  1.00  0.00    -0.000 C 
BRANCH   7   8
ATOM      8  C   UNL     1       2.678  24.587   5.235  1.00  0.00    -0.000 C 
BRANCH   8   9
ATOM      9  C   UNL     1       4.103  24.084   5.527  1.00  0.00    -0.000 C 
BRANCH   9  10
ATOM     10  C   UNL     1       4.756  24.823   6.714  1.00  0.00    -0.000 C 
BRANCH  10  11
ATOM     11  C   UNL     1       4.205  24.402   8.086  1.00  0.00    -0.003 C 
ATOM     12  C   UNL     1       4.987  24.994   9.255  1.00  0.00     0.004 C 
ENDBRANCH  10  11
ENDBRANCH   9  10
ENDBRANCH   8   9
ENDBRANCH   7   8
ENDBRANCH   6   7
ENDBRANCH   5   6
ENDBRANCH   4   5
ENDBRANCH   3   4
ENDBRANCH   2   3
ENDBRANCH   1   2
BRANCH   1  13
ATOM     13  C   UNL     1       0.725  24.569   8.944  1.00  0.00     0.000 C 
BRANCH  13  14
ATOM     14  C   UNL     1       0.002  24.513  10.302  1.00  0.00     0.000 C 
BRANCH  14  15
ATOM     15  C   UNL     1       0.811  23.897  11.459  1.00  0.00     0.000 C 
BRANCH  15  16
ATOM     16  C   UNL     1       2.332  23.989  11.243  1.00  0.00     0.000 C 
BRANCH  16  17
ATOM     17  C   UNL     1       2.961  25.217  11.925  1.00  0.00     0.000 C 
BRANCH  17  18
ATOM     18  C   UNL     1       3.646  24.942  13.280  1.00  0.00     0.000 C 
BRANCH  18  19
ATOM     19  C   UNL     1       2.814  24.130  14.289  1.00  0.00     0.000 C 
BRANCH  19  20
ATOM     20  C   UNL     1       1.801  24.947  15.114  1.00  0.00     0.006 C 
BRANCH  20  21
ATOM     21  C   UNL     1       1.059  24.126  16.186  1.00  0.00     0.053 C 
BRANCH  21  22
ATOM     22  C   UNL     1      -0.431  24.247  16.078  1.00  0.00     0.041 C 
ATOM     23  O   UNL     1      -1.122  24.505  17.097  1.00  0.00    -0.550 OA
ATOM     24  O   UNL     1      -1.059  24.029  14.858  1.00  0.00    -0.550 OA
ENDBRANCH  21  22
ENDBRANCH  20  21
ENDBRANCH  19  20
ENDBRANCH  18  19
ENDBRANCH  17  18
ENDBRANCH  16  17
ENDBRANCH  15  16
ENDBRANCH  14  15
ENDBRANCH  13  14
ENDBRANCH   1  13
TORSDOF 20
ENDMDL
MODEL 5
REMARK VINA RESULT:    -2.362      1.794      3.536
REMARK INTER + INTRA:          -6.328
REMARK INTER:                  -4.498
REMARK INTRA:                  -1.830
REMARK UNBOUND:                -1.204
REMARK SMILES CCCCCCCCCCCCCCCCCCCCCC(=O)[O-]
REMARK SMILES IDX 12 1 11 2 10 3 9 4 8 5 7 6 6 7 5 8 4 9 3 10 2 11 1 12 13 13
REMARK SMILES IDX 14 14 15 15 16 16 17 17 18 18 19 19 20 20 21 21 22 22 23 23
REMARK SMILES IDX 24 24
REMARK H PARENT
REMARK Flexibility Score: inf
ROOT
ATOM      1  C   UNL     1       5.191  25.919   8.262  1.00  0.00     0.000 C 
ENDROOT
BRANCH   1   2
ATOM      2  C   UNL     1       4.982  25.348   6.850  1.00  0.00     0.000 C 
BRANCH   2   3
ATOM      3  C   UNL     1       4.402  23.925   6.861  1.00  0.00     0.000 C 
BRANCH   3   4
ATOM      4  C   UNL     1       2.875  23.958   7.001  1.00  0.00    -0.000 C 
BRANCH   4   5
ATOM      5  C   UNL     1       2.244  24.882   5.948  1.00  0.00    -0.000 C 
BRANCH   5   6
ATOM      6  C   UNL     1       1.784  24.128   4.689  1.00  0.00    -0.000 C 
BRANCH   6   7
ATOM      7  C   UNL     1       0.263  24.145   4.434  1.00  0.00    -0.000 C 
BRANCH   7   8
ATOM      8  C   UNL     1      -0.448  25.456   4.810  1.00  0.00    -0.000 C 
BRANCH   8   9
ATOM      9  C   UNL     1      -0.890  25.493   6.284  1.00  0.00    -0.000 C 
BRANCH   9  10
ATOM     10  C   UNL     1      -1.125  24.081   6.862  1.00  0.00    -0.000 C 
BRANCH  10  11
ATOM     11  C   UNL     1      -0.652  23.920   8.317  1.00  0.00    -0.003 C 
ATOM     12  C   UNL     1      -0.212  25.235   8.955  1.00  0.00     0.004 C 
ENDBRANCH  10  11
ENDBRANCH   9  10
ENDBRANCH   8   9
ENDBRANCH   7   8
ENDBRANCH   6   7
ENDBRANCH   5   6
ENDBRANCH   4   5
ENDBRANCH   3   4
ENDBRANCH   2   3
ENDBRANCH   1   2
BRANCH   1  13
ATOM     13  C   UNL     1       5.956  24.953   9.184  1.00  0.00     0.000 C 
BRANCH  13  14
ATOM     14  C   UNL     1       5.049  23.884   9.821  1.00  0.00     0.000 C 
BRANCH  14  15
ATOM     15  C   UNL     1       4.202  24.361  11.016  1.00  0.00     0.000 C 
BRANCH  15  16
ATOM     16  C   UNL     1       2.902  25.063  10.587  1.00  0.00     0.000 C 
BRANCH  16  17
ATOM     17  C   UNL     1       2.455  26.153  11.578  1.00  0.00     0.000 C 
BRANCH  17  18
ATOM     18  C   UNL     1       3.376  26.355  12.798  1.00  0.00     0.000 C 
BRANCH  18  19
ATOM     19  C   UNL     1       2.780  25.931  14.154  1.00  0.00     0.000 C 
BRANCH  19  20
ATOM     20  C   UNL     1       2.711  24.410  14.395  1.00  0.00     0.006 C 
BRANCH  20  21
ATOM     21  C   UNL     1       1.300  23.894  14.734  1.00  0.00     0.053 C 
BRANCH  21  22
ATOM     22  C   UNL     1       0.262  24.373  13.765  1.00  0.00     0.041 C 
ATOM     23  O   UNL     1      -0.621  25.191  14.133  1.00  0.00    -0.550 OA
ATOM     24  O   UNL     1       0.244  23.880  12.466  1.00  0.00    -0.550 OA
ENDBRANCH  21  22
ENDBRANCH  20  21
ENDBRANCH  19  20
ENDBRANCH  18  19
ENDBRANCH  17  18
ENDBRANCH  16  17
ENDBRANCH  15  16
ENDBRANCH  14  15
ENDBRANCH  13  14
ENDBRANCH   1  13
TORSDOF 20
ENDMDL
MODEL 6
REMARK VINA RESULT:    -2.070      1.406      3.576
REMARK INTER + INTRA:          -5.695
REMARK INTER:                  -4.423
REMARK INTRA:                  -1.272
REMARK UNBOUND:                -1.204
REMARK SMILES CCCCCCCCCCCCCCCCCCCCCC(=O)[O-]
REMARK SMILES IDX 12 1 11 2 10 3 9 4 8 5 7 6 6 7 5 8 4 9 3 10 2 11 1 12 13 13
REMARK SMILES IDX 14 14 15 15 16 16 17 17 18 18 19 19 20 20 21 21 22 22 23 23
REMARK SMILES IDX 24 24
REMARK H PARENT
REMARK Flexibility Score: inf
ROOT
ATOM      1  C   UNL     1       0.392  24.091  10.777  1.00  0.00     0.000 C 
ENDROOT
BRANCH   1   2
ATOM      2  C   UNL     1       0.195  23.942   9.259  1.00  0.00     0.000 C 
BRANCH   2   3
ATOM      3  C   UNL     1      -0.610  25.097   8.645  1.00  0.00     0.000 C 
BRANCH   3   4
ATOM      4  C   UNL     1       0.319  26.114   7.969  1.00  0.00    -0.000 C 
BRANCH   4   5
ATOM      5  C   UNL     1      -0.333  26.706   6.711  1.00  0.00    -0.000 C 
BRANCH   5   6
ATOM      6  C   UNL     1      -1.016  25.642   5.834  1.00  0.00    -0.000 C 
BRANCH   6   7
ATOM      7  C   UNL     1      -0.078  24.557   5.271  1.00  0.00    -0.000 C 
BRANCH   7   8
ATOM      8  C   UNL     1       0.721  24.967   4.021  1.00  0.00    -0.000 C 
BRANCH   8   9
ATOM      9  C   UNL     1       1.701  23.875   3.556  1.00  0.00    -0.000 C 
BRANCH   9  10
ATOM     10  C   UNL     1       3.062  23.960   4.279  1.00  0.00    -0.000 C 
BRANCH  10  11
ATOM     11  C   UNL     1       3.007  24.716   5.618  1.00  0.00    -0.003 C 
ATOM     12  C   UNL     1       4.099  24.288   6.594  1.00  0.00     0.004 C 
ENDBRANCH  10  11
ENDBRANCH   9  10
ENDBRANCH   8   9
ENDBRANCH   7   8
ENDBRANCH   6   7
ENDBRANCH   5   6
ENDBRANCH   4   5
ENDBRANCH   3   4
ENDBRANCH   2   3
ENDBRANCH   1   2
BRANCH   1  13
ATOM     13  C   UNL     1      -0.615  25.068  11.410  1.00  0.00     0.000 C 
BRANCH  13  14
ATOM     14  C   UNL     1      -0.310  25.372  12.889  1.00  0.00     0.000 C 
BRANCH  14  15
ATOM     15  C   UNL     1      -0.777  24.303  13.895  1.00  0.00     0.000 C 
BRANCH  15  16
ATOM     16  C   UNL     1      -0.717  24.787  15.355  1.00  0.00     0.000 C 
BRANCH  16  17
ATOM     17  C   UNL     1       0.710  24.780  15.930  1.00  0.00     0.000 C 
BRANCH  17  18
ATOM     18  C   UNL     1       1.736  23.935  15.145  1.00  0.00     0.000 C 
BRANCH  18  19
ATOM     19  C   UNL     1       2.777  24.737  14.344  1.00  0.00     0.000 C 
BRANCH  19  20
ATOM     20  C   UNL     1       3.732  23.894  13.476  1.00  0.00     0.006 C 
BRANCH  20  21
ATOM     21  C   UNL     1       4.720  24.728  12.640  1.00  0.00     0.053 C 
BRANCH  21  22
ATOM     22  C   UNL     1       4.351  24.776  11.188  1.00  0.00     0.041 C 
ATOM     23  O   UNL     1       3.376  25.473  10.803  1.00  0.00    -0.550 OA
ATOM     24  O   UNL     1       5.056  24.012  10.267  1.00  0.00    -0.550 OA
ENDBRANCH  21  22
ENDBRANCH  20  21
ENDBRANCH  19  20
ENDBRANCH  18  19
ENDBRANCH  17  18
ENDBRANCH  16  17
ENDBRANCH  15  16
ENDBRANCH  14  15
ENDBRANCH  13  14
ENDBRANCH   1  13
TORSDOF 20
ENDMDL
MODEL 7
REMARK VINA RESULT:    -2.060      1.830      4.109
REMARK INTER + INTRA:          -5.671
REMARK INTER:                  -4.436
REMARK INTRA:                  -1.235
REMARK UNBOUND:                -1.204
REMARK SMILES CCCCCCCCCCCCCCCCCCCCCC(=O)[O-]
REMARK SMILES IDX 12 1 11 2 10 3 9 4 8 5 7 6 6 7 5 8 4 9 3 10 2 11 1 12 13 13
REMARK SMILES IDX 14 14 15 15 16 16 17 17 18 18 19 19 20 20 21 21 22 22 23 23
REMARK SMILES IDX 24 24
REMARK H PARENT
REMARK Flexibility Score: inf
ROOT
ATOM      1  C   UNL     1       1.170  23.959  10.147  1.00  0.00     0.000 C 
ENDROOT
BRANCH   1   2
ATOM      2  C   UNL     1      -0.214  23.875   9.481  1.00  0.00     0.000 C 
BRANCH   2   3
ATOM      3  C   UNL     1      -0.541  25.110   8.627  1.00  0.00     0.000 C 
BRANCH   3   4
ATOM      4  C   UNL     1       0.720  25.649   7.939  1.00  0.00    -0.000 C 
BRANCH   4   5
ATOM      5  C   UNL     1       0.367  26.381   6.636  1.00  0.00    -0.000 C 
BRANCH   5   6
ATOM      6  C   UNL     1       0.207  25.428   5.439  1.00  0.00    -0.000 C 
BRANCH   6   7
ATOM      7  C   UNL     1       1.507  25.118   4.669  1.00  0.00    -0.000 C 
BRANCH   7   8
ATOM      8  C   UNL     1       2.274  23.875   5.153  1.00  0.00    -0.000 C 
BRANCH   8   9
ATOM      9  C   UNL     1       3.745  24.176   5.490  1.00  0.00    -0.000 C 
BRANCH   9  10
ATOM     10  C   UNL     1       3.889  25.277   6.562  1.00  0.00    -0.000 C 
BRANCH  10  11
ATOM     11  C   UNL     1       4.045  24.734   7.992  1.00  0.00    -0.003 C 
ATOM     12  C   UNL     1       5.433  24.975   8.579  1.00  0.00     0.004 C 
ENDBRANCH  10  11
ENDBRANCH   9  10
ENDBRANCH   8   9
ENDBRANCH   7   8
ENDBRANCH   6   7
ENDBRANCH   5   6
ENDBRANCH   4   5
ENDBRANCH   3   4
ENDBRANCH   2   3
ENDBRANCH   1   2
BRANCH   1  13
ATOM     13  C   UNL     1       1.122  24.638  11.527  1.00  0.00     0.000 C 
BRANCH  13  14
ATOM     14  C   UNL     1       1.821  26.009  11.548  1.00  0.00     0.000 C 
BRANCH  14  15
ATOM     15  C   UNL     1       3.360  25.970  11.517  1.00  0.00     0.000 C 
BRANCH  15  16
ATOM     16  C   UNL     1       4.000  26.452  12.830  1.00  0.00     0.000 C 
BRANCH  16  17
ATOM     17  C   UNL     1       4.123  25.336  13.882  1.00  0.00     0.000 C 
BRANCH  17  18
ATOM     18  C   UNL     1       3.148  24.154  13.709  1.00  0.00     0.000 C 
BRANCH  18  19
ATOM     19  C   UNL     1       2.228  23.875  14.912  1.00  0.00     0.000 C 
BRANCH  19  20
ATOM     20  C   UNL     1       1.473  25.102  15.461  1.00  0.00     0.006 C 
BRANCH  20  21
ATOM     21  C   UNL     1      -0.055  24.917  15.530  1.00  0.00     0.053 C 
BRANCH  21  22
ATOM     22  C   UNL     1      -0.705  24.973  14.181  1.00  0.00     0.041 C 
ATOM     23  O   UNL     1      -1.054  23.913  13.600  1.00  0.00    -0.550 OA
ATOM     24  O   UNL     1      -0.883  26.196  13.546  1.00  0.00    -0.550 OA
ENDBRANCH  21  22
ENDBRANCH  20  21
ENDBRANCH  19  20
ENDBRANCH  18  19
ENDBRANCH  17  18
ENDBRANCH  16  17
ENDBRANCH  15  16
ENDBRANCH  14  15
ENDBRANCH  13  14
ENDBRANCH   1  13
TORSDOF 20
ENDMDL
