MODEL 1
REMARK VINA RESULT:    -3.391      0.000      0.000
REMARK INTER + INTRA:          -8.792
REMARK INTER:                  -6.167
REMARK INTRA:                  -2.625
REMARK UNBOUND:                -2.625
REMARK SMILES CCCCCCCCCCCCCCCC(=O)[O-]
REMARK SMILES IDX 9 1 10 2 11 3 12 4 13 5 14 6 15 7 16 8 17 9 18 10 8 11 7 12
REMARK SMILES IDX 6 13 5 14 4 15 3 16 2 17 1 18
REMARK H PARENT
REMARK Flexibility Score: inf
ROOT
ATOM      1  C   UNL     1       5.419  -5.349   0.837  1.00  0.00     0.000 C 
ENDROOT
BRANCH   1   2
ATOM      2  C   UNL     1       5.566  -3.931   1.427  1.00  0.00     0.000 C 
BRANCH   2   3
ATOM      3  C   UNL     1       4.714  -2.845   0.746  1.00  0.00     0.000 C 
BRANCH   3   4
ATOM      4  C   UNL     1       5.511  -1.562   0.447  1.00  0.00     0.000 C 
BRANCH   4   5
ATOM      5  C   UNL     1       5.364  -1.103  -1.013  1.00  0.00     0.000 C 
BRANCH   5   6
ATOM      6  C   UNL     1       5.738  -2.205  -2.020  1.00  0.00     0.006 C 
BRANCH   6   7
ATOM      7  C   UNL     1       7.257  -2.376  -2.151  1.00  0.00     0.053 C 
BRANCH   7   8
ATOM      8  C   UNL     1       7.718  -3.698  -1.618  1.00  0.00     0.041 C 
ATOM      9  O   UNL     1       8.412  -3.752  -0.569  1.00  0.00    -0.550 OA
ATOM     10  O   UNL     1       7.407  -4.870  -2.297  1.00  0.00    -0.550 OA
ENDBRANCH   7   8
ENDBRANCH   6   7
ENDBRANCH   5   6
ENDBRANCH   4   5
ENDBRANCH   3   4
ENDBRANCH   2   3
ENDBRANCH   1   2
BRANCH   1  11
ATOM     11  C   UNL     1       4.446  -5.469  -0.351  1.00  0.00     0.000 C 
BRANCH  11  12
ATOM     12  C   UNL     1       3.596  -6.750  -0.299  1.00  0.00    -0.000 C 
BRANCH  12  13
ATOM     13  C   UNL     1       2.090  -6.463  -0.420  1.00  0.00    -0.000 C 
BRANCH  13  14
ATOM     14  C   UNL     1       1.681  -5.156   0.285  1.00  0.00    -0.000 C 
BRANCH  14  15
ATOM     15  C   UNL     1       1.306  -5.373   1.760  1.00  0.00    -0.000 C 
BRANCH  15  16
ATOM     16  C   UNL     1       2.089  -4.453   2.712  1.00  0.00    -0.000 C 
BRANCH  16  17
ATOM     17  C   UNL     1       2.982  -5.237   3.686  1.00  0.00    -0.003 C 
ATOM     18  C   UNL     1       3.002  -6.738   3.395  1.00  0.00     0.004 C 
ENDBRANCH  16  17
ENDBRANCH  15  16
ENDBRANCH  14  15
ENDBRANCH  13  14
ENDBRANCH  12  13
ENDBRANCH  11  12
ENDBRANCH   1  11
TORSDOF 14
ENDMDL
MODEL 2
REMARK VINA RESULT:    -3.315      1.875      3.389
REMARK INTER + INTRA:          -8.653
REMARK INTER:                  -6.485
REMARK INTRA:                  -2.168
REMARK UNBOUND:                -2.625
REMARK SMILES CCCCCCCCCCCCCCCC(=O)[O-]
REMARK SMILES IDX 9 1 10 2 11 3 12 4 13 5 14 6 15 7 16 8 17 9 18 10 8 11 7 12
REMARK SMILES IDX 6 13 5 14 4 15 3 16 2 17 1 18
REMARK H PARENT
REMARK Flexibility Score: inf
ROOT
ATOM      1  C   UNL     1       5.412  -5.636   3.048  1.00  0.00     0.000 C 
ENDROOT
BRANCH   1   2
ATOM      2  C   UNL     1       6.014  -4.880   1.846  1.00  0.00     0.000 C 
BRANCH   2   3
ATOM      3  C   UNL     1       5.363  -5.184   0.485  1.00  0.00     0.000 C 
BRANCH   3   4
ATOM      4  C   UNL     1       4.855  -3.918  -0.229  1.00  0.00     0.000 C 
BRANCH   4   5
ATOM      5  C   UNL     1       4.692  -2.726   0.729  1.00  0.00     0.000 C 
BRANCH   5   6
ATOM      6  C   UNL     1       5.087  -1.387   0.081  1.00  0.00     0.006 C 
BRANCH   6   7
ATOM      7  C   UNL     1       5.500  -1.555  -1.387  1.00  0.00     0.053 C 
BRANCH   7   8
ATOM      8  C   UNL     1       6.234  -0.354  -1.902  1.00  0.00     0.041 C 
ATOM      9  O   UNL     1       7.490  -0.301  -1.832  1.00  0.00    -0.550 OA
ATOM     10  O   UNL     1       5.528   0.720  -2.429  1.00  0.00    -0.550 OA
ENDBRANCH   7   8
ENDBRANCH   6   7
ENDBRANCH   5   6
ENDBRANCH   4   5
ENDBRANCH   3   4
ENDBRANCH   2   3
ENDBRANCH   1   2
BRANCH   1  11
ATOM     11  C   UNL     1       3.929  -6.023   2.904  1.00  0.00     0.000 C 
BRANCH  11  12
ATOM     12  C   UNL     1       2.978  -4.999   3.546  1.00  0.00    -0.000 C 
BRANCH  12  13
ATOM     13  C   UNL     1       1.946  -4.446   2.550  1.00  0.00    -0.000 C 
BRANCH  13  14
ATOM     14  C   UNL     1       1.390  -5.534   1.613  1.00  0.00    -0.000 C 
BRANCH  14  15
ATOM     15  C   UNL     1       1.528  -5.161   0.128  1.00  0.00    -0.000 C 
BRANCH  15  16
ATOM     16  C   UNL     1       1.489  -6.390  -0.798  1.00  0.00    -0.000 C 
BRANCH  16  17
ATOM     17  C   UNL     1       2.466  -7.490  -0.355  1.00  0.00    -0.003 C 
ATOM     18  C   UNL     1       3.548  -7.778  -1.396  1.00  0.00     0.004 C 
ENDBRANCH  16  17
ENDBRANCH  15  16
ENDBRANCH  14  15
ENDBRANCH  13  14
ENDBRANCH  12  13
ENDBRANCH  11  12
ENDBRANCH   1  11
TORSDOF 14
ENDMDL
MODEL 3
REMARK VINA RESULT:    -3.306      3.026      6.126
REMARK INTER + INTRA:          -8.637
REMARK INTER:                  -6.395
REMARK INTRA:                  -2.242
REMARK UNBOUND:                -2.625
REMARK SMILES CCCCCCCCCCCCCCCC(=O)[O-]
REMARK SMILES IDX 9 1 10 2 11 3 12 4 13 5 14 6 15 7 16 8 17 9 18 10 8 11 7 12
REMARK SMILES IDX 6 13 5 14 4 15 3 16 2 17 1 18
REMARK H PARENT
REMARK Flexibility Score: inf
ROOT
ATOM      1  C   UNL     1       6.599  -1.095   1.164  1.00  0.00     0.000 C 
ENDROOT
BRANCH   1   2
ATOM      2  C   UNL     1       7.063  -2.543   1.428  1.00  0.00     0.000 C 
BRANCH   2   3
ATOM      3  C   UNL     1       5.977  -3.621   1.265  1.00  0.00     0.000 C 
BRANCH   3   4
ATOM      4  C   UNL     1       4.598  -3.031   0.916  1.00  0.00     0.000 C 
BRANCH   4   5
ATOM      5  C   UNL     1       3.836  -3.883  -0.112  1.00  0.00     0.000 C 
BRANCH   5   6
ATOM      6  C   UNL     1       2.706  -4.711   0.526  1.00  0.00     0.006 C 
BRANCH   6   7
ATOM      7  C   UNL     1       2.477  -4.340   1.997  1.00  0.00     0.053 C 
BRANCH   7   8
ATOM      8  C   UNL     1       1.805  -5.445   2.753  1.00  0.00     0.041 C 
ATOM      9  O   UNL     1       0.647  -5.820   2.433  1.00  0.00    -0.550 OA
ATOM     10  O   UNL     1       2.445  -6.039   3.834  1.00  0.00    -0.550 OA
ENDBRANCH   7   8
ENDBRANCH   6   7
ENDBRANCH   5   6
ENDBRANCH   4   5
ENDBRANCH   3   4
ENDBRANCH   2   3
ENDBRANCH   1   2
BRANCH   1  11
ATOM     11  C   UNL     1       7.611  -0.206   0.418  1.00  0.00     0.000 C 
BRANCH  11  12
ATOM     12  C   UNL     1       7.251  -0.006  -1.064  1.00  0.00    -0.000 C 
BRANCH  12  13
ATOM     13  C   UNL     1       5.785  -0.358  -1.368  1.00  0.00    -0.000 C 
BRANCH  13  14
ATOM     14  C   UNL     1       5.653  -1.525  -2.363  1.00  0.00    -0.000 C 
BRANCH  14  15
ATOM     15  C   UNL     1       6.840  -2.500  -2.291  1.00  0.00    -0.000 C 
BRANCH  15  16
ATOM     16  C   UNL     1       6.461  -3.928  -2.720  1.00  0.00    -0.000 C 
BRANCH  16  17
ATOM     17  C   UNL     1       7.148  -5.001  -1.861  1.00  0.00    -0.003 C 
ATOM     18  C   UNL     1       6.302  -6.264  -1.699  1.00  0.00     0.004 C 
ENDBRANCH  16  17
ENDBRANCH  15  16
ENDBRANCH  14  15
ENDBRANCH  13  14
ENDBRANCH  12  13
ENDBRANCH  11  12
ENDBRANCH   1  11
TORSDOF 14
ENDMDL
MODEL 4
REMARK VINA RESULT:    -3.302      1.777      3.236
REMARK INTER + INTRA:          -8.629
REMARK INTER:                  -6.001
REMARK INTRA:                  -2.628
REMARK UNBOUND:                -2.625
REMARK SMILES CCCCCCCCCCCCCCCC(=O)[O-]
REMARK SMILES IDX 9 1 10 2 11 3 12 4 13 5 14 6 15 7 16 8 17 9 18 10 8 11 7 12
REMARK SMILES IDX 6 13 5 14 4 15 3 16 2 17 1 18
REMARK H PARENT
REMARK Flexibility Score: inf
ROOT
ATOM      1  C   UNL     1       3.153  -6.389  -0.365  1.00  0.00     0.000 C 
ENDROOT
BRANCH   1   2
ATOM      2  C   UNL     1       4.035  -7.282   0.532  1.00  0.00     0.000 C 
BRANCH   2   3
ATOM      3  C   UNL     1       5.134  -6.543   1.316  1.00  0.00     0.000 C 
BRANCH   3   4
ATOM      4  C   UNL     1       5.609  -5.259   0.611  1.00  0.00     0.000 C 
BRANCH   4   5
ATOM      5  C   UNL     1       5.581  -4.033   1.538  1.00  0.00     0.000 C 
BRANCH   5   6
ATOM      6  C   UNL     1       4.964  -2.794   0.863  1.00  0.00     0.006 C 
BRANCH   6   7
ATOM      7  C   UNL     1       4.823  -2.973  -0.654  1.00  0.00     0.053 C 
BRANCH   7   8
ATOM      8  C   UNL     1       5.543  -1.900  -1.412  1.00  0.00     0.041 C 
ATOM      9  O   UNL     1       6.630  -2.155  -1.995  1.00  0.00    -0.550 OA
ATOM     10  O   UNL     1       5.031  -0.609  -1.447  1.00  0.00    -0.550 OA
ENDBRANCH   7   8
ENDBRANCH   6   7
ENDBRANCH   5   6
ENDBRANCH   4   5
ENDBRANCH   3   4
ENDBRANCH   2   3
ENDBRANCH   1   2
BRANCH   1  11
ATOM     11  C   UNL     1       1.786  -6.007   0.230  1.00  0.00     0.000 C 
BRANCH  11  12
ATOM     12  C   UNL     1       1.766  -4.583   0.812  1.00  0.00    -0.000 C 
BRANCH  12  13
ATOM     13  C   UNL     1       1.793  -4.573   2.349  1.00  0.00    -0.000 C 
BRANCH  13  14
ATOM     14  C   UNL     1       1.449  -5.947   2.953  1.00  0.00    -0.000 C 
BRANCH  14  15
ATOM     15  C   UNL     1       2.498  -6.426   3.970  1.00  0.00    -0.000 C 
BRANCH  15  16
ATOM     16  C   UNL     1       3.487  -5.316   4.367  1.00  0.00    -0.000 C 
BRANCH  16  17
ATOM     17  C   UNL     1       4.739  -5.868   5.068  1.00  0.00    -0.003 C 
ATOM     18  C   UNL     1       4.419  -6.580   6.382  1.00  0.00     0.004 C 
ENDBRANCH  16  17
ENDBRANCH  15  16
ENDBRANCH  14  15
ENDBRANCH  13  14
ENDBRANCH  12  13
ENDBRANCH  11  12
ENDBRANCH   1  11
TORSDOF 14
ENDMDL
MODEL 5
REMARK VINA RESULT:    -3.273      3.041      4.955
REMARK INTER + INTRA:          -8.577
REMARK INTER:                  -6.596
REMARK INTRA:                  -1.980
REMARK UNBOUND:                -2.625
REMARK SMILES CCCCCCCCCCCCCCCC(=O)[O-]
REMARK SMILES IDX 9 1 10 2 11 3 12 4 13 5 14 6 15 7 16 8 17 9 18 10 8 11 7 12
REMARK SMILES IDX 6 13 5 14 4 15 3 16 2 17 1 18
REMARK H PARENT
REMARK Flexibility Score: inf
ROOT
ATOM      1  C   UNL     1       5.658  -0.362  -1.593  1.00  0.00     0.000 C 
ENDROOT
BRANCH   1   2
ATOM      2  C   UNL     1       6.965   0.441  -1.762  1.00  0.00     0.000 C 
BRANCH   2   3
ATOM      3  C   UNL     1       8.258  -0.391  -1.717  1.00  0.00     0.000 C 
BRANCH   3   4
ATOM      4  C   UNL     1       8.937  -0.364  -0.335  1.00  0.00     0.000 C 
BRANCH   4   5
ATOM      5  C   UNL     1       8.590  -1.596   0.517  1.00  0.00     0.000 C 
BRANCH   5   6
ATOM      6  C   UNL     1       8.417  -1.255   2.008  1.00  0.00     0.006 C 
BRANCH   6   7
ATOM      7  C   UNL     1       7.439  -0.093   2.225  1.00  0.00     0.053 C 
BRANCH   7   8
ATOM      8  C   UNL     1       8.077   1.042   2.966  1.00  0.00     0.041 C 
ATOM      9  O   UNL     1       7.831   2.232   2.637  1.00  0.00    -0.550 OA
ATOM     10  O   UNL     1       8.969   0.785   4.000  1.00  0.00    -0.550 OA
ENDBRANCH   7   8
ENDBRANCH   6   7
ENDBRANCH   5   6
ENDBRANCH   4   5
ENDBRANCH   3   4
ENDBRANCH   2   3
ENDBRANCH   1   2
BRANCH   1  11
ATOM     11  C   UNL     1       5.741  -1.843  -2.006  1.00  0.00     0.000 C 
BRANCH  11  12
ATOM     12  C   UNL     1       4.949  -2.770  -1.067  1.00  0.00    -0.000 C 
BRANCH  12  13
ATOM     13  C   UNL     1       5.038  -2.333   0.405  1.00  0.00    -0.000 C 
BRANCH  13  14
ATOM     14  C   UNL     1       5.463  -3.484   1.336  1.00  0.00    -0.000 C 
BRANCH  14  15
ATOM     15  C   UNL     1       4.379  -4.567   1.468  1.00  0.00    -0.000 C 
BRANCH  15  16
ATOM     16  C   UNL     1       3.071  -4.026   2.070  1.00  0.00    -0.000 C 
BRANCH  16  17
ATOM     17  C   UNL     1       1.824  -4.635   1.409  1.00  0.00    -0.003 C 
ATOM     18  C   UNL     1       2.006  -4.881  -0.088  1.00  0.00     0.004 C 
ENDBRANCH  16  17
ENDBRANCH  15  16
ENDBRANCH  14  15
ENDBRANCH  13  14
ENDBRANCH  12  13
ENDBRANCH  11  12
ENDBRANCH   1  11
TORSDOF 14
ENDMDL
MODEL 6
REMARK VINA RESULT:    -3.271      2.470      5.986
REMARK INTER + INTRA:          -8.573
REMARK INTER:                  -6.029
REMARK INTRA:                  -2.544
REMARK UNBOUND:                -2.625
REMARK SMILES CCCCCCCCCCCCCCCC(=O)[O-]
REMARK SMILES IDX 9 1 10 2 11 3 12 4 13 5 14 6 15 7 16 8 17 9 18 10 8 11 7 12
REMARK SMILES IDX 6 13 5 14 4 15 3 16 2 17 1 18
REMARK H PARENT
REMARK Flexibility Score: inf
ROOT
ATOM      1  C   UNL     1       6.027  -3.916   1.588  1.00  0.00     0.000 C 
ENDROOT
BRANCH   1   2
ATOM      2  C   UNL     1       5.926  -5.109   0.615  1.00  0.00     0.000 C 
BRANCH   2   3
ATOM      3  C   UNL     1       4.627  -5.179  -0.207  1.00  0.00     0.000 C 
BRANCH   3   4
ATOM      4  C   UNL     1       3.613  -4.090   0.187  1.00  0.00     0.000 C 
BRANCH   4   5
ATOM      5  C   UNL     1       2.247  -4.674   0.584  1.00  0.00     0.000 C 
BRANCH   5   6
ATOM      6  C   UNL     1       1.903  -4.423   2.063  1.00  0.00     0.006 C 
BRANCH   6   7
ATOM      7  C   UNL     1       1.884  -5.722   2.880  1.00  0.00     0.053 C 
BRANCH   7   8
ATOM      8  C   UNL     1       3.268  -6.205   3.194  1.00  0.00     0.041 C 
ATOM      9  O   UNL     1       3.673  -7.307   2.740  1.00  0.00    -0.550 OA
ATOM     10  O   UNL     1       4.099  -5.451   4.014  1.00  0.00    -0.550 OA
ENDBRANCH   7   8
ENDBRANCH   6   7
ENDBRANCH   5   6
ENDBRANCH   4   5
ENDBRANCH   3   4
ENDBRANCH   2   3
ENDBRANCH   1   2
BRANCH   1  11
ATOM     11  C   UNL     1       7.370  -3.163   1.567  1.00  0.00     0.000 C 
BRANCH  11  12
ATOM     12  C   UNL     1       7.284  -1.808   0.844  1.00  0.00    -0.000 C 
BRANCH  12  13
ATOM     13  C   UNL     1       5.863  -1.220   0.861  1.00  0.00    -0.000 C 
BRANCH  13  14
ATOM     14  C   UNL     1       5.279  -1.051  -0.553  1.00  0.00    -0.000 C 
BRANCH  14  15
ATOM     15  C   UNL     1       6.316  -1.314  -1.657  1.00  0.00    -0.000 C 
BRANCH  15  16
ATOM     16  C   UNL     1       6.005  -2.581  -2.473  1.00  0.00    -0.000 C 
BRANCH  16  17
ATOM     17  C   UNL     1       7.193  -3.555  -2.522  1.00  0.00    -0.003 C 
ATOM     18  C   UNL     1       6.843  -4.885  -3.189  1.00  0.00     0.004 C 
ENDBRANCH  16  17
ENDBRANCH  15  16
ENDBRANCH  14  15
ENDBRANCH  13  14
ENDBRANCH  12  13
ENDBRANCH  11  12
ENDBRANCH   1  11
TORSDOF 14
ENDMDL
MODEL 7
REMARK VINA RESULT:    -3.251      3.050      6.268
REMARK INTER + INTRA:          -8.536
REMARK INTER:                  -6.397
REMARK INTRA:                  -2.139
REMARK UNBOUND:                -2.625
REMARK SMILES CCCCCCCCCCCCCCCC(=O)[O-]
REMARK SMILES IDX 9 1 10 2 11 3 12 4 13 5 14 6 15 7 16 8 17 9 18 10 8 11 7 12
REMARK SMILES IDX 6 13 5 14 4 15 3 16 2 17 1 18
REMARK H PARENT
REMARK Flexibility Score: inf
ROOT
ATOM      1  C   UNL     1       7.154  -3.562   1.145  1.00  0.00     0.000 C 
ENDROOT
BRANCH   1   2
ATOM      2  C   UNL     1       6.832  -4.553   2.283  1.00  0.00     0.000 C 
BRANCH   2   3
ATOM      3  C   UNL     1       5.384  -5.076   2.307  1.00  0.00     0.000 C 
BRANCH   3   4
ATOM      4  C   UNL     1       4.800  -5.280   0.898  1.00  0.00     0.000 C 
BRANCH   4   5
ATOM      5  C   UNL     1       3.507  -4.478   0.675  1.00  0.00     0.000 C 
BRANCH   5   6
ATOM      6  C   UNL     1       2.815  -4.090   1.993  1.00  0.00     0.006 C 
BRANCH   6   7
ATOM      7  C   UNL     1       1.400  -4.675   2.097  1.00  0.00     0.053 C 
BRANCH   7   8
ATOM      8  C   UNL     1       1.382  -5.959   2.869  1.00  0.00     0.041 C 
ATOM      9  O   UNL     1       2.359  -6.275   3.598  1.00  0.00    -0.550 OA
ATOM     10  O   UNL     1       0.299  -6.824   2.758  1.00  0.00    -0.550 OA
ENDBRANCH   7   8
ENDBRANCH   6   7
ENDBRANCH   5   6
ENDBRANCH   4   5
ENDBRANCH   3   4
ENDBRANCH   2   3
ENDBRANCH   1   2
BRANCH   1  11
ATOM     11  C   UNL     1       7.642  -2.175   1.602  1.00  0.00     0.000 C 
BRANCH  11  12
ATOM     12  C   UNL     1       6.648  -1.051   1.261  1.00  0.00    -0.000 C 
BRANCH  12  13
ATOM     13  C   UNL     1       5.405  -1.569   0.517  1.00  0.00    -0.000 C 
BRANCH  13  14
ATOM     14  C   UNL     1       5.262  -0.957  -0.888  1.00  0.00    -0.000 C 
BRANCH  14  15
ATOM     15  C   UNL     1       6.254  -1.558  -1.898  1.00  0.00    -0.000 C 
BRANCH  15  16
ATOM     16  C   UNL     1       5.941  -3.027  -2.233  1.00  0.00    -0.000 C 
BRANCH  16  17
ATOM     17  C   UNL     1       7.176  -3.790  -2.736  1.00  0.00    -0.003 C 
ATOM     18  C   UNL     1       8.491  -3.156  -2.282  1.00  0.00     0.004 C 
ENDBRANCH  16  17
ENDBRANCH  15  16
ENDBRANCH  14  15
ENDBRANCH  13  14
ENDBRANCH  12  13
ENDBRANCH  11  12
ENDBRANCH   1  11
TORSDOF 14
ENDMDL
MODEL 8
REMARK VINA RESULT:    -3.245      2.528      6.064
REMARK INTER + INTRA:          -8.525
REMARK INTER:                  -6.589
REMARK INTRA:                  -1.936
REMARK UNBOUND:                -2.625
REMARK SMILES CCCCCCCCCCCCCCCC(=O)[O-]
REMARK SMILES IDX 9 1 10 2 11 3 12 4 13 5 14 6 15 7 16 8 17 9 18 10 8 11 7 12
REMARK SMILES IDX 6 13 5 14 4 15 3 16 2 17 1 18
REMARK H PARENT
REMARK Flexibility Score: inf
ROOT
ATOM      1  C   UNL     1       3.342  -4.559   0.008  1.00  0.00     0.000 C 
ENDROOT
BRANCH   1   2
ATOM      2  C   UNL     1       1.884  -4.749   0.476  1.00  0.00     0.000 C 
BRANCH   2   3
ATOM      3  C   UNL     1       1.653  -4.582   1.989  1.00  0.00     0.000 C 
BRANCH   3   4
ATOM      4  C   UNL     1       1.334  -5.912   2.694  1.00  0.00     0.000 C 
BRANCH   4   5
ATOM      5  C   UNL     1       2.510  -6.428   3.539  1.00  0.00     0.000 C 
BRANCH   5   6
ATOM      6  C   UNL     1       3.386  -5.290   4.092  1.00  0.00     0.006 C 
BRANCH   6   7
ATOM      7  C   UNL     1       4.204  -5.731   5.312  1.00  0.00     0.053 C 
BRANCH   7   8
ATOM      8  C   UNL     1       5.422  -6.510   4.917  1.00  0.00     0.041 C 
ATOM      9  O   UNL     1       6.412  -5.922   4.408  1.00  0.00    -0.550 OA
ATOM     10  O   UNL     1       5.450  -7.889   5.081  1.00  0.00    -0.550 OA
ENDBRANCH   7   8
ENDBRANCH   6   7
ENDBRANCH   5   6
ENDBRANCH   4   5
ENDBRANCH   3   4
ENDBRANCH   2   3
ENDBRANCH   1   2
BRANCH   1  11
ATOM     11  C   UNL     1       4.254  -5.787   0.183  1.00  0.00     0.000 C 
BRANCH  11  12
ATOM     12  C   UNL     1       5.637  -5.428   0.751  1.00  0.00    -0.000 C 
BRANCH  12  13
ATOM     13  C   UNL     1       5.642  -4.076   1.483  1.00  0.00    -0.000 C 
BRANCH  13  14
ATOM     14  C   UNL     1       6.705  -3.109   0.928  1.00  0.00    -0.000 C 
BRANCH  14  15
ATOM     15  C   UNL     1       6.296  -1.634   1.076  1.00  0.00    -0.000 C 
BRANCH  15  16
ATOM     16  C   UNL     1       5.050  -1.278   0.247  1.00  0.00    -0.000 C 
BRANCH  16  17
ATOM     17  C   UNL     1       5.226  -1.600  -1.246  1.00  0.00    -0.003 C 
ATOM     18  C   UNL     1       5.522  -0.360  -2.089  1.00  0.00     0.004 C 
ENDBRANCH  16  17
ENDBRANCH  15  16
ENDBRANCH  14  15
ENDBRANCH  13  14
ENDBRANCH  12  13
ENDBRANCH  11  12
ENDBRANCH   1  11
TORSDOF 14
ENDMDL
MODEL 9
REMARK VINA RESULT:    -3.164      2.018      4.148
REMARK INTER + INTRA:          -8.378
REMARK INTER:                  -6.490
REMARK INTRA:                  -1.887
REMARK UNBOUND:                -2.625
REMARK SMILES CCCCCCCCCCCCCCCC(=O)[O-]
REMARK SMILES IDX 9 1 10 2 11 3 12 4 13 5 14 6 15 7 16 8 17 9 18 10 8 11 7 12
REMARK SMILES IDX 6 13 5 14 4 15 3 16 2 17 1 18
REMARK H PARENT
REMARK Flexibility Score: inf
ROOT
ATOM      1  C   UNL     1       0.993  -6.332   2.251  1.00  0.00     0.000 C 
ENDROOT
BRANCH   1   2
ATOM      2  C   UNL     1       1.204  -4.850   2.627  1.00  0.00     0.000 C 
BRANCH   2   3
ATOM      3  C   UNL     1       2.341  -4.137   1.874  1.00  0.00     0.000 C 
BRANCH   3   4
ATOM      4  C   UNL     1       2.787  -4.895   0.611  1.00  0.00     0.000 C 
BRANCH   4   5
ATOM      5  C   UNL     1       3.972  -4.217  -0.097  1.00  0.00     0.000 C 
BRANCH   5   6
ATOM      6  C   UNL     1       4.544  -3.035   0.707  1.00  0.00     0.006 C 
BRANCH   6   7
ATOM      7  C   UNL     1       5.877  -2.537   0.133  1.00  0.00     0.053 C 
BRANCH   7   8
ATOM      8  C   UNL     1       5.706  -1.923  -1.223  1.00  0.00     0.041 C 
ATOM      9  O   UNL     1       6.164  -2.501  -2.244  1.00  0.00    -0.550 OA
ATOM     10  O   UNL     1       5.069  -0.695  -1.356  1.00  0.00    -0.550 OA
ENDBRANCH   7   8
ENDBRANCH   6   7
ENDBRANCH   5   6
ENDBRANCH   4   5
ENDBRANCH   3   4
ENDBRANCH   2   3
ENDBRANCH   1   2
BRANCH   1  11
ATOM     11  C   UNL     1       0.277  -7.183   3.316  1.00  0.00     0.000 C 
BRANCH  11  12
ATOM     12  C   UNL     1       1.197  -8.238   3.953  1.00  0.00    -0.000 C 
BRANCH  12  13
ATOM     13  C   UNL     1       2.672  -7.803   3.969  1.00  0.00    -0.000 C 
BRANCH  13  14
ATOM     14  C   UNL     1       3.048  -7.043   5.255  1.00  0.00    -0.000 C 
BRANCH  14  15
ATOM     15  C   UNL     1       3.788  -5.726   4.967  1.00  0.00    -0.000 C 
BRANCH  15  16
ATOM     16  C   UNL     1       5.256  -5.948   4.563  1.00  0.00    -0.000 C 
BRANCH  16  17
ATOM     17  C   UNL     1       5.515  -5.617   3.085  1.00  0.00    -0.003 C 
ATOM     18  C   UNL     1       6.893  -4.999   2.848  1.00  0.00     0.004 C 
ENDBRANCH  16  17
ENDBRANCH  15  16
ENDBRANCH  14  15
ENDBRANCH  13  14
ENDBRANCH  12  13
ENDBRANCH  11  12
ENDBRANCH   1  11
TORSDOF 14
ENDMDL
