MODEL 1
REMARK VINA RESULT:    -4.823      0.000      0.000
REMARK INTER + INTRA:          -9.659
REMARK INTER:                  -8.771
REMARK INTRA:                  -0.888
REMARK UNBOUND:                -0.888
REMARK SMILES CCCCCCCCCCCCCCCC(=O)[O-]
REMARK SMILES IDX 9 1 10 2 11 3 12 4 13 5 14 6 15 7 16 8 17 9 18 10 8 11 7 12
REMARK SMILES IDX 6 13 5 14 4 15 3 16 2 17 1 18
REMARK H PARENT
REMARK Flexibility Score: inf
ROOT
ATOM      1  C   UNL     1      -6.220  -6.806  -6.719  1.00  0.00     0.000 C 
ENDROOT
BRANCH   1   2
ATOM      2  C   UNL     1      -7.695  -6.932  -6.305  1.00  0.00     0.000 C 
BRANCH   2   3
ATOM      3  C   UNL     1      -7.978  -6.320  -4.925  1.00  0.00     0.000 C 
BRANCH   3   4
ATOM      4  C   UNL     1      -8.831  -7.265  -4.069  1.00  0.00     0.000 C 
BRANCH   4   5
ATOM      5  C   UNL     1      -8.636  -8.727  -4.500  1.00  0.00     0.000 C 
BRANCH   5   6
ATOM      6  C   UNL     1      -8.415  -9.671  -3.309  1.00  0.00     0.006 C 
BRANCH   6   7
ATOM      7  C   UNL     1      -8.201  -8.918  -1.990  1.00  0.00     0.053 C 
BRANCH   7   8
ATOM      8  C   UNL     1      -6.748  -8.898  -1.632  1.00  0.00     0.041 C 
ATOM      9  O   UNL     1      -6.339  -9.503  -0.607  1.00  0.00    -0.550 OA
ATOM     10  O   UNL     1      -5.852  -8.168  -2.404  1.00  0.00    -0.550 OA
ENDBRANCH   7   8
ENDBRANCH   6   7
ENDBRANCH   5   6
ENDBRANCH   4   5
ENDBRANCH   3   4
ENDBRANCH   2   3
ENDBRANCH   1   2
BRANCH   1  11
ATOM     11  C   UNL     1      -5.942  -7.410  -8.107  1.00  0.00     0.000 C 
BRANCH  11  12
ATOM     12  C   UNL     1      -6.209  -6.415  -9.248  1.00  0.00    -0.000 C 
BRANCH  12  13
ATOM     13  C   UNL     1      -6.500  -4.994  -8.743  1.00  0.00    -0.000 C 
BRANCH  13  14
ATOM     14  C   UNL     1      -7.104  -4.128  -9.858  1.00  0.00    -0.000 C 
BRANCH  14  15
ATOM     15  C   UNL     1      -7.076  -2.627  -9.528  1.00  0.00    -0.000 C 
BRANCH  15  16
ATOM     16  C   UNL     1      -6.437  -2.334  -8.160  1.00  0.00    -0.000 C 
BRANCH  16  17
ATOM     17  C   UNL     1      -5.151  -1.501  -8.278  1.00  0.00    -0.003 C 
ATOM     18  C   UNL     1      -4.914  -0.972  -9.692  1.00  0.00     0.004 C 
ENDBRANCH  16  17
ENDBRANCH  15  16
ENDBRANCH  14  15
ENDBRANCH  13  14
ENDBRANCH  12  13
ENDBRANCH  11  12
ENDBRANCH   1  11
TORSDOF 14
ENDMDL
MODEL 2
REMARK VINA RESULT:    -4.606     16.147     18.500
REMARK INTER + INTRA:          -9.264
REMARK INTER:                  -7.167
REMARK INTRA:                  -2.097
REMARK UNBOUND:                -0.888
REMARK SMILES CCCCCCCCCCCCCCCC(=O)[O-]
REMARK SMILES IDX 9 1 10 2 11 3 12 4 13 5 14 6 15 7 16 8 17 9 18 10 8 11 7 12
REMARK SMILES IDX 6 13 5 14 4 15 3 16 2 17 1 18
REMARK H PARENT
REMARK Flexibility Score: inf
ROOT
ATOM      1  C   UNL     1      -2.182   0.062  10.046  1.00  0.00     0.000 C 
ENDROOT
BRANCH   1   2
ATOM      2  C   UNL     1      -2.769   1.414   9.610  1.00  0.00     0.000 C 
BRANCH   2   3
ATOM      3  C   UNL     1      -1.869   2.157   8.612  1.00  0.00     0.000 C 
BRANCH   3   4
ATOM      4  C   UNL     1      -0.583   2.646   9.290  1.00  0.00     0.000 C 
BRANCH   4   5
ATOM      5  C   UNL     1       0.546   2.829   8.264  1.00  0.00     0.000 C 
BRANCH   5   6
ATOM      6  C   UNL     1       1.541   3.927   8.669  1.00  0.00     0.006 C 
BRANCH   6   7
ATOM      7  C   UNL     1       2.373   4.436   7.485  1.00  0.00     0.053 C 
BRANCH   7   8
ATOM      8  C   UNL     1       3.406   5.413   7.955  1.00  0.00     0.041 C 
ATOM      9  O   UNL     1       4.269   5.065   8.802  1.00  0.00    -0.550 OA
ATOM     10  O   UNL     1       3.384   6.723   7.492  1.00  0.00    -0.550 OA
ENDBRANCH   7   8
ENDBRANCH   6   7
ENDBRANCH   5   6
ENDBRANCH   4   5
ENDBRANCH   3   4
ENDBRANCH   2   3
ENDBRANCH   1   2
BRANCH   1  11
ATOM     11  C   UNL     1      -2.708  -1.111   9.200  1.00  0.00     0.000 C 
BRANCH  11  12
ATOM     12  C   UNL     1      -1.633  -1.695   8.268  1.00  0.00    -0.000 C 
BRANCH  12  13
ATOM     13  C   UNL     1      -0.205  -1.419   8.761  1.00  0.00    -0.000 C 
BRANCH  13  14
ATOM     14  C   UNL     1       0.635  -0.751   7.662  1.00  0.00    -0.000 C 
BRANCH  14  15
ATOM     15  C   UNL     1      -0.109  -0.651   6.321  1.00  0.00    -0.000 C 
BRANCH  15  16
ATOM     16  C   UNL     1       0.386   0.519   5.455  1.00  0.00    -0.000 C 
BRANCH  16  17
ATOM     17  C   UNL     1      -0.753   1.456   5.025  1.00  0.00    -0.003 C 
ATOM     18  C   UNL     1      -2.133   0.934   5.421  1.00  0.00     0.004 C 
ENDBRANCH  16  17
ENDBRANCH  15  16
ENDBRANCH  14  15
ENDBRANCH  13  14
ENDBRANCH  12  13
ENDBRANCH  11  12
ENDBRANCH   1  11
TORSDOF 14
ENDMDL
MODEL 3
REMARK VINA RESULT:    -4.576      2.343      3.558
REMARK INTER + INTRA:          -9.210
REMARK INTER:                  -8.510
REMARK INTRA:                  -0.700
REMARK UNBOUND:                -0.888
REMARK SMILES CCCCCCCCCCCCCCCC(=O)[O-]
REMARK SMILES IDX 9 1 10 2 11 3 12 4 13 5 14 6 15 7 16 8 17 9 18 10 8 11 7 12
REMARK SMILES IDX 6 13 5 14 4 15 3 16 2 17 1 18
REMARK H PARENT
REMARK Flexibility Score: inf
ROOT
ATOM      1  C   UNL     1      -8.013  -7.584  -4.240  1.00  0.00     0.000 C 
ENDROOT
BRANCH   1   2
ATOM      2  C   UNL     1      -7.520  -9.034  -4.370  1.00  0.00     0.000 C 
BRANCH   2   3
ATOM      3  C   UNL     1      -7.709  -9.844  -3.078  1.00  0.00     0.000 C 
BRANCH   3   4
ATOM      4  C   UNL     1      -7.856  -8.916  -1.866  1.00  0.00     0.000 C 
BRANCH   4   5
ATOM      5  C   UNL     1      -8.709  -9.572  -0.769  1.00  0.00     0.000 C 
BRANCH   5   6
ATOM      6  C   UNL     1      -7.927  -9.798   0.534  1.00  0.00     0.006 C 
BRANCH   6   7
ATOM      7  C   UNL     1      -8.726  -9.397   1.780  1.00  0.00     0.053 C 
BRANCH   7   8
ATOM      8  C   UNL     1      -8.008  -9.824   3.021  1.00  0.00     0.041 C 
ATOM      9  O   UNL     1      -6.767 -10.033   2.995  1.00  0.00    -0.550 OA
ATOM     10  O   UNL     1      -8.719 -10.041   4.196  1.00  0.00    -0.550 OA
ENDBRANCH   7   8
ENDBRANCH   6   7
ENDBRANCH   5   6
ENDBRANCH   4   5
ENDBRANCH   3   4
ENDBRANCH   2   3
ENDBRANCH   1   2
BRANCH   1  11
ATOM     11  C   UNL     1      -7.727  -6.747  -5.499  1.00  0.00     0.000 C 
BRANCH  11  12
ATOM     12  C   UNL     1      -7.021  -7.557  -6.599  1.00  0.00    -0.000 C 
BRANCH  12  13
ATOM     13  C   UNL     1      -5.860  -6.791  -7.250  1.00  0.00    -0.000 C 
BRANCH  13  14
ATOM     14  C   UNL     1      -6.207  -5.303  -7.411  1.00  0.00    -0.000 C 
BRANCH  14  15
ATOM     15  C   UNL     1      -6.709  -4.958  -8.823  1.00  0.00    -0.000 C 
BRANCH  15  16
ATOM     16  C   UNL     1      -6.343  -3.527  -9.248  1.00  0.00    -0.000 C 
BRANCH  16  17
ATOM     17  C   UNL     1      -6.592  -2.500  -8.132  1.00  0.00    -0.003 C 
ATOM     18  C   UNL     1      -5.647  -1.301  -8.207  1.00  0.00     0.004 C 
ENDBRANCH  16  17
ENDBRANCH  15  16
ENDBRANCH  14  15
ENDBRANCH  13  14
ENDBRANCH  12  13
ENDBRANCH  11  12
ENDBRANCH   1  11
TORSDOF 14
ENDMDL
MODEL 4
REMARK VINA RESULT:    -4.521     16.740     18.597
REMARK INTER + INTRA:          -9.109
REMARK INTER:                  -7.631
REMARK INTRA:                  -1.478
REMARK UNBOUND:                -0.888
REMARK SMILES CCCCCCCCCCCCCCCC(=O)[O-]
REMARK SMILES IDX 9 1 10 2 11 3 12 4 13 5 14 6 15 7 16 8 17 9 18 10 8 11 7 12
REMARK SMILES IDX 6 13 5 14 4 15 3 16 2 17 1 18
REMARK H PARENT
REMARK Flexibility Score: inf
ROOT
ATOM      1  C   UNL     1      -1.593   2.650   8.855  1.00  0.00     0.000 C 
ENDROOT
BRANCH   1   2
ATOM      2  C   UNL     1      -2.361   1.332   9.048  1.00  0.00     0.000 C 
BRANCH   2   3
ATOM      3  C   UNL     1      -1.436   0.105   9.072  1.00  0.00     0.000 C 
BRANCH   3   4
ATOM      4  C   UNL     1      -1.753  -0.845   7.911  1.00  0.00     0.000 C 
BRANCH   4   5
ATOM      5  C   UNL     1      -0.489  -1.162   7.097  1.00  0.00     0.000 C 
BRANCH   5   6
ATOM      6  C   UNL     1       0.376   0.081   6.838  1.00  0.00     0.006 C 
BRANCH   6   7
ATOM      7  C   UNL     1       0.633   0.321   5.345  1.00  0.00     0.053 C 
BRANCH   7   8
ATOM      8  C   UNL     1      -0.092   1.546   4.882  1.00  0.00     0.041 C 
ATOM      9  O   UNL     1      -1.157   1.906   5.449  1.00  0.00    -0.550 OA
ATOM     10  O   UNL     1       0.384   2.264   3.791  1.00  0.00    -0.550 OA
ENDBRANCH   7   8
ENDBRANCH   6   7
ENDBRANCH   5   6
ENDBRANCH   4   5
ENDBRANCH   3   4
ENDBRANCH   2   3
ENDBRANCH   1   2
BRANCH   1  11
ATOM     11  C   UNL     1      -0.474   2.839   9.894  1.00  0.00     0.000 C 
BRANCH  11  12
ATOM     12  C   UNL     1       0.689   3.692   9.360  1.00  0.00    -0.000 C 
BRANCH  12  13
ATOM     13  C   UNL     1       1.195   3.217   7.989  1.00  0.00    -0.000 C 
BRANCH  13  14
ATOM     14  C   UNL     1       2.290   4.152   7.454  1.00  0.00    -0.000 C 
BRANCH  14  15
ATOM     15  C   UNL     1       2.213   5.564   8.055  1.00  0.00    -0.000 C 
BRANCH  15  16
ATOM     16  C   UNL     1       3.591   6.238   8.161  1.00  0.00    -0.000 C 
BRANCH  16  17
ATOM     17  C   UNL     1       4.524   5.518   9.146  1.00  0.00    -0.003 C 
ATOM     18  C   UNL     1       5.846   6.255   9.360  1.00  0.00     0.004 C 
ENDBRANCH  16  17
ENDBRANCH  15  16
ENDBRANCH  14  15
ENDBRANCH  13  14
ENDBRANCH  12  13
ENDBRANCH  11  12
ENDBRANCH   1  11
TORSDOF 14
ENDMDL
MODEL 5
REMARK VINA RESULT:    -4.479      3.462      7.893
REMARK INTER + INTRA:          -9.033
REMARK INTER:                  -8.020
REMARK INTRA:                  -1.013
REMARK UNBOUND:                -0.888
REMARK SMILES CCCCCCCCCCCCCCCC(=O)[O-]
REMARK SMILES IDX 9 1 10 2 11 3 12 4 13 5 14 6 15 7 16 8 17 9 18 10 8 11 7 12
REMARK SMILES IDX 6 13 5 14 4 15 3 16 2 17 1 18
REMARK H PARENT
REMARK Flexibility Score: inf
ROOT
ATOM      1  C   UNL     1      -5.774  -6.935  -7.502  1.00  0.00     0.000 C 
ENDROOT
BRANCH   1   2
ATOM      2  C   UNL     1      -6.185  -7.381  -8.915  1.00  0.00     0.000 C 
BRANCH   2   3
ATOM      3  C   UNL     1      -6.159  -6.230  -9.932  1.00  0.00     0.000 C 
BRANCH   3   4
ATOM      4  C   UNL     1      -7.172  -5.142  -9.556  1.00  0.00     0.000 C 
BRANCH   4   5
ATOM      5  C   UNL     1      -6.521  -3.751  -9.578  1.00  0.00     0.000 C 
BRANCH   5   6
ATOM      6  C   UNL     1      -6.410  -3.125  -8.180  1.00  0.00     0.006 C 
BRANCH   6   7
ATOM      7  C   UNL     1      -6.298  -1.596  -8.223  1.00  0.00     0.053 C 
BRANCH   7   8
ATOM      8  C   UNL     1      -4.909  -1.185  -8.599  1.00  0.00     0.041 C 
ATOM      9  O   UNL     1      -3.930  -1.540  -7.892  1.00  0.00    -0.550 OA
ATOM     10  O   UNL     1      -4.701  -0.368  -9.704  1.00  0.00    -0.550 OA
ENDBRANCH   7   8
ENDBRANCH   6   7
ENDBRANCH   5   6
ENDBRANCH   4   5
ENDBRANCH   3   4
ENDBRANCH   2   3
ENDBRANCH   1   2
BRANCH   1  11
ATOM     11  C   UNL     1      -6.968  -6.868  -6.533  1.00  0.00     0.000 C 
BRANCH  11  12
ATOM     12  C   UNL     1      -7.587  -8.250  -6.264  1.00  0.00    -0.000 C 
BRANCH  12  13
ATOM     13  C   UNL     1      -8.969  -8.163  -5.597  1.00  0.00    -0.000 C 
BRANCH  13  14
ATOM     14  C   UNL     1      -9.018  -9.021  -4.324  1.00  0.00    -0.000 C 
BRANCH  14  15
ATOM     15  C   UNL     1      -8.683  -8.222  -3.054  1.00  0.00    -0.000 C 
BRANCH  15  16
ATOM     16  C   UNL     1      -8.262  -9.124  -1.882  1.00  0.00    -0.000 C 
BRANCH  16  17
ATOM     17  C   UNL     1      -6.770  -8.987  -1.541  1.00  0.00    -0.003 C 
ATOM     18  C   UNL     1      -5.991  -8.197  -2.591  1.00  0.00     0.004 C 
ENDBRANCH  16  17
ENDBRANCH  15  16
ENDBRANCH  14  15
ENDBRANCH  13  14
ENDBRANCH  12  13
ENDBRANCH  11  12
ENDBRANCH   1  11
TORSDOF 14
ENDMDL
MODEL 6
REMARK VINA RESULT:    -4.407     15.202     17.885
REMARK INTER + INTRA:          -8.902
REMARK INTER:                  -6.656
REMARK INTRA:                  -2.246
REMARK UNBOUND:                -0.888
REMARK SMILES CCCCCCCCCCCCCCCC(=O)[O-]
REMARK SMILES IDX 9 1 10 2 11 3 12 4 13 5 14 6 15 7 16 8 17 9 18 10 8 11 7 12
REMARK SMILES IDX 6 13 5 14 4 15 3 16 2 17 1 18
REMARK H PARENT
REMARK Flexibility Score: inf
ROOT
ATOM      1  C   UNL     1      -1.682   0.349   5.268  1.00  0.00     0.000 C 
ENDROOT
BRANCH   1   2
ATOM      2  C   UNL     1      -2.644   1.177   6.136  1.00  0.00     0.000 C 
BRANCH   2   3
ATOM      3  C   UNL     1      -1.915   2.200   7.019  1.00  0.00     0.000 C 
BRANCH   3   4
ATOM      4  C   UNL     1      -2.266   1.998   8.499  1.00  0.00     0.000 C 
BRANCH   4   5
ATOM      5  C   UNL     1      -1.209   2.640   9.410  1.00  0.00     0.000 C 
BRANCH   5   6
ATOM      6  C   UNL     1       0.211   2.539   8.833  1.00  0.00     0.006 C 
BRANCH   6   7
ATOM      7  C   UNL     1       1.057   3.784   9.124  1.00  0.00     0.053 C 
BRANCH   7   8
ATOM      8  C   UNL     1       1.902   4.130   7.938  1.00  0.00     0.041 C 
ATOM      9  O   UNL     1       2.849   4.951   8.052  1.00  0.00    -0.550 OA
ATOM     10  O   UNL     1       1.610   3.583   6.694  1.00  0.00    -0.550 OA
ENDBRANCH   7   8
ENDBRANCH   6   7
ENDBRANCH   5   6
ENDBRANCH   4   5
ENDBRANCH   3   4
ENDBRANCH   2   3
ENDBRANCH   1   2
BRANCH   1  11
ATOM     11  C   UNL     1      -0.256   0.929   5.249  1.00  0.00     0.000 C 
BRANCH  11  12
ATOM     12  C   UNL     1       0.699   0.179   6.193  1.00  0.00    -0.000 C 
BRANCH  12  13
ATOM     13  C   UNL     1       0.100  -1.131   6.726  1.00  0.00    -0.000 C 
BRANCH  13  14
ATOM     14  C   UNL     1       0.463  -1.338   8.204  1.00  0.00    -0.000 C 
BRANCH  14  15
ATOM     15  C   UNL     1      -0.757  -1.256   9.135  1.00  0.00    -0.000 C 
BRANCH  15  16
ATOM     16  C   UNL     1      -2.070  -1.622   8.422  1.00  0.00    -0.000 C 
BRANCH  16  17
ATOM     17  C   UNL     1      -2.788  -2.807   9.084  1.00  0.00    -0.003 C 
ATOM     18  C   UNL     1      -2.037  -4.128   8.913  1.00  0.00     0.004 C 
ENDBRANCH  16  17
ENDBRANCH  15  16
ENDBRANCH  14  15
ENDBRANCH  13  14
ENDBRANCH  12  13
ENDBRANCH  11  12
ENDBRANCH   1  11
TORSDOF 14
ENDMDL
MODEL 7
REMARK VINA RESULT:    -4.346      3.654      7.491
REMARK INTER + INTRA:          -8.790
REMARK INTER:                  -7.095
REMARK INTRA:                  -1.695
REMARK UNBOUND:                -0.888
REMARK SMILES CCCCCCCCCCCCCCCC(=O)[O-]
REMARK SMILES IDX 9 1 10 2 11 3 12 4 13 5 14 6 15 7 16 8 17 9 18 10 8 11 7 12
REMARK SMILES IDX 6 13 5 14 4 15 3 16 2 17 1 18
REMARK H PARENT
REMARK Flexibility Score: inf
ROOT
ATOM      1  C   UNL     1      -5.391  -6.823  -7.449  1.00  0.00     0.000 C 
ENDROOT
BRANCH   1   2
ATOM      2  C   UNL     1      -6.290  -5.638  -7.834  1.00  0.00     0.000 C 
BRANCH   2   3
ATOM      3  C   UNL     1      -6.897  -5.786  -9.238  1.00  0.00     0.000 C 
BRANCH   3   4
ATOM      4  C   UNL     1      -6.528  -4.590 -10.125  1.00  0.00     0.000 C 
BRANCH   4   5
ATOM      5  C   UNL     1      -7.347  -3.347  -9.744  1.00  0.00     0.000 C 
BRANCH   5   6
ATOM      6  C   UNL     1      -6.501  -2.065  -9.721  1.00  0.00     0.006 C 
BRANCH   6   7
ATOM      7  C   UNL     1      -5.758  -1.871  -8.393  1.00  0.00     0.053 C 
BRANCH   7   8
ATOM      8  C   UNL     1      -4.487  -1.112  -8.613  1.00  0.00     0.041 C 
ATOM      9  O   UNL     1      -3.525  -1.241  -7.811  1.00  0.00    -0.550 OA
ATOM     10  O   UNL     1      -4.383  -0.224  -9.677  1.00  0.00    -0.550 OA
ENDBRANCH   7   8
ENDBRANCH   6   7
ENDBRANCH   5   6
ENDBRANCH   4   5
ENDBRANCH   3   4
ENDBRANCH   2   3
ENDBRANCH   1   2
BRANCH   1  11
ATOM     11  C   UNL     1      -5.395  -7.938  -8.510  1.00  0.00     0.000 C 
BRANCH  11  12
ATOM     12  C   UNL     1      -6.006  -9.249  -7.987  1.00  0.00    -0.000 C 
BRANCH  12  13
ATOM     13  C   UNL     1      -7.535  -9.293  -8.137  1.00  0.00    -0.000 C 
BRANCH  13  14
ATOM     14  C   UNL     1      -8.183  -9.995  -6.934  1.00  0.00    -0.000 C 
BRANCH  14  15
ATOM     15  C   UNL     1      -7.883  -9.291  -5.601  1.00  0.00    -0.000 C 
BRANCH  15  16
ATOM     16  C   UNL     1      -8.513  -7.892  -5.516  1.00  0.00    -0.000 C 
BRANCH  16  17
ATOM     17  C   UNL     1      -7.759  -6.965  -4.550  1.00  0.00    -0.003 C 
ATOM     18  C   UNL     1      -6.942  -7.730  -3.509  1.00  0.00     0.004 C 
ENDBRANCH  16  17
ENDBRANCH  15  16
ENDBRANCH  14  15
ENDBRANCH  13  14
ENDBRANCH  12  13
ENDBRANCH  11  12
ENDBRANCH   1  11
TORSDOF 14
ENDMDL
MODEL 8
REMARK VINA RESULT:    -4.317     17.984     20.272
REMARK INTER + INTRA:          -8.738
REMARK INTER:                  -7.614
REMARK INTRA:                  -1.125
REMARK UNBOUND:                -0.888
REMARK SMILES CCCCCCCCCCCCCCCC(=O)[O-]
REMARK SMILES IDX 9 1 10 2 11 3 12 4 13 5 14 6 15 7 16 8 17 9 18 10 8 11 7 12
REMARK SMILES IDX 6 13 5 14 4 15 3 16 2 17 1 18
REMARK H PARENT
REMARK Flexibility Score: inf
ROOT
ATOM      1  C   UNL     1       1.690   3.556   7.358  1.00  0.00     0.000 C 
ENDROOT
BRANCH   1   2
ATOM      2  C   UNL     1       1.427   4.010   8.803  1.00  0.00     0.000 C 
BRANCH   2   3
ATOM      3  C   UNL     1       2.513   4.959   9.333  1.00  0.00     0.000 C 
BRANCH   3   4
ATOM      4  C   UNL     1       3.614   5.174   8.287  1.00  0.00     0.000 C 
BRANCH   4   5
ATOM      5  C   UNL     1       4.977   5.395   8.958  1.00  0.00     0.000 C 
BRANCH   5   6
ATOM      6  C   UNL     1       5.435   6.861   8.901  1.00  0.00     0.006 C 
BRANCH   6   7
ATOM      7  C   UNL     1       6.369   7.142   7.717  1.00  0.00     0.053 C 
BRANCH   7   8
ATOM      8  C   UNL     1       5.718   8.082   6.751  1.00  0.00     0.041 C 
ATOM      9  O   UNL     1       5.039   7.634   5.790  1.00  0.00    -0.550 OA
ATOM     10  O   UNL     1       5.902   9.453   6.884  1.00  0.00    -0.550 OA
ENDBRANCH   7   8
ENDBRANCH   6   7
ENDBRANCH   5   6
ENDBRANCH   4   5
ENDBRANCH   3   4
ENDBRANCH   2   3
ENDBRANCH   1   2
BRANCH   1  11
ATOM     11  C   UNL     1       0.963   2.245   7.009  1.00  0.00     0.000 C 
BRANCH  11  12
ATOM     12  C   UNL     1       1.131   1.852   5.532  1.00  0.00    -0.000 C 
BRANCH  12  13
ATOM     13  C   UNL     1      -0.031   0.993   5.009  1.00  0.00    -0.000 C 
BRANCH  13  14
ATOM     14  C   UNL     1      -1.366   1.447   5.620  1.00  0.00    -0.000 C 
BRANCH  14  15
ATOM     15  C   UNL     1      -2.213   0.273   6.136  1.00  0.00    -0.000 C 
BRANCH  15  16
ATOM     16  C   UNL     1      -1.985  -0.009   7.630  1.00  0.00    -0.000 C 
BRANCH  16  17
ATOM     17  C   UNL     1      -1.331  -1.377   7.878  1.00  0.00    -0.003 C 
ATOM     18  C   UNL     1       0.189  -1.345   7.719  1.00  0.00     0.004 C 
ENDBRANCH  16  17
ENDBRANCH  15  16
ENDBRANCH  14  15
ENDBRANCH  13  14
ENDBRANCH  12  13
ENDBRANCH  11  12
ENDBRANCH   1  11
TORSDOF 14
ENDMDL
