MODEL 1
REMARK VINA RESULT:    -2.949      0.000      0.000
REMARK INTER + INTRA:         -13.943
REMARK INTER:                  -7.777
REMARK INTRA:                  -6.165
REMARK UNBOUND:                -6.165
REMARK SMILES CCCCCCCCCCCCCCCCCCCCCCCCCCCCCC(=O)[O-]
REMARK SMILES IDX 16 1 17 2 18 3 19 4 20 5 21 6 22 7 23 8 24 9 25 10 26 11
REMARK SMILES IDX 27 12 28 13 29 14 30 15 31 16 32 17 15 18 14 19 13 20 12 21
REMARK SMILES IDX 11 22 10 23 9 24 8 25 7 26 6 27 5 28 4 29 3 30 2 31 1 32
REMARK H PARENT
REMARK Flexibility Score: inf
ROOT
ATOM      1  C   UNL     1     -18.278  40.681  93.574  1.00  0.00     0.000 C 
ENDROOT
BRANCH   1   2
ATOM      2  C   UNL     1     -17.366  41.483  94.521  1.00  0.00     0.000 C 
BRANCH   2   3
ATOM      3  C   UNL     1     -17.393  40.957  95.968  1.00  0.00     0.000 C 
BRANCH   3   4
ATOM      4  C   UNL     1     -18.528  41.517  96.847  1.00  0.00     0.000 C 
BRANCH   4   5
ATOM      5  C   UNL     1     -19.368  40.417  97.522  1.00  0.00     0.000 C 
BRANCH   5   6
ATOM      6  C   UNL     1     -20.064  39.491  96.500  1.00  0.00     0.000 C 
BRANCH   6   7
ATOM      7  C   UNL     1     -19.664  38.006  96.623  1.00  0.00     0.000 C 
BRANCH   7   8
ATOM      8  C   UNL     1     -18.558  37.538  95.657  1.00  0.00     0.000 C 
BRANCH   8   9
ATOM      9  C   UNL     1     -17.224  37.168  96.331  1.00  0.00     0.000 C 
BRANCH   9  10
ATOM     10  C   UNL     1     -16.084  36.967  95.320  1.00  0.00     0.000 C 
BRANCH  10  11
ATOM     11  C   UNL     1     -16.378  37.617  93.954  1.00  0.00     0.000 C 
BRANCH  11  12
ATOM     12  C   UNL     1     -15.235  38.483  93.385  1.00  0.00     0.000 C 
BRANCH  12  13
ATOM     13  C   UNL     1     -15.472  38.913  91.927  1.00  0.00     0.006 C 
BRANCH  13  14
ATOM     14  C   UNL     1     -14.587  38.139  90.939  1.00  0.00     0.053 C 
BRANCH  14  15
ATOM     15  C   UNL     1     -13.264  38.809  90.725  1.00  0.00     0.041 C 
ATOM     16  O   UNL     1     -12.210  38.122  90.669  1.00  0.00    -0.550 OA
ATOM     17  O   UNL     1     -13.196  40.190  90.574  1.00  0.00    -0.550 OA
ENDBRANCH  14  15
ENDBRANCH  13  14
ENDBRANCH  12  13
ENDBRANCH  11  12
ENDBRANCH  10  11
ENDBRANCH   9  10
ENDBRANCH   8   9
ENDBRANCH   7   8
ENDBRANCH   6   7
ENDBRANCH   5   6
ENDBRANCH   4   5
ENDBRANCH   3   4
ENDBRANCH   2   3
ENDBRANCH   1   2
BRANCH   1  18
ATOM     18  C   UNL     1     -19.665  41.333  93.371  1.00  0.00     0.000 C 
BRANCH  18  19
ATOM     19  C   UNL     1     -20.758  40.353  92.897  1.00  0.00     0.000 C 
BRANCH  19  20
ATOM     20  C   UNL     1     -20.233  39.097  92.177  1.00  0.00     0.000 C 
BRANCH  20  21
ATOM     21  C   UNL     1     -20.762  37.775  92.775  1.00  0.00     0.000 C 
BRANCH  21  22
ATOM     22  C   UNL     1     -19.921  36.559  92.348  1.00  0.00     0.000 C 
BRANCH  22  23
ATOM     23  C   UNL     1     -19.540  36.612  90.853  1.00  0.00     0.000 C 
BRANCH  23  24
ATOM     24  C   UNL     1     -18.021  36.642  90.605  1.00  0.00    -0.000 C 
BRANCH  24  25
ATOM     25  C   UNL     1     -17.358  35.255  90.507  1.00  0.00    -0.000 C 
BRANCH  25  26
ATOM     26  C   UNL     1     -16.402  34.925  91.672  1.00  0.00    -0.000 C 
BRANCH  26  27
ATOM     27  C   UNL     1     -16.295  33.409  91.952  1.00  0.00    -0.000 C 
BRANCH  27  28
ATOM     28  C   UNL     1     -17.314  32.941  93.005  1.00  0.00    -0.000 C 
BRANCH  28  29
ATOM     29  C   UNL     1     -17.885  34.096  93.846  1.00  0.00    -0.000 C 
BRANCH  29  30
ATOM     30  C   UNL     1     -18.201  33.694  95.302  1.00  0.00    -0.000 C 
BRANCH  30  31
ATOM     31  C   UNL     1     -19.665  33.970  95.706  1.00  0.00    -0.003 C 
ATOM     32  C   UNL     1     -20.647  33.162  94.853  1.00  0.00     0.004 C 
ENDBRANCH  30  31
ENDBRANCH  29  30
ENDBRANCH  28  29
ENDBRANCH  27  28
ENDBRANCH  26  27
ENDBRANCH  25  26
ENDBRANCH  24  25
ENDBRANCH  23  24
ENDBRANCH  22  23
ENDBRANCH  21  22
ENDBRANCH  20  21
ENDBRANCH  19  20
ENDBRANCH  18  19
ENDBRANCH   1  18
TORSDOF 28
ENDMDL
MODEL 2
REMARK VINA RESULT:    -2.910      3.378      6.813
REMARK INTER + INTRA:         -13.839
REMARK INTER:                  -7.724
REMARK INTRA:                  -6.115
REMARK UNBOUND:                -6.165
REMARK SMILES CCCCCCCCCCCCCCCCCCCCCCCCCCCCCC(=O)[O-]
REMARK SMILES IDX 16 1 17 2 18 3 19 4 20 5 21 6 22 7 23 8 24 9 25 10 26 11
REMARK SMILES IDX 27 12 28 13 29 14 30 15 31 16 32 17 15 18 14 19 13 20 12 21
REMARK SMILES IDX 11 22 10 23 9 24 8 25 7 26 6 27 5 28 4 29 3 30 2 31 1 32
REMARK H PARENT
REMARK Flexibility Score: inf
ROOT
ATOM      1  C   UNL     1     -19.152  36.148  94.316  1.00  0.00     0.000 C 
ENDROOT
BRANCH   1   2
ATOM      2  C   UNL     1     -19.775  34.843  93.787  1.00  0.00     0.000 C 
BRANCH   2   3
ATOM      3  C   UNL     1     -21.115  34.500  94.464  1.00  0.00     0.000 C 
BRANCH   3   4
ATOM      4  C   UNL     1     -21.125  33.187  95.270  1.00  0.00     0.000 C 
BRANCH   4   5
ATOM      5  C   UNL     1     -20.121  32.146  94.740  1.00  0.00     0.000 C 
BRANCH   5   6
ATOM      6  C   UNL     1     -19.109  31.696  95.816  1.00  0.00     0.000 C 
BRANCH   6   7
ATOM      7  C   UNL     1     -18.876  32.733  96.933  1.00  0.00     0.000 C 
BRANCH   7   8
ATOM      8  C   UNL     1     -17.686  33.688  96.711  1.00  0.00     0.000 C 
BRANCH   8   9
ATOM      9  C   UNL     1     -16.552  33.117  95.840  1.00  0.00     0.000 C 
BRANCH   9  10
ATOM     10  C   UNL     1     -16.185  34.038  94.666  1.00  0.00     0.000 C 
BRANCH  10  11
ATOM     11  C   UNL     1     -16.447  33.387  93.293  1.00  0.00     0.000 C 
BRANCH  11  12
ATOM     12  C   UNL     1     -16.414  31.845  93.286  1.00  0.00     0.000 C 
BRANCH  12  13
ATOM     13  C   UNL     1     -17.496  31.223  92.385  1.00  0.00     0.006 C 
BRANCH  13  14
ATOM     14  C   UNL     1     -17.129  29.803  91.930  1.00  0.00     0.053 C 
BRANCH  14  15
ATOM     15  C   UNL     1     -17.161  28.824  93.064  1.00  0.00     0.041 C 
ATOM     16  O   UNL     1     -18.186  28.731  93.789  1.00  0.00    -0.550 OA
ATOM     17  O   UNL     1     -16.065  28.003  93.309  1.00  0.00    -0.550 OA
ENDBRANCH  14  15
ENDBRANCH  13  14
ENDBRANCH  12  13
ENDBRANCH  11  12
ENDBRANCH  10  11
ENDBRANCH   9  10
ENDBRANCH   8   9
ENDBRANCH   7   8
ENDBRANCH   6   7
ENDBRANCH   5   6
ENDBRANCH   4   5
ENDBRANCH   3   4
ENDBRANCH   2   3
ENDBRANCH   1   2
BRANCH   1  18
ATOM     18  C   UNL     1     -20.077  36.911  95.291  1.00  0.00     0.000 C 
BRANCH  18  19
ATOM     19  C   UNL     1     -20.624  38.240  94.731  1.00  0.00     0.000 C 
BRANCH  19  20
ATOM     20  C   UNL     1     -20.706  38.309  93.194  1.00  0.00     0.000 C 
BRANCH  20  21
ATOM     21  C   UNL     1     -20.452  39.723  92.624  1.00  0.00     0.000 C 
BRANCH  21  22
ATOM     22  C   UNL     1     -20.103  40.744  93.721  1.00  0.00     0.000 C 
BRANCH  22  23
ATOM     23  C   UNL     1     -18.825  41.542  93.386  1.00  0.00     0.000 C 
BRANCH  23  24
ATOM     24  C   UNL     1     -17.742  41.458  94.476  1.00  0.00    -0.000 C 
BRANCH  24  25
ATOM     25  C   UNL     1     -18.245  40.965  95.847  1.00  0.00    -0.000 C 
BRANCH  25  26
ATOM     26  C   UNL     1     -17.526  39.706  96.372  1.00  0.00    -0.000 C 
BRANCH  26  27
ATOM     27  C   UNL     1     -16.221  39.394  95.606  1.00  0.00    -0.000 C 
BRANCH  27  28
ATOM     28  C   UNL     1     -16.263  38.014  94.929  1.00  0.00    -0.000 C 
BRANCH  28  29
ATOM     29  C   UNL     1     -15.856  38.057  93.445  1.00  0.00    -0.000 C 
BRANCH  29  30
ATOM     30  C   UNL     1     -17.017  38.440  92.504  1.00  0.00    -0.000 C 
BRANCH  30  31
ATOM     31  C   UNL     1     -16.935  37.752  91.124  1.00  0.00    -0.003 C 
ATOM     32  C   UNL     1     -18.161  36.874  90.860  1.00  0.00     0.004 C 
ENDBRANCH  30  31
ENDBRANCH  29  30
ENDBRANCH  28  29
ENDBRANCH  27  28
ENDBRANCH  26  27
ENDBRANCH  25  26
ENDBRANCH  24  25
ENDBRANCH  23  24
ENDBRANCH  22  23
ENDBRANCH  21  22
ENDBRANCH  20  21
ENDBRANCH  19  20
ENDBRANCH  18  19
ENDBRANCH   1  18
TORSDOF 28
ENDMDL
MODEL 3
REMARK VINA RESULT:    -2.883      2.595      6.042
REMARK INTER + INTRA:         -13.767
REMARK INTER:                  -7.869
REMARK INTRA:                  -5.898
REMARK UNBOUND:                -6.165
REMARK SMILES CCCCCCCCCCCCCCCCCCCCCCCCCCCCCC(=O)[O-]
REMARK SMILES IDX 16 1 17 2 18 3 19 4 20 5 21 6 22 7 23 8 24 9 25 10 26 11
REMARK SMILES IDX 27 12 28 13 29 14 30 15 31 16 32 17 15 18 14 19 13 20 12 21
REMARK SMILES IDX 11 22 10 23 9 24 8 25 7 26 6 27 5 28 4 29 3 30 2 31 1 32
REMARK H PARENT
REMARK Flexibility Score: inf
ROOT
ATOM      1  C   UNL     1     -17.741  40.759  94.024  1.00  0.00     0.000 C 
ENDROOT
BRANCH   1   2
ATOM      2  C   UNL     1     -19.027  41.473  93.569  1.00  0.00     0.000 C 
BRANCH   2   3
ATOM      3  C   UNL     1     -20.086  40.504  93.011  1.00  0.00     0.000 C 
BRANCH   3   4
ATOM      4  C   UNL     1     -19.524  39.256  92.304  1.00  0.00     0.000 C 
BRANCH   4   5
ATOM      5  C   UNL     1     -20.345  37.983  92.583  1.00  0.00     0.000 C 
BRANCH   5   6
ATOM      6  C   UNL     1     -20.064  36.859  91.561  1.00  0.00     0.000 C 
BRANCH   6   7
ATOM      7  C   UNL     1     -19.457  37.355  90.233  1.00  0.00     0.000 C 
BRANCH   7   8
ATOM      8  C   UNL     1     -19.455  36.329  89.083  1.00  0.00     0.000 C 
BRANCH   8   9
ATOM      9  C   UNL     1     -18.186  35.462  88.991  1.00  0.00     0.000 C 
BRANCH   9  10
ATOM     10  C   UNL     1     -16.975  36.109  89.680  1.00  0.00     0.000 C 
BRANCH  10  11
ATOM     11  C   UNL     1     -16.140  35.098  90.492  1.00  0.00     0.000 C 
BRANCH  11  12
ATOM     12  C   UNL     1     -16.935  34.289  91.538  1.00  0.00     0.000 C 
BRANCH  12  13
ATOM     13  C   UNL     1     -17.248  35.094  92.812  1.00  0.00     0.006 C 
BRANCH  13  14
ATOM     14  C   UNL     1     -17.202  34.223  94.076  1.00  0.00     0.053 C 
BRANCH  14  15
ATOM     15  C   UNL     1     -18.311  33.215  94.104  1.00  0.00     0.041 C 
ATOM     16  O   UNL     1     -19.495  33.584  94.323  1.00  0.00    -0.550 OA
ATOM     17  O   UNL     1     -18.038  31.871  93.874  1.00  0.00    -0.550 OA
ENDBRANCH  14  15
ENDBRANCH  13  14
ENDBRANCH  12  13
ENDBRANCH  11  12
ENDBRANCH  10  11
ENDBRANCH   9  10
ENDBRANCH   8   9
ENDBRANCH   7   8
ENDBRANCH   6   7
ENDBRANCH   5   6
ENDBRANCH   4   5
ENDBRANCH   3   4
ENDBRANCH   2   3
ENDBRANCH   1   2
BRANCH   1  18
ATOM     18  C   UNL     1     -17.315  41.131  95.462  1.00  0.00     0.000 C 
BRANCH  18  19
ATOM     19  C   UNL     1     -18.481  41.572  96.370  1.00  0.00     0.000 C 
BRANCH  19  20
ATOM     20  C   UNL     1     -19.024  40.475  97.304  1.00  0.00     0.000 C 
BRANCH  20  21
ATOM     21  C   UNL     1     -20.012  39.508  96.613  1.00  0.00     0.000 C 
BRANCH  21  22
ATOM     22  C   UNL     1     -19.632  38.032  96.823  1.00  0.00     0.000 C 
BRANCH  22  23
ATOM     23  C   UNL     1     -18.613  37.539  95.773  1.00  0.00     0.000 C 
BRANCH  23  24
ATOM     24  C   UNL     1     -17.325  36.961  96.387  1.00  0.00    -0.000 C 
BRANCH  24  25
ATOM     25  C   UNL     1     -16.319  38.018  96.884  1.00  0.00    -0.000 C 
BRANCH  25  26
ATOM     26  C   UNL     1     -15.024  38.101  96.052  1.00  0.00    -0.000 C 
BRANCH  26  27
ATOM     27  C   UNL     1     -14.840  36.897  95.101  1.00  0.00    -0.000 C 
BRANCH  27  28
ATOM     28  C   UNL     1     -14.048  37.272  93.838  1.00  0.00    -0.000 C 
BRANCH  28  29
ATOM     29  C   UNL     1     -14.485  38.616  93.229  1.00  0.00    -0.000 C 
BRANCH  29  30
ATOM     30  C   UNL     1     -15.687  38.490  92.269  1.00  0.00    -0.000 C 
BRANCH  30  31
ATOM     31  C   UNL     1     -15.338  38.837  90.806  1.00  0.00    -0.003 C 
ATOM     32  C   UNL     1     -13.826  38.960  90.602  1.00  0.00     0.004 C 
ENDBRANCH  30  31
ENDBRANCH  29  30
ENDBRANCH  28  29
ENDBRANCH  27  28
ENDBRANCH  26  27
ENDBRANCH  25  26
ENDBRANCH  24  25
ENDBRANCH  23  24
ENDBRANCH  22  23
ENDBRANCH  21  22
ENDBRANCH  20  21
ENDBRANCH  19  20
ENDBRANCH  18  19
ENDBRANCH   1  18
TORSDOF 28
ENDMDL
MODEL 4
REMARK VINA RESULT:    -2.862      2.806      6.211
REMARK INTER + INTRA:         -13.712
REMARK INTER:                  -7.488
REMARK INTRA:                  -6.224
REMARK UNBOUND:                -6.165
REMARK SMILES CCCCCCCCCCCCCCCCCCCCCCCCCCCCCC(=O)[O-]
REMARK SMILES IDX 16 1 17 2 18 3 19 4 20 5 21 6 22 7 23 8 24 9 25 10 26 11
REMARK SMILES IDX 27 12 28 13 29 14 30 15 31 16 32 17 15 18 14 19 13 20 12 21
REMARK SMILES IDX 11 22 10 23 9 24 8 25 7 26 6 27 5 28 4 29 3 30 2 31 1 32
REMARK H PARENT
REMARK Flexibility Score: inf
ROOT
ATOM      1  C   UNL     1     -19.739  31.925  94.593  1.00  0.00     0.000 C 
ENDROOT
BRANCH   1   2
ATOM      2  C   UNL     1     -19.680  32.828  95.839  1.00  0.00     0.000 C 
BRANCH   2   3
ATOM      3  C   UNL     1     -19.743  34.328  95.497  1.00  0.00     0.000 C 
BRANCH   3   4
ATOM      4  C   UNL     1     -20.381  34.663  94.135  1.00  0.00     0.000 C 
BRANCH   4   5
ATOM      5  C   UNL     1     -19.535  35.640  93.296  1.00  0.00     0.000 C 
BRANCH   5   6
ATOM      6  C   UNL     1     -20.388  36.461  92.304  1.00  0.00     0.000 C 
BRANCH   6   7
ATOM      7  C   UNL     1     -19.781  37.830  91.937  1.00  0.00     0.000 C 
BRANCH   7   8
ATOM      8  C   UNL     1     -19.272  37.960  90.487  1.00  0.00     0.000 C 
BRANCH   8   9
ATOM      9  C   UNL     1     -19.308  36.656  89.670  1.00  0.00     0.000 C 
BRANCH   9  10
ATOM     10  C   UNL     1     -17.992  35.867  89.753  1.00  0.00     0.000 C 
BRANCH  10  11
ATOM     11  C   UNL     1     -16.770  36.770  90.015  1.00  0.00     0.000 C 
BRANCH  11  12
ATOM     12  C   UNL     1     -15.904  36.360  91.224  1.00  0.00     0.000 C 
BRANCH  12  13
ATOM     13  C   UNL     1     -16.211  37.179  92.491  1.00  0.00     0.006 C 
BRANCH  13  14
ATOM     14  C   UNL     1     -15.837  38.660  92.331  1.00  0.00     0.053 C 
BRANCH  14  15
ATOM     15  C   UNL     1     -14.373  38.845  92.070  1.00  0.00     0.041 C 
ATOM     16  O   UNL     1     -13.989  39.494  91.060  1.00  0.00    -0.550 OA
ATOM     17  O   UNL     1     -13.434  38.316  92.948  1.00  0.00    -0.550 OA
ENDBRANCH  14  15
ENDBRANCH  13  14
ENDBRANCH  12  13
ENDBRANCH  11  12
ENDBRANCH  10  11
ENDBRANCH   9  10
ENDBRANCH   8   9
ENDBRANCH   7   8
ENDBRANCH   6   7
ENDBRANCH   5   6
ENDBRANCH   4   5
ENDBRANCH   3   4
ENDBRANCH   2   3
ENDBRANCH   1   2
BRANCH   1  18
ATOM     18  C   UNL     1     -18.867  30.656  94.721  1.00  0.00     0.000 C 
BRANCH  18  19
ATOM     19  C   UNL     1     -18.452  30.038  93.370  1.00  0.00     0.000 C 
BRANCH  19  20
ATOM     20  C   UNL     1     -17.473  28.854  93.474  1.00  0.00     0.000 C 
BRANCH  20  21
ATOM     21  C   UNL     1     -16.125  29.101  92.760  1.00  0.00     0.000 C 
BRANCH  21  22
ATOM     22  C   UNL     1     -16.163  28.693  91.277  1.00  0.00     0.000 C 
BRANCH  22  23
ATOM     23  C   UNL     1     -16.230  29.918  90.339  1.00  0.00     0.000 C 
BRANCH  23  24
ATOM     24  C   UNL     1     -14.926  30.735  90.299  1.00  0.00    -0.000 C 
BRANCH  24  25
ATOM     25  C   UNL     1     -15.050  32.170  90.848  1.00  0.00    -0.000 C 
BRANCH  25  26
ATOM     26  C   UNL     1     -16.492  32.713  90.885  1.00  0.00    -0.000 C 
BRANCH  26  27
ATOM     27  C   UNL     1     -16.969  33.061  92.312  1.00  0.00    -0.000 C 
BRANCH  27  28
ATOM     28  C   UNL     1     -15.811  33.068  93.324  1.00  0.00    -0.000 C 
BRANCH  28  29
ATOM     29  C   UNL     1     -16.190  33.711  94.670  1.00  0.00    -0.000 C 
BRANCH  29  30
ATOM     30  C   UNL     1     -15.959  32.781  95.879  1.00  0.00    -0.000 C 
BRANCH  30  31
ATOM     31  C   UNL     1     -15.290  31.442  95.499  1.00  0.00    -0.003 C 
ATOM     32  C   UNL     1     -15.611  30.344  96.517  1.00  0.00     0.004 C 
ENDBRANCH  30  31
ENDBRANCH  29  30
ENDBRANCH  28  29
ENDBRANCH  27  28
ENDBRANCH  26  27
ENDBRANCH  25  26
ENDBRANCH  24  25
ENDBRANCH  23  24
ENDBRANCH  22  23
ENDBRANCH  21  22
ENDBRANCH  20  21
ENDBRANCH  19  20
ENDBRANCH  18  19
ENDBRANCH   1  18
TORSDOF 28
ENDMDL
MODEL 5
REMARK VINA RESULT:    -2.856      1.719      3.834
REMARK INTER + INTRA:         -13.697
REMARK INTER:                  -7.609
REMARK INTRA:                  -6.088
REMARK UNBOUND:                -6.165
REMARK SMILES CCCCCCCCCCCCCCCCCCCCCCCCCCCCCC(=O)[O-]
REMARK SMILES IDX 16 1 17 2 18 3 19 4 20 5 21 6 22 7 23 8 24 9 25 10 26 11
REMARK SMILES IDX 27 12 28 13 29 14 30 15 31 16 32 17 15 18 14 19 13 20 12 21
REMARK SMILES IDX 11 22 10 23 9 24 8 25 7 26 6 27 5 28 4 29 3 30 2 31 1 32
REMARK H PARENT
REMARK Flexibility Score: inf
ROOT
ATOM      1  C   UNL     1     -17.559  39.398  96.231  1.00  0.00     0.000 C 
ENDROOT
BRANCH   1   2
ATOM      2  C   UNL     1     -18.582  40.438  95.738  1.00  0.00     0.000 C 
BRANCH   2   3
ATOM      3  C   UNL     1     -18.031  41.336  94.615  1.00  0.00     0.000 C 
BRANCH   3   4
ATOM      4  C   UNL     1     -18.972  41.530  93.411  1.00  0.00     0.000 C 
BRANCH   4   5
ATOM      5  C   UNL     1     -20.271  40.708  93.521  1.00  0.00     0.000 C 
BRANCH   5   6
ATOM      6  C   UNL     1     -20.468  39.748  92.327  1.00  0.00     0.000 C 
BRANCH   6   7
ATOM      7  C   UNL     1     -19.155  39.317  91.643  1.00  0.00     0.000 C 
BRANCH   7   8
ATOM      8  C   UNL     1     -19.322  38.446  90.382  1.00  0.00     0.000 C 
BRANCH   8   9
ATOM      9  C   UNL     1     -19.543  36.947  90.656  1.00  0.00     0.000 C 
BRANCH   9  10
ATOM     10  C   UNL     1     -18.368  36.301  91.407  1.00  0.00     0.000 C 
BRANCH  10  11
ATOM     11  C   UNL     1     -17.067  36.287  90.580  1.00  0.00     0.000 C 
BRANCH  11  12
ATOM     12  C   UNL     1     -15.840  36.899  91.285  1.00  0.00     0.000 C 
BRANCH  12  13
ATOM     13  C   UNL     1     -16.145  37.386  92.713  1.00  0.00     0.006 C 
BRANCH  13  14
ATOM     14  C   UNL     1     -15.785  38.866  92.912  1.00  0.00     0.053 C 
BRANCH  14  15
ATOM     15  C   UNL     1     -14.358  39.046  93.335  1.00  0.00     0.041 C 
ATOM     16  O   UNL     1     -13.966  38.590  94.442  1.00  0.00    -0.550 OA
ATOM     17  O   UNL     1     -13.459  39.702  92.501  1.00  0.00    -0.550 OA
ENDBRANCH  14  15
ENDBRANCH  13  14
ENDBRANCH  12  13
ENDBRANCH  11  12
ENDBRANCH  10  11
ENDBRANCH   9  10
ENDBRANCH   8   9
ENDBRANCH   7   8
ENDBRANCH   6   7
ENDBRANCH   5   6
ENDBRANCH   4   5
ENDBRANCH   3   4
ENDBRANCH   2   3
ENDBRANCH   1   2
BRANCH   1  18
ATOM     18  C   UNL     1     -18.101  37.951  96.201  1.00  0.00     0.000 C 
BRANCH  18  19
ATOM     19  C   UNL     1     -18.956  37.624  94.959  1.00  0.00     0.000 C 
BRANCH  19  20
ATOM     20  C   UNL     1     -20.321  36.982  95.265  1.00  0.00     0.000 C 
BRANCH  20  21
ATOM     21  C   UNL     1     -20.781  35.967  94.195  1.00  0.00     0.000 C 
BRANCH  21  22
ATOM     22  C   UNL     1     -19.897  34.709  94.160  1.00  0.00     0.000 C 
BRANCH  22  23
ATOM     23  C   UNL     1     -19.632  34.145  95.572  1.00  0.00     0.000 C 
BRANCH  23  24
ATOM     24  C   UNL     1     -18.136  34.002  95.909  1.00  0.00    -0.000 C 
BRANCH  24  25
ATOM     25  C   UNL     1     -17.179  34.516  94.816  1.00  0.00    -0.000 C 
BRANCH  25  26
ATOM     26  C   UNL     1     -16.433  33.405  94.051  1.00  0.00    -0.000 C 
BRANCH  26  27
ATOM     27  C   UNL     1     -16.848  33.311  92.567  1.00  0.00    -0.000 C 
BRANCH  27  28
ATOM     28  C   UNL     1     -15.934  32.368  91.768  1.00  0.00    -0.000 C 
BRANCH  28  29
ATOM     29  C   UNL     1     -16.093  30.891  92.168  1.00  0.00    -0.000 C 
BRANCH  29  30
ATOM     30  C   UNL     1     -17.543  30.378  92.047  1.00  0.00    -0.000 C 
BRANCH  30  31
ATOM     31  C   UNL     1     -18.040  29.649  93.314  1.00  0.00    -0.003 C 
ATOM     32  C   UNL     1     -18.751  30.609  94.273  1.00  0.00     0.004 C 
ENDBRANCH  30  31
ENDBRANCH  29  30
ENDBRANCH  28  29
ENDBRANCH  27  28
ENDBRANCH  26  27
ENDBRANCH  25  26
ENDBRANCH  24  25
ENDBRANCH  23  24
ENDBRANCH  22  23
ENDBRANCH  21  22
ENDBRANCH  20  21
ENDBRANCH  19  20
ENDBRANCH  18  19
ENDBRANCH   1  18
TORSDOF 28
ENDMDL
MODEL 6
REMARK VINA RESULT:    -2.853      1.553      4.543
REMARK INTER + INTRA:         -13.689
REMARK INTER:                  -7.301
REMARK INTRA:                  -6.387
REMARK UNBOUND:                -6.165
REMARK SMILES CCCCCCCCCCCCCCCCCCCCCCCCCCCCCC(=O)[O-]
REMARK SMILES IDX 16 1 17 2 18 3 19 4 20 5 21 6 22 7 23 8 24 9 25 10 26 11
REMARK SMILES IDX 27 12 28 13 29 14 30 15 31 16 32 17 15 18 14 19 13 20 12 21
REMARK SMILES IDX 11 22 10 23 9 24 8 25 7 26 6 27 5 28 4 29 3 30 2 31 1 32
REMARK H PARENT
REMARK Flexibility Score: inf
ROOT
ATOM      1  C   UNL     1     -18.826  41.055  93.803  1.00  0.00     0.000 C 
ENDROOT
BRANCH   1   2
ATOM      2  C   UNL     1     -20.280  40.871  93.330  1.00  0.00     0.000 C 
BRANCH   2   3
ATOM      3  C   UNL     1     -20.434  39.751  92.285  1.00  0.00     0.000 C 
BRANCH   3   4
ATOM      4  C   UNL     1     -19.123  39.296  91.615  1.00  0.00     0.000 C 
BRANCH   4   5
ATOM      5  C   UNL     1     -19.319  38.832  90.159  1.00  0.00     0.000 C 
BRANCH   5   6
ATOM      6  C   UNL     1     -19.292  37.293  90.018  1.00  0.00     0.000 C 
BRANCH   6   7
ATOM      7  C   UNL     1     -18.632  36.564  91.205  1.00  0.00     0.000 C 
BRANCH   7   8
ATOM      8  C   UNL     1     -17.860  35.279  90.845  1.00  0.00     0.000 C 
BRANCH   8   9
ATOM      9  C   UNL     1     -16.748  35.464  89.797  1.00  0.00     0.000 C 
BRANCH   9  10
ATOM     10  C   UNL     1     -15.477  36.095  90.386  1.00  0.00     0.000 C 
BRANCH  10  11
ATOM     11  C   UNL     1     -15.099  37.425  89.703  1.00  0.00     0.000 C 
BRANCH  11  12
ATOM     12  C   UNL     1     -15.540  38.695  90.460  1.00  0.00     0.000 C 
BRANCH  12  13
ATOM     13  C   UNL     1     -15.521  38.523  91.989  1.00  0.00     0.006 C 
BRANCH  13  14
ATOM     14  C   UNL     1     -14.329  39.239  92.641  1.00  0.00     0.053 C 
BRANCH  14  15
ATOM     15  C   UNL     1     -13.451  38.291  93.401  1.00  0.00     0.041 C 
ATOM     16  O   UNL     1     -13.744  37.067  93.458  1.00  0.00    -0.550 OA
ATOM     17  O   UNL     1     -12.303  38.755  94.032  1.00  0.00    -0.550 OA
ENDBRANCH  14  15
ENDBRANCH  13  14
ENDBRANCH  12  13
ENDBRANCH  11  12
ENDBRANCH  10  11
ENDBRANCH   9  10
ENDBRANCH   8   9
ENDBRANCH   7   8
ENDBRANCH   6   7
ENDBRANCH   5   6
ENDBRANCH   4   5
ENDBRANCH   3   4
ENDBRANCH   2   3
ENDBRANCH   1   2
BRANCH   1  18
ATOM     18  C   UNL     1     -18.715  41.413  95.302  1.00  0.00     0.000 C 
BRANCH  18  19
ATOM     19  C   UNL     1     -17.331  41.126  95.918  1.00  0.00     0.000 C 
BRANCH  19  20
ATOM     20  C   UNL     1     -16.573  39.945  95.283  1.00  0.00     0.000 C 
BRANCH  20  21
ATOM     21  C   UNL     1     -16.509  38.694  96.187  1.00  0.00     0.000 C 
BRANCH  21  22
ATOM     22  C   UNL     1     -16.815  37.398  95.417  1.00  0.00     0.000 C 
BRANCH  22  23
ATOM     23  C   UNL     1     -18.094  37.518  94.561  1.00  0.00     0.000 C 
BRANCH  23  24
ATOM     24  C   UNL     1     -19.385  37.627  95.393  1.00  0.00    -0.000 C 
BRANCH  24  25
ATOM     25  C   UNL     1     -20.645  37.073  94.700  1.00  0.00    -0.000 C 
BRANCH  25  26
ATOM     26  C   UNL     1     -20.462  35.676  94.073  1.00  0.00    -0.000 C 
BRANCH  26  27
ATOM     27  C   UNL     1     -20.228  34.569  95.124  1.00  0.00    -0.000 C 
BRANCH  27  28
ATOM     28  C   UNL     1     -19.557  33.326  94.517  1.00  0.00    -0.000 C 
BRANCH  28  29
ATOM     29  C   UNL     1     -18.038  33.490  94.336  1.00  0.00    -0.000 C 
BRANCH  29  30
ATOM     30  C   UNL     1     -17.422  32.453  93.373  1.00  0.00    -0.000 C 
BRANCH  30  31
ATOM     31  C   UNL     1     -16.046  32.879  92.818  1.00  0.00    -0.003 C 
ATOM     32  C   UNL     1     -15.491  34.096  93.563  1.00  0.00     0.004 C 
ENDBRANCH  30  31
ENDBRANCH  29  30
ENDBRANCH  28  29
ENDBRANCH  27  28
ENDBRANCH  26  27
ENDBRANCH  25  26
ENDBRANCH  24  25
ENDBRANCH  23  24
ENDBRANCH  22  23
ENDBRANCH  21  22
ENDBRANCH  20  21
ENDBRANCH  19  20
ENDBRANCH  18  19
ENDBRANCH   1  18
TORSDOF 28
ENDMDL
MODEL 7
REMARK VINA RESULT:    -2.847      5.923      9.474
REMARK INTER + INTRA:         -13.671
REMARK INTER:                  -7.204
REMARK INTRA:                  -6.468
REMARK UNBOUND:                -6.165
REMARK SMILES CCCCCCCCCCCCCCCCCCCCCCCCCCCCCC(=O)[O-]
REMARK SMILES IDX 16 1 17 2 18 3 19 4 20 5 21 6 22 7 23 8 24 9 25 10 26 11
REMARK SMILES IDX 27 12 28 13 29 14 30 15 31 16 32 17 15 18 14 19 13 20 12 21
REMARK SMILES IDX 11 22 10 23 9 24 8 25 7 26 6 27 5 28 4 29 3 30 2 31 1 32
REMARK H PARENT
REMARK Flexibility Score: inf
ROOT
ATOM      1  C   UNL     1     -13.175  29.364  92.701  1.00  0.00     0.000 C 
ENDROOT
BRANCH   1   2
ATOM      2  C   UNL     1     -13.605  29.852  94.096  1.00  0.00     0.000 C 
BRANCH   2   3
ATOM      3  C   UNL     1     -14.025  31.334  94.111  1.00  0.00     0.000 C 
BRANCH   3   4
ATOM      4  C   UNL     1     -14.420  31.889  95.492  1.00  0.00     0.000 C 
BRANCH   4   5
ATOM      5  C   UNL     1     -15.940  32.076  95.656  1.00  0.00     0.000 C 
BRANCH   5   6
ATOM      6  C   UNL     1     -16.349  33.564  95.736  1.00  0.00     0.000 C 
BRANCH   6   7
ATOM      7  C   UNL     1     -16.805  34.164  94.391  1.00  0.00     0.000 C 
BRANCH   7   8
ATOM      8  C   UNL     1     -18.134  33.614  93.837  1.00  0.00     0.000 C 
BRANCH   8   9
ATOM      9  C   UNL     1     -19.286  33.558  94.857  1.00  0.00     0.000 C 
BRANCH   9  10
ATOM     10  C   UNL     1     -19.758  32.124  95.142  1.00  0.00     0.000 C 
BRANCH  10  11
ATOM     11  C   UNL     1     -19.868  31.820  96.649  1.00  0.00     0.000 C 
BRANCH  11  12
ATOM     12  C   UNL     1     -18.804  30.847  97.197  1.00  0.00     0.000 C 
BRANCH  12  13
ATOM     13  C   UNL     1     -18.591  30.978  98.715  1.00  0.00     0.006 C 
BRANCH  13  14
ATOM     14  C   UNL     1     -17.188  31.498  99.063  1.00  0.00     0.053 C 
BRANCH  14  15
ATOM     15  C   UNL     1     -16.793  31.153 100.468  1.00  0.00     0.041 C 
ATOM     16  O   UNL     1     -17.132  30.047 100.965  1.00  0.00    -0.550 OA
ATOM     17  O   UNL     1     -16.039  32.046 101.221  1.00  0.00    -0.550 OA
ENDBRANCH  14  15
ENDBRANCH  13  14
ENDBRANCH  12  13
ENDBRANCH  11  12
ENDBRANCH  10  11
ENDBRANCH   9  10
ENDBRANCH   8   9
ENDBRANCH   7   8
ENDBRANCH   6   7
ENDBRANCH   5   6
ENDBRANCH   4   5
ENDBRANCH   3   4
ENDBRANCH   2   3
ENDBRANCH   1   2
BRANCH   1  18
ATOM     18  C   UNL     1     -13.364  27.843  92.504  1.00  0.00     0.000 C 
BRANCH  18  19
ATOM     19  C   UNL     1     -13.905  27.450  91.114  1.00  0.00     0.000 C 
BRANCH  19  20
ATOM     20  C   UNL     1     -15.410  27.709  90.908  1.00  0.00     0.000 C 
BRANCH  20  21
ATOM     21  C   UNL     1     -15.757  28.263  89.509  1.00  0.00     0.000 C 
BRANCH  21  22
ATOM     22  C   UNL     1     -16.555  29.576  89.579  1.00  0.00     0.000 C 
BRANCH  22  23
ATOM     23  C   UNL     1     -15.798  30.676  90.354  1.00  0.00     0.000 C 
BRANCH  23  24
ATOM     24  C   UNL     1     -16.620  31.305  91.493  1.00  0.00    -0.000 C 
BRANCH  24  25
ATOM     25  C   UNL     1     -17.691  30.378  92.101  1.00  0.00    -0.000 C 
BRANCH  25  26
ATOM     26  C   UNL     1     -17.250  29.663  93.395  1.00  0.00    -0.000 C 
BRANCH  26  27
ATOM     27  C   UNL     1     -18.392  28.864  94.060  1.00  0.00    -0.000 C 
BRANCH  27  28
ATOM     28  C   UNL     1     -17.875  27.617  94.796  1.00  0.00    -0.000 C 
BRANCH  28  29
ATOM     29  C   UNL     1     -16.378  27.353  94.555  1.00  0.00    -0.000 C 
BRANCH  29  30
ATOM     30  C   UNL     1     -15.558  27.252  95.858  1.00  0.00    -0.000 C 
BRANCH  30  31
ATOM     31  C   UNL     1     -15.747  28.466  96.794  1.00  0.00    -0.003 C 
ATOM     32  C   UNL     1     -16.260  28.039  98.172  1.00  0.00     0.004 C 
ENDBRANCH  30  31
ENDBRANCH  29  30
ENDBRANCH  28  29
ENDBRANCH  27  28
ENDBRANCH  26  27
ENDBRANCH  25  26
ENDBRANCH  24  25
ENDBRANCH  23  24
ENDBRANCH  22  23
ENDBRANCH  21  22
ENDBRANCH  20  21
ENDBRANCH  19  20
ENDBRANCH  18  19
ENDBRANCH   1  18
TORSDOF 28
ENDMDL
MODEL 8
REMARK VINA RESULT:    -2.818      2.705      4.819
REMARK INTER + INTRA:         -13.595
REMARK INTER:                  -7.778
REMARK INTRA:                  -5.817
REMARK UNBOUND:                -6.165
REMARK SMILES CCCCCCCCCCCCCCCCCCCCCCCCCCCCCC(=O)[O-]
REMARK SMILES IDX 16 1 17 2 18 3 19 4 20 5 21 6 22 7 23 8 24 9 25 10 26 11
REMARK SMILES IDX 27 12 28 13 29 14 30 15 31 16 32 17 15 18 14 19 13 20 12 21
REMARK SMILES IDX 11 22 10 23 9 24 8 25 7 26 6 27 5 28 4 29 3 30 2 31 1 32
REMARK H PARENT
REMARK Flexibility Score: inf
ROOT
ATOM      1  C   UNL     1     -18.247  41.200  94.050  1.00  0.00     0.000 C 
ENDROOT
BRANCH   1   2
ATOM      2  C   UNL     1     -18.213  41.244  95.589  1.00  0.00     0.000 C 
BRANCH   2   3
ATOM      3  C   UNL     1     -17.398  40.092  96.204  1.00  0.00     0.000 C 
BRANCH   3   4
ATOM      4  C   UNL     1     -18.217  39.069  97.014  1.00  0.00     0.000 C 
BRANCH   4   5
ATOM      5  C   UNL     1     -19.735  39.187  96.776  1.00  0.00     0.000 C 
BRANCH   5   6
ATOM      6  C   UNL     1     -20.349  37.890  96.205  1.00  0.00     0.000 C 
BRANCH   6   7
ATOM      7  C   UNL     1     -19.746  36.597  96.792  1.00  0.00     0.000 C 
BRANCH   7   8
ATOM      8  C   UNL     1     -20.622  35.337  96.652  1.00  0.00     0.000 C 
BRANCH   8   9
ATOM      9  C   UNL     1     -20.654  34.725  95.239  1.00  0.00     0.000 C 
BRANCH   9  10
ATOM     10  C   UNL     1     -21.124  33.263  95.236  1.00  0.00     0.000 C 
BRANCH  10  11
ATOM     11  C   UNL     1     -20.116  32.314  94.555  1.00  0.00     0.000 C 
BRANCH  11  12
ATOM     12  C   UNL     1     -19.262  31.468  95.522  1.00  0.00     0.000 C 
BRANCH  12  13
ATOM     13  C   UNL     1     -17.754  31.751  95.400  1.00  0.00     0.006 C 
BRANCH  13  14
ATOM     14  C   UNL     1     -16.958  30.499  95.005  1.00  0.00     0.053 C 
BRANCH  14  15
ATOM     15  C   UNL     1     -16.551  30.523  93.562  1.00  0.00     0.041 C 
ATOM     16  O   UNL     1     -15.506  29.926  93.191  1.00  0.00    -0.550 OA
ATOM     17  O   UNL     1     -17.334  31.192  92.627  1.00  0.00    -0.550 OA
ENDBRANCH  14  15
ENDBRANCH  13  14
ENDBRANCH  12  13
ENDBRANCH  11  12
ENDBRANCH  10  11
ENDBRANCH   9  10
ENDBRANCH   8   9
ENDBRANCH   7   8
ENDBRANCH   6   7
ENDBRANCH   5   6
ENDBRANCH   4   5
ENDBRANCH   3   4
ENDBRANCH   2   3
ENDBRANCH   1   2
BRANCH   1  18
ATOM     18  C   UNL     1     -19.643  41.510  93.464  1.00  0.00     0.000 C 
BRANCH  18  19
ATOM     19  C   UNL     1     -20.487  40.258  93.148  1.00  0.00     0.000 C 
BRANCH  19  20
ATOM     20  C   UNL     1     -19.715  39.114  92.464  1.00  0.00     0.000 C 
BRANCH  20  21
ATOM     21  C   UNL     1     -20.354  37.724  92.676  1.00  0.00     0.000 C 
BRANCH  21  22
ATOM     22  C   UNL     1     -20.040  36.751  91.526  1.00  0.00     0.000 C 
BRANCH  22  23
ATOM     23  C   UNL     1     -18.882  37.256  90.639  1.00  0.00     0.000 C 
BRANCH  23  24
ATOM     24  C   UNL     1     -18.362  36.201  89.645  1.00  0.00    -0.000 C 
BRANCH  24  25
ATOM     25  C   UNL     1     -16.940  35.686  89.941  1.00  0.00    -0.000 C 
BRANCH  25  26
ATOM     26  C   UNL     1     -16.896  34.368  90.741  1.00  0.00    -0.000 C 
BRANCH  26  27
ATOM     27  C   UNL     1     -16.328  34.548  92.166  1.00  0.00    -0.000 C 
BRANCH  27  28
ATOM     28  C   UNL     1     -17.439  34.681  93.220  1.00  0.00    -0.000 C 
BRANCH  28  29
ATOM     29  C   UNL     1     -17.067  35.632  94.372  1.00  0.00    -0.000 C 
BRANCH  29  30
ATOM     30  C   UNL     1     -17.125  37.122  93.977  1.00  0.00    -0.000 C 
BRANCH  30  31
ATOM     31  C   UNL     1     -15.736  37.730  93.684  1.00  0.00    -0.003 C 
ATOM     32  C   UNL     1     -15.842  38.978  92.804  1.00  0.00     0.004 C 
ENDBRANCH  30  31
ENDBRANCH  29  30
ENDBRANCH  28  29
ENDBRANCH  27  28
ENDBRANCH  26  27
ENDBRANCH  25  26
ENDBRANCH  24  25
ENDBRANCH  23  24
ENDBRANCH  22  23
ENDBRANCH  21  22
ENDBRANCH  20  21
ENDBRANCH  19  20
ENDBRANCH  18  19
ENDBRANCH   1  18
TORSDOF 28
ENDMDL
MODEL 9
REMARK VINA RESULT:    -2.813      3.727      7.681
REMARK INTER + INTRA:         -13.582
REMARK INTER:                  -7.753
REMARK INTRA:                  -5.829
REMARK UNBOUND:                -6.165
REMARK SMILES CCCCCCCCCCCCCCCCCCCCCCCCCCCCCC(=O)[O-]
REMARK SMILES IDX 16 1 17 2 18 3 19 4 20 5 21 6 22 7 23 8 24 9 25 10 26 11
REMARK SMILES IDX 27 12 28 13 29 14 30 15 31 16 32 17 15 18 14 19 13 20 12 21
REMARK SMILES IDX 11 22 10 23 9 24 8 25 7 26 6 27 5 28 4 29 3 30 2 31 1 32
REMARK H PARENT
REMARK Flexibility Score: inf
ROOT
ATOM      1  C   UNL     1     -16.763  34.252  94.153  1.00  0.00     0.000 C 
ENDROOT
BRANCH   1   2
ATOM      2  C   UNL     1     -15.992  32.920  94.108  1.00  0.00     0.000 C 
BRANCH   2   3
ATOM      3  C   UNL     1     -16.038  32.247  92.724  1.00  0.00     0.000 C 
BRANCH   3   4
ATOM      4  C   UNL     1     -17.257  31.337  92.479  1.00  0.00     0.000 C 
BRANCH   4   5
ATOM      5  C   UNL     1     -17.141  29.971  93.182  1.00  0.00     0.000 C 
BRANCH   5   6
ATOM      6  C   UNL     1     -18.364  29.655  94.071  1.00  0.00     0.000 C 
BRANCH   6   7
ATOM      7  C   UNL     1     -19.067  30.904  94.640  1.00  0.00     0.000 C 
BRANCH   7   8
ATOM      8  C   UNL     1     -18.817  31.178  96.136  1.00  0.00     0.000 C 
BRANCH   8   9
ATOM      9  C   UNL     1     -17.902  30.158  96.837  1.00  0.00     0.000 C 
BRANCH   9  10
ATOM     10  C   UNL     1     -16.449  30.645  96.953  1.00  0.00     0.000 C 
BRANCH  10  11
ATOM     11  C   UNL     1     -15.424  29.561  96.568  1.00  0.00     0.000 C 
BRANCH  11  12
ATOM     12  C   UNL     1     -14.284  30.040  95.645  1.00  0.00     0.000 C 
BRANCH  12  13
ATOM     13  C   UNL     1     -13.860  28.982  94.610  1.00  0.00     0.006 C 
BRANCH  13  14
ATOM     14  C   UNL     1     -13.412  29.612  93.284  1.00  0.00     0.053 C 
BRANCH  14  15
ATOM     15  C   UNL     1     -12.403  28.763  92.571  1.00  0.00     0.041 C 
ATOM     16  O   UNL     1     -11.584  29.292  91.774  1.00  0.00    -0.550 OA
ATOM     17  O   UNL     1     -12.358  27.392  92.798  1.00  0.00    -0.550 OA
ENDBRANCH  14  15
ENDBRANCH  13  14
ENDBRANCH  12  13
ENDBRANCH  11  12
ENDBRANCH  10  11
ENDBRANCH   9  10
ENDBRANCH   8   9
ENDBRANCH   7   8
ENDBRANCH   6   7
ENDBRANCH   5   6
ENDBRANCH   4   5
ENDBRANCH   3   4
ENDBRANCH   2   3
ENDBRANCH   1   2
BRANCH   1  18
ATOM     18  C   UNL     1     -17.476  34.497  95.502  1.00  0.00     0.000 C 
BRANCH  18  19
ATOM     19  C   UNL     1     -18.974  34.841  95.370  1.00  0.00     0.000 C 
BRANCH  19  20
ATOM     20  C   UNL     1     -19.549  34.693  93.949  1.00  0.00     0.000 C 
BRANCH  20  21
ATOM     21  C   UNL     1     -20.882  35.446  93.740  1.00  0.00     0.000 C 
BRANCH  21  22
ATOM     22  C   UNL     1     -20.939  36.175  92.387  1.00  0.00     0.000 C 
BRANCH  22  23
ATOM     23  C   UNL     1     -19.563  36.738  91.972  1.00  0.00     0.000 C 
BRANCH  23  24
ATOM     24  C   UNL     1     -19.647  37.856  90.917  1.00  0.00    -0.000 C 
BRANCH  24  25
ATOM     25  C   UNL     1     -19.391  39.275  91.463  1.00  0.00    -0.000 C 
BRANCH  25  26
ATOM     26  C   UNL     1     -20.557  39.857  92.287  1.00  0.00    -0.000 C 
BRANCH  26  27
ATOM     27  C   UNL     1     -20.166  40.168  93.749  1.00  0.00    -0.000 C 
BRANCH  27  28
ATOM     28  C   UNL     1     -20.553  39.028  94.706  1.00  0.00    -0.000 C 
BRANCH  28  29
ATOM     29  C   UNL     1     -19.413  38.628  95.658  1.00  0.00    -0.000 C 
BRANCH  29  30
ATOM     30  C   UNL     1     -18.029  39.134  95.202  1.00  0.00    -0.000 C 
BRANCH  30  31
ATOM     31  C   UNL     1     -17.152  38.030  94.573  1.00  0.00    -0.003 C 
ATOM     32  C   UNL     1     -16.471  38.514  93.290  1.00  0.00     0.004 C 
ENDBRANCH  30  31
ENDBRANCH  29  30
ENDBRANCH  28  29
ENDBRANCH  27  28
ENDBRANCH  26  27
ENDBRANCH  25  26
ENDBRANCH  24  25
ENDBRANCH  23  24
ENDBRANCH  22  23
ENDBRANCH  21  22
ENDBRANCH  20  21
ENDBRANCH  19  20
ENDBRANCH  18  19
ENDBRANCH   1  18
TORSDOF 28
ENDMDL
