MODEL 1
REMARK VINA RESULT:    -7.563      0.000      0.000
REMARK INTER + INTRA:         -12.482
REMARK INTER:                 -11.100
REMARK INTRA:                  -1.382
REMARK UNBOUND:                -1.382
REMARK SMILES O=c1c(O[C@@H]2O[C@@H](CO)[C@@H](O)[C@@H](O)[C@H]2O)c(-c2ccc(O)c(O)c2)oc2cc(O)cc(O)c12
REMARK SMILES IDX 4 1 3 2 16 3 25 4 2 5 26 6 1 7 33 8 27 9 31 10 28 11 30 12
REMARK SMILES IDX 17 13 18 14 19 15 20 16 24 17 22 18 21 19 23 21 32 23 29 25
REMARK SMILES IDX 5 27 14 28 6 29 12 30 7 31 10 32 15 33 13 35 8 37 9 38 11 40
REMARK H PARENT 21 20 23 22 32 24 29 26 15 34 13 36 9 39 11 41
REMARK Flexibility Score: inf
ROOT
ATOM      1  O   UNL     1      -0.224  46.819  81.251  1.00  0.00    -0.454 OA
ENDROOT
BRANCH   1   2
ATOM      2  C   UNL     1      -0.107  47.057  82.627  1.00  0.00     0.214 A 
ATOM      3  C   UNL     1       0.164  46.014  83.539  1.00  0.00     0.180 A 
ATOM      4  O   UNL     1       0.364  46.296  84.823  1.00  0.00    -0.452 OA
ATOM      5  C   UNL     1      -0.248  48.361  83.117  1.00  0.00     0.239 A 
ATOM      6  C   UNL     1       0.278  47.524  85.322  1.00  0.00     0.146 A 
ATOM      7  O   UNL     1      -0.537  49.291  82.316  1.00  0.00    -0.285 OA
ATOM      8  C   UNL     1      -0.049  48.619  84.488  1.00  0.00     0.111 A 
ATOM      9  C   UNL     1       0.512  47.722  86.686  1.00  0.00     0.094 A 
ATOM     10  C   UNL     1      -0.150  49.912  85.056  1.00  0.00     0.134 A 
ATOM     11  C   UNL     1       0.417  49.003  87.240  1.00  0.00     0.123 A 
ATOM     12  C   UNL     1       0.084  50.090  86.427  1.00  0.00     0.093 A 
BRANCH   3  13
ATOM     13  C   UNL     1       0.224  44.597  83.117  1.00  0.00     0.025 A 
ATOM     14  C   UNL     1       1.462  44.016  82.803  1.00  0.00     0.016 A 
ATOM     15  C   UNL     1       1.532  42.685  82.391  1.00  0.00     0.051 A 
ATOM     16  C   UNL     1       0.372  41.905  82.297  1.00  0.00     0.157 A 
ATOM     17  C   UNL     1      -0.934  43.805  83.069  1.00  0.00     0.062 A 
ATOM     18  C   UNL     1      -0.875  42.467  82.658  1.00  0.00     0.158 A 
BRANCH  16  19
ATOM     19  O   UNL     1       0.504  40.591  81.844  1.00  0.00    -0.504 OA
ATOM     20  H   UNL     1      -0.072  40.185  81.119  1.00  0.00     0.293 HD
ENDBRANCH  16  19
BRANCH  18  21
ATOM     21  O   UNL     1      -2.064  41.737  82.638  1.00  0.00    -0.504 OA
ATOM     22  H   UNL     1      -2.211  40.884  83.157  1.00  0.00     0.293 HD
ENDBRANCH  18  21
ENDBRANCH   3  13
BRANCH  10  23
ATOM     23  O   UNL     1      -0.482  51.018  84.270  1.00  0.00    -0.507 OA
ATOM     24  H   UNL     1      -0.014  51.207  83.390  1.00  0.00     0.293 HD
ENDBRANCH  10  23
BRANCH  11  25
ATOM     25  O   UNL     1       0.652  49.209  88.598  1.00  0.00    -0.508 OA
ATOM     26  H   UNL     1       1.352  48.676  89.102  1.00  0.00     0.293 HD
ENDBRANCH  11  25
ENDBRANCH   1   2
BRANCH   1  27
ATOM     27  C   UNL     1      -1.456  47.012  80.546  1.00  0.00     0.339 C 
ATOM     28  C   UNL     1      -1.221  47.809  79.243  1.00  0.00     0.214 C 
ATOM     29  O   UNL     1      -2.099  45.769  80.299  1.00  0.00    -0.332 OA
ATOM     30  C   UNL     1      -0.469  46.948  78.216  1.00  0.00     0.180 C 
ATOM     31  C   UNL     1      -1.322  44.940  79.448  1.00  0.00     0.179 C 
ATOM     32  C   UNL     1      -1.152  45.579  78.051  1.00  0.00     0.177 C 
BRANCH  28  33
ATOM     33  O   UNL     1      -2.449  48.231  78.707  1.00  0.00    -0.384 OA
ATOM     34  H   UNL     1      -3.158  47.707  79.163  1.00  0.00     0.211 HD
ENDBRANCH  28  33
BRANCH  30  35
ATOM     35  O   UNL     1      -0.403  47.625  76.986  1.00  0.00    -0.387 OA
ATOM     36  H   UNL     1      -0.307  48.590  77.198  1.00  0.00     0.211 HD
ENDBRANCH  30  35
BRANCH  31  37
ATOM     37  C   UNL     1      -1.970  43.550  79.369  1.00  0.00     0.191 C 
BRANCH  37  38
ATOM     38  O   UNL     1      -1.525  42.855  78.233  1.00  0.00    -0.394 OA
ATOM     39  H   UNL     1      -0.590  42.566  78.409  1.00  0.00     0.210 HD
ENDBRANCH  37  38
ENDBRANCH  31  37
BRANCH  32  40
ATOM     40  O   UNL     1      -2.402  45.726  77.427  1.00  0.00    -0.387 OA
ATOM     41  H   UNL     1      -2.866  46.477  77.881  1.00  0.00     0.211 HD
ENDBRANCH  32  40
ENDBRANCH   1  27
TORSDOF 12
ENDMDL
MODEL 2
REMARK VINA RESULT:    -6.899      2.042      6.796
REMARK INTER + INTRA:         -11.508
REMARK INTER:                  -9.937
REMARK INTRA:                  -1.570
REMARK UNBOUND:                -1.382
REMARK SMILES O=c1c(O[C@@H]2O[C@@H](CO)[C@@H](O)[C@@H](O)[C@H]2O)c(-c2ccc(O)c(O)c2)oc2cc(O)cc(O)c12
REMARK SMILES IDX 4 1 3 2 16 3 25 4 2 5 26 6 1 7 33 8 27 9 31 10 28 11 30 12
REMARK SMILES IDX 17 13 18 14 19 15 20 16 24 17 22 18 21 19 23 21 32 23 29 25
REMARK SMILES IDX 5 27 14 28 6 29 12 30 7 31 10 32 15 33 13 35 8 37 9 38 11 40
REMARK H PARENT 21 20 23 22 32 24 29 26 15 34 13 36 9 39 11 41
REMARK Flexibility Score: inf
ROOT
ATOM      1  O   UNL     1       0.310  46.544  83.127  1.00  0.00    -0.454 OA
ENDROOT
BRANCH   1   2
ATOM      2  C   UNL     1       0.565  45.230  82.712  1.00  0.00     0.214 A 
ATOM      3  C   UNL     1      -0.007  44.701  81.535  1.00  0.00     0.180 A 
ATOM      4  O   UNL     1       0.336  43.484  81.124  1.00  0.00    -0.452 OA
ATOM      5  C   UNL     1       1.418  44.420  83.470  1.00  0.00     0.239 A 
ATOM      6  C   UNL     1       1.172  42.698  81.792  1.00  0.00     0.146 A 
ATOM      7  O   UNL     1       1.896  44.868  84.547  1.00  0.00    -0.285 OA
ATOM      8  C   UNL     1       1.743  43.127  83.014  1.00  0.00     0.111 A 
ATOM      9  C   UNL     1       1.478  41.435  81.277  1.00  0.00     0.094 A 
ATOM     10  C   UNL     1       2.617  42.256  83.710  1.00  0.00     0.134 A 
ATOM     11  C   UNL     1       2.347  40.581  81.966  1.00  0.00     0.123 A 
ATOM     12  C   UNL     1       2.908  40.992  83.178  1.00  0.00     0.093 A 
BRANCH   3  13
ATOM     13  C   UNL     1      -0.998  45.455  80.735  1.00  0.00     0.025 A 
ATOM     14  C   UNL     1      -2.366  45.174  80.875  1.00  0.00     0.016 A 
ATOM     15  C   UNL     1      -3.309  45.867  80.116  1.00  0.00     0.051 A 
ATOM     16  C   UNL     1      -2.909  46.862  79.215  1.00  0.00     0.157 A 
ATOM     17  C   UNL     1      -0.598  46.484  79.867  1.00  0.00     0.062 A 
ATOM     18  C   UNL     1      -1.537  47.187  79.103  1.00  0.00     0.158 A 
BRANCH  16  19
ATOM     19  O   UNL     1      -3.898  47.495  78.460  1.00  0.00    -0.504 OA
ATOM     20  H   UNL     1      -4.055  47.318  77.477  1.00  0.00     0.293 HD
ENDBRANCH  16  19
BRANCH  18  21
ATOM     21  O   UNL     1      -1.069  48.201  78.265  1.00  0.00    -0.504 OA
ATOM     22  H   UNL     1      -0.942  48.096  77.269  1.00  0.00     0.293 HD
ENDBRANCH  18  21
ENDBRANCH   3  13
BRANCH  10  23
ATOM     23  O   UNL     1       3.194  42.637  84.924  1.00  0.00    -0.507 OA
ATOM     24  H   UNL     1       2.779  43.354  85.510  1.00  0.00     0.293 HD
ENDBRANCH  10  23
BRANCH  11  25
ATOM     25  O   UNL     1       2.659  39.323  81.456  1.00  0.00    -0.508 OA
ATOM     26  H   UNL     1       3.440  39.185  80.825  1.00  0.00     0.293 HD
ENDBRANCH  11  25
ENDBRANCH   1   2
BRANCH   1  27
ATOM     27  C   UNL     1      -0.612  46.845  84.181  1.00  0.00     0.339 C 
ATOM     28  C   UNL     1      -0.015  47.894  85.147  1.00  0.00     0.214 C 
ATOM     29  O   UNL     1      -1.865  47.260  83.656  1.00  0.00    -0.332 OA
ATOM     30  C   UNL     1       0.056  49.270  84.467  1.00  0.00     0.180 C 
ATOM     31  C   UNL     1      -1.748  48.471  82.923  1.00  0.00     0.179 C 
ATOM     32  C   UNL     1      -1.299  49.634  83.835  1.00  0.00     0.177 C 
BRANCH  28  33
ATOM     33  O   UNL     1      -0.794  47.975  86.313  1.00  0.00    -0.384 OA
ATOM     34  H   UNL     1      -1.291  47.119  86.388  1.00  0.00     0.211 HD
ENDBRANCH  28  33
BRANCH  30  35
ATOM     35  O   UNL     1       0.448  50.242  85.402  1.00  0.00    -0.387 OA
ATOM     36  H   UNL     1       0.663  49.758  86.241  1.00  0.00     0.211 HD
ENDBRANCH  30  35
BRANCH  31  37
ATOM     37  C   UNL     1      -3.083  48.769  82.225  1.00  0.00     0.191 C 
BRANCH  37  38
ATOM     38  O   UNL     1      -4.121  48.007  82.784  1.00  0.00    -0.394 OA
ATOM     39  H   UNL     1      -4.980  48.409  82.484  1.00  0.00     0.210 HD
ENDBRANCH  37  38
ENDBRANCH  31  37
BRANCH  32  40
ATOM     40  O   UNL     1      -2.260  49.868  84.834  1.00  0.00    -0.387 OA
ATOM     41  H   UNL     1      -3.062  50.240  84.383  1.00  0.00     0.211 HD
ENDBRANCH  32  40
ENDBRANCH   1  27
TORSDOF 12
ENDMDL
MODEL 3
REMARK VINA RESULT:    -6.726      2.232      6.194
REMARK INTER + INTRA:         -11.254
REMARK INTER:                  -9.758
REMARK INTRA:                  -1.496
REMARK UNBOUND:                -1.382
REMARK SMILES O=c1c(O[C@@H]2O[C@@H](CO)[C@@H](O)[C@@H](O)[C@H]2O)c(-c2ccc(O)c(O)c2)oc2cc(O)cc(O)c12
REMARK SMILES IDX 4 1 3 2 16 3 25 4 2 5 26 6 1 7 33 8 27 9 31 10 28 11 30 12
REMARK SMILES IDX 17 13 18 14 19 15 20 16 24 17 22 18 21 19 23 21 32 23 29 25
REMARK SMILES IDX 5 27 14 28 6 29 12 30 7 31 10 32 15 33 13 35 8 37 9 38 11 40
REMARK H PARENT 21 20 23 22 32 24 29 26 15 34 13 36 9 39 11 41
REMARK Flexibility Score: inf
ROOT
ATOM      1  O   UNL     1      -0.407  46.320  83.862  1.00  0.00    -0.454 OA
ENDROOT
BRANCH   1   2
ATOM      2  C   UNL     1       0.475  45.235  83.774  1.00  0.00     0.214 A 
ATOM      3  C   UNL     1       0.700  44.561  82.554  1.00  0.00     0.180 A 
ATOM      4  O   UNL     1       1.617  43.601  82.490  1.00  0.00    -0.452 OA
ATOM      5  C   UNL     1       1.165  44.811  84.915  1.00  0.00     0.239 A 
ATOM      6  C   UNL     1       2.322  43.195  83.540  1.00  0.00     0.146 A 
ATOM      7  O   UNL     1       0.935  45.376  86.019  1.00  0.00    -0.285 OA
ATOM      8  C   UNL     1       2.115  43.775  84.814  1.00  0.00     0.111 A 
ATOM      9  C   UNL     1       3.270  42.181  83.373  1.00  0.00     0.094 A 
ATOM     10  C   UNL     1       2.871  43.306  85.916  1.00  0.00     0.134 A 
ATOM     11  C   UNL     1       4.018  41.726  84.464  1.00  0.00     0.123 A 
ATOM     12  C   UNL     1       3.814  42.285  85.728  1.00  0.00     0.093 A 
BRANCH   3  13
ATOM     13  C   UNL     1      -0.064  44.880  81.327  1.00  0.00     0.025 A 
ATOM     14  C   UNL     1       0.444  45.815  80.413  1.00  0.00     0.016 A 
ATOM     15  C   UNL     1      -0.273  46.135  79.259  1.00  0.00     0.051 A 
ATOM     16  C   UNL     1      -1.501  45.519  78.989  1.00  0.00     0.157 A 
ATOM     17  C   UNL     1      -1.272  44.226  81.035  1.00  0.00     0.062 A 
ATOM     18  C   UNL     1      -1.998  44.539  79.879  1.00  0.00     0.158 A 
BRANCH  16  19
ATOM     19  O   UNL     1      -2.187  45.908  77.836  1.00  0.00    -0.504 OA
ATOM     20  H   UNL     1      -2.601  45.258  77.182  1.00  0.00     0.293 HD
ENDBRANCH  16  19
BRANCH  18  21
ATOM     21  O   UNL     1      -3.188  43.846  79.649  1.00  0.00    -0.504 OA
ATOM     22  H   UNL     1      -4.078  44.293  79.481  1.00  0.00     0.293 HD
ENDBRANCH  18  21
ENDBRANCH   3  13
BRANCH  10  23
ATOM     23  O   UNL     1       2.690  43.844  87.192  1.00  0.00    -0.507 OA
ATOM     24  H   UNL     1       2.182  44.710  87.339  1.00  0.00     0.293 HD
ENDBRANCH  10  23
BRANCH  11  25
ATOM     25  O   UNL     1       4.967  40.719  84.304  1.00  0.00    -0.508 OA
ATOM     26  H   UNL     1       4.762  39.875  83.780  1.00  0.00     0.293 HD
ENDBRANCH  11  25
ENDBRANCH   1   2
BRANCH   1  27
ATOM     27  C   UNL     1       0.035  47.675  83.726  1.00  0.00     0.339 C 
ATOM     28  C   UNL     1      -0.838  48.436  82.703  1.00  0.00     0.214 C 
ATOM     29  O   UNL     1       0.065  48.328  84.987  1.00  0.00    -0.332 OA
ATOM     30  C   UNL     1      -2.243  48.680  83.275  1.00  0.00     0.180 C 
ATOM     31  C   UNL     1      -1.234  48.428  85.554  1.00  0.00     0.179 C 
ATOM     32  C   UNL     1      -2.158  49.304  84.679  1.00  0.00     0.177 C 
BRANCH  28  33
ATOM     33  O   UNL     1      -0.237  49.661  82.370  1.00  0.00    -0.384 OA
ATOM     34  H   UNL     1       0.476  49.824  83.042  1.00  0.00     0.211 HD
ENDBRANCH  28  33
BRANCH  30  35
ATOM     35  O   UNL     1      -2.973  49.508  82.405  1.00  0.00    -0.387 OA
ATOM     36  H   UNL     1      -2.653  50.434  82.559  1.00  0.00     0.211 HD
ENDBRANCH  30  35
BRANCH  31  37
ATOM     37  C   UNL     1      -1.119  48.966  86.987  1.00  0.00     0.191 C 
BRANCH  37  38
ATOM     38  O   UNL     1      -0.039  49.855  87.104  1.00  0.00    -0.394 OA
ATOM     39  H   UNL     1       0.315  49.773  88.029  1.00  0.00     0.210 HD
ENDBRANCH  37  38
ENDBRANCH  31  37
BRANCH  32  40
ATOM     40  O   UNL     1      -1.657  50.616  84.604  1.00  0.00    -0.387 OA
ATOM     41  H   UNL     1      -2.240  51.181  85.175  1.00  0.00     0.211 HD
ENDBRANCH  32  40
ENDBRANCH   1  27
TORSDOF 12
ENDMDL
MODEL 4
REMARK VINA RESULT:    -6.578      2.229      7.303
REMARK INTER + INTRA:         -11.036
REMARK INTER:                 -10.281
REMARK INTRA:                  -0.755
REMARK UNBOUND:                -1.382
REMARK SMILES O=c1c(O[C@@H]2O[C@@H](CO)[C@@H](O)[C@@H](O)[C@H]2O)c(-c2ccc(O)c(O)c2)oc2cc(O)cc(O)c12
REMARK SMILES IDX 4 1 3 2 16 3 25 4 2 5 26 6 1 7 33 8 27 9 31 10 28 11 30 12
REMARK SMILES IDX 17 13 18 14 19 15 20 16 24 17 22 18 21 19 23 21 32 23 29 25
REMARK SMILES IDX 5 27 14 28 6 29 12 30 7 31 10 32 15 33 13 35 8 37 9 38 11 40
REMARK H PARENT 21 20 23 22 32 24 29 26 15 34 13 36 9 39 11 41
REMARK Flexibility Score: inf
ROOT
ATOM      1  O   UNL     1       0.339  46.570  84.150  1.00  0.00    -0.454 OA
ENDROOT
BRANCH   1   2
ATOM      2  C   UNL     1      -0.591  47.175  83.294  1.00  0.00     0.214 A 
ATOM      3  C   UNL     1      -1.497  48.152  83.759  1.00  0.00     0.180 A 
ATOM      4  O   UNL     1      -2.296  48.774  82.897  1.00  0.00    -0.452 OA
ATOM      5  C   UNL     1      -0.619  46.818  81.942  1.00  0.00     0.239 A 
ATOM      6  C   UNL     1      -2.327  48.493  81.599  1.00  0.00     0.146 A 
ATOM      7  O   UNL     1       0.155  45.913  81.528  1.00  0.00    -0.285 OA
ATOM      8  C   UNL     1      -1.495  47.484  81.061  1.00  0.00     0.111 A 
ATOM      9  C   UNL     1      -3.198  49.204  80.769  1.00  0.00     0.094 A 
ATOM     10  C   UNL     1      -1.566  47.198  79.675  1.00  0.00     0.134 A 
ATOM     11  C   UNL     1      -3.260  48.922  79.400  1.00  0.00     0.123 A 
ATOM     12  C   UNL     1      -2.449  47.920  78.860  1.00  0.00     0.093 A 
BRANCH   3  13
ATOM     13  C   UNL     1      -1.602  48.511  85.191  1.00  0.00     0.025 A 
ATOM     14  C   UNL     1      -2.803  48.286  85.880  1.00  0.00     0.016 A 
ATOM     15  C   UNL     1      -2.920  48.632  87.226  1.00  0.00     0.051 A 
ATOM     16  C   UNL     1      -1.838  49.195  87.914  1.00  0.00     0.157 A 
ATOM     17  C   UNL     1      -0.501  49.031  85.891  1.00  0.00     0.062 A 
ATOM     18  C   UNL     1      -0.607  49.380  87.243  1.00  0.00     0.158 A 
BRANCH  16  19
ATOM     19  O   UNL     1      -2.029  49.551  89.251  1.00  0.00    -0.504 OA
ATOM     20  H   UNL     1      -1.320  49.989  89.823  1.00  0.00     0.293 HD
ENDBRANCH  16  19
BRANCH  18  21
ATOM     21  O   UNL     1       0.528  49.887  87.877  1.00  0.00    -0.504 OA
ATOM     22  H   UNL     1       1.130  50.591  87.478  1.00  0.00     0.293 HD
ENDBRANCH  18  21
ENDBRANCH   3  13
BRANCH  10  23
ATOM     23  O   UNL     1      -0.769  46.202  79.106  1.00  0.00    -0.507 OA
ATOM     24  H   UNL     1       0.218  46.347  78.925  1.00  0.00     0.293 HD
ENDBRANCH  10  23
BRANCH  11  25
ATOM     25  O   UNL     1      -4.123  49.630  78.567  1.00  0.00    -0.508 OA
ATOM     26  H   UNL     1      -4.096  50.642  78.511  1.00  0.00     0.293 HD
ENDBRANCH  11  25
ENDBRANCH   1   2
BRANCH   1  27
ATOM     27  C   UNL     1      -0.058  45.869  85.335  1.00  0.00     0.339 C 
ATOM     28  C   UNL     1      -1.044  44.730  84.991  1.00  0.00     0.214 C 
ATOM     29  O   UNL     1       1.075  45.394  86.048  1.00  0.00    -0.332 OA
ATOM     30  C   UNL     1      -0.316  43.595  84.254  1.00  0.00     0.180 C 
ATOM     31  C   UNL     1       1.803  44.438  85.292  1.00  0.00     0.179 C 
ATOM     32  C   UNL     1       0.953  43.177  85.019  1.00  0.00     0.177 C 
BRANCH  28  33
ATOM     33  O   UNL     1      -1.639  44.235  86.164  1.00  0.00    -0.384 OA
ATOM     34  H   UNL     1      -2.586  44.532  86.155  1.00  0.00     0.211 HD
ENDBRANCH  28  33
BRANCH  30  35
ATOM     35  O   UNL     1      -1.183  42.502  84.091  1.00  0.00    -0.387 OA
ATOM     36  H   UNL     1      -0.640  41.765  83.705  1.00  0.00     0.211 HD
ENDBRANCH  30  35
BRANCH  31  37
ATOM     37  C   UNL     1       3.110  44.103  86.026  1.00  0.00     0.191 C 
BRANCH  37  38
ATOM     38  O   UNL     1       2.870  43.861  87.388  1.00  0.00    -0.394 OA
ATOM     39  H   UNL     1       3.727  44.006  87.870  1.00  0.00     0.210 HD
ENDBRANCH  37  38
ENDBRANCH  31  37
BRANCH  32  40
ATOM     40  O   UNL     1       0.613  42.548  86.228  1.00  0.00    -0.387 OA
ATOM     41  H   UNL     1       0.909  43.150  86.961  1.00  0.00     0.211 HD
ENDBRANCH  32  40
ENDBRANCH   1  27
TORSDOF 12
ENDMDL
MODEL 5
REMARK VINA RESULT:    -6.510      2.141      6.399
REMARK INTER + INTRA:         -10.936
REMARK INTER:                  -9.904
REMARK INTRA:                  -1.032
REMARK UNBOUND:                -1.382
REMARK SMILES O=c1c(O[C@@H]2O[C@@H](CO)[C@@H](O)[C@@H](O)[C@H]2O)c(-c2ccc(O)c(O)c2)oc2cc(O)cc(O)c12
REMARK SMILES IDX 4 1 3 2 16 3 25 4 2 5 26 6 1 7 33 8 27 9 31 10 28 11 30 12
REMARK SMILES IDX 17 13 18 14 19 15 20 16 24 17 22 18 21 19 23 21 32 23 29 25
REMARK SMILES IDX 5 27 14 28 6 29 12 30 7 31 10 32 15 33 13 35 8 37 9 38 11 40
REMARK H PARENT 21 20 23 22 32 24 29 26 15 34 13 36 9 39 11 41
REMARK Flexibility Score: inf
ROOT
ATOM      1  O   UNL     1       0.379  47.039  83.081  1.00  0.00    -0.454 OA
ENDROOT
BRANCH   1   2
ATOM      2  C   UNL     1       0.110  46.059  82.115  1.00  0.00     0.214 A 
ATOM      3  C   UNL     1       0.519  44.719  82.287  1.00  0.00     0.180 A 
ATOM      4  O   UNL     1       0.159  43.800  81.396  1.00  0.00    -0.452 OA
ATOM      5  C   UNL     1      -0.592  46.406  80.956  1.00  0.00     0.239 A 
ATOM      6  C   UNL     1      -0.540  44.080  80.302  1.00  0.00     0.146 A 
ATOM      7  O   UNL     1      -0.919  47.610  80.772  1.00  0.00    -0.285 OA
ATOM      8  C   UNL     1      -0.937  45.409  80.022  1.00  0.00     0.111 A 
ATOM      9  C   UNL     1      -0.876  43.045  79.425  1.00  0.00     0.094 A 
ATOM     10  C   UNL     1      -1.667  45.675  78.837  1.00  0.00     0.134 A 
ATOM     11  C   UNL     1      -1.603  43.313  78.260  1.00  0.00     0.123 A 
ATOM     12  C   UNL     1      -1.991  44.623  77.969  1.00  0.00     0.093 A 
BRANCH   3  13
ATOM     13  C   UNL     1       1.353  44.291  83.433  1.00  0.00     0.025 A 
ATOM     14  C   UNL     1       2.742  44.480  83.391  1.00  0.00     0.016 A 
ATOM     15  C   UNL     1       3.542  44.068  84.458  1.00  0.00     0.051 A 
ATOM     16  C   UNL     1       2.970  43.476  85.591  1.00  0.00     0.157 A 
ATOM     17  C   UNL     1       0.772  43.741  84.587  1.00  0.00     0.062 A 
ATOM     18  C   UNL     1       1.566  43.327  85.664  1.00  0.00     0.158 A 
BRANCH  16  19
ATOM     19  O   UNL     1       3.827  43.055  86.610  1.00  0.00    -0.504 OA
ATOM     20  H   UNL     1       4.469  43.667  87.094  1.00  0.00     0.293 HD
ENDBRANCH  16  19
BRANCH  18  21
ATOM     21  O   UNL     1       0.922  42.793  86.781  1.00  0.00    -0.504 OA
ATOM     22  H   UNL     1       1.063  43.121  87.725  1.00  0.00     0.293 HD
ENDBRANCH  18  21
ENDBRANCH   3  13
BRANCH  10  23
ATOM     23  O   UNL     1      -2.069  46.974  78.519  1.00  0.00    -0.507 OA
ATOM     24  H   UNL     1      -1.397  47.712  78.339  1.00  0.00     0.293 HD
ENDBRANCH  10  23
BRANCH  11  25
ATOM     25  O   UNL     1      -1.944  42.285  77.383  1.00  0.00    -0.508 OA
ATOM     26  H   UNL     1      -2.832  41.802  77.452  1.00  0.00     0.293 HD
ENDBRANCH  11  25
ENDBRANCH   1   2
BRANCH   1  27
ATOM     27  C   UNL     1      -0.382  47.147  84.289  1.00  0.00     0.339 C 
ATOM     28  C   UNL     1       0.236  48.203  85.232  1.00  0.00     0.214 C 
ATOM     29  O   UNL     1      -1.747  47.421  84.007  1.00  0.00    -0.332 OA
ATOM     30  C   UNL     1       0.023  49.616  84.667  1.00  0.00     0.180 C 
ATOM     31  C   UNL     1      -1.904  48.680  83.368  1.00  0.00     0.179 C 
ATOM     32  C   UNL     1      -1.454  49.834  84.291  1.00  0.00     0.177 C 
BRANCH  28  33
ATOM     33  O   UNL     1      -0.339  48.107  86.510  1.00  0.00    -0.384 OA
ATOM     34  H   UNL     1       0.342  47.694  87.103  1.00  0.00     0.211 HD
ENDBRANCH  28  33
BRANCH  30  35
ATOM     35  O   UNL     1       0.445  50.572  85.606  1.00  0.00    -0.387 OA
ATOM     36  H   UNL     1      -0.008  50.350  86.461  1.00  0.00     0.211 HD
ENDBRANCH  30  35
BRANCH  31  37
ATOM     37  C   UNL     1      -3.364  48.840  82.919  1.00  0.00     0.191 C 
BRANCH  37  38
ATOM     38  O   UNL     1      -3.459  48.840  81.518  1.00  0.00    -0.394 OA
ATOM     39  H   UNL     1      -4.043  49.602  81.260  1.00  0.00     0.210 HD
ENDBRANCH  37  38
ENDBRANCH  31  37
BRANCH  32  40
ATOM     40  O   UNL     1      -2.253  49.874  85.447  1.00  0.00    -0.387 OA
ATOM     41  H   UNL     1      -1.805  50.487  86.087  1.00  0.00     0.211 HD
ENDBRANCH  32  40
ENDBRANCH   1  27
TORSDOF 12
ENDMDL
MODEL 6
REMARK VINA RESULT:    -6.461      2.090      3.377
REMARK INTER + INTRA:         -10.865
REMARK INTER:                  -9.528
REMARK INTRA:                  -1.337
REMARK UNBOUND:                -1.382
REMARK SMILES O=c1c(O[C@@H]2O[C@@H](CO)[C@@H](O)[C@@H](O)[C@H]2O)c(-c2ccc(O)c(O)c2)oc2cc(O)cc(O)c12
REMARK SMILES IDX 4 1 3 2 16 3 25 4 2 5 26 6 1 7 33 8 27 9 31 10 28 11 30 12
REMARK SMILES IDX 17 13 18 14 19 15 20 16 24 17 22 18 21 19 23 21 32 23 29 25
REMARK SMILES IDX 5 27 14 28 6 29 12 30 7 31 10 32 15 33 13 35 8 37 9 38 11 40
REMARK H PARENT 21 20 23 22 32 24 29 26 15 34 13 36 9 39 11 41
REMARK Flexibility Score: inf
ROOT
ATOM      1  O   UNL     1      -0.676  44.158  82.757  1.00  0.00    -0.454 OA
ENDROOT
BRANCH   1   2
ATOM      2  C   UNL     1      -0.354  45.125  83.719  1.00  0.00     0.214 A 
ATOM      3  C   UNL     1       0.855  45.072  84.446  1.00  0.00     0.180 A 
ATOM      4  O   UNL     1       1.168  46.060  85.278  1.00  0.00    -0.452 OA
ATOM      5  C   UNL     1      -1.241  46.180  83.961  1.00  0.00     0.239 A 
ATOM      6  C   UNL     1       0.373  47.100  85.508  1.00  0.00     0.146 A 
ATOM      7  O   UNL     1      -2.344  46.209  83.351  1.00  0.00    -0.285 OA
ATOM      8  C   UNL     1      -0.884  47.199  84.866  1.00  0.00     0.111 A 
ATOM      9  C   UNL     1       0.791  48.094  86.396  1.00  0.00     0.094 A 
ATOM     10  C   UNL     1      -1.715  48.312  85.147  1.00  0.00     0.134 A 
ATOM     11  C   UNL     1      -0.030  49.194  86.665  1.00  0.00     0.123 A 
ATOM     12  C   UNL     1      -1.278  49.297  86.045  1.00  0.00     0.093 A 
BRANCH   3  13
ATOM     13  C   UNL     1       1.797  43.937  84.324  1.00  0.00     0.025 A 
ATOM     14  C   UNL     1       3.079  44.149  83.795  1.00  0.00     0.016 A 
ATOM     15  C   UNL     1       3.972  43.085  83.661  1.00  0.00     0.051 A 
ATOM     16  C   UNL     1       3.609  41.795  84.066  1.00  0.00     0.157 A 
ATOM     17  C   UNL     1       1.448  42.653  84.774  1.00  0.00     0.062 A 
ATOM     18  C   UNL     1       2.337  41.579  84.646  1.00  0.00     0.158 A 
BRANCH  16  19
ATOM     19  O   UNL     1       4.534  40.766  83.874  1.00  0.00    -0.504 OA
ATOM     20  H   UNL     1       4.426  40.034  83.185  1.00  0.00     0.293 HD
ENDBRANCH  16  19
BRANCH  18  21
ATOM     21  O   UNL     1       1.926  40.332  85.119  1.00  0.00    -0.504 OA
ATOM     22  H   UNL     1       2.083  39.463  84.630  1.00  0.00     0.293 HD
ENDBRANCH  18  21
ENDBRANCH   3  13
BRANCH  10  23
ATOM     23  O   UNL     1      -2.968  48.443  84.544  1.00  0.00    -0.507 OA
ATOM     24  H   UNL     1      -3.799  48.663  85.082  1.00  0.00     0.293 HD
ENDBRANCH  10  23
BRANCH  11  25
ATOM     25  O   UNL     1       0.382  50.190  87.547  1.00  0.00    -0.508 OA
ATOM     26  H   UNL     1       1.300  50.614  87.477  1.00  0.00     0.293 HD
ENDBRANCH  11  25
ENDBRANCH   1   2
BRANCH   1  27
ATOM     27  C   UNL     1       0.054  44.030  81.531  1.00  0.00     0.339 C 
ATOM     28  C   UNL     1       0.042  42.565  81.038  1.00  0.00     0.214 C 
ATOM     29  O   UNL     1      -0.445  44.925  80.547  1.00  0.00    -0.332 OA
ATOM     30  C   UNL     1      -1.360  42.177  80.544  1.00  0.00     0.180 C 
ATOM     31  C   UNL     1      -1.788  44.622  80.200  1.00  0.00     0.179 C 
ATOM     32  C   UNL     1      -1.895  43.224  79.551  1.00  0.00     0.177 C 
BRANCH  28  33
ATOM     33  O   UNL     1       0.978  42.395  80.004  1.00  0.00    -0.384 OA
ATOM     34  H   UNL     1       0.462  42.232  79.172  1.00  0.00     0.211 HD
ENDBRANCH  28  33
BRANCH  30  35
ATOM     35  O   UNL     1      -1.320  40.903  79.953  1.00  0.00    -0.387 OA
ATOM     36  H   UNL     1      -0.433  40.517  80.172  1.00  0.00     0.211 HD
ENDBRANCH  30  35
BRANCH  31  37
ATOM     37  C   UNL     1      -2.334  45.726  79.283  1.00  0.00     0.191 C 
BRANCH  37  38
ATOM     38  O   UNL     1      -1.359  46.136  78.359  1.00  0.00    -0.394 OA
ATOM     39  H   UNL     1      -0.496  46.203  78.848  1.00  0.00     0.210 HD
ENDBRANCH  37  38
ENDBRANCH  31  37
BRANCH  32  40
ATOM     40  O   UNL     1      -1.159  43.186  78.354  1.00  0.00    -0.387 OA
ATOM     41  H   UNL     1      -1.441  42.368  77.867  1.00  0.00     0.211 HD
ENDBRANCH  32  40
ENDBRANCH   1  27
TORSDOF 12
ENDMDL
MODEL 7
REMARK VINA RESULT:    -6.392      2.024      5.849
REMARK INTER + INTRA:         -10.764
REMARK INTER:                  -9.995
REMARK INTRA:                  -0.769
REMARK UNBOUND:                -1.382
REMARK SMILES O=c1c(O[C@@H]2O[C@@H](CO)[C@@H](O)[C@@H](O)[C@H]2O)c(-c2ccc(O)c(O)c2)oc2cc(O)cc(O)c12
REMARK SMILES IDX 4 1 3 2 16 3 25 4 2 5 26 6 1 7 33 8 27 9 31 10 28 11 30 12
REMARK SMILES IDX 17 13 18 14 19 15 20 16 24 17 22 18 21 19 23 21 32 23 29 25
REMARK SMILES IDX 5 27 14 28 6 29 12 30 7 31 10 32 15 33 13 35 8 37 9 38 11 40
REMARK H PARENT 21 20 23 22 32 24 29 26 15 34 13 36 9 39 11 41
REMARK Flexibility Score: inf
ROOT
ATOM      1  O   UNL     1      -0.683  44.714  81.482  1.00  0.00    -0.454 OA
ENDROOT
BRANCH   1   2
ATOM      2  C   UNL     1       0.404  44.347  82.288  1.00  0.00     0.214 A 
ATOM      3  C   UNL     1       0.799  45.126  83.396  1.00  0.00     0.180 A 
ATOM      4  O   UNL     1       1.772  44.693  84.192  1.00  0.00    -0.452 OA
ATOM      5  C   UNL     1       1.111  43.174  82.000  1.00  0.00     0.239 A 
ATOM      6  C   UNL     1       2.443  43.566  83.979  1.00  0.00     0.146 A 
ATOM      7  O   UNL     1       0.795  42.497  80.985  1.00  0.00    -0.285 OA
ATOM      8  C   UNL     1       2.151  42.757  82.855  1.00  0.00     0.111 A 
ATOM      9  C   UNL     1       3.447  43.191  84.876  1.00  0.00     0.094 A 
ATOM     10  C   UNL     1       2.897  41.572  82.647  1.00  0.00     0.134 A 
ATOM     11  C   UNL     1       4.176  42.015  84.669  1.00  0.00     0.123 A 
ATOM     12  C   UNL     1       3.903  41.214  83.557  1.00  0.00     0.093 A 
BRANCH   3  13
ATOM     13  C   UNL     1       0.171  46.430  83.706  1.00  0.00     0.025 A 
ATOM     14  C   UNL     1       0.258  47.482  82.782  1.00  0.00     0.016 A 
ATOM     15  C   UNL     1      -0.317  48.720  83.067  1.00  0.00     0.051 A 
ATOM     16  C   UNL     1      -1.001  48.929  84.271  1.00  0.00     0.157 A 
ATOM     17  C   UNL     1      -0.554  46.621  84.893  1.00  0.00     0.062 A 
ATOM     18  C   UNL     1      -1.136  47.860  85.188  1.00  0.00     0.158 A 
BRANCH  16  19
ATOM     19  O   UNL     1      -1.524  50.201  84.513  1.00  0.00    -0.504 OA
ATOM     20  H   UNL     1      -1.084  50.885  85.113  1.00  0.00     0.293 HD
ENDBRANCH  16  19
BRANCH  18  21
ATOM     21  O   UNL     1      -1.847  47.979  86.384  1.00  0.00    -0.504 OA
ATOM     22  H   UNL     1      -2.151  48.858  86.775  1.00  0.00     0.293 HD
ENDBRANCH  18  21
ENDBRANCH   3  13
BRANCH  10  23
ATOM     23  O   UNL     1       2.648  40.750  81.545  1.00  0.00    -0.507 OA
ATOM     24  H   UNL     1       1.884  40.934  80.905  1.00  0.00     0.293 HD
ENDBRANCH  10  23
BRANCH  11  25
ATOM     25  O   UNL     1       5.176  41.633  85.561  1.00  0.00    -0.508 OA
ATOM     26  H   UNL     1       6.084  41.320  85.237  1.00  0.00     0.293 HD
ENDBRANCH  11  25
ENDBRANCH   1   2
BRANCH   1  27
ATOM     27  C   UNL     1      -0.602  44.726  80.052  1.00  0.00     0.339 C 
ATOM     28  C   UNL     1      -1.775  43.935  79.431  1.00  0.00     0.214 C 
ATOM     29  O   UNL     1      -0.538  46.057  79.559  1.00  0.00    -0.332 OA
ATOM     30  C   UNL     1      -3.095  44.699  79.620  1.00  0.00     0.180 C 
ATOM     31  C   UNL     1      -1.722  46.781  79.859  1.00  0.00     0.179 C 
ATOM     32  C   UNL     1      -2.950  46.159  79.156  1.00  0.00     0.177 C 
BRANCH  28  33
ATOM     33  O   UNL     1      -1.540  43.716  78.063  1.00  0.00    -0.384 OA
ATOM     34  H   UNL     1      -0.579  43.908  77.901  1.00  0.00     0.211 HD
ENDBRANCH  28  33
BRANCH  30  35
ATOM     35  O   UNL     1      -4.124  44.052  78.915  1.00  0.00    -0.387 OA
ATOM     36  H   UNL     1      -3.921  43.081  78.945  1.00  0.00     0.211 HD
ENDBRANCH  30  35
BRANCH  31  37
ATOM     37  C   UNL     1      -1.524  48.254  79.474  1.00  0.00     0.191 C 
BRANCH  37  38
ATOM     38  O   UNL     1      -1.149  48.373  78.126  1.00  0.00    -0.394 OA
ATOM     39  H   UNL     1      -1.951  48.674  77.620  1.00  0.00     0.210 HD
ENDBRANCH  37  38
ENDBRANCH  31  37
BRANCH  32  40
ATOM     40  O   UNL     1      -2.793  46.218  77.760  1.00  0.00    -0.387 OA
ATOM     41  H   UNL     1      -1.928  45.781  77.548  1.00  0.00     0.211 HD
ENDBRANCH  32  40
ENDBRANCH   1  27
TORSDOF 12
ENDMDL
MODEL 8
REMARK VINA RESULT:    -6.322      1.750      5.327
REMARK INTER + INTRA:         -10.661
REMARK INTER:                  -9.653
REMARK INTRA:                  -1.007
REMARK UNBOUND:                -1.382
REMARK SMILES O=c1c(O[C@@H]2O[C@@H](CO)[C@@H](O)[C@@H](O)[C@H]2O)c(-c2ccc(O)c(O)c2)oc2cc(O)cc(O)c12
REMARK SMILES IDX 4 1 3 2 16 3 25 4 2 5 26 6 1 7 33 8 27 9 31 10 28 11 30 12
REMARK SMILES IDX 17 13 18 14 19 15 20 16 24 17 22 18 21 19 23 21 32 23 29 25
REMARK SMILES IDX 5 27 14 28 6 29 12 30 7 31 10 32 15 33 13 35 8 37 9 38 11 40
REMARK H PARENT 21 20 23 22 32 24 29 26 15 34 13 36 9 39 11 41
REMARK Flexibility Score: inf
ROOT
ATOM      1  O   UNL     1       0.523  44.620  81.798  1.00  0.00    -0.454 OA
ENDROOT
BRANCH   1   2
ATOM      2  C   UNL     1      -0.085  45.728  82.402  1.00  0.00     0.214 A 
ATOM      3  C   UNL     1      -1.050  46.503  81.725  1.00  0.00     0.180 A 
ATOM      4  O   UNL     1      -1.675  47.487  82.365  1.00  0.00    -0.452 OA
ATOM      5  C   UNL     1       0.257  46.073  83.715  1.00  0.00     0.239 A 
ATOM      6  C   UNL     1      -1.409  47.822  83.623  1.00  0.00     0.146 A 
ATOM      7  O   UNL     1       1.152  45.415  84.311  1.00  0.00    -0.285 OA
ATOM      8  C   UNL     1      -0.412  47.136  84.355  1.00  0.00     0.111 A 
ATOM      9  C   UNL     1      -2.123  48.868  84.214  1.00  0.00     0.094 A 
ATOM     10  C   UNL     1      -0.141  47.531  85.688  1.00  0.00     0.134 A 
ATOM     11  C   UNL     1      -1.856  49.250  85.533  1.00  0.00     0.123 A 
ATOM     12  C   UNL     1      -0.866  48.585  86.262  1.00  0.00     0.093 A 
BRANCH   3  13
ATOM     13  C   UNL     1      -1.391  46.268  80.304  1.00  0.00     0.025 A 
ATOM     14  C   UNL     1      -2.478  45.443  79.976  1.00  0.00     0.016 A 
ATOM     15  C   UNL     1      -2.801  45.201  78.640  1.00  0.00     0.051 A 
ATOM     16  C   UNL     1      -2.059  45.789  77.609  1.00  0.00     0.157 A 
ATOM     17  C   UNL     1      -0.675  46.896  79.272  1.00  0.00     0.062 A 
ATOM     18  C   UNL     1      -0.993  46.662  77.929  1.00  0.00     0.158 A 
BRANCH  16  19
ATOM     19  O   UNL     1      -2.411  45.480  76.293  1.00  0.00    -0.504 OA
ATOM     20  H   UNL     1      -1.953  45.871  75.481  1.00  0.00     0.293 HD
ENDBRANCH  16  19
BRANCH  18  21
ATOM     21  O   UNL     1      -0.242  47.323  76.955  1.00  0.00    -0.504 OA
ATOM     22  H   UNL     1       0.530  47.939  77.161  1.00  0.00     0.293 HD
ENDBRANCH  18  21
ENDBRANCH   3  13
BRANCH  10  23
ATOM     23  O   UNL     1       0.843  46.886  86.442  1.00  0.00    -0.507 OA
ATOM     24  H   UNL     1       1.600  46.373  86.005  1.00  0.00     0.293 HD
ENDBRANCH  10  23
BRANCH  11  25
ATOM     25  O   UNL     1      -2.566  50.289  86.130  1.00  0.00    -0.508 OA
ATOM     26  H   UNL     1      -2.693  50.335  87.135  1.00  0.00     0.293 HD
ENDBRANCH  11  25
ENDBRANCH   1   2
BRANCH   1  27
ATOM     27  C   UNL     1      -0.169  43.380  81.607  1.00  0.00     0.339 C 
ATOM     28  C   UNL     1       0.722  42.367  80.854  1.00  0.00     0.214 C 
ATOM     29  O   UNL     1      -0.634  42.862  82.845  1.00  0.00    -0.332 OA
ATOM     30  C   UNL     1       1.866  41.884  81.758  1.00  0.00     0.180 C 
ATOM     31  C   UNL     1       0.444  42.542  83.713  1.00  0.00     0.179 C 
ATOM     32  C   UNL     1       1.323  41.418  83.121  1.00  0.00     0.177 C 
BRANCH  28  33
ATOM     33  O   UNL     1      -0.047  41.270  80.428  1.00  0.00    -0.384 OA
ATOM     34  H   UNL     1       0.306  40.470  80.898  1.00  0.00     0.211 HD
ENDBRANCH  28  33
BRANCH  30  35
ATOM     35  O   UNL     1       2.571  40.848  81.121  1.00  0.00    -0.387 OA
ATOM     36  H   UNL     1       3.233  41.282  80.522  1.00  0.00     0.211 HD
ENDBRANCH  30  35
BRANCH  31  37
ATOM     37  C   UNL     1      -0.114  42.168  85.094  1.00  0.00     0.191 C 
BRANCH  37  38
ATOM     38  O   UNL     1       0.016  43.238  85.993  1.00  0.00    -0.394 OA
ATOM     39  H   UNL     1      -0.352  44.047  85.546  1.00  0.00     0.210 HD
ENDBRANCH  37  38
ENDBRANCH  31  37
BRANCH  32  40
ATOM     40  O   UNL     1       0.571  40.239  82.972  1.00  0.00    -0.387 OA
ATOM     41  H   UNL     1      -0.108  40.416  82.270  1.00  0.00     0.211 HD
ENDBRANCH  32  40
ENDBRANCH   1  27
TORSDOF 12
ENDMDL
MODEL 9
REMARK VINA RESULT:    -6.320      2.980      4.750
REMARK INTER + INTRA:         -10.657
REMARK INTER:                  -9.017
REMARK INTRA:                  -1.641
REMARK UNBOUND:                -1.382
REMARK SMILES O=c1c(O[C@@H]2O[C@@H](CO)[C@@H](O)[C@@H](O)[C@H]2O)c(-c2ccc(O)c(O)c2)oc2cc(O)cc(O)c12
REMARK SMILES IDX 4 1 3 2 16 3 25 4 2 5 26 6 1 7 33 8 27 9 31 10 28 11 30 12
REMARK SMILES IDX 17 13 18 14 19 15 20 16 24 17 22 18 21 19 23 21 32 23 29 25
REMARK SMILES IDX 5 27 14 28 6 29 12 30 7 31 10 32 15 33 13 35 8 37 9 38 11 40
REMARK H PARENT 21 20 23 22 32 24 29 26 15 34 13 36 9 39 11 41
REMARK Flexibility Score: inf
ROOT
ATOM      1  O   UNL     1       0.400  43.770  83.019  1.00  0.00    -0.454 OA
ENDROOT
BRANCH   1   2
ATOM      2  C   UNL     1       0.436  44.807  83.961  1.00  0.00     0.214 A 
ATOM      3  C   UNL     1       1.501  44.937  84.878  1.00  0.00     0.180 A 
ATOM      4  O   UNL     1       1.547  45.989  85.690  1.00  0.00    -0.452 OA
ATOM      5  C   UNL     1      -0.598  45.749  83.990  1.00  0.00     0.239 A 
ATOM      6  C   UNL     1       0.606  46.927  85.723  1.00  0.00     0.146 A 
ATOM      7  O   UNL     1      -1.577  45.614  83.206  1.00  0.00    -0.285 OA
ATOM      8  C   UNL     1      -0.526  46.840  84.879  1.00  0.00     0.111 A 
ATOM      9  C   UNL     1       0.745  48.000  86.608  1.00  0.00     0.094 A 
ATOM     10  C   UNL     1      -1.519  47.848  84.953  1.00  0.00     0.134 A 
ATOM     11  C   UNL     1      -0.235  48.996  86.672  1.00  0.00     0.123 A 
ATOM     12  C   UNL     1      -1.362  48.914  85.850  1.00  0.00     0.093 A 
BRANCH   3  13
ATOM     13  C   UNL     1       2.578  43.928  84.982  1.00  0.00     0.025 A 
ATOM     14  C   UNL     1       3.619  43.921  84.041  1.00  0.00     0.016 A 
ATOM     15  C   UNL     1       4.633  42.966  84.118  1.00  0.00     0.051 A 
ATOM     16  C   UNL     1       4.636  42.010  85.141  1.00  0.00     0.157 A 
ATOM     17  C   UNL     1       2.604  43.000  86.035  1.00  0.00     0.062 A 
ATOM     18  C   UNL     1       3.619  42.039  86.123  1.00  0.00     0.158 A 
BRANCH  16  19
ATOM     19  O   UNL     1       5.660  41.060  85.143  1.00  0.00    -0.504 OA
ATOM     20  H   UNL     1       5.529  40.091  84.884  1.00  0.00     0.293 HD
ENDBRANCH  16  19
BRANCH  18  21
ATOM     21  O   UNL     1       3.585  41.151  87.200  1.00  0.00    -0.504 OA
ATOM     22  H   UNL     1       4.406  40.829  87.691  1.00  0.00     0.293 HD
ENDBRANCH  18  21
ENDBRANCH   3  13
BRANCH  10  23
ATOM     23  O   UNL     1      -2.657  47.794  84.145  1.00  0.00    -0.507 OA
ATOM     24  H   UNL     1      -3.352  48.532  84.153  1.00  0.00     0.293 HD
ENDBRANCH  10  23
BRANCH  11  25
ATOM     25  O   UNL     1      -0.101  50.070  87.548  1.00  0.00    -0.508 OA
ATOM     26  H   UNL     1      -0.634  50.121  88.409  1.00  0.00     0.293 HD
ENDBRANCH  11  25
ENDBRANCH   1   2
BRANCH   1  27
ATOM     27  C   UNL     1      -0.273  42.532  83.274  1.00  0.00     0.339 C 
ATOM     28  C   UNL     1      -1.261  42.201  82.132  1.00  0.00     0.214 C 
ATOM     29  O   UNL     1       0.660  41.482  83.490  1.00  0.00    -0.332 OA
ATOM     30  C   UNL     1      -0.496  41.819  80.856  1.00  0.00     0.180 C 
ATOM     31  C   UNL     1       1.443  41.234  82.331  1.00  0.00     0.179 C 
ATOM     32  C   UNL     1       0.565  40.745  81.158  1.00  0.00     0.177 C 
BRANCH  28  33
ATOM     33  O   UNL     1      -2.108  41.148  82.516  1.00  0.00    -0.384 OA
ATOM     34  H   UNL     1      -2.444  41.365  83.425  1.00  0.00     0.211 HD
ENDBRANCH  28  33
BRANCH  30  35
ATOM     35  O   UNL     1      -1.398  41.368  79.878  1.00  0.00    -0.387 OA
ATOM     36  H   UNL     1      -1.244  40.393  79.778  1.00  0.00     0.211 HD
ENDBRANCH  30  35
BRANCH  31  37
ATOM     37  C   UNL     1       2.552  40.230  82.677  1.00  0.00     0.191 C 
BRANCH  37  38
ATOM     38  O   UNL     1       2.682  39.262  81.669  1.00  0.00    -0.394 OA
ATOM     39  H   UNL     1       2.816  39.743  80.810  1.00  0.00     0.210 HD
ENDBRANCH  37  38
ENDBRANCH  31  37
BRANCH  32  40
ATOM     40  O   UNL     1      -0.052  39.526  81.486  1.00  0.00    -0.387 OA
ATOM     41  H   UNL     1       0.360  38.829  80.911  1.00  0.00     0.211 HD
ENDBRANCH  32  40
ENDBRANCH   1  27
TORSDOF 12
ENDMDL
