MODEL 1
REMARK VINA RESULT:    -4.519      0.000      0.000
REMARK INTER + INTRA:         -12.487
REMARK INTER:                  -9.803
REMARK INTRA:                  -2.684
REMARK UNBOUND:                -2.684
REMARK SMILES CCCCCCCCCCCCCCCCCCCCCC(=O)[O-]
REMARK SMILES IDX 12 1 11 2 10 3 9 4 8 5 7 6 6 7 5 8 4 9 3 10 2 11 1 12 13 13
REMARK SMILES IDX 14 14 15 15 16 16 17 17 18 18 19 19 20 20 21 21 22 22 23 23
REMARK SMILES IDX 24 24
REMARK H PARENT
REMARK Flexibility Score: inf
ROOT
ATOM      1  C   UNL     1       1.070  22.243 114.964  1.00  0.00     0.000 C 
ENDROOT
BRANCH   1   2
ATOM      2  C   UNL     1       0.137  23.418 114.625  1.00  0.00     0.000 C 
BRANCH   2   3
ATOM      3  C   UNL     1       0.504  24.111 113.302  1.00  0.00     0.000 C 
BRANCH   3   4
ATOM      4  C   UNL     1       1.098  25.518 113.506  1.00  0.00    -0.000 C 
BRANCH   4   5
ATOM      5  C   UNL     1       1.990  26.032 112.356  1.00  0.00    -0.000 C 
BRANCH   5   6
ATOM      6  C   UNL     1       3.136  26.968 112.784  1.00  0.00    -0.000 C 
BRANCH   6   7
ATOM      7  C   UNL     1       3.544  28.014 111.730  1.00  0.00    -0.000 C 
BRANCH   7   8
ATOM      8  C   UNL     1       2.951  27.745 110.329  1.00  0.00    -0.000 C 
BRANCH   8   9
ATOM      9  C   UNL     1       1.978  28.846 109.880  1.00  0.00    -0.000 C 
BRANCH   9  10
ATOM     10  C   UNL     1       1.647  29.843 111.003  1.00  0.00    -0.000 C 
BRANCH  10  11
ATOM     11  C   UNL     1       0.186  29.760 111.493  1.00  0.00    -0.003 C 
ATOM     12  C   UNL     1       0.083  29.245 112.930  1.00  0.00     0.004 C 
ENDBRANCH  10  11
ENDBRANCH   9  10
ENDBRANCH   8   9
ENDBRANCH   7   8
ENDBRANCH   6   7
ENDBRANCH   5   6
ENDBRANCH   4   5
ENDBRANCH   3   4
ENDBRANCH   2   3
ENDBRANCH   1   2
BRANCH   1  13
ATOM     13  C   UNL     1       1.944  21.740 113.801  1.00  0.00     0.000 C 
BRANCH  13  14
ATOM     14  C   UNL     1       3.447  21.758 114.131  1.00  0.00     0.000 C 
BRANCH  14  15
ATOM     15  C   UNL     1       4.055  23.167 114.027  1.00  0.00     0.000 C 
BRANCH  15  16
ATOM     16  C   UNL     1       4.591  23.470 112.617  1.00  0.00     0.000 C 
BRANCH  16  17
ATOM     17  C   UNL     1       5.728  24.506 112.619  1.00  0.00     0.000 C 
BRANCH  17  18
ATOM     18  C   UNL     1       6.654  24.463 111.389  1.00  0.00     0.000 C 
BRANCH  18  19
ATOM     19  C   UNL     1       7.760  25.528 111.431  1.00  0.00     0.000 C 
BRANCH  19  20
ATOM     20  C   UNL     1       7.719  26.415 110.181  1.00  0.00     0.006 C 
BRANCH  20  21
ATOM     21  C   UNL     1       7.703  25.567 108.906  1.00  0.00     0.053 C 
BRANCH  21  22
ATOM     22  C   UNL     1       6.950  26.264 107.819  1.00  0.00     0.041 C 
ATOM     23  O   UNL     1       7.427  26.325 106.654  1.00  0.00    -0.550 OA
ATOM     24  O   UNL     1       5.705  26.823 108.084  1.00  0.00    -0.550 OA
ENDBRANCH  21  22
ENDBRANCH  20  21
ENDBRANCH  19  20
ENDBRANCH  18  19
ENDBRANCH  17  18
ENDBRANCH  16  17
ENDBRANCH  15  16
ENDBRANCH  14  15
ENDBRANCH  13  14
ENDBRANCH   1  13
TORSDOF 20
ENDMDL
MODEL 2
REMARK VINA RESULT:    -4.174      2.097      5.380
REMARK INTER + INTRA:         -11.737
REMARK INTER:                  -8.805
REMARK INTRA:                  -2.932
REMARK UNBOUND:                -2.684
REMARK SMILES CCCCCCCCCCCCCCCCCCCCCC(=O)[O-]
REMARK SMILES IDX 12 1 11 2 10 3 9 4 8 5 7 6 6 7 5 8 4 9 3 10 2 11 1 12 13 13
REMARK SMILES IDX 14 14 15 15 16 16 17 17 18 18 19 19 20 20 21 21 22 22 23 23
REMARK SMILES IDX 24 24
REMARK H PARENT
REMARK Flexibility Score: inf
ROOT
ATOM      1  C   UNL     1       3.710  22.083 113.922  1.00  0.00     0.000 C 
ENDROOT
BRANCH   1   2
ATOM      2  C   UNL     1       4.198  22.295 115.366  1.00  0.00     0.000 C 
BRANCH   2   3
ATOM      3  C   UNL     1       4.639  23.741 115.642  1.00  0.00     0.000 C 
BRANCH   3   4
ATOM      4  C   UNL     1       4.594  24.633 114.386  1.00  0.00    -0.000 C 
BRANCH   4   5
ATOM      5  C   UNL     1       5.729  25.672 114.272  1.00  0.00    -0.000 C 
BRANCH   5   6
ATOM      6  C   UNL     1       6.836  25.325 113.258  1.00  0.00    -0.000 C 
BRANCH   6   7
ATOM      7  C   UNL     1       6.407  24.360 112.138  1.00  0.00    -0.000 C 
BRANCH   7   8
ATOM      8  C   UNL     1       5.843  25.073 110.889  1.00  0.00    -0.000 C 
BRANCH   8   9
ATOM      9  C   UNL     1       6.761  26.200 110.390  1.00  0.00    -0.000 C 
BRANCH   9  10
ATOM     10  C   UNL     1       8.009  25.673 109.662  1.00  0.00    -0.000 C 
BRANCH  10  11
ATOM     11  C   UNL     1       7.804  25.482 108.144  1.00  0.00    -0.003 C 
ATOM     12  C   UNL     1       6.766  26.449 107.571  1.00  0.00     0.004 C 
ENDBRANCH  10  11
ENDBRANCH   9  10
ENDBRANCH   8   9
ENDBRANCH   7   8
ENDBRANCH   6   7
ENDBRANCH   5   6
ENDBRANCH   4   5
ENDBRANCH   3   4
ENDBRANCH   2   3
ENDBRANCH   1   2
BRANCH   1  13
ATOM     13  C   UNL     1       2.282  21.524 113.785  1.00  0.00     0.000 C 
BRANCH  13  14
ATOM     14  C   UNL     1       1.209  22.478 114.339  1.00  0.00     0.000 C 
BRANCH  14  15
ATOM     15  C   UNL     1       1.010  23.717 113.449  1.00  0.00     0.000 C 
BRANCH  15  16
ATOM     16  C   UNL     1       0.245  24.839 114.173  1.00  0.00     0.000 C 
BRANCH  16  17
ATOM     17  C   UNL     1       0.702  26.246 113.749  1.00  0.00     0.000 C 
BRANCH  17  18
ATOM     18  C   UNL     1       1.914  26.281 112.800  1.00  0.00     0.000 C 
BRANCH  18  19
ATOM     19  C   UNL     1       2.697  27.601 112.872  1.00  0.00     0.000 C 
BRANCH  19  20
ATOM     20  C   UNL     1       3.650  27.742 111.680  1.00  0.00     0.006 C 
BRANCH  20  21
ATOM     21  C   UNL     1       2.884  27.698 110.355  1.00  0.00     0.053 C 
BRANCH  21  22
ATOM     22  C   UNL     1       2.089  28.951 110.164  1.00  0.00     0.041 C 
ATOM     23  O   UNL     1       0.830  28.909 110.158  1.00  0.00    -0.550 OA
ATOM     24  O   UNL     1       2.739  30.171 110.023  1.00  0.00    -0.550 OA
ENDBRANCH  21  22
ENDBRANCH  20  21
ENDBRANCH  19  20
ENDBRANCH  18  19
ENDBRANCH  17  18
ENDBRANCH  16  17
ENDBRANCH  15  16
ENDBRANCH  14  15
ENDBRANCH  13  14
ENDBRANCH   1  13
TORSDOF 20
ENDMDL
MODEL 3
REMARK VINA RESULT:    -4.133      2.505      3.933
REMARK INTER + INTRA:         -11.649
REMARK INTER:                  -8.261
REMARK INTRA:                  -3.388
REMARK UNBOUND:                -2.684
REMARK SMILES CCCCCCCCCCCCCCCCCCCCCC(=O)[O-]
REMARK SMILES IDX 12 1 11 2 10 3 9 4 8 5 7 6 6 7 5 8 4 9 3 10 2 11 1 12 13 13
REMARK SMILES IDX 14 14 15 15 16 16 17 17 18 18 19 19 20 20 21 21 22 22 23 23
REMARK SMILES IDX 24 24
REMARK H PARENT
REMARK Flexibility Score: inf
ROOT
ATOM      1  C   UNL     1       2.304  21.853 113.731  1.00  0.00     0.000 C 
ENDROOT
BRANCH   1   2
ATOM      2  C   UNL     1       3.744  22.093 114.217  1.00  0.00     0.000 C 
BRANCH   2   3
ATOM      3  C   UNL     1       4.382  23.347 113.598  1.00  0.00     0.000 C 
BRANCH   3   4
ATOM      4  C   UNL     1       4.672  24.448 114.636  1.00  0.00    -0.000 C 
BRANCH   4   5
ATOM      5  C   UNL     1       5.872  25.363 114.312  1.00  0.00    -0.000 C 
BRANCH   5   6
ATOM      6  C   UNL     1       5.531  26.855 114.138  1.00  0.00    -0.000 C 
BRANCH   6   7
ATOM      7  C   UNL     1       4.385  27.364 115.031  1.00  0.00    -0.000 C 
BRANCH   7   8
ATOM      8  C   UNL     1       3.743  28.675 114.525  1.00  0.00    -0.000 C 
BRANCH   8   9
ATOM      9  C   UNL     1       4.406  29.199 113.241  1.00  0.00    -0.000 C 
BRANCH   9  10
ATOM     10  C   UNL     1       4.232  30.716 113.057  1.00  0.00    -0.000 C 
BRANCH  10  11
ATOM     11  C   UNL     1       5.374  31.549 113.676  1.00  0.00    -0.003 C 
ATOM     12  C   UNL     1       4.868  32.539 114.727  1.00  0.00     0.004 C 
ENDBRANCH  10  11
ENDBRANCH   9  10
ENDBRANCH   8   9
ENDBRANCH   7   8
ENDBRANCH   6   7
ENDBRANCH   5   6
ENDBRANCH   4   5
ENDBRANCH   3   4
ENDBRANCH   2   3
ENDBRANCH   1   2
BRANCH   1  13
ATOM     13  C   UNL     1       1.234  22.754 114.374  1.00  0.00     0.000 C 
BRANCH  13  14
ATOM     14  C   UNL     1       0.644  23.779 113.389  1.00  0.00     0.000 C 
BRANCH  14  15
ATOM     15  C   UNL     1       0.570  25.193 113.988  1.00  0.00     0.000 C 
BRANCH  15  16
ATOM     16  C   UNL     1       1.405  26.210 113.191  1.00  0.00     0.000 C 
BRANCH  16  17
ATOM     17  C   UNL     1       2.208  25.562 112.049  1.00  0.00     0.000 C 
BRANCH  17  18
ATOM     18  C   UNL     1       2.933  26.550 111.117  1.00  0.00     0.000 C 
BRANCH  18  19
ATOM     19  C   UNL     1       4.123  25.918 110.379  1.00  0.00     0.000 C 
BRANCH  19  20
ATOM     20  C   UNL     1       5.441  26.589 110.780  1.00  0.00     0.006 C 
BRANCH  20  21
ATOM     21  C   UNL     1       6.625  25.964 110.037  1.00  0.00     0.053 C 
BRANCH  21  22
ATOM     22  C   UNL     1       7.426  25.098 110.957  1.00  0.00     0.041 C 
ATOM     23  O   UNL     1       7.039  23.930 111.227  1.00  0.00    -0.550 OA
ATOM     24  O   UNL     1       8.617  25.571 111.494  1.00  0.00    -0.550 OA
ENDBRANCH  21  22
ENDBRANCH  20  21
ENDBRANCH  19  20
ENDBRANCH  18  19
ENDBRANCH  17  18
ENDBRANCH  16  17
ENDBRANCH  15  16
ENDBRANCH  14  15
ENDBRANCH  13  14
ENDBRANCH   1  13
TORSDOF 20
ENDMDL
MODEL 4
REMARK VINA RESULT:    -4.103      2.911      5.668
REMARK INTER + INTRA:         -11.584
REMARK INTER:                  -8.780
REMARK INTRA:                  -2.805
REMARK UNBOUND:                -2.684
REMARK SMILES CCCCCCCCCCCCCCCCCCCCCC(=O)[O-]
REMARK SMILES IDX 12 1 11 2 10 3 9 4 8 5 7 6 6 7 5 8 4 9 3 10 2 11 1 12 13 13
REMARK SMILES IDX 14 14 15 15 16 16 17 17 18 18 19 19 20 20 21 21 22 22 23 23
REMARK SMILES IDX 24 24
REMARK H PARENT
REMARK Flexibility Score: inf
ROOT
ATOM      1  C   UNL     1       0.742  25.591 113.589  1.00  0.00     0.000 C 
ENDROOT
BRANCH   1   2
ATOM      2  C   UNL     1       1.964  26.219 112.896  1.00  0.00     0.000 C 
BRANCH   2   3
ATOM      3  C   UNL     1       2.767  25.205 112.065  1.00  0.00     0.000 C 
BRANCH   3   4
ATOM      4  C   UNL     1       3.373  25.819 110.789  1.00  0.00    -0.000 C 
BRANCH   4   5
ATOM      5  C   UNL     1       4.142  27.142 110.992  1.00  0.00    -0.000 C 
BRANCH   5   6
ATOM      6  C   UNL     1       5.227  27.109 112.084  1.00  0.00    -0.000 C 
BRANCH   6   7
ATOM      7  C   UNL     1       6.670  26.994 111.558  1.00  0.00    -0.000 C 
BRANCH   7   8
ATOM      8  C   UNL     1       7.228  25.554 111.592  1.00  0.00    -0.000 C 
BRANCH   8   9
ATOM      9  C   UNL     1       7.381  24.947 110.188  1.00  0.00    -0.000 C 
BRANCH   9  10
ATOM     10  C   UNL     1       7.996  25.932 109.178  1.00  0.00    -0.000 C 
BRANCH  10  11
ATOM     11  C   UNL     1       7.003  26.406 108.096  1.00  0.00    -0.003 C 
ATOM     12  C   UNL     1       7.179  25.652 106.776  1.00  0.00     0.004 C 
ENDBRANCH  10  11
ENDBRANCH   9  10
ENDBRANCH   8   9
ENDBRANCH   7   8
ENDBRANCH   6   7
ENDBRANCH   5   6
ENDBRANCH   4   5
ENDBRANCH   3   4
ENDBRANCH   2   3
ENDBRANCH   1   2
BRANCH   1  13
ATOM     13  C   UNL     1       0.565  24.078 113.365  1.00  0.00     0.000 C 
BRANCH  13  14
ATOM     14  C   UNL     1       0.133  23.331 114.640  1.00  0.00     0.000 C 
BRANCH  14  15
ATOM     15  C   UNL     1       0.778  21.939 114.751  1.00  0.00     0.000 C 
BRANCH  15  16
ATOM     16  C   UNL     1       1.938  21.751 113.758  1.00  0.00     0.000 C 
BRANCH  16  17
ATOM     17  C   UNL     1       3.167  21.077 114.393  1.00  0.00     0.000 C 
BRANCH  17  18
ATOM     18  C   UNL     1       3.963  21.959 115.373  1.00  0.00     0.000 C 
BRANCH  18  19
ATOM     19  C   UNL     1       3.791  23.462 115.105  1.00  0.00     0.000 C 
BRANCH  19  20
ATOM     20  C   UNL     1       5.124  24.109 114.716  1.00  0.00     0.006 C 
BRANCH  20  21
ATOM     21  C   UNL     1       5.205  25.551 115.224  1.00  0.00     0.053 C 
BRANCH  21  22
ATOM     22  C   UNL     1       6.628  26.004 115.299  1.00  0.00     0.041 C 
ATOM     23  O   UNL     1       6.899  27.206 115.566  1.00  0.00    -0.550 OA
ATOM     24  O   UNL     1       7.659  25.093 115.104  1.00  0.00    -0.550 OA
ENDBRANCH  21  22
ENDBRANCH  20  21
ENDBRANCH  19  20
ENDBRANCH  18  19
ENDBRANCH  17  18
ENDBRANCH  16  17
ENDBRANCH  15  16
ENDBRANCH  14  15
ENDBRANCH  13  14
ENDBRANCH   1  13
TORSDOF 20
ENDMDL
MODEL 5
REMARK VINA RESULT:    -4.092      2.524      4.661
REMARK INTER + INTRA:         -11.560
REMARK INTER:                  -8.378
REMARK INTRA:                  -3.182
REMARK UNBOUND:                -2.684
REMARK SMILES CCCCCCCCCCCCCCCCCCCCCC(=O)[O-]
REMARK SMILES IDX 12 1 11 2 10 3 9 4 8 5 7 6 6 7 5 8 4 9 3 10 2 11 1 12 13 13
REMARK SMILES IDX 14 14 15 15 16 16 17 17 18 18 19 19 20 20 21 21 22 22 23 23
REMARK SMILES IDX 24 24
REMARK H PARENT
REMARK Flexibility Score: inf
ROOT
ATOM      1  C   UNL     1       3.844  27.623 111.388  1.00  0.00     0.000 C 
ENDROOT
BRANCH   1   2
ATOM      2  C   UNL     1       2.479  27.526 110.684  1.00  0.00     0.000 C 
BRANCH   2   3
ATOM      3  C   UNL     1       2.071  28.835 109.989  1.00  0.00     0.000 C 
BRANCH   3   4
ATOM      4  C   UNL     1       2.586  30.089 110.721  1.00  0.00    -0.000 C 
BRANCH   4   5
ATOM      5  C   UNL     1       1.637  30.667 111.792  1.00  0.00    -0.000 C 
BRANCH   5   6
ATOM      6  C   UNL     1       1.964  30.265 113.242  1.00  0.00    -0.000 C 
BRANCH   6   7
ATOM      7  C   UNL     1       2.447  31.420 114.140  1.00  0.00    -0.000 C 
BRANCH   7   8
ATOM      8  C   UNL     1       3.697  32.146 113.594  1.00  0.00    -0.000 C 
BRANCH   8   9
ATOM      9  C   UNL     1       4.885  31.194 113.382  1.00  0.00    -0.000 C 
BRANCH   9  10
ATOM     10  C   UNL     1       6.109  31.571 114.235  1.00  0.00    -0.000 C 
BRANCH  10  11
ATOM     11  C   UNL     1       6.211  30.776 115.554  1.00  0.00    -0.003 C 
ATOM     12  C   UNL     1       5.496  29.426 115.476  1.00  0.00     0.004 C 
ENDBRANCH  10  11
ENDBRANCH   9  10
ENDBRANCH   8   9
ENDBRANCH   7   8
ENDBRANCH   6   7
ENDBRANCH   5   6
ENDBRANCH   4   5
ENDBRANCH   3   4
ENDBRANCH   2   3
ENDBRANCH   1   2
BRANCH   1  13
ATOM     13  C   UNL     1       3.825  27.345 112.902  1.00  0.00     0.000 C 
BRANCH  13  14
ATOM     14  C   UNL     1       2.536  26.641 113.365  1.00  0.00     0.000 C 
BRANCH  14  15
ATOM     15  C   UNL     1       2.709  25.117 113.483  1.00  0.00     0.000 C 
BRANCH  15  16
ATOM     16  C   UNL     1       3.742  24.728 114.555  1.00  0.00     0.000 C 
BRANCH  16  17
ATOM     17  C   UNL     1       4.990  24.048 113.965  1.00  0.00     0.000 C 
BRANCH  17  18
ATOM     18  C   UNL     1       4.855  23.591 112.501  1.00  0.00     0.000 C 
BRANCH  18  19
ATOM     19  C   UNL     1       5.736  24.397 111.535  1.00  0.00     0.000 C 
BRANCH  19  20
ATOM     20  C   UNL     1       7.027  24.859 112.220  1.00  0.00     0.006 C 
BRANCH  20  21
ATOM     21  C   UNL     1       7.995  25.478 111.208  1.00  0.00     0.053 C 
BRANCH  21  22
ATOM     22  C   UNL     1       7.435  26.748 110.652  1.00  0.00     0.041 C 
ATOM     23  O   UNL     1       7.395  27.789 111.361  1.00  0.00    -0.550 OA
ATOM     24  O   UNL     1       6.983  26.791 109.338  1.00  0.00    -0.550 OA
ENDBRANCH  21  22
ENDBRANCH  20  21
ENDBRANCH  19  20
ENDBRANCH  18  19
ENDBRANCH  17  18
ENDBRANCH  16  17
ENDBRANCH  15  16
ENDBRANCH  14  15
ENDBRANCH  13  14
ENDBRANCH   1  13
TORSDOF 20
ENDMDL
MODEL 6
REMARK VINA RESULT:    -4.033      3.278      7.022
REMARK INTER + INTRA:         -11.433
REMARK INTER:                  -8.463
REMARK INTRA:                  -2.970
REMARK UNBOUND:                -2.684
REMARK SMILES CCCCCCCCCCCCCCCCCCCCCC(=O)[O-]
REMARK SMILES IDX 12 1 11 2 10 3 9 4 8 5 7 6 6 7 5 8 4 9 3 10 2 11 1 12 13 13
REMARK SMILES IDX 14 14 15 15 16 16 17 17 18 18 19 19 20 20 21 21 22 22 23 23
REMARK SMILES IDX 24 24
REMARK H PARENT
REMARK Flexibility Score: inf
ROOT
ATOM      1  C   UNL     1       1.883  28.073 110.875  1.00  0.00     0.000 C 
ENDROOT
BRANCH   1   2
ATOM      2  C   UNL     1       3.374  28.447 110.807  1.00  0.00     0.000 C 
BRANCH   2   3
ATOM      3  C   UNL     1       4.291  27.355 111.382  1.00  0.00     0.000 C 
BRANCH   3   4
ATOM      4  C   UNL     1       3.945  25.946 110.864  1.00  0.00    -0.000 C 
BRANCH   4   5
ATOM      5  C   UNL     1       4.042  24.815 111.909  1.00  0.00    -0.000 C 
BRANCH   5   6
ATOM      6  C   UNL     1       5.349  24.001 111.874  1.00  0.00    -0.000 C 
BRANCH   6   7
ATOM      7  C   UNL     1       6.539  24.659 112.597  1.00  0.00    -0.000 C 
BRANCH   7   8
ATOM      8  C   UNL     1       7.782  24.846 111.698  1.00  0.00    -0.000 C 
BRANCH   8   9
ATOM      9  C   UNL     1       7.736  26.155 110.895  1.00  0.00    -0.000 C 
BRANCH   9  10
ATOM     10  C   UNL     1       8.085  25.956 109.410  1.00  0.00    -0.000 C 
BRANCH  10  11
ATOM     11  C   UNL     1       6.944  26.350 108.449  1.00  0.00    -0.003 C 
ATOM     12  C   UNL     1       7.179  25.838 107.026  1.00  0.00     0.004 C 
ENDBRANCH  10  11
ENDBRANCH   9  10
ENDBRANCH   8   9
ENDBRANCH   7   8
ENDBRANCH   6   7
ENDBRANCH   5   6
ENDBRANCH   4   5
ENDBRANCH   3   4
ENDBRANCH   2   3
ENDBRANCH   1   2
BRANCH   1  13
ATOM     13  C   UNL     1       0.902  29.237 110.646  1.00  0.00     0.000 C 
BRANCH  13  14
ATOM     14  C   UNL     1       0.836  30.208 111.839  1.00  0.00     0.000 C 
BRANCH  14  15
ATOM     15  C   UNL     1      -0.339  29.900 112.783  1.00  0.00     0.000 C 
BRANCH  15  16
ATOM     16  C   UNL     1       0.100  29.093 114.018  1.00  0.00     0.000 C 
BRANCH  16  17
ATOM     17  C   UNL     1       1.540  29.410 114.459  1.00  0.00     0.000 C 
BRANCH  17  18
ATOM     18  C   UNL     1       2.463  28.186 114.603  1.00  0.00     0.000 C 
BRANCH  18  19
ATOM     19  C   UNL     1       3.938  28.565 114.805  1.00  0.00     0.000 C 
BRANCH  19  20
ATOM     20  C   UNL     1       4.157  30.065 114.577  1.00  0.00     0.006 C 
BRANCH  20  21
ATOM     21  C   UNL     1       5.206  30.307 113.488  1.00  0.00     0.053 C 
BRANCH  21  22
ATOM     22  C   UNL     1       6.160  31.381 113.905  1.00  0.00     0.041 C 
ATOM     23  O   UNL     1       7.332  31.403 113.442  1.00  0.00    -0.550 OA
ATOM     24  O   UNL     1       5.747  32.375 114.783  1.00  0.00    -0.550 OA
ENDBRANCH  21  22
ENDBRANCH  20  21
ENDBRANCH  19  20
ENDBRANCH  18  19
ENDBRANCH  17  18
ENDBRANCH  16  17
ENDBRANCH  15  16
ENDBRANCH  14  15
ENDBRANCH  13  14
ENDBRANCH   1  13
TORSDOF 20
ENDMDL
MODEL 7
REMARK VINA RESULT:    -4.021      2.637      4.431
REMARK INTER + INTRA:         -11.406
REMARK INTER:                  -7.599
REMARK INTRA:                  -3.806
REMARK UNBOUND:                -2.684
REMARK SMILES CCCCCCCCCCCCCCCCCCCCCC(=O)[O-]
REMARK SMILES IDX 12 1 11 2 10 3 9 4 8 5 7 6 6 7 5 8 4 9 3 10 2 11 1 12 13 13
REMARK SMILES IDX 14 14 15 15 16 16 17 17 18 18 19 19 20 20 21 21 22 22 23 23
REMARK SMILES IDX 24 24
REMARK H PARENT
REMARK Flexibility Score: inf
ROOT
ATOM      1  C   UNL     1       4.100  23.277 114.570  1.00  0.00     0.000 C 
ENDROOT
BRANCH   1   2
ATOM      2  C   UNL     1       5.058  23.938 113.564  1.00  0.00     0.000 C 
BRANCH   2   3
ATOM      3  C   UNL     1       4.461  24.045 112.151  1.00  0.00     0.000 C 
BRANCH   3   4
ATOM      4  C   UNL     1       4.716  25.415 111.494  1.00  0.00    -0.000 C 
BRANCH   4   5
ATOM      5  C   UNL     1       3.699  25.827 110.408  1.00  0.00    -0.000 C 
BRANCH   5   6
ATOM      6  C   UNL     1       3.442  27.341 110.292  1.00  0.00    -0.000 C 
BRANCH   6   7
ATOM      7  C   UNL     1       2.082  27.809 110.844  1.00  0.00    -0.000 C 
BRANCH   7   8
ATOM      8  C   UNL     1       1.544  29.085 110.160  1.00  0.00    -0.000 C 
BRANCH   8   9
ATOM      9  C   UNL     1       0.819  30.020 111.143  1.00  0.00    -0.000 C 
BRANCH   9  10
ATOM     10  C   UNL     1       1.682  30.384 112.363  1.00  0.00    -0.000 C 
BRANCH  10  11
ATOM     11  C   UNL     1       1.024  30.030 113.713  1.00  0.00    -0.003 C 
ATOM     12  C   UNL     1      -0.365  29.412 113.538  1.00  0.00     0.004 C 
ENDBRANCH  10  11
ENDBRANCH   9  10
ENDBRANCH   8   9
ENDBRANCH   7   8
ENDBRANCH   6   7
ENDBRANCH   5   6
ENDBRANCH   4   5
ENDBRANCH   3   4
ENDBRANCH   2   3
ENDBRANCH   1   2
BRANCH   1  13
ATOM     13  C   UNL     1       3.566  21.893 114.158  1.00  0.00     0.000 C 
BRANCH  13  14
ATOM     14  C   UNL     1       2.074  21.916 113.779  1.00  0.00     0.000 C 
BRANCH  14  15
ATOM     15  C   UNL     1       1.332  23.117 114.388  1.00  0.00     0.000 C 
BRANCH  15  16
ATOM     16  C   UNL     1       0.682  24.007 113.314  1.00  0.00     0.000 C 
BRANCH  16  17
ATOM     17  C   UNL     1       1.225  25.448 113.322  1.00  0.00     0.000 C 
BRANCH  17  18
ATOM     18  C   UNL     1       1.022  26.215 114.641  1.00  0.00     0.000 C 
BRANCH  18  19
ATOM     19  C   UNL     1       2.342  26.666 115.284  1.00  0.00     0.000 C 
BRANCH  19  20
ATOM     20  C   UNL     1       3.372  27.051 114.216  1.00  0.00     0.006 C 
BRANCH  20  21
ATOM     21  C   UNL     1       4.084  28.356 114.583  1.00  0.00     0.053 C 
BRANCH  21  22
ATOM     22  C   UNL     1       5.472  28.373 114.026  1.00  0.00     0.041 C 
ATOM     23  O   UNL     1       6.181  27.332 114.053  1.00  0.00    -0.550 OA
ATOM     24  O   UNL     1       5.974  29.533 113.447  1.00  0.00    -0.550 OA
ENDBRANCH  21  22
ENDBRANCH  20  21
ENDBRANCH  19  20
ENDBRANCH  18  19
ENDBRANCH  17  18
ENDBRANCH  16  17
ENDBRANCH  15  16
ENDBRANCH  14  15
ENDBRANCH  13  14
ENDBRANCH   1  13
TORSDOF 20
ENDMDL
MODEL 8
REMARK VINA RESULT:    -3.992      4.047      6.863
REMARK INTER + INTRA:         -11.344
REMARK INTER:                  -7.193
REMARK INTRA:                  -4.150
REMARK UNBOUND:                -2.684
REMARK SMILES CCCCCCCCCCCCCCCCCCCCCC(=O)[O-]
REMARK SMILES IDX 12 1 11 2 10 3 9 4 8 5 7 6 6 7 5 8 4 9 3 10 2 11 1 12 13 13
REMARK SMILES IDX 14 14 15 15 16 16 17 17 18 18 19 19 20 20 21 21 22 22 23 23
REMARK SMILES IDX 24 24
REMARK H PARENT
REMARK Flexibility Score: inf
ROOT
ATOM      1  C   UNL     1       5.783  27.595 114.786  1.00  0.00     0.000 C 
ENDROOT
BRANCH   1   2
ATOM      2  C   UNL     1       5.664  27.492 113.256  1.00  0.00     0.000 C 
BRANCH   2   3
ATOM      3  C   UNL     1       4.734  28.558 112.656  1.00  0.00     0.000 C 
BRANCH   3   4
ATOM      4  C   UNL     1       3.439  27.964 112.068  1.00  0.00    -0.000 C 
BRANCH   4   5
ATOM      5  C   UNL     1       2.771  26.863 112.918  1.00  0.00    -0.000 C 
BRANCH   5   6
ATOM      6  C   UNL     1       2.753  25.462 112.278  1.00  0.00    -0.000 C 
BRANCH   6   7
ATOM      7  C   UNL     1       3.116  24.310 113.233  1.00  0.00    -0.000 C 
BRANCH   7   8
ATOM      8  C   UNL     1       4.588  23.853 113.120  1.00  0.00    -0.000 C 
BRANCH   8   9
ATOM      9  C   UNL     1       5.186  24.131 111.732  1.00  0.00    -0.000 C 
BRANCH   9  10
ATOM     10  C   UNL     1       6.716  24.279 111.762  1.00  0.00    -0.000 C 
BRANCH  10  11
ATOM     11  C   UNL     1       7.293  24.985 110.516  1.00  0.00    -0.003 C 
ATOM     12  C   UNL     1       6.446  26.183 110.083  1.00  0.00     0.004 C 
ENDBRANCH  10  11
ENDBRANCH   9  10
ENDBRANCH   8   9
ENDBRANCH   7   8
ENDBRANCH   6   7
ENDBRANCH   5   6
ENDBRANCH   4   5
ENDBRANCH   3   4
ENDBRANCH   2   3
ENDBRANCH   1   2
BRANCH   1  13
ATOM     13  C   UNL     1       5.402  26.321 115.563  1.00  0.00     0.000 C 
BRANCH  13  14
ATOM     14  C   UNL     1       4.136  26.499 116.420  1.00  0.00     0.000 C 
BRANCH  14  15
ATOM     15  C   UNL     1       3.843  27.975 116.735  1.00  0.00     0.000 C 
BRANCH  15  16
ATOM     16  C   UNL     1       2.426  28.394 116.308  1.00  0.00     0.000 C 
BRANCH  16  17
ATOM     17  C   UNL     1       2.418  29.627 115.386  1.00  0.00     0.000 C 
BRANCH  17  18
ATOM     18  C   UNL     1       3.580  30.613 115.604  1.00  0.00     0.000 C 
BRANCH  18  19
ATOM     19  C   UNL     1       3.596  31.760 114.582  1.00  0.00     0.000 C 
BRANCH  19  20
ATOM     20  C   UNL     1       5.025  32.069 114.122  1.00  0.00     0.006 C 
BRANCH  20  21
ATOM     21  C   UNL     1       6.040  31.183 114.849  1.00  0.00     0.053 C 
BRANCH  21  22
ATOM     22  C   UNL     1       7.376  31.852 114.906  1.00  0.00     0.041 C 
ATOM     23  O   UNL     1       7.679  32.582 115.888  1.00  0.00    -0.550 OA
ATOM     24  O   UNL     1       8.302  31.645 113.890  1.00  0.00    -0.550 OA
ENDBRANCH  21  22
ENDBRANCH  20  21
ENDBRANCH  19  20
ENDBRANCH  18  19
ENDBRANCH  17  18
ENDBRANCH  16  17
ENDBRANCH  15  16
ENDBRANCH  14  15
ENDBRANCH  13  14
ENDBRANCH   1  13
TORSDOF 20
ENDMDL
MODEL 9
REMARK VINA RESULT:    -3.952      2.094      5.576
REMARK INTER + INTRA:         -11.256
REMARK INTER:                  -7.562
REMARK INTRA:                  -3.694
REMARK UNBOUND:                -2.684
REMARK SMILES CCCCCCCCCCCCCCCCCCCCCC(=O)[O-]
REMARK SMILES IDX 12 1 11 2 10 3 9 4 8 5 7 6 6 7 5 8 4 9 3 10 2 11 1 12 13 13
REMARK SMILES IDX 14 14 15 15 16 16 17 17 18 18 19 19 20 20 21 21 22 22 23 23
REMARK SMILES IDX 24 24
REMARK H PARENT
REMARK Flexibility Score: inf
ROOT
ATOM      1  C   UNL     1       1.465  25.326 113.092  1.00  0.00     0.000 C 
ENDROOT
BRANCH   1   2
ATOM      2  C   UNL     1       0.512  24.159 113.402  1.00  0.00     0.000 C 
BRANCH   2   3
ATOM      3  C   UNL     1      -0.258  24.350 114.719  1.00  0.00     0.000 C 
BRANCH   3   4
ATOM      4  C   UNL     1       0.104  23.299 115.785  1.00  0.00    -0.000 C 
BRANCH   4   5
ATOM      5  C   UNL     1       0.198  21.845 115.276  1.00  0.00    -0.000 C 
BRANCH   5   6
ATOM      6  C   UNL     1       1.592  21.200 115.386  1.00  0.00    -0.000 C 
BRANCH   6   7
ATOM      7  C   UNL     1       2.305  20.968 114.040  1.00  0.00    -0.000 C 
BRANCH   7   8
ATOM      8  C   UNL     1       3.447  21.970 113.764  1.00  0.00    -0.000 C 
BRANCH   8   9
ATOM      9  C   UNL     1       4.188  22.386 115.045  1.00  0.00    -0.000 C 
BRANCH   9  10
ATOM     10  C   UNL     1       3.940  23.855 115.427  1.00  0.00    -0.000 C 
BRANCH  10  11
ATOM     11  C   UNL     1       3.693  24.068 116.936  1.00  0.00    -0.003 C 
ATOM     12  C   UNL     1       2.813  25.288 117.215  1.00  0.00     0.004 C 
ENDBRANCH  10  11
ENDBRANCH   9  10
ENDBRANCH   8   9
ENDBRANCH   7   8
ENDBRANCH   6   7
ENDBRANCH   5   6
ENDBRANCH   4   5
ENDBRANCH   3   4
ENDBRANCH   2   3
ENDBRANCH   1   2
BRANCH   1  13
ATOM     13  C   UNL     1       1.331  26.549 114.018  1.00  0.00     0.000 C 
BRANCH  13  14
ATOM     14  C   UNL     1       0.736  27.777 113.305  1.00  0.00     0.000 C 
BRANCH  14  15
ATOM     15  C   UNL     1       1.794  28.569 112.519  1.00  0.00     0.000 C 
BRANCH  15  16
ATOM     16  C   UNL     1       1.630  28.413 110.997  1.00  0.00     0.000 C 
BRANCH  16  17
ATOM     17  C   UNL     1       2.728  27.542 110.362  1.00  0.00     0.000 C 
BRANCH  17  18
ATOM     18  C   UNL     1       4.011  27.393 111.201  1.00  0.00     0.000 C 
BRANCH  18  19
ATOM     19  C   UNL     1       4.666  26.011 111.056  1.00  0.00     0.000 C 
BRANCH  19  20
ATOM     20  C   UNL     1       4.989  25.408 112.428  1.00  0.00     0.006 C 
BRANCH  20  21
ATOM     21  C   UNL     1       6.336  25.916 112.949  1.00  0.00     0.053 C 
BRANCH  21  22
ATOM     22  C   UNL     1       7.462  25.331 112.157  1.00  0.00     0.041 C 
ATOM     23  O   UNL     1       8.287  26.085 111.574  1.00  0.00    -0.550 OA
ATOM     24  O   UNL     1       7.618  23.952 112.085  1.00  0.00    -0.550 OA
ENDBRANCH  21  22
ENDBRANCH  20  21
ENDBRANCH  19  20
ENDBRANCH  18  19
ENDBRANCH  17  18
ENDBRANCH  16  17
ENDBRANCH  15  16
ENDBRANCH  14  15
ENDBRANCH  13  14
ENDBRANCH   1  13
TORSDOF 20
ENDMDL
