MODEL 1
REMARK VINA RESULT:    -7.191      0.000      0.000
REMARK INTER + INTRA:          -8.726
REMARK INTER:                  -8.663
REMARK INTRA:                  -0.063
REMARK UNBOUND:                -0.063
REMARK SMILES O=c1c(O)c(-c2ccc(O)c(O)c2)oc2cc(O)cc(O)c12
REMARK SMILES IDX 5 1 3 2 2 3 1 4 22 5 20 6 19 7 17 8 16 9 15 10 14 11 6 12
REMARK SMILES IDX 7 13 8 14 9 15 13 16 11 17 10 18 12 20 4 22 21 24 18 26
REMARK H PARENT 10 19 12 21 4 23 21 25 18 27
REMARK Flexibility Score: inf
ROOT
ATOM      1  C   UNL     1      11.176  20.331  -9.790  1.00  0.00     0.180 A 
ATOM      2  C   UNL     1       9.808  20.626  -9.634  1.00  0.00     0.208 A 
ATOM      3  C   UNL     1       8.969  19.664  -9.051  1.00  0.00     0.238 A 
ATOM      4  O   UNL     1       7.744  19.922  -8.897  1.00  0.00    -0.285 OA
ATOM      5  C   UNL     1       9.504  18.422  -8.653  1.00  0.00     0.111 A 
ATOM      6  C   UNL     1       8.726  17.398  -8.060  1.00  0.00     0.134 A 
ATOM      7  C   UNL     1       9.330  16.185  -7.699  1.00  0.00     0.093 A 
ATOM      8  C   UNL     1      10.694  15.976  -7.918  1.00  0.00     0.123 A 
ATOM      9  C   UNL     1      11.468  16.984  -8.502  1.00  0.00     0.094 A 
ATOM     10  C   UNL     1      10.884  18.200  -8.867  1.00  0.00     0.146 A 
ATOM     11  O   UNL     1      11.642  19.143  -9.416  1.00  0.00    -0.452 OA
ENDROOT
BRANCH   1  12
ATOM     12  C   UNL     1      12.128  21.300 -10.379  1.00  0.00     0.025 A 
ATOM     13  C   UNL     1      12.247  22.581  -9.816  1.00  0.00     0.016 A 
ATOM     14  C   UNL     1      13.124  23.518 -10.369  1.00  0.00     0.051 A 
ATOM     15  C   UNL     1      13.882  23.194 -11.502  1.00  0.00     0.157 A 
ATOM     16  C   UNL     1      12.874  20.986 -11.530  1.00  0.00     0.062 A 
ATOM     17  C   UNL     1      13.754  21.928 -12.085  1.00  0.00     0.158 A 
BRANCH  15  18
ATOM     18  O   UNL     1      14.759  24.125 -12.055  1.00  0.00    -0.504 OA
ATOM     19  H   UNL     1      14.455  25.061 -12.295  1.00  0.00     0.293 HD
ENDBRANCH  15  18
BRANCH  17  20
ATOM     20  O   UNL     1      14.498  21.612 -13.221  1.00  0.00    -0.504 OA
ATOM     21  H   UNL     1      15.136  22.279 -13.641  1.00  0.00     0.293 HD
ENDBRANCH  17  20
ENDBRANCH   1  12
BRANCH   2  22
ATOM     22  O   UNL     1       9.294  21.845 -10.084  1.00  0.00    -0.502 OA
ATOM     23  H   UNL     1       9.303  22.111 -11.061  1.00  0.00     0.293 HD
ENDBRANCH   2  22
BRANCH   6  24
ATOM     24  O   UNL     1       7.361  17.575  -7.828  1.00  0.00    -0.507 OA
ATOM     25  H   UNL     1       6.753  18.004  -8.517  1.00  0.00     0.293 HD
ENDBRANCH   6  24
BRANCH   8  26
ATOM     26  O   UNL     1      11.270  14.762  -7.551  1.00  0.00    -0.508 OA
ATOM     27  H   UNL     1      12.177  14.478  -7.903  1.00  0.00     0.293 HD
ENDBRANCH   8  26
TORSDOF 6
ENDMDL
MODEL 2
REMARK VINA RESULT:    -7.177      2.374      7.508
REMARK INTER + INTRA:          -8.708
REMARK INTER:                  -8.388
REMARK INTRA:                  -0.320
REMARK UNBOUND:                -0.063
REMARK SMILES O=c1c(O)c(-c2ccc(O)c(O)c2)oc2cc(O)cc(O)c12
REMARK SMILES IDX 5 1 3 2 2 3 1 4 22 5 20 6 19 7 17 8 16 9 15 10 14 11 6 12
REMARK SMILES IDX 7 13 8 14 9 15 13 16 11 17 10 18 12 20 4 22 21 24 18 26
REMARK H PARENT 10 19 12 21 4 23 21 25 18 27
REMARK Flexibility Score: inf
ROOT
ATOM      1  C   UNL     1      13.159  21.428 -10.367  1.00  0.00     0.180 A 
ATOM      2  C   UNL     1      14.061  21.457  -9.286  1.00  0.00     0.208 A 
ATOM      3  C   UNL     1      15.319  22.053  -9.470  1.00  0.00     0.238 A 
ATOM      4  O   UNL     1      16.131  22.094  -8.506  1.00  0.00    -0.285 OA
ATOM      5  C   UNL     1      15.660  22.589 -10.728  1.00  0.00     0.111 A 
ATOM      6  C   UNL     1      16.907  23.203 -10.996  1.00  0.00     0.134 A 
ATOM      7  C   UNL     1      17.175  23.704 -12.278  1.00  0.00     0.093 A 
ATOM      8  C   UNL     1      16.223  23.605 -13.295  1.00  0.00     0.123 A 
ATOM      9  C   UNL     1      14.988  23.000 -13.036  1.00  0.00     0.094 A 
ATOM     10  C   UNL     1      14.702  22.495 -11.765  1.00  0.00     0.146 A 
ATOM     11  O   UNL     1      13.521  21.930 -11.544  1.00  0.00    -0.452 OA
ENDROOT
BRANCH   1  12
ATOM     12  C   UNL     1      11.807  20.834 -10.247  1.00  0.00     0.025 A 
ATOM     13  C   UNL     1      10.753  21.613  -9.742  1.00  0.00     0.016 A 
ATOM     14  C   UNL     1       9.474  21.066  -9.601  1.00  0.00     0.051 A 
ATOM     15  C   UNL     1       9.236  19.731  -9.948  1.00  0.00     0.157 A 
ATOM     16  C   UNL     1      11.567  19.487 -10.574  1.00  0.00     0.062 A 
ATOM     17  C   UNL     1      10.284  18.939 -10.431  1.00  0.00     0.158 A 
BRANCH  15  18
ATOM     18  O   UNL     1       7.961  19.183  -9.811  1.00  0.00    -0.504 OA
ATOM     19  H   UNL     1       7.705  18.317 -10.270  1.00  0.00     0.293 HD
ENDBRANCH  15  18
BRANCH  17  20
ATOM     20  O   UNL     1      10.047  17.605 -10.763  1.00  0.00    -0.504 OA
ATOM     21  H   UNL     1       9.659  16.952 -10.091  1.00  0.00     0.293 HD
ENDBRANCH  17  20
ENDBRANCH   1  12
BRANCH   2  22
ATOM     22  O   UNL     1      13.717  20.874  -8.064  1.00  0.00    -0.502 OA
ATOM     23  H   UNL     1      14.409  20.480  -7.437  1.00  0.00     0.293 HD
ENDBRANCH   2  22
BRANCH   6  24
ATOM     24  O   UNL     1      17.880  23.317 -10.002  1.00  0.00    -0.507 OA
ATOM     25  H   UNL     1      18.331  22.504  -9.599  1.00  0.00     0.293 HD
ENDBRANCH   6  24
BRANCH   8  26
ATOM     26  O   UNL     1      16.513  24.110 -14.560  1.00  0.00    -0.508 OA
ATOM     27  H   UNL     1      16.718  25.092 -14.705  1.00  0.00     0.293 HD
ENDBRANCH   8  26
TORSDOF 6
ENDMDL
MODEL 3
REMARK VINA RESULT:    -7.033      1.693      2.377
REMARK INTER + INTRA:          -8.535
REMARK INTER:                  -8.317
REMARK INTRA:                  -0.217
REMARK UNBOUND:                -0.063
REMARK SMILES O=c1c(O)c(-c2ccc(O)c(O)c2)oc2cc(O)cc(O)c12
REMARK SMILES IDX 5 1 3 2 2 3 1 4 22 5 20 6 19 7 17 8 16 9 15 10 14 11 6 12
REMARK SMILES IDX 7 13 8 14 9 15 13 16 11 17 10 18 12 20 4 22 21 24 18 26
REMARK H PARENT 10 19 12 21 4 23 21 25 18 27
REMARK Flexibility Score: inf
ROOT
ATOM      1  C   UNL     1       9.970  18.633  -8.934  1.00  0.00     0.180 A 
ATOM      2  C   UNL     1       8.775  19.176  -8.425  1.00  0.00     0.208 A 
ATOM      3  C   UNL     1       7.855  18.321  -7.800  1.00  0.00     0.238 A 
ATOM      4  O   UNL     1       6.785  18.798  -7.331  1.00  0.00    -0.285 OA
ATOM      5  C   UNL     1       8.133  16.942  -7.711  1.00  0.00     0.111 A 
ATOM      6  C   UNL     1       7.257  16.013  -7.100  1.00  0.00     0.134 A 
ATOM      7  C   UNL     1       7.602  14.654  -7.059  1.00  0.00     0.093 A 
ATOM      8  C   UNL     1       8.802  14.207  -7.616  1.00  0.00     0.123 A 
ATOM      9  C   UNL     1       9.672  15.120  -8.221  1.00  0.00     0.094 A 
ATOM     10  C   UNL     1       9.347  16.478  -8.270  1.00  0.00     0.146 A 
ATOM     11  O   UNL     1      10.193  17.325  -8.846  1.00  0.00    -0.452 OA
ENDROOT
BRANCH   1  12
ATOM     12  C   UNL     1      10.999  19.472  -9.591  1.00  0.00     0.025 A 
ATOM     13  C   UNL     1      11.740  20.385  -8.822  1.00  0.00     0.016 A 
ATOM     14  C   UNL     1      12.701  21.202  -9.425  1.00  0.00     0.051 A 
ATOM     15  C   UNL     1      12.923  21.129 -10.806  1.00  0.00     0.157 A 
ATOM     16  C   UNL     1      11.211  19.418 -10.981  1.00  0.00     0.062 A 
ATOM     17  C   UNL     1      12.175  20.239 -11.585  1.00  0.00     0.158 A 
BRANCH  15  18
ATOM     18  O   UNL     1      13.882  21.940 -11.410  1.00  0.00    -0.504 OA
ATOM     19  H   UNL     1      14.652  21.547 -11.939  1.00  0.00     0.293 HD
ENDBRANCH  15  18
BRANCH  17  20
ATOM     20  O   UNL     1      12.388  20.179 -12.962  1.00  0.00    -0.504 OA
ATOM     21  H   UNL     1      12.988  19.474 -13.376  1.00  0.00     0.293 HD
ENDBRANCH  17  20
ENDBRANCH   1  12
BRANCH   2  22
ATOM     22  O   UNL     1       8.501  20.539  -8.571  1.00  0.00    -0.502 OA
ATOM     23  H   UNL     1       7.662  20.966  -8.198  1.00  0.00     0.293 HD
ENDBRANCH   2  22
BRANCH   6  24
ATOM     24  O   UNL     1       6.050  16.428  -6.534  1.00  0.00    -0.507 OA
ATOM     25  H   UNL     1       6.017  17.117  -5.793  1.00  0.00     0.293 HD
ENDBRANCH   6  24
BRANCH   8  26
ATOM     26  O   UNL     1       9.120  12.852  -7.564  1.00  0.00    -0.508 OA
ATOM     27  H   UNL     1      10.081  12.535  -7.500  1.00  0.00     0.293 HD
ENDBRANCH   8  26
TORSDOF 6
ENDMDL
MODEL 4
REMARK VINA RESULT:    -6.946      2.378      7.720
REMARK INTER + INTRA:          -8.430
REMARK INTER:                  -8.147
REMARK INTRA:                  -0.283
REMARK UNBOUND:                -0.063
REMARK SMILES O=c1c(O)c(-c2ccc(O)c(O)c2)oc2cc(O)cc(O)c12
REMARK SMILES IDX 5 1 3 2 2 3 1 4 22 5 20 6 19 7 17 8 16 9 15 10 14 11 6 12
REMARK SMILES IDX 7 13 8 14 9 15 13 16 11 17 10 18 12 20 4 22 21 24 18 26
REMARK H PARENT 10 19 12 21 4 23 21 25 18 27
REMARK Flexibility Score: inf
ROOT
ATOM      1  C   UNL     1       9.950  16.866  -8.130  1.00  0.00     0.180 A 
ATOM      2  C   UNL     1      11.326  17.104  -8.311  1.00  0.00     0.208 A 
ATOM      3  C   UNL     1      11.745  18.378  -8.726  1.00  0.00     0.238 A 
ATOM      4  O   UNL     1      12.976  18.605  -8.881  1.00  0.00    -0.285 OA
ATOM      5  C   UNL     1      10.786  19.381  -8.971  1.00  0.00     0.111 A 
ATOM      6  C   UNL     1      11.126  20.689  -9.395  1.00  0.00     0.134 A 
ATOM      7  C   UNL     1      10.112  21.631  -9.627  1.00  0.00     0.093 A 
ATOM      8  C   UNL     1       8.770  21.291  -9.445  1.00  0.00     0.123 A 
ATOM      9  C   UNL     1       8.428  20.001  -9.026  1.00  0.00     0.094 A 
ATOM     10  C   UNL     1       9.424  19.049  -8.788  1.00  0.00     0.146 A 
ATOM     11  O   UNL     1       9.073  17.833  -8.386  1.00  0.00    -0.452 OA
ENDROOT
BRANCH   1  12
ATOM     12  C   UNL     1       9.430  15.556  -7.677  1.00  0.00     0.025 A 
ATOM     13  C   UNL     1       9.532  15.204  -6.321  1.00  0.00     0.016 A 
ATOM     14  C   UNL     1       9.067  13.963  -5.875  1.00  0.00     0.051 A 
ATOM     15  C   UNL     1       8.509  13.052  -6.780  1.00  0.00     0.157 A 
ATOM     16  C   UNL     1       8.889  14.628  -8.586  1.00  0.00     0.062 A 
ATOM     17  C   UNL     1       8.424  13.382  -8.138  1.00  0.00     0.158 A 
BRANCH  15  18
ATOM     18  O   UNL     1       8.043  11.814  -6.339  1.00  0.00    -0.504 OA
ATOM     19  H   UNL     1       8.679  11.062  -6.105  1.00  0.00     0.293 HD
ENDBRANCH  15  18
BRANCH  17  20
ATOM     20  O   UNL     1       7.882  12.467  -9.039  1.00  0.00    -0.504 OA
ATOM     21  H   UNL     1       7.076  11.901  -8.801  1.00  0.00     0.293 HD
ENDBRANCH  17  20
ENDBRANCH   1  12
BRANCH   2  22
ATOM     22  O   UNL     1      12.252  16.076  -8.109  1.00  0.00    -0.502 OA
ATOM     23  H   UNL     1      11.998  15.098  -8.170  1.00  0.00     0.293 HD
ENDBRANCH   2  22
BRANCH   6  24
ATOM     24  O   UNL     1      12.458  21.059  -9.587  1.00  0.00    -0.507 OA
ATOM     25  H   UNL     1      12.884  21.063 -10.506  1.00  0.00     0.293 HD
ENDBRANCH   6  24
BRANCH   8  26
ATOM     26  O   UNL     1       7.782  22.244  -9.683  1.00  0.00    -0.508 OA
ATOM     27  H   UNL     1       8.008  23.225  -9.798  1.00  0.00     0.293 HD
ENDBRANCH   8  26
TORSDOF 6
ENDMDL
MODEL 5
REMARK VINA RESULT:    -6.918      1.828      7.029
REMARK INTER + INTRA:          -8.396
REMARK INTER:                  -8.132
REMARK INTRA:                  -0.264
REMARK UNBOUND:                -0.063
REMARK SMILES O=c1c(O)c(-c2ccc(O)c(O)c2)oc2cc(O)cc(O)c12
REMARK SMILES IDX 5 1 3 2 2 3 1 4 22 5 20 6 19 7 17 8 16 9 15 10 14 11 6 12
REMARK SMILES IDX 7 13 8 14 9 15 13 16 11 17 10 18 12 20 4 22 21 24 18 26
REMARK H PARENT 10 19 12 21 4 23 21 25 18 27
REMARK Flexibility Score: inf
ROOT
ATOM      1  C   UNL     1       9.510  17.766  -8.343  1.00  0.00     0.180 A 
ATOM      2  C   UNL     1       8.421  18.618  -8.607  1.00  0.00     0.208 A 
ATOM      3  C   UNL     1       8.667  19.875  -9.180  1.00  0.00     0.238 A 
ATOM      4  O   UNL     1       7.698  20.643  -9.431  1.00  0.00    -0.285 OA
ATOM      5  C   UNL     1       9.992  20.265  -9.461  1.00  0.00     0.111 A 
ATOM      6  C   UNL     1      10.326  21.516 -10.035  1.00  0.00     0.134 A 
ATOM      7  C   UNL     1      11.671  21.835 -10.276  1.00  0.00     0.093 A 
ATOM      8  C   UNL     1      12.685  20.931  -9.955  1.00  0.00     0.123 A 
ATOM      9  C   UNL     1      12.362  19.693  -9.388  1.00  0.00     0.094 A 
ATOM     10  C   UNL     1      11.028  19.357  -9.142  1.00  0.00     0.146 A 
ATOM     11  O   UNL     1      10.748  18.174  -8.608  1.00  0.00    -0.452 OA
ENDROOT
BRANCH   1  12
ATOM     12  C   UNL     1       9.330  16.417  -7.757  1.00  0.00     0.025 A 
ATOM     13  C   UNL     1       9.755  16.174  -6.441  1.00  0.00     0.016 A 
ATOM     14  C   UNL     1       9.615  14.904  -5.875  1.00  0.00     0.051 A 
ATOM     15  C   UNL     1       9.062  13.856  -6.622  1.00  0.00     0.157 A 
ATOM     16  C   UNL     1       8.796  15.356  -8.511  1.00  0.00     0.062 A 
ATOM     17  C   UNL     1       8.656  14.081  -7.943  1.00  0.00     0.158 A 
BRANCH  15  18
ATOM     18  O   UNL     1       8.918  12.588  -6.060  1.00  0.00    -0.504 OA
ATOM     19  H   UNL     1       9.393  11.781  -6.446  1.00  0.00     0.293 HD
ENDBRANCH  15  18
BRANCH  17  20
ATOM     20  O   UNL     1       8.119  13.032  -8.688  1.00  0.00    -0.504 OA
ATOM     21  H   UNL     1       7.129  12.816  -8.665  1.00  0.00     0.293 HD
ENDBRANCH  17  20
ENDBRANCH   1  12
BRANCH   2  22
ATOM     22  O   UNL     1       7.121  18.227  -8.273  1.00  0.00    -0.502 OA
ATOM     23  H   UNL     1       6.732  18.371  -7.349  1.00  0.00     0.293 HD
ENDBRANCH   2  22
BRANCH   6  24
ATOM     24  O   UNL     1       9.336  22.442 -10.367  1.00  0.00    -0.507 OA
ATOM     25  H   UNL     1       9.476  23.138 -11.090  1.00  0.00     0.293 HD
ENDBRANCH   6  24
BRANCH   8  26
ATOM     26  O   UNL     1      14.013  21.272 -10.203  1.00  0.00    -0.508 OA
ATOM     27  H   UNL     1      14.303  22.238 -10.298  1.00  0.00     0.293 HD
ENDBRANCH   8  26
TORSDOF 6
ENDMDL
MODEL 6
REMARK VINA RESULT:    -6.846      7.489     10.174
REMARK INTER + INTRA:          -8.310
REMARK INTER:                  -8.001
REMARK INTRA:                  -0.309
REMARK UNBOUND:                -0.063
REMARK SMILES O=c1c(O)c(-c2ccc(O)c(O)c2)oc2cc(O)cc(O)c12
REMARK SMILES IDX 5 1 3 2 2 3 1 4 22 5 20 6 19 7 17 8 16 9 15 10 14 11 6 12
REMARK SMILES IDX 7 13 8 14 9 15 13 16 11 17 10 18 12 20 4 22 21 24 18 26
REMARK H PARENT 10 19 12 21 4 23 21 25 18 27
REMARK Flexibility Score: inf
ROOT
ATOM      1  C   UNL     1      19.476  19.395  -8.358  1.00  0.00     0.180 A 
ATOM      2  C   UNL     1      18.492  19.722  -7.406  1.00  0.00     0.208 A 
ATOM      3  C   UNL     1      17.749  20.901  -7.578  1.00  0.00     0.238 A 
ATOM      4  O   UNL     1      16.858  21.199  -6.736  1.00  0.00    -0.285 OA
ATOM      5  C   UNL     1      18.013  21.737  -8.681  1.00  0.00     0.111 A 
ATOM      6  C   UNL     1      17.312  22.943  -8.924  1.00  0.00     0.134 A 
ATOM      7  C   UNL     1      17.640  23.727 -10.040  1.00  0.00     0.093 A 
ATOM      8  C   UNL     1      18.653  23.329 -10.916  1.00  0.00     0.123 A 
ATOM      9  C   UNL     1      19.349  22.138 -10.682  1.00  0.00     0.094 A 
ATOM     10  C   UNL     1      19.035  21.343  -9.576  1.00  0.00     0.146 A 
ATOM     11  O   UNL     1      19.708  20.215  -9.379  1.00  0.00    -0.452 OA
ENDROOT
BRANCH   1  12
ATOM     12  C   UNL     1      20.288  18.160  -8.258  1.00  0.00     0.025 A 
ATOM     13  C   UNL     1      21.440  18.155  -7.454  1.00  0.00     0.016 A 
ATOM     14  C   UNL     1      22.233  17.008  -7.361  1.00  0.00     0.051 A 
ATOM     15  C   UNL     1      21.895  15.856  -8.081  1.00  0.00     0.157 A 
ATOM     16  C   UNL     1      19.965  17.008  -8.997  1.00  0.00     0.062 A 
ATOM     17  C   UNL     1      20.762  15.857  -8.904  1.00  0.00     0.158 A 
BRANCH  15  18
ATOM     18  O   UNL     1      22.682  14.709  -7.990  1.00  0.00    -0.504 OA
ATOM     19  H   UNL     1      22.555  14.038  -7.242  1.00  0.00     0.293 HD
ENDBRANCH  15  18
BRANCH  17  20
ATOM     20  O   UNL     1      20.436  14.713  -9.632  1.00  0.00    -0.504 OA
ATOM     21  H   UNL     1      19.915  13.950  -9.215  1.00  0.00     0.293 HD
ENDBRANCH  17  20
ENDBRANCH   1  12
BRANCH   2  22
ATOM     22  O   UNL     1      18.284  18.901  -6.295  1.00  0.00    -0.502 OA
ATOM     23  H   UNL     1      18.814  19.004  -5.437  1.00  0.00     0.293 HD
ENDBRANCH   2  22
BRANCH   6  24
ATOM     24  O   UNL     1      16.295  23.368  -8.068  1.00  0.00    -0.507 OA
ATOM     25  H   UNL     1      15.508  22.774  -7.837  1.00  0.00     0.293 HD
ENDBRANCH   6  24
BRANCH   8  26
ATOM     26  O   UNL     1      18.960  24.125 -12.017  1.00  0.00    -0.508 OA
ATOM     27  H   UNL     1      19.816  24.666 -12.058  1.00  0.00     0.293 HD
ENDBRANCH   8  26
TORSDOF 6
ENDMDL
MODEL 7
REMARK VINA RESULT:    -6.819      3.982      8.532
REMARK INTER + INTRA:          -8.278
REMARK INTER:                  -7.950
REMARK INTRA:                  -0.328
REMARK UNBOUND:                -0.063
REMARK SMILES O=c1c(O)c(-c2ccc(O)c(O)c2)oc2cc(O)cc(O)c12
REMARK SMILES IDX 5 1 3 2 2 3 1 4 22 5 20 6 19 7 17 8 16 9 15 10 14 11 6 12
REMARK SMILES IDX 7 13 8 14 9 15 13 16 11 17 10 18 12 20 4 22 21 24 18 26
REMARK H PARENT 10 19 12 21 4 23 21 25 18 27
REMARK Flexibility Score: inf
ROOT
ATOM      1  C   UNL     1      15.740  22.763 -11.381  1.00  0.00     0.180 A 
ATOM      2  C   UNL     1      16.177  23.439 -12.536  1.00  0.00     0.208 A 
ATOM      3  C   UNL     1      17.555  23.528 -12.789  1.00  0.00     0.238 A 
ATOM      4  O   UNL     1      17.957  24.123 -13.826  1.00  0.00    -0.285 OA
ATOM      5  C   UNL     1      18.468  22.960 -11.878  1.00  0.00     0.111 A 
ATOM      6  C   UNL     1      19.872  23.009 -12.058  1.00  0.00     0.134 A 
ATOM      7  C   UNL     1      20.717  22.427 -11.101  1.00  0.00     0.093 A 
ATOM      8  C   UNL     1      20.188  21.799  -9.971  1.00  0.00     0.123 A 
ATOM      9  C   UNL     1      18.802  21.747  -9.789  1.00  0.00     0.094 A 
ATOM     10  C   UNL     1      17.943  22.320 -10.732  1.00  0.00     0.146 A 
ATOM     11  O   UNL     1      16.632  22.252 -10.537  1.00  0.00    -0.452 OA
ENDROOT
BRANCH   1  12
ATOM     12  C   UNL     1      14.303  22.611 -11.055  1.00  0.00     0.025 A 
ATOM     13  C   UNL     1      13.707  23.488 -10.135  1.00  0.00     0.016 A 
ATOM     14  C   UNL     1      12.358  23.350  -9.796  1.00  0.00     0.051 A 
ATOM     15  C   UNL     1      11.591  22.323 -10.360  1.00  0.00     0.157 A 
ATOM     16  C   UNL     1      13.534  21.567 -11.602  1.00  0.00     0.062 A 
ATOM     17  C   UNL     1      12.181  21.428 -11.261  1.00  0.00     0.158 A 
BRANCH  15  18
ATOM     18  O   UNL     1      10.245  22.182 -10.026  1.00  0.00    -0.504 OA
ATOM     19  H   UNL     1       9.637  21.552 -10.534  1.00  0.00     0.293 HD
ENDBRANCH  15  18
BRANCH  17  20
ATOM     20  O   UNL     1      11.418  20.397 -11.809  1.00  0.00    -0.504 OA
ATOM     21  H   UNL     1      11.767  19.447 -11.858  1.00  0.00     0.293 HD
ENDBRANCH  17  20
ENDBRANCH   1  12
BRANCH   2  22
ATOM     22  O   UNL     1      15.252  24.037 -13.396  1.00  0.00    -0.502 OA
ATOM     23  H   UNL     1      14.881  24.965 -13.233  1.00  0.00     0.293 HD
ENDBRANCH   2  22
BRANCH   6  24
ATOM     24  O   UNL     1      20.433  23.630 -13.175  1.00  0.00    -0.507 OA
ATOM     25  H   UNL     1      20.239  24.598 -13.402  1.00  0.00     0.293 HD
ENDBRANCH   6  24
BRANCH   8  26
ATOM     26  O   UNL     1      21.048  21.230  -9.036  1.00  0.00    -0.508 OA
ATOM     27  H   UNL     1      21.065  21.542  -8.072  1.00  0.00     0.293 HD
ENDBRANCH   8  26
TORSDOF 6
ENDMDL
MODEL 8
REMARK VINA RESULT:    -6.714      2.114      6.936
REMARK INTER + INTRA:          -8.151
REMARK INTER:                  -7.820
REMARK INTRA:                  -0.332
REMARK UNBOUND:                -0.063
REMARK SMILES O=c1c(O)c(-c2ccc(O)c(O)c2)oc2cc(O)cc(O)c12
REMARK SMILES IDX 5 1 3 2 2 3 1 4 22 5 20 6 19 7 17 8 16 9 15 10 14 11 6 12
REMARK SMILES IDX 7 13 8 14 9 15 13 16 11 17 10 18 12 20 4 22 21 24 18 26
REMARK H PARENT 10 19 12 21 4 23 21 25 18 27
REMARK Flexibility Score: inf
ROOT
ATOM      1  C   UNL     1      10.200  19.278  -8.902  1.00  0.00     0.180 A 
ATOM      2  C   UNL     1      10.474  19.266 -10.283  1.00  0.00     0.208 A 
ATOM      3  C   UNL     1      11.548  20.028 -10.768  1.00  0.00     0.238 A 
ATOM      4  O   UNL     1      11.809  20.017 -12.002  1.00  0.00    -0.285 OA
ATOM      5  C   UNL     1      12.314  20.801  -9.873  1.00  0.00     0.111 A 
ATOM      6  C   UNL     1      13.411  21.599 -10.281  1.00  0.00     0.134 A 
ATOM      7  C   UNL     1      14.119  22.349  -9.329  1.00  0.00     0.093 A 
ATOM      8  C   UNL     1      13.754  22.315  -7.982  1.00  0.00     0.123 A 
ATOM      9  C   UNL     1      12.672  21.528  -7.572  1.00  0.00     0.094 A 
ATOM     10  C   UNL     1      11.955  20.774  -8.505  1.00  0.00     0.146 A 
ATOM     11  O   UNL     1      10.936  20.031  -8.089  1.00  0.00    -0.452 OA
ENDROOT
BRANCH   1  12
ATOM     12  C   UNL     1       9.097  18.486  -8.312  1.00  0.00     0.025 A 
ATOM     13  C   UNL     1       7.858  19.102  -8.068  1.00  0.00     0.016 A 
ATOM     14  C   UNL     1       6.810  18.379  -7.492  1.00  0.00     0.051 A 
ATOM     15  C   UNL     1       6.989  17.037  -7.138  1.00  0.00     0.157 A 
ATOM     16  C   UNL     1       9.279  17.143  -7.934  1.00  0.00     0.062 A 
ATOM     17  C   UNL     1       8.227  16.419  -7.355  1.00  0.00     0.158 A 
BRANCH  15  18
ATOM     18  O   UNL     1       5.945  16.312  -6.565  1.00  0.00    -0.504 OA
ATOM     19  H   UNL     1       5.095  16.765  -6.251  1.00  0.00     0.293 HD
ENDBRANCH  15  18
BRANCH  17  20
ATOM     20  O   UNL     1       8.407  15.086  -6.987  1.00  0.00    -0.504 OA
ATOM     21  H   UNL     1       8.021  14.715  -6.127  1.00  0.00     0.293 HD
ENDBRANCH  17  20
ENDBRANCH   1  12
BRANCH   2  22
ATOM     22  O   UNL     1       9.668  18.530 -11.156  1.00  0.00    -0.502 OA
ATOM     23  H   UNL     1       9.290  17.623 -10.911  1.00  0.00     0.293 HD
ENDBRANCH   2  22
BRANCH   6  24
ATOM     24  O   UNL     1      13.800  21.654 -11.620  1.00  0.00    -0.507 OA
ATOM     25  H   UNL     1      13.612  20.895 -12.263  1.00  0.00     0.293 HD
ENDBRANCH   6  24
BRANCH   8  26
ATOM     26  O   UNL     1      14.472  23.069  -7.057  1.00  0.00    -0.508 OA
ATOM     27  H   UNL     1      14.156  23.984  -6.758  1.00  0.00     0.293 HD
ENDBRANCH   8  26
TORSDOF 6
ENDMDL
MODEL 9
REMARK VINA RESULT:    -6.590      3.480      6.478
REMARK INTER + INTRA:          -8.002
REMARK INTER:                  -7.726
REMARK INTRA:                  -0.275
REMARK UNBOUND:                -0.063
REMARK SMILES O=c1c(O)c(-c2ccc(O)c(O)c2)oc2cc(O)cc(O)c12
REMARK SMILES IDX 5 1 3 2 2 3 1 4 22 5 20 6 19 7 17 8 16 9 15 10 14 11 6 12
REMARK SMILES IDX 7 13 8 14 9 15 13 16 11 17 10 18 12 20 4 22 21 24 18 26
REMARK H PARENT 10 19 12 21 4 23 21 25 18 27
REMARK Flexibility Score: inf
ROOT
ATOM      1  C   UNL     1      13.107  20.871  -9.320  1.00  0.00     0.180 A 
ATOM      2  C   UNL     1      13.681  21.970  -9.986  1.00  0.00     0.208 A 
ATOM      3  C   UNL     1      15.016  22.307  -9.712  1.00  0.00     0.238 A 
ATOM      4  O   UNL     1      15.544  23.284 -10.311  1.00  0.00    -0.285 OA
ATOM      5  C   UNL     1      15.744  21.556  -8.768  1.00  0.00     0.111 A 
ATOM      6  C   UNL     1      17.093  21.832  -8.433  1.00  0.00     0.134 A 
ATOM      7  C   UNL     1      17.748  21.043  -7.476  1.00  0.00     0.093 A 
ATOM      8  C   UNL     1      17.083  19.987  -6.849  1.00  0.00     0.123 A 
ATOM      9  C   UNL     1      15.752  19.709  -7.175  1.00  0.00     0.094 A 
ATOM     10  C   UNL     1      15.083  20.482  -8.128  1.00  0.00     0.146 A 
ATOM     11  O   UNL     1      13.821  20.194  -8.424  1.00  0.00    -0.452 OA
ENDROOT
BRANCH   1  12
ATOM     12  C   UNL     1      11.711  20.442  -9.567  1.00  0.00     0.025 A 
ATOM     13  C   UNL     1      10.655  21.150  -8.972  1.00  0.00     0.016 A 
ATOM     14  C   UNL     1       9.331  20.750  -9.175  1.00  0.00     0.051 A 
ATOM     15  C   UNL     1       9.046  19.627  -9.963  1.00  0.00     0.157 A 
ATOM     16  C   UNL     1      11.422  19.302 -10.340  1.00  0.00     0.062 A 
ATOM     17  C   UNL     1      10.093  18.900 -10.542  1.00  0.00     0.158 A 
BRANCH  15  18
ATOM     18  O   UNL     1       7.727  19.226 -10.170  1.00  0.00    -0.504 OA
ATOM     19  H   UNL     1       7.399  18.314  -9.875  1.00  0.00     0.293 HD
ENDBRANCH  15  18
BRANCH  17  20
ATOM     20  O   UNL     1       9.807  17.774 -11.314  1.00  0.00    -0.504 OA
ATOM     21  H   UNL     1       8.871  17.587 -11.654  1.00  0.00     0.293 HD
ENDBRANCH  17  20
ENDBRANCH   1  12
BRANCH   2  22
ATOM     22  O   UNL     1      12.921  22.729 -10.880  1.00  0.00    -0.502 OA
ATOM     23  H   UNL     1      12.796  22.462 -11.849  1.00  0.00     0.293 HD
ENDBRANCH   2  22
BRANCH   6  24
ATOM     24  O   UNL     1      17.784  22.881  -9.041  1.00  0.00    -0.507 OA
ATOM     25  H   UNL     1      17.360  23.454  -9.761  1.00  0.00     0.293 HD
ENDBRANCH   6  24
BRANCH   8  26
ATOM     26  O   UNL     1      17.756  19.219  -5.901  1.00  0.00    -0.508 OA
ATOM     27  H   UNL     1      18.479  18.561  -6.167  1.00  0.00     0.293 HD
ENDBRANCH   8  26
TORSDOF 6
ENDMDL
