MODEL 1
REMARK VINA RESULT:    -3.565      0.000      0.000
REMARK INTER + INTRA:          -7.933
REMARK INTER:                  -6.066
REMARK INTRA:                  -1.867
REMARK UNBOUND:                -1.867
REMARK SMILES CCCCCCCCCCCCCC(=O)[O-]
REMARK SMILES IDX 8 1 9 2 10 3 11 4 12 5 13 6 14 7 15 8 16 9 7 10 6 11 5 12
REMARK SMILES IDX 4 13 3 14 2 15 1 16
REMARK H PARENT
REMARK Flexibility Score: inf
ROOT
ATOM      1  C   UNL     1      25.111 -15.495   5.044  1.00  0.00     0.000 C 
ENDROOT
BRANCH   1   2
ATOM      2  C   UNL     1      24.286 -16.785   5.193  1.00  0.00     0.000 C 
BRANCH   2   3
ATOM      3  C   UNL     1      23.092 -16.614   6.146  1.00  0.00     0.000 C 
BRANCH   3   4
ATOM      4  C   UNL     1      21.874 -15.973   5.456  1.00  0.00     0.000 C 
BRANCH   4   5
ATOM      5  C   UNL     1      21.650 -14.516   5.890  1.00  0.00     0.006 C 
BRANCH   5   6
ATOM      6  C   UNL     1      22.533 -14.112   7.077  1.00  0.00     0.053 C 
BRANCH   6   7
ATOM      7  C   UNL     1      21.713 -14.000   8.323  1.00  0.00     0.041 C 
ATOM      8  O   UNL     1      21.575 -14.995   9.081  1.00  0.00    -0.550 OA
ATOM      9  O   UNL     1      21.061 -12.811   8.622  1.00  0.00    -0.550 OA
ENDBRANCH   6   7
ENDBRANCH   5   6
ENDBRANCH   4   5
ENDBRANCH   3   4
ENDBRANCH   2   3
ENDBRANCH   1   2
BRANCH   1  10
ATOM     10  C   UNL     1      25.214 -15.028   3.584  1.00  0.00     0.000 C 
BRANCH  10  11
ATOM     11  C   UNL     1      24.318 -13.811   3.290  1.00  0.00    -0.000 C 
BRANCH  11  12
ATOM     12  C   UNL     1      24.250 -13.475   1.792  1.00  0.00    -0.000 C 
BRANCH  12  13
ATOM     13  C   UNL     1      22.815 -13.505   1.244  1.00  0.00    -0.000 C 
BRANCH  13  14
ATOM     14  C   UNL     1      21.867 -14.199   2.227  1.00  0.00    -0.000 C 
BRANCH  14  15
ATOM     15  C   UNL     1      21.340 -15.516   1.647  1.00  0.00    -0.003 C 
ATOM     16  C   UNL     1      22.353 -16.643   1.828  1.00  0.00     0.004 C 
ENDBRANCH  14  15
ENDBRANCH  13  14
ENDBRANCH  12  13
ENDBRANCH  11  12
ENDBRANCH  10  11
ENDBRANCH   1  10
TORSDOF 12
ENDMDL
MODEL 2
REMARK VINA RESULT:    -3.526      1.183      3.117
REMARK INTER + INTRA:          -7.866
REMARK INTER:                  -6.349
REMARK INTRA:                  -1.517
REMARK UNBOUND:                -1.867
REMARK SMILES CCCCCCCCCCCCCC(=O)[O-]
REMARK SMILES IDX 8 1 9 2 10 3 11 4 12 5 13 6 14 7 15 8 16 9 7 10 6 11 5 12
REMARK SMILES IDX 4 13 3 14 2 15 1 16
REMARK H PARENT
REMARK Flexibility Score: inf
ROOT
ATOM      1  C   UNL     1      21.840 -14.278   2.642  1.00  0.00     0.000 C 
ENDROOT
BRANCH   1   2
ATOM      2  C   UNL     1      21.879 -15.816   2.634  1.00  0.00     0.000 C 
BRANCH   2   3
ATOM      3  C   UNL     1      22.347 -16.400   3.976  1.00  0.00     0.000 C 
BRANCH   3   4
ATOM      4  C   UNL     1      21.404 -16.042   5.138  1.00  0.00     0.000 C 
BRANCH   4   5
ATOM      5  C   UNL     1      22.158 -15.540   6.378  1.00  0.00     0.006 C 
BRANCH   5   6
ATOM      6  C   UNL     1      21.792 -14.096   6.747  1.00  0.00     0.053 C 
BRANCH   6   7
ATOM      7  C   UNL     1      21.576 -13.974   8.222  1.00  0.00     0.041 C 
ATOM      8  O   UNL     1      21.690 -14.984   8.965  1.00  0.00    -0.550 OA
ATOM      9  O   UNL     1      21.202 -12.754   8.772  1.00  0.00    -0.550 OA
ENDBRANCH   6   7
ENDBRANCH   5   6
ENDBRANCH   4   5
ENDBRANCH   3   4
ENDBRANCH   2   3
ENDBRANCH   1   2
BRANCH   1  10
ATOM     10  C   UNL     1      21.816 -13.681   1.226  1.00  0.00     0.000 C 
BRANCH  10  11
ATOM     11  C   UNL     1      23.085 -12.871   0.906  1.00  0.00    -0.000 C 
BRANCH  11  12
ATOM     12  C   UNL     1      23.863 -12.468   2.169  1.00  0.00    -0.000 C 
BRANCH  12  13
ATOM     13  C   UNL     1      25.297 -13.018   2.181  1.00  0.00    -0.000 C 
BRANCH  13  14
ATOM     14  C   UNL     1      25.531 -13.911   3.404  1.00  0.00    -0.000 C 
BRANCH  14  15
ATOM     15  C   UNL     1      24.732 -13.409   4.613  1.00  0.00    -0.003 C 
ATOM     16  C   UNL     1      25.588 -12.517   5.508  1.00  0.00     0.004 C 
ENDBRANCH  14  15
ENDBRANCH  13  14
ENDBRANCH  12  13
ENDBRANCH  11  12
ENDBRANCH  10  11
ENDBRANCH   1  10
TORSDOF 12
ENDMDL
MODEL 3
REMARK VINA RESULT:    -3.490      1.111      2.649
REMARK INTER + INTRA:          -7.805
REMARK INTER:                  -6.252
REMARK INTRA:                  -1.553
REMARK UNBOUND:                -1.867
REMARK SMILES CCCCCCCCCCCCCC(=O)[O-]
REMARK SMILES IDX 8 1 9 2 10 3 11 4 12 5 13 6 14 7 15 8 16 9 7 10 6 11 5 12
REMARK SMILES IDX 4 13 3 14 2 15 1 16
REMARK H PARENT
REMARK Flexibility Score: inf
ROOT
ATOM      1  C   UNL     1      21.835 -15.669   2.957  1.00  0.00     0.000 C 
ENDROOT
BRANCH   1   2
ATOM      2  C   UNL     1      23.041 -16.286   3.685  1.00  0.00     0.000 C 
BRANCH   2   3
ATOM      3  C   UNL     1      22.955 -16.124   5.211  1.00  0.00     0.000 C 
BRANCH   3   4
ATOM      4  C   UNL     1      21.615 -16.621   5.782  1.00  0.00     0.000 C 
BRANCH   4   5
ATOM      5  C   UNL     1      20.822 -15.507   6.483  1.00  0.00     0.006 C 
BRANCH   5   6
ATOM      6  C   UNL     1      21.636 -14.216   6.642  1.00  0.00     0.053 C 
BRANCH   6   7
ATOM      7  C   UNL     1      21.723 -13.829   8.084  1.00  0.00     0.041 C 
ATOM      8  O   UNL     1      21.528 -14.688   8.983  1.00  0.00    -0.550 OA
ATOM      9  O   UNL     1      21.973 -12.509   8.436  1.00  0.00    -0.550 OA
ENDBRANCH   6   7
ENDBRANCH   5   6
ENDBRANCH   4   5
ENDBRANCH   3   4
ENDBRANCH   2   3
ENDBRANCH   1   2
BRANCH   1  10
ATOM     10  C   UNL     1      22.187 -15.179   1.544  1.00  0.00     0.000 C 
BRANCH  10  11
ATOM     11  C   UNL     1      21.844 -13.693   1.333  1.00  0.00    -0.000 C 
BRANCH  11  12
ATOM     12  C   UNL     1      23.056 -12.866   0.875  1.00  0.00    -0.000 C 
BRANCH  12  13
ATOM     13  C   UNL     1      24.325 -13.179   1.682  1.00  0.00    -0.000 C 
BRANCH  13  14
ATOM     14  C   UNL     1      24.361 -12.368   2.982  1.00  0.00    -0.000 C 
BRANCH  14  15
ATOM     15  C   UNL     1      24.982 -13.184   4.123  1.00  0.00    -0.003 C 
ATOM     16  C   UNL     1      26.092 -14.095   3.609  1.00  0.00     0.004 C 
ENDBRANCH  14  15
ENDBRANCH  13  14
ENDBRANCH  12  13
ENDBRANCH  11  12
ENDBRANCH  10  11
ENDBRANCH   1  10
TORSDOF 12
ENDMDL
MODEL 4
REMARK VINA RESULT:    -3.440      2.742      4.214
REMARK INTER + INTRA:          -7.721
REMARK INTER:                  -6.105
REMARK INTRA:                  -1.616
REMARK UNBOUND:                -1.867
REMARK SMILES CCCCCCCCCCCCCC(=O)[O-]
REMARK SMILES IDX 8 1 9 2 10 3 11 4 12 5 13 6 14 7 15 8 16 9 7 10 6 11 5 12
REMARK SMILES IDX 4 13 3 14 2 15 1 16
REMARK H PARENT
REMARK Flexibility Score: inf
ROOT
ATOM      1  C   UNL     1      24.002 -13.027   2.919  1.00  0.00     0.000 C 
ENDROOT
BRANCH   1   2
ATOM      2  C   UNL     1      25.283 -13.826   3.220  1.00  0.00     0.000 C 
BRANCH   2   3
ATOM      3  C   UNL     1      25.808 -13.582   4.643  1.00  0.00     0.000 C 
BRANCH   3   4
ATOM      4  C   UNL     1      25.228 -12.305   5.276  1.00  0.00     0.000 C 
BRANCH   4   5
ATOM      5  C   UNL     1      25.768 -12.050   6.692  1.00  0.00     0.006 C 
BRANCH   5   6
ATOM      6  C   UNL     1      24.682 -11.559   7.657  1.00  0.00     0.053 C 
BRANCH   6   7
ATOM      7  C   UNL     1      24.822 -10.088   7.894  1.00  0.00     0.041 C 
ATOM      8  O   UNL     1      25.921  -9.513   7.680  1.00  0.00    -0.550 OA
ATOM      9  O   UNL     1      23.751  -9.360   8.396  1.00  0.00    -0.550 OA
ENDBRANCH   6   7
ENDBRANCH   5   6
ENDBRANCH   4   5
ENDBRANCH   3   4
ENDBRANCH   2   3
ENDBRANCH   1   2
BRANCH   1  10
ATOM     10  C   UNL     1      23.298 -13.502   1.639  1.00  0.00     0.000 C 
BRANCH  10  11
ATOM     11  C   UNL     1      21.824 -13.874   1.880  1.00  0.00    -0.000 C 
BRANCH  11  12
ATOM     12  C   UNL     1      21.563 -15.382   1.729  1.00  0.00    -0.000 C 
BRANCH  12  13
ATOM     13  C   UNL     1      22.185 -16.207   2.867  1.00  0.00    -0.000 C 
BRANCH  13  14
ATOM     14  C   UNL     1      21.560 -15.837   4.217  1.00  0.00    -0.000 C 
BRANCH  14  15
ATOM     15  C   UNL     1      22.643 -15.557   5.265  1.00  0.00    -0.003 C 
ATOM     16  C   UNL     1      22.246 -14.395   6.172  1.00  0.00     0.004 C 
ENDBRANCH  14  15
ENDBRANCH  13  14
ENDBRANCH  12  13
ENDBRANCH  11  12
ENDBRANCH  10  11
ENDBRANCH   1  10
TORSDOF 12
ENDMDL
MODEL 5
REMARK VINA RESULT:    -3.426      2.163      4.896
REMARK INTER + INTRA:          -7.697
REMARK INTER:                  -6.453
REMARK INTRA:                  -1.244
REMARK UNBOUND:                -1.867
REMARK SMILES CCCCCCCCCCCCCC(=O)[O-]
REMARK SMILES IDX 8 1 9 2 10 3 11 4 12 5 13 6 14 7 15 8 16 9 7 10 6 11 5 12
REMARK SMILES IDX 4 13 3 14 2 15 1 16
REMARK H PARENT
REMARK Flexibility Score: inf
ROOT
ATOM      1  C   UNL     1      21.799 -13.831   1.156  1.00  0.00     0.000 C 
ENDROOT
BRANCH   1   2
ATOM      2  C   UNL     1      22.970 -12.842   1.010  1.00  0.00     0.000 C 
BRANCH   2   3
ATOM      3  C   UNL     1      24.213 -13.282   1.799  1.00  0.00     0.000 C 
BRANCH   3   4
ATOM      4  C   UNL     1      24.410 -12.469   3.091  1.00  0.00     0.000 C 
BRANCH   4   5
ATOM      5  C   UNL     1      25.307 -13.188   4.110  1.00  0.00     0.006 C 
BRANCH   5   6
ATOM      6  C   UNL     1      24.622 -13.375   5.470  1.00  0.00     0.053 C 
BRANCH   6   7
ATOM      7  C   UNL     1      25.167 -12.401   6.466  1.00  0.00     0.041 C 
ATOM      8  O   UNL     1      26.287 -11.859   6.275  1.00  0.00    -0.550 OA
ATOM      9  O   UNL     1      24.459 -12.128   7.630  1.00  0.00    -0.550 OA
ENDBRANCH   6   7
ENDBRANCH   5   6
ENDBRANCH   4   5
ENDBRANCH   3   4
ENDBRANCH   2   3
ENDBRANCH   1   2
BRANCH   1  10
ATOM     10  C   UNL     1      22.266 -15.246   1.528  1.00  0.00     0.000 C 
BRANCH  10  11
ATOM     11  C   UNL     1      21.461 -15.844   2.696  1.00  0.00    -0.000 C 
BRANCH  11  12
ATOM     12  C   UNL     1      21.925 -15.317   4.063  1.00  0.00    -0.000 C 
BRANCH  12  13
ATOM     13  C   UNL     1      21.315 -16.100   5.237  1.00  0.00    -0.000 C 
BRANCH  13  14
ATOM     14  C   UNL     1      22.007 -15.737   6.555  1.00  0.00    -0.000 C 
BRANCH  14  15
ATOM     15  C   UNL     1      21.572 -14.349   7.041  1.00  0.00    -0.003 C 
ATOM     16  C   UNL     1      21.500 -14.295   8.565  1.00  0.00     0.004 C 
ENDBRANCH  14  15
ENDBRANCH  13  14
ENDBRANCH  12  13
ENDBRANCH  11  12
ENDBRANCH  10  11
ENDBRANCH   1  10
TORSDOF 12
ENDMDL
MODEL 6
REMARK VINA RESULT:    -3.420      2.364      4.513
REMARK INTER + INTRA:          -7.687
REMARK INTER:                  -6.205
REMARK INTRA:                  -1.482
REMARK UNBOUND:                -1.867
REMARK SMILES CCCCCCCCCCCCCC(=O)[O-]
REMARK SMILES IDX 8 1 9 2 10 3 11 4 12 5 13 6 14 7 15 8 16 9 7 10 6 11 5 12
REMARK SMILES IDX 4 13 3 14 2 15 1 16
REMARK H PARENT
REMARK Flexibility Score: inf
ROOT
ATOM      1  C   UNL     1      22.987 -13.125   1.232  1.00  0.00     0.000 C 
ENDROOT
BRANCH   1   2
ATOM      2  C   UNL     1      24.097 -12.631   2.177  1.00  0.00     0.000 C 
BRANCH   2   3
ATOM      3  C   UNL     1      25.146 -13.715   2.470  1.00  0.00     0.000 C 
BRANCH   3   4
ATOM      4  C   UNL     1      25.280 -14.015   3.974  1.00  0.00     0.000 C 
BRANCH   4   5
ATOM      5  C   UNL     1      24.883 -12.818   4.852  1.00  0.00     0.006 C 
BRANCH   5   6
ATOM      6  C   UNL     1      26.073 -12.233   5.624  1.00  0.00     0.053 C 
BRANCH   6   7
ATOM      7  C   UNL     1      25.604 -11.570   6.880  1.00  0.00     0.041 C 
ATOM      8  O   UNL     1      24.756 -12.138   7.618  1.00  0.00    -0.550 OA
ATOM      9  O   UNL     1      26.066 -10.303   7.212  1.00  0.00    -0.550 OA
ENDBRANCH   6   7
ENDBRANCH   5   6
ENDBRANCH   4   5
ENDBRANCH   3   4
ENDBRANCH   2   3
ENDBRANCH   1   2
BRANCH   1  10
ATOM     10  C   UNL     1      21.868 -13.870   1.976  1.00  0.00     0.000 C 
BRANCH  10  11
ATOM     11  C   UNL     1      21.855 -15.377   1.663  1.00  0.00    -0.000 C 
BRANCH  11  12
ATOM     12  C   UNL     1      21.963 -16.245   2.927  1.00  0.00    -0.000 C 
BRANCH  12  13
ATOM     13  C   UNL     1      21.846 -15.423   4.220  1.00  0.00    -0.000 C 
BRANCH  13  14
ATOM     14  C   UNL     1      21.117 -16.217   5.310  1.00  0.00    -0.000 C 
BRANCH  14  15
ATOM     15  C   UNL     1      21.091 -15.440   6.631  1.00  0.00    -0.003 C 
ATOM     16  C   UNL     1      21.849 -14.122   6.512  1.00  0.00     0.004 C 
ENDBRANCH  14  15
ENDBRANCH  13  14
ENDBRANCH  12  13
ENDBRANCH  11  12
ENDBRANCH  10  11
ENDBRANCH   1  10
TORSDOF 12
ENDMDL
MODEL 7
REMARK VINA RESULT:    -3.408      1.100      2.753
REMARK INTER + INTRA:          -7.666
REMARK INTER:                  -5.952
REMARK INTRA:                  -1.714
REMARK UNBOUND:                -1.867
REMARK SMILES CCCCCCCCCCCCCC(=O)[O-]
REMARK SMILES IDX 8 1 9 2 10 3 11 4 12 5 13 6 14 7 15 8 16 9 7 10 6 11 5 12
REMARK SMILES IDX 4 13 3 14 2 15 1 16
REMARK H PARENT
REMARK Flexibility Score: inf
ROOT
ATOM      1  C   UNL     1      24.229 -17.070   3.066  1.00  0.00     0.000 C 
ENDROOT
BRANCH   1   2
ATOM      2  C   UNL     1      23.914 -16.846   4.556  1.00  0.00     0.000 C 
BRANCH   2   3
ATOM      3  C   UNL     1      24.384 -15.472   5.058  1.00  0.00     0.000 C 
BRANCH   3   4
ATOM      4  C   UNL     1      23.295 -14.731   5.853  1.00  0.00     0.000 C 
BRANCH   4   5
ATOM      5  C   UNL     1      22.041 -15.589   6.079  1.00  0.00     0.006 C 
BRANCH   5   6
ATOM      6  C   UNL     1      20.965 -14.858   6.892  1.00  0.00     0.053 C 
BRANCH   6   7
ATOM      7  C   UNL     1      21.463 -14.568   8.273  1.00  0.00     0.041 C 
ATOM      8  O   UNL     1      21.632 -13.379   8.648  1.00  0.00    -0.550 OA
ATOM      9  O   UNL     1      21.785 -15.613   9.130  1.00  0.00    -0.550 OA
ENDBRANCH   6   7
ENDBRANCH   5   6
ENDBRANCH   4   5
ENDBRANCH   3   4
ENDBRANCH   2   3
ENDBRANCH   1   2
BRANCH   1  10
ATOM     10  C   UNL     1      22.972 -17.382   2.240  1.00  0.00     0.000 C 
BRANCH  10  11
ATOM     11  C   UNL     1      21.769 -16.510   2.643  1.00  0.00    -0.000 C 
BRANCH  11  12
ATOM     12  C   UNL     1      21.561 -15.316   1.696  1.00  0.00    -0.000 C 
BRANCH  12  13
ATOM     13  C   UNL     1      21.963 -13.978   2.335  1.00  0.00    -0.000 C 
BRANCH  13  14
ATOM     14  C   UNL     1      23.052 -13.282   1.511  1.00  0.00    -0.000 C 
BRANCH  14  15
ATOM     15  C   UNL     1      24.287 -12.988   2.370  1.00  0.00    -0.003 C 
ATOM     16  C   UNL     1      24.502 -11.485   2.532  1.00  0.00     0.004 C 
ENDBRANCH  14  15
ENDBRANCH  13  14
ENDBRANCH  12  13
ENDBRANCH  11  12
ENDBRANCH  10  11
ENDBRANCH   1  10
TORSDOF 12
ENDMDL
MODEL 8
REMARK VINA RESULT:    -3.398      2.076      3.717
REMARK INTER + INTRA:          -7.649
REMARK INTER:                  -6.827
REMARK INTRA:                  -0.821
REMARK UNBOUND:                -1.867
REMARK SMILES CCCCCCCCCCCCCC(=O)[O-]
REMARK SMILES IDX 8 1 9 2 10 3 11 4 12 5 13 6 14 7 15 8 16 9 7 10 6 11 5 12
REMARK SMILES IDX 4 13 3 14 2 15 1 16
REMARK H PARENT
REMARK Flexibility Score: inf
ROOT
ATOM      1  C   UNL     1      21.790 -15.340   1.874  1.00  0.00     0.000 C 
ENDROOT
BRANCH   1   2
ATOM      2  C   UNL     1      22.336 -16.032   3.135  1.00  0.00     0.000 C 
BRANCH   2   3
ATOM      3  C   UNL     1      22.105 -15.204   4.409  1.00  0.00     0.000 C 
BRANCH   3   4
ATOM      4  C   UNL     1      21.223 -15.935   5.437  1.00  0.00     0.000 C 
BRANCH   4   5
ATOM      5  C   UNL     1      21.758 -15.806   6.871  1.00  0.00     0.006 C 
BRANCH   5   6
ATOM      6  C   UNL     1      20.955 -14.804   7.712  1.00  0.00     0.053 C 
BRANCH   6   7
ATOM      7  C   UNL     1      21.738 -13.545   7.911  1.00  0.00     0.041 C 
ATOM      8  O   UNL     1      22.892 -13.433   7.422  1.00  0.00    -0.550 OA
ATOM      9  O   UNL     1      21.212 -12.513   8.678  1.00  0.00    -0.550 OA
ENDBRANCH   6   7
ENDBRANCH   5   6
ENDBRANCH   4   5
ENDBRANCH   3   4
ENDBRANCH   2   3
ENDBRANCH   1   2
BRANCH   1  10
ATOM     10  C   UNL     1      21.790 -13.809   1.996  1.00  0.00     0.000 C 
BRANCH  10  11
ATOM     11  C   UNL     1      22.827 -13.145   1.073  1.00  0.00    -0.000 C 
BRANCH  11  12
ATOM     12  C   UNL     1      24.193 -12.963   1.753  1.00  0.00    -0.000 C 
BRANCH  12  13
ATOM     13  C   UNL     1      24.439 -11.517   2.210  1.00  0.00    -0.000 C 
BRANCH  13  14
ATOM     14  C   UNL     1      24.056 -10.522   1.110  1.00  0.00    -0.000 C 
BRANCH  14  15
ATOM     15  C   UNL     1      24.527  -9.105   1.461  1.00  0.00    -0.003 C 
ATOM     16  C   UNL     1      25.947  -9.117   2.018  1.00  0.00     0.004 C 
ENDBRANCH  14  15
ENDBRANCH  13  14
ENDBRANCH  12  13
ENDBRANCH  11  12
ENDBRANCH  10  11
ENDBRANCH   1  10
TORSDOF 12
ENDMDL
MODEL 9
REMARK VINA RESULT:    -3.264      1.280      2.452
REMARK INTER + INTRA:          -7.420
REMARK INTER:                  -5.801
REMARK INTRA:                  -1.619
REMARK UNBOUND:                -1.867
REMARK SMILES CCCCCCCCCCCCCC(=O)[O-]
REMARK SMILES IDX 8 1 9 2 10 3 11 4 12 5 13 6 14 7 15 8 16 9 7 10 6 11 5 12
REMARK SMILES IDX 4 13 3 14 2 15 1 16
REMARK H PARENT
REMARK Flexibility Score: inf
ROOT
ATOM      1  C   UNL     1      25.254 -13.483   2.668  1.00  0.00     0.000 C 
ENDROOT
BRANCH   1   2
ATOM      2  C   UNL     1      25.861 -13.139   4.039  1.00  0.00     0.000 C 
BRANCH   2   3
ATOM      3  C   UNL     1      24.799 -13.042   5.146  1.00  0.00     0.000 C 
BRANCH   3   4
ATOM      4  C   UNL     1      24.270 -14.421   5.579  1.00  0.00     0.000 C 
BRANCH   4   5
ATOM      5  C   UNL     1      22.791 -14.381   5.996  1.00  0.00     0.006 C 
BRANCH   5   6
ATOM      6  C   UNL     1      22.312 -15.710   6.595  1.00  0.00     0.053 C 
BRANCH   6   7
ATOM      7  C   UNL     1      21.823 -15.505   7.993  1.00  0.00     0.041 C 
ATOM      8  O   UNL     1      21.920 -16.430   8.841  1.00  0.00    -0.550 OA
ATOM      9  O   UNL     1      21.215 -14.307   8.349  1.00  0.00    -0.550 OA
ENDBRANCH   6   7
ENDBRANCH   5   6
ENDBRANCH   4   5
ENDBRANCH   3   4
ENDBRANCH   2   3
ENDBRANCH   1   2
BRANCH   1  10
ATOM     10  C   UNL     1      24.033 -12.613   2.330  1.00  0.00     0.000 C 
BRANCH  10  11
ATOM     11  C   UNL     1      23.326 -13.066   1.040  1.00  0.00    -0.000 C 
BRANCH  11  12
ATOM     12  C   UNL     1      21.879 -13.522   1.288  1.00  0.00    -0.000 C 
BRANCH  12  13
ATOM     13  C   UNL     1      21.761 -14.506   2.462  1.00  0.00    -0.000 C 
BRANCH  13  14
ATOM     14  C   UNL     1      21.314 -15.888   1.975  1.00  0.00    -0.000 C 
BRANCH  14  15
ATOM     15  C   UNL     1      22.522 -16.777   1.659  1.00  0.00    -0.003 C 
ATOM     16  C   UNL     1      23.505 -16.808   2.826  1.00  0.00     0.004 C 
ENDBRANCH  14  15
ENDBRANCH  13  14
ENDBRANCH  12  13
ENDBRANCH  11  12
ENDBRANCH  10  11
ENDBRANCH   1  10
TORSDOF 12
ENDMDL
