MODEL 1
REMARK VINA RESULT:    -5.156      0.000      0.000
REMARK INTER + INTRA:         -17.253
REMARK INTER:                 -13.596
REMARK INTRA:                  -3.657
REMARK UNBOUND:                -3.657
REMARK SMILES CCCCCCCCCCCCCCCCCCCCCCCCCCCCCC(=O)[O-]
REMARK SMILES IDX 16 1 17 2 18 3 19 4 20 5 21 6 22 7 23 8 24 9 25 10 26 11
REMARK SMILES IDX 27 12 28 13 29 14 30 15 31 16 32 17 15 18 14 19 13 20 12 21
REMARK SMILES IDX 11 22 10 23 9 24 8 25 7 26 6 27 5 28 4 29 3 30 2 31 1 32
REMARK H PARENT
REMARK Flexibility Score: inf
ROOT
ATOM      1  C   UNL     1      14.985 -24.701  19.563  1.00  0.00     0.000 C 
ENDROOT
BRANCH   1   2
ATOM      2  C   UNL     1      15.063 -25.920  20.499  1.00  0.00     0.000 C 
BRANCH   2   3
ATOM      3  C   UNL     1      15.702 -25.589  21.860  1.00  0.00     0.000 C 
BRANCH   3   4
ATOM      4  C   UNL     1      16.423 -26.794  22.484  1.00  0.00     0.000 C 
BRANCH   4   5
ATOM      5  C   UNL     1      15.516 -28.033  22.586  1.00  0.00     0.000 C 
BRANCH   5   6
ATOM      6  C   UNL     1      16.252 -29.259  23.152  1.00  0.00     0.000 C 
BRANCH   6   7
ATOM      7  C   UNL     1      15.476 -30.570  22.935  1.00  0.00     0.000 C 
BRANCH   7   8
ATOM      8  C   UNL     1      16.366 -31.698  22.392  1.00  0.00     0.000 C 
BRANCH   8   9
ATOM      9  C   UNL     1      17.310 -32.274  23.463  1.00  0.00     0.000 C 
BRANCH   9  10
ATOM     10  C   UNL     1      18.796 -32.087  23.098  1.00  0.00     0.000 C 
BRANCH  10  11
ATOM     11  C   UNL     1      19.541 -31.073  23.990  1.00  0.00     0.000 C 
BRANCH  11  12
ATOM     12  C   UNL     1      18.726 -30.579  25.201  1.00  0.00     0.000 C 
BRANCH  12  13
ATOM     13  C   UNL     1      19.135 -29.164  25.648  1.00  0.00     0.006 C 
BRANCH  13  14
ATOM     14  C   UNL     1      19.288 -28.203  24.463  1.00  0.00     0.053 C 
BRANCH  14  15
ATOM     15  C   UNL     1      19.513 -26.793  24.917  1.00  0.00     0.041 C 
ATOM     16  O   UNL     1      19.720 -26.544  26.133  1.00  0.00    -0.550 OA
ATOM     17  O   UNL     1      19.525 -25.759  23.990  1.00  0.00    -0.550 OA
ENDBRANCH  14  15
ENDBRANCH  13  14
ENDBRANCH  12  13
ENDBRANCH  11  12
ENDBRANCH  10  11
ENDBRANCH   9  10
ENDBRANCH   8   9
ENDBRANCH   7   8
ENDBRANCH   6   7
ENDBRANCH   5   6
ENDBRANCH   4   5
ENDBRANCH   3   4
ENDBRANCH   2   3
ENDBRANCH   1   2
BRANCH   1  18
ATOM     18  C   UNL     1      14.751 -23.353  20.274  1.00  0.00     0.000 C 
BRANCH  18  19
ATOM     19  C   UNL     1      13.390 -22.690  19.985  1.00  0.00     0.000 C 
BRANCH  19  20
ATOM     20  C   UNL     1      12.397 -22.698  21.166  1.00  0.00     0.000 C 
BRANCH  20  21
ATOM     21  C   UNL     1      12.117 -24.083  21.776  1.00  0.00     0.000 C 
BRANCH  21  22
ATOM     22  C   UNL     1      11.027 -24.860  21.018  1.00  0.00     0.000 C 
BRANCH  22  23
ATOM     23  C   UNL     1       9.967 -25.472  21.953  1.00  0.00     0.000 C 
BRANCH  23  24
ATOM     24  C   UNL     1       9.215 -24.463  22.844  1.00  0.00    -0.000 C 
BRANCH  24  25
ATOM     25  C   UNL     1       9.372 -24.685  24.361  1.00  0.00    -0.000 C 
BRANCH  25  26
ATOM     26  C   UNL     1       9.781 -23.434  25.163  1.00  0.00    -0.000 C 
BRANCH  26  27
ATOM     27  C   UNL     1      10.553 -23.717  26.468  1.00  0.00    -0.000 C 
BRANCH  27  28
ATOM     28  C   UNL     1      11.941 -23.056  26.559  1.00  0.00    -0.000 C 
BRANCH  28  29
ATOM     29  C   UNL     1      12.753 -23.067  25.250  1.00  0.00    -0.000 C 
BRANCH  29  30
ATOM     30  C   UNL     1      12.761 -21.711  24.512  1.00  0.00    -0.000 C 
BRANCH  30  31
ATOM     31  C   UNL     1      14.161 -21.313  24.021  1.00  0.00    -0.003 C 
ATOM     32  C   UNL     1      15.062 -22.536  23.876  1.00  0.00     0.004 C 
ENDBRANCH  30  31
ENDBRANCH  29  30
ENDBRANCH  28  29
ENDBRANCH  27  28
ENDBRANCH  26  27
ENDBRANCH  25  26
ENDBRANCH  24  25
ENDBRANCH  23  24
ENDBRANCH  22  23
ENDBRANCH  21  22
ENDBRANCH  20  21
ENDBRANCH  19  20
ENDBRANCH  18  19
ENDBRANCH   1  18
TORSDOF 28
ENDMDL
MODEL 2
REMARK VINA RESULT:    -5.111      1.209      2.678
REMARK INTER + INTRA:         -17.135
REMARK INTER:                 -13.259
REMARK INTRA:                  -3.876
REMARK UNBOUND:                -3.657
REMARK SMILES CCCCCCCCCCCCCCCCCCCCCCCCCCCCCC(=O)[O-]
REMARK SMILES IDX 16 1 17 2 18 3 19 4 20 5 21 6 22 7 23 8 24 9 25 10 26 11
REMARK SMILES IDX 27 12 28 13 29 14 30 15 31 16 32 17 15 18 14 19 13 20 12 21
REMARK SMILES IDX 11 22 10 23 9 24 8 25 7 26 6 27 5 28 4 29 3 30 2 31 1 32
REMARK H PARENT
REMARK Flexibility Score: inf
ROOT
ATOM      1  C   UNL     1      16.533 -26.368  22.314  1.00  0.00     0.000 C 
ENDROOT
BRANCH   1   2
ATOM      2  C   UNL     1      16.114 -27.835  22.518  1.00  0.00     0.000 C 
BRANCH   2   3
ATOM      3  C   UNL     1      16.047 -28.235  24.003  1.00  0.00     0.000 C 
BRANCH   3   4
ATOM      4  C   UNL     1      15.378 -29.603  24.217  1.00  0.00     0.000 C 
BRANCH   4   5
ATOM      5  C   UNL     1      15.544 -30.534  23.004  1.00  0.00     0.000 C 
BRANCH   5   6
ATOM      6  C   UNL     1      16.644 -31.588  23.214  1.00  0.00     0.000 C 
BRANCH   6   7
ATOM      7  C   UNL     1      16.925 -31.865  24.702  1.00  0.00     0.000 C 
BRANCH   7   8
ATOM      8  C   UNL     1      18.408 -31.695  25.063  1.00  0.00     0.000 C 
BRANCH   8   9
ATOM      9  C   UNL     1      19.194 -30.925  23.987  1.00  0.00     0.000 C 
BRANCH   9  10
ATOM     10  C   UNL     1      19.804 -29.617  24.528  1.00  0.00     0.000 C 
BRANCH  10  11
ATOM     11  C   UNL     1      19.576 -29.391  26.035  1.00  0.00     0.000 C 
BRANCH  11  12
ATOM     12  C   UNL     1      18.654 -28.200  26.363  1.00  0.00     0.000 C 
BRANCH  12  13
ATOM     13  C   UNL     1      19.268 -26.850  25.952  1.00  0.00     0.006 C 
BRANCH  13  14
ATOM     14  C   UNL     1      20.448 -26.453  26.847  1.00  0.00     0.053 C 
BRANCH  14  15
ATOM     15  C   UNL     1      21.731 -26.384  26.076  1.00  0.00     0.041 C 
ATOM     16  O   UNL     1      22.826 -26.239  26.681  1.00  0.00    -0.550 OA
ATOM     17  O   UNL     1      21.719 -26.512  24.694  1.00  0.00    -0.550 OA
ENDBRANCH  14  15
ENDBRANCH  13  14
ENDBRANCH  12  13
ENDBRANCH  11  12
ENDBRANCH  10  11
ENDBRANCH   9  10
ENDBRANCH   8   9
ENDBRANCH   7   8
ENDBRANCH   6   7
ENDBRANCH   5   6
ENDBRANCH   4   5
ENDBRANCH   3   4
ENDBRANCH   2   3
ENDBRANCH   1   2
BRANCH   1  18
ATOM     18  C   UNL     1      15.399 -25.429  21.856  1.00  0.00     0.000 C 
BRANCH  18  19
ATOM     19  C   UNL     1      15.058 -25.502  20.354  1.00  0.00     0.000 C 
BRANCH  19  20
ATOM     20  C   UNL     1      15.026 -24.143  19.625  1.00  0.00     0.000 C 
BRANCH  20  21
ATOM     21  C   UNL     1      14.346 -23.000  20.401  1.00  0.00     0.000 C 
BRANCH  21  22
ATOM     22  C   UNL     1      12.815 -23.003  20.249  1.00  0.00     0.000 C 
BRANCH  22  23
ATOM     23  C   UNL     1      12.100 -23.718  21.411  1.00  0.00     0.000 C 
BRANCH  23  24
ATOM     24  C   UNL     1      11.272 -24.956  21.011  1.00  0.00    -0.000 C 
BRANCH  24  25
ATOM     25  C   UNL     1      10.098 -25.289  21.953  1.00  0.00    -0.000 C 
BRANCH  25  26
ATOM     26  C   UNL     1       9.706 -24.161  22.928  1.00  0.00    -0.000 C 
BRANCH  26  27
ATOM     27  C   UNL     1       9.522 -24.600  24.395  1.00  0.00    -0.000 C 
BRANCH  27  28
ATOM     28  C   UNL     1      10.276 -23.745  25.429  1.00  0.00    -0.000 C 
BRANCH  28  29
ATOM     29  C   UNL     1      11.711 -23.354  25.027  1.00  0.00    -0.000 C 
BRANCH  29  30
ATOM     30  C   UNL     1      11.861 -21.872  24.622  1.00  0.00    -0.000 C 
BRANCH  30  31
ATOM     31  C   UNL     1      13.272 -21.538  24.113  1.00  0.00    -0.003 C 
ATOM     32  C   UNL     1      14.219 -22.720  24.300  1.00  0.00     0.004 C 
ENDBRANCH  30  31
ENDBRANCH  29  30
ENDBRANCH  28  29
ENDBRANCH  27  28
ENDBRANCH  26  27
ENDBRANCH  25  26
ENDBRANCH  24  25
ENDBRANCH  23  24
ENDBRANCH  22  23
ENDBRANCH  21  22
ENDBRANCH  20  21
ENDBRANCH  19  20
ENDBRANCH  18  19
ENDBRANCH   1  18
TORSDOF 28
ENDMDL
MODEL 3
REMARK VINA RESULT:    -5.091      1.157      3.094
REMARK INTER + INTRA:         -17.082
REMARK INTER:                 -13.383
REMARK INTRA:                  -3.699
REMARK UNBOUND:                -3.657
REMARK SMILES CCCCCCCCCCCCCCCCCCCCCCCCCCCCCC(=O)[O-]
REMARK SMILES IDX 16 1 17 2 18 3 19 4 20 5 21 6 22 7 23 8 24 9 25 10 26 11
REMARK SMILES IDX 27 12 28 13 29 14 30 15 31 16 32 17 15 18 14 19 13 20 12 21
REMARK SMILES IDX 11 22 10 23 9 24 8 25 7 26 6 27 5 28 4 29 3 30 2 31 1 32
REMARK H PARENT
REMARK Flexibility Score: inf
ROOT
ATOM      1  C   UNL     1      15.754 -25.466  22.082  1.00  0.00     0.000 C 
ENDROOT
BRANCH   1   2
ATOM      2  C   UNL     1      16.884 -26.362  22.621  1.00  0.00     0.000 C 
BRANCH   2   3
ATOM      3  C   UNL     1      16.486 -27.847  22.693  1.00  0.00     0.000 C 
BRANCH   3   4
ATOM      4  C   UNL     1      16.241 -28.325  24.133  1.00  0.00     0.000 C 
BRANCH   4   5
ATOM      5  C   UNL     1      15.359 -29.584  24.193  1.00  0.00     0.000 C 
BRANCH   5   6
ATOM      6  C   UNL     1      15.370 -30.375  22.874  1.00  0.00     0.000 C 
BRANCH   6   7
ATOM      7  C   UNL     1      16.161 -31.691  22.977  1.00  0.00     0.000 C 
BRANCH   7   8
ATOM      8  C   UNL     1      16.476 -32.077  24.430  1.00  0.00     0.000 C 
BRANCH   8   9
ATOM      9  C   UNL     1      17.985 -32.248  24.683  1.00  0.00     0.000 C 
BRANCH   9  10
ATOM     10  C   UNL     1      18.602 -31.030  25.400  1.00  0.00     0.000 C 
BRANCH  10  11
ATOM     11  C   UNL     1      19.331 -30.048  24.460  1.00  0.00     0.000 C 
BRANCH  11  12
ATOM     12  C   UNL     1      20.235 -29.033  25.187  1.00  0.00     0.000 C 
BRANCH  12  13
ATOM     13  C   UNL     1      20.316 -27.685  24.449  1.00  0.00     0.006 C 
BRANCH  13  14
ATOM     14  C   UNL     1      19.678 -26.544  25.251  1.00  0.00     0.053 C 
BRANCH  14  15
ATOM     15  C   UNL     1      20.295 -26.408  26.611  1.00  0.00     0.041 C 
ATOM     16  O   UNL     1      21.535 -26.227  26.728  1.00  0.00    -0.550 OA
ATOM     17  O   UNL     1      19.494 -26.450  27.744  1.00  0.00    -0.550 OA
ENDBRANCH  14  15
ENDBRANCH  13  14
ENDBRANCH  12  13
ENDBRANCH  11  12
ENDBRANCH  10  11
ENDBRANCH   9  10
ENDBRANCH   8   9
ENDBRANCH   7   8
ENDBRANCH   6   7
ENDBRANCH   5   6
ENDBRANCH   4   5
ENDBRANCH   3   4
ENDBRANCH   2   3
ENDBRANCH   1   2
BRANCH   1  18
ATOM     18  C   UNL     1      15.059 -25.995  20.812  1.00  0.00     0.000 C 
BRANCH  18  19
ATOM     19  C   UNL     1      14.922 -24.971  19.668  1.00  0.00     0.000 C 
BRANCH  19  20
ATOM     20  C   UNL     1      14.623 -23.525  20.118  1.00  0.00     0.000 C 
BRANCH  20  21
ATOM     21  C   UNL     1      13.129 -23.177  20.253  1.00  0.00     0.000 C 
BRANCH  21  22
ATOM     22  C   UNL     1      12.784 -22.545  21.612  1.00  0.00     0.000 C 
BRANCH  22  23
ATOM     23  C   UNL     1      14.026 -22.286  22.485  1.00  0.00     0.000 C 
BRANCH  23  24
ATOM     24  C   UNL     1      13.897 -22.724  23.958  1.00  0.00    -0.000 C 
BRANCH  24  25
ATOM     25  C   UNL     1      12.505 -22.510  24.584  1.00  0.00    -0.000 C 
BRANCH  25  26
ATOM     26  C   UNL     1      12.227 -23.342  25.851  1.00  0.00    -0.000 C 
BRANCH  26  27
ATOM     27  C   UNL     1      10.853 -23.094  26.507  1.00  0.00    -0.000 C 
BRANCH  27  28
ATOM     28  C   UNL     1       9.882 -24.287  26.453  1.00  0.00    -0.000 C 
BRANCH  28  29
ATOM     29  C   UNL     1       9.614 -24.844  25.042  1.00  0.00    -0.000 C 
BRANCH  29  30
ATOM     30  C   UNL     1       8.975 -23.818  24.080  1.00  0.00    -0.000 C 
BRANCH  30  31
ATOM     31  C   UNL     1       8.839 -24.356  22.648  1.00  0.00    -0.003 C 
ATOM     32  C   UNL     1      10.062 -25.176  22.248  1.00  0.00     0.004 C 
ENDBRANCH  30  31
ENDBRANCH  29  30
ENDBRANCH  28  29
ENDBRANCH  27  28
ENDBRANCH  26  27
ENDBRANCH  25  26
ENDBRANCH  24  25
ENDBRANCH  23  24
ENDBRANCH  22  23
ENDBRANCH  21  22
ENDBRANCH  20  21
ENDBRANCH  19  20
ENDBRANCH  18  19
ENDBRANCH   1  18
TORSDOF 28
ENDMDL
MODEL 4
REMARK VINA RESULT:    -5.082      3.141      9.123
REMARK INTER + INTRA:         -17.057
REMARK INTER:                 -13.467
REMARK INTRA:                  -3.591
REMARK UNBOUND:                -3.657
REMARK SMILES CCCCCCCCCCCCCCCCCCCCCCCCCCCCCC(=O)[O-]
REMARK SMILES IDX 16 1 17 2 18 3 19 4 20 5 21 6 22 7 23 8 24 9 25 10 26 11
REMARK SMILES IDX 27 12 28 13 29 14 30 15 31 16 32 17 15 18 14 19 13 20 12 21
REMARK SMILES IDX 11 22 10 23 9 24 8 25 7 26 6 27 5 28 4 29 3 30 2 31 1 32
REMARK H PARENT
REMARK Flexibility Score: inf
ROOT
ATOM      1  C   UNL     1      16.049 -26.667  21.899  1.00  0.00     0.000 C 
ENDROOT
BRANCH   1   2
ATOM      2  C   UNL     1      15.484 -25.245  21.730  1.00  0.00     0.000 C 
BRANCH   2   3
ATOM      3  C   UNL     1      14.874 -25.007  20.337  1.00  0.00     0.000 C 
BRANCH   3   4
ATOM      4  C   UNL     1      14.834 -23.519  19.956  1.00  0.00     0.000 C 
BRANCH   4   5
ATOM      5  C   UNL     1      13.441 -22.897  20.161  1.00  0.00     0.000 C 
BRANCH   5   6
ATOM      6  C   UNL     1      12.423 -23.902  20.725  1.00  0.00     0.000 C 
BRANCH   6   7
ATOM      7  C   UNL     1      11.935 -23.526  22.135  1.00  0.00     0.000 C 
BRANCH   7   8
ATOM      8  C   UNL     1      12.517 -22.190  22.622  1.00  0.00     0.000 C 
BRANCH   8   9
ATOM      9  C   UNL     1      12.592 -22.103  24.157  1.00  0.00     0.000 C 
BRANCH   9  10
ATOM     10  C   UNL     1      12.888 -23.469  24.809  1.00  0.00     0.000 C 
BRANCH  10  11
ATOM     11  C   UNL     1      12.074 -23.745  26.089  1.00  0.00     0.000 C 
BRANCH  11  12
ATOM     12  C   UNL     1      10.605 -23.284  26.015  1.00  0.00     0.000 C 
BRANCH  12  13
ATOM     13  C   UNL     1       9.747 -24.196  25.120  1.00  0.00     0.006 C 
BRANCH  13  14
ATOM     14  C   UNL     1       8.917 -23.399  24.106  1.00  0.00     0.053 C 
BRANCH  14  15
ATOM     15  C   UNL     1       8.384 -24.276  23.013  1.00  0.00     0.041 C 
ATOM     16  O   UNL     1       7.321 -23.965  22.414  1.00  0.00    -0.550 OA
ATOM     17  O   UNL     1       9.078 -25.418  22.638  1.00  0.00    -0.550 OA
ENDBRANCH  14  15
ENDBRANCH  13  14
ENDBRANCH  12  13
ENDBRANCH  11  12
ENDBRANCH  10  11
ENDBRANCH   9  10
ENDBRANCH   8   9
ENDBRANCH   7   8
ENDBRANCH   6   7
ENDBRANCH   5   6
ENDBRANCH   4   5
ENDBRANCH   3   4
ENDBRANCH   2   3
ENDBRANCH   1   2
BRANCH   1  18
ATOM     18  C   UNL     1      17.257 -26.775  22.851  1.00  0.00     0.000 C 
BRANCH  18  19
ATOM     19  C   UNL     1      17.300 -28.055  23.709  1.00  0.00     0.000 C 
BRANCH  19  20
ATOM     20  C   UNL     1      16.006 -28.359  24.493  1.00  0.00     0.000 C 
BRANCH  20  21
ATOM     21  C   UNL     1      15.367 -29.727  24.195  1.00  0.00     0.000 C 
BRANCH  21  22
ATOM     22  C   UNL     1      15.618 -30.202  22.754  1.00  0.00     0.000 C 
BRANCH  22  23
ATOM     23  C   UNL     1      16.154 -31.644  22.683  1.00  0.00     0.000 C 
BRANCH  23  24
ATOM     24  C   UNL     1      17.656 -31.803  22.993  1.00  0.00    -0.000 C 
BRANCH  24  25
ATOM     25  C   UNL     1      17.979 -32.345  24.399  1.00  0.00    -0.000 C 
BRANCH  25  26
ATOM     26  C   UNL     1      18.381 -31.274  25.432  1.00  0.00    -0.000 C 
BRANCH  26  27
ATOM     27  C   UNL     1      19.544 -30.356  25.003  1.00  0.00    -0.000 C 
BRANCH  27  28
ATOM     28  C   UNL     1      20.127 -29.478  26.126  1.00  0.00    -0.000 C 
BRANCH  28  29
ATOM     29  C   UNL     1      20.515 -28.050  25.698  1.00  0.00    -0.000 C 
BRANCH  29  30
ATOM     30  C   UNL     1      19.515 -26.969  26.160  1.00  0.00    -0.000 C 
BRANCH  30  31
ATOM     31  C   UNL     1      19.064 -27.165  27.616  1.00  0.00    -0.003 C 
ATOM     32  C   UNL     1      19.954 -26.384  28.578  1.00  0.00     0.004 C 
ENDBRANCH  30  31
ENDBRANCH  29  30
ENDBRANCH  28  29
ENDBRANCH  27  28
ENDBRANCH  26  27
ENDBRANCH  25  26
ENDBRANCH  24  25
ENDBRANCH  23  24
ENDBRANCH  22  23
ENDBRANCH  21  22
ENDBRANCH  20  21
ENDBRANCH  19  20
ENDBRANCH  18  19
ENDBRANCH   1  18
TORSDOF 28
ENDMDL
MODEL 5
REMARK VINA RESULT:    -5.031      1.835      2.879
REMARK INTER + INTRA:         -16.922
REMARK INTER:                 -13.593
REMARK INTRA:                  -3.330
REMARK UNBOUND:                -3.657
REMARK SMILES CCCCCCCCCCCCCCCCCCCCCCCCCCCCCC(=O)[O-]
REMARK SMILES IDX 16 1 17 2 18 3 19 4 20 5 21 6 22 7 23 8 24 9 25 10 26 11
REMARK SMILES IDX 27 12 28 13 29 14 30 15 31 16 32 17 15 18 14 19 13 20 12 21
REMARK SMILES IDX 11 22 10 23 9 24 8 25 7 26 6 27 5 28 4 29 3 30 2 31 1 32
REMARK H PARENT
REMARK Flexibility Score: inf
ROOT
ATOM      1  C   UNL     1      14.740 -23.487  20.565  1.00  0.00     0.000 C 
ENDROOT
BRANCH   1   2
ATOM      2  C   UNL     1      15.009 -24.798  19.804  1.00  0.00     0.000 C 
BRANCH   2   3
ATOM      3  C   UNL     1      15.177 -26.008  20.740  1.00  0.00     0.000 C 
BRANCH   3   4
ATOM      4  C   UNL     1      15.762 -25.620  22.108  1.00  0.00     0.000 C 
BRANCH   4   5
ATOM      5  C   UNL     1      16.771 -26.658  22.631  1.00  0.00     0.000 C 
BRANCH   5   6
ATOM      6  C   UNL     1      16.130 -28.034  22.874  1.00  0.00     0.000 C 
BRANCH   6   7
ATOM      7  C   UNL     1      16.557 -28.660  24.213  1.00  0.00     0.000 C 
BRANCH   7   8
ATOM      8  C   UNL     1      18.009 -29.163  24.192  1.00  0.00     0.000 C 
BRANCH   8   9
ATOM      9  C   UNL     1      18.519 -29.557  25.590  1.00  0.00     0.000 C 
BRANCH   9  10
ATOM     10  C   UNL     1      19.703 -28.683  26.051  1.00  0.00     0.000 C 
BRANCH  10  11
ATOM     11  C   UNL     1      19.394 -27.174  26.093  1.00  0.00     0.000 C 
BRANCH  11  12
ATOM     12  C   UNL     1      20.334 -26.313  25.226  1.00  0.00     0.000 C 
BRANCH  12  13
ATOM     13  C   UNL     1      21.796 -26.791  25.291  1.00  0.00     0.006 C 
BRANCH  13  14
ATOM     14  C   UNL     1      22.701 -25.792  26.022  1.00  0.00     0.053 C 
BRANCH  14  15
ATOM     15  C   UNL     1      23.258 -26.369  27.288  1.00  0.00     0.041 C 
ATOM     16  O   UNL     1      24.127 -27.279  27.241  1.00  0.00    -0.550 OA
ATOM     17  O   UNL     1      22.838 -25.880  28.518  1.00  0.00    -0.550 OA
ENDBRANCH  14  15
ENDBRANCH  13  14
ENDBRANCH  12  13
ENDBRANCH  11  12
ENDBRANCH  10  11
ENDBRANCH   9  10
ENDBRANCH   8   9
ENDBRANCH   7   8
ENDBRANCH   6   7
ENDBRANCH   5   6
ENDBRANCH   4   5
ENDBRANCH   3   4
ENDBRANCH   2   3
ENDBRANCH   1   2
BRANCH   1  18
ATOM     18  C   UNL     1      13.333 -22.892  20.353  1.00  0.00     0.000 C 
BRANCH  18  19
ATOM     19  C   UNL     1      12.184 -23.920  20.340  1.00  0.00     0.000 C 
BRANCH  19  20
ATOM     20  C   UNL     1      11.484 -24.133  21.698  1.00  0.00     0.000 C 
BRANCH  20  21
ATOM     21  C   UNL     1      10.566 -25.367  21.774  1.00  0.00     0.000 C 
BRANCH  21  22
ATOM     22  C   UNL     1       9.162 -25.034  22.306  1.00  0.00     0.000 C 
BRANCH  22  23
ATOM     23  C   UNL     1       9.189 -24.054  23.494  1.00  0.00     0.000 C 
BRANCH  23  24
ATOM     24  C   UNL     1       9.388 -24.703  24.878  1.00  0.00    -0.000 C 
BRANCH  24  25
ATOM     25  C   UNL     1       9.896 -23.750  25.979  1.00  0.00    -0.000 C 
BRANCH  25  26
ATOM     26  C   UNL     1      11.183 -24.207  26.692  1.00  0.00    -0.000 C 
BRANCH  26  27
ATOM     27  C   UNL     1      12.454 -23.420  26.315  1.00  0.00    -0.000 C 
BRANCH  27  28
ATOM     28  C   UNL     1      12.702 -23.271  24.803  1.00  0.00    -0.000 C 
BRANCH  28  29
ATOM     29  C   UNL     1      12.748 -21.819  24.291  1.00  0.00    -0.000 C 
BRANCH  29  30
ATOM     30  C   UNL     1      14.163 -21.344  23.895  1.00  0.00    -0.000 C 
BRANCH  30  31
ATOM     31  C   UNL     1      15.201 -22.475  23.946  1.00  0.00    -0.003 C 
ATOM     32  C   UNL     1      16.472 -22.024  24.660  1.00  0.00     0.004 C 
ENDBRANCH  30  31
ENDBRANCH  29  30
ENDBRANCH  28  29
ENDBRANCH  27  28
ENDBRANCH  26  27
ENDBRANCH  25  26
ENDBRANCH  24  25
ENDBRANCH  23  24
ENDBRANCH  22  23
ENDBRANCH  21  22
ENDBRANCH  20  21
ENDBRANCH  19  20
ENDBRANCH  18  19
ENDBRANCH   1  18
TORSDOF 28
ENDMDL
MODEL 6
REMARK VINA RESULT:    -4.998      5.298      8.936
REMARK INTER + INTRA:         -16.835
REMARK INTER:                 -12.901
REMARK INTRA:                  -3.934
REMARK UNBOUND:                -3.657
REMARK SMILES CCCCCCCCCCCCCCCCCCCCCCCCCCCCCC(=O)[O-]
REMARK SMILES IDX 16 1 17 2 18 3 19 4 20 5 21 6 22 7 23 8 24 9 25 10 26 11
REMARK SMILES IDX 27 12 28 13 29 14 30 15 31 16 32 17 15 18 14 19 13 20 12 21
REMARK SMILES IDX 11 22 10 23 9 24 8 25 7 26 6 27 5 28 4 29 3 30 2 31 1 32
REMARK H PARENT
REMARK Flexibility Score: inf
ROOT
ATOM      1  C   UNL     1       9.797 -22.398  25.532  1.00  0.00     0.000 C 
ENDROOT
BRANCH   1   2
ATOM      2  C   UNL     1      10.116 -23.292  26.744  1.00  0.00     0.000 C 
BRANCH   2   3
ATOM      3  C   UNL     1      11.485 -23.986  26.630  1.00  0.00     0.000 C 
BRANCH   3   4
ATOM      4  C   UNL     1      12.622 -23.002  26.313  1.00  0.00     0.000 C 
BRANCH   4   5
ATOM      5  C   UNL     1      13.110 -23.118  24.858  1.00  0.00     0.000 C 
BRANCH   5   6
ATOM      6  C   UNL     1      13.184 -21.755  24.150  1.00  0.00     0.000 C 
BRANCH   6   7
ATOM      7  C   UNL     1      14.573 -21.471  23.551  1.00  0.00     0.000 C 
BRANCH   7   8
ATOM      8  C   UNL     1      15.589 -22.579  23.868  1.00  0.00     0.000 C 
BRANCH   8   9
ATOM      9  C   UNL     1      16.099 -23.293  22.603  1.00  0.00     0.000 C 
BRANCH   9  10
ATOM     10  C   UNL     1      15.165 -24.435  22.155  1.00  0.00     0.000 C 
BRANCH  10  11
ATOM     11  C   UNL     1      14.848 -24.435  20.647  1.00  0.00     0.000 C 
BRANCH  11  12
ATOM     12  C   UNL     1      14.141 -23.158  20.151  1.00  0.00     0.000 C 
BRANCH  12  13
ATOM     13  C   UNL     1      12.710 -23.026  20.703  1.00  0.00     0.006 C 
BRANCH  13  14
ATOM     14  C   UNL     1      11.892 -24.308  20.508  1.00  0.00     0.053 C 
BRANCH  14  15
ATOM     15  C   UNL     1      11.027 -24.602  21.697  1.00  0.00     0.041 C 
ATOM     16  O   UNL     1      10.801 -23.707  22.552  1.00  0.00    -0.550 OA
ATOM     17  O   UNL     1      10.447 -25.856  21.840  1.00  0.00    -0.550 OA
ENDBRANCH  14  15
ENDBRANCH  13  14
ENDBRANCH  12  13
ENDBRANCH  11  12
ENDBRANCH  10  11
ENDBRANCH   9  10
ENDBRANCH   8   9
ENDBRANCH   7   8
ENDBRANCH   6   7
ENDBRANCH   5   6
ENDBRANCH   4   5
ENDBRANCH   3   4
ENDBRANCH   2   3
ENDBRANCH   1   2
BRANCH   1  18
ATOM     18  C   UNL     1       9.471 -20.931  25.877  1.00  0.00     0.000 C 
BRANCH  18  19
ATOM     19  C   UNL     1      10.103 -20.412  27.184  1.00  0.00     0.000 C 
BRANCH  19  20
ATOM     20  C   UNL     1       9.262 -19.366  27.945  1.00  0.00     0.000 C 
BRANCH  20  21
ATOM     21  C   UNL     1       8.256 -18.582  27.082  1.00  0.00     0.000 C 
BRANCH  21  22
ATOM     22  C   UNL     1       7.084 -18.014  27.900  1.00  0.00     0.000 C 
BRANCH  22  23
ATOM     23  C   UNL     1       7.471 -16.764  28.712  1.00  0.00     0.000 C 
BRANCH  23  24
ATOM     24  C   UNL     1       7.353 -15.425  27.955  1.00  0.00    -0.000 C 
BRANCH  24  25
ATOM     25  C   UNL     1       8.674 -14.888  27.368  1.00  0.00    -0.000 C 
BRANCH  25  26
ATOM     26  C   UNL     1       9.925 -15.161  28.226  1.00  0.00    -0.000 C 
BRANCH  26  27
ATOM     27  C   UNL     1      11.010 -16.021  27.545  1.00  0.00    -0.000 C 
BRANCH  27  28
ATOM     28  C   UNL     1      11.703 -17.043  28.464  1.00  0.00    -0.000 C 
BRANCH  28  29
ATOM     29  C   UNL     1      11.606 -16.732  29.970  1.00  0.00    -0.000 C 
BRANCH  29  30
ATOM     30  C   UNL     1      10.764 -17.755  30.763  1.00  0.00    -0.000 C 
BRANCH  30  31
ATOM     31  C   UNL     1       9.677 -17.088  31.619  1.00  0.00    -0.003 C 
ATOM     32  C   UNL     1       9.688 -17.630  33.045  1.00  0.00     0.004 C 
ENDBRANCH  30  31
ENDBRANCH  29  30
ENDBRANCH  28  29
ENDBRANCH  27  28
ENDBRANCH  26  27
ENDBRANCH  25  26
ENDBRANCH  24  25
ENDBRANCH  23  24
ENDBRANCH  22  23
ENDBRANCH  21  22
ENDBRANCH  20  21
ENDBRANCH  19  20
ENDBRANCH  18  19
ENDBRANCH   1  18
TORSDOF 28
ENDMDL
MODEL 7
REMARK VINA RESULT:    -4.994      3.254      9.464
REMARK INTER + INTRA:         -16.824
REMARK INTER:                 -13.044
REMARK INTRA:                  -3.781
REMARK UNBOUND:                -3.657
REMARK SMILES CCCCCCCCCCCCCCCCCCCCCCCCCCCCCC(=O)[O-]
REMARK SMILES IDX 16 1 17 2 18 3 19 4 20 5 21 6 22 7 23 8 24 9 25 10 26 11
REMARK SMILES IDX 27 12 28 13 29 14 30 15 31 16 32 17 15 18 14 19 13 20 12 21
REMARK SMILES IDX 11 22 10 23 9 24 8 25 7 26 6 27 5 28 4 29 3 30 2 31 1 32
REMARK H PARENT
REMARK Flexibility Score: inf
ROOT
ATOM      1  C   UNL     1      15.346 -29.710  23.948  1.00  0.00     0.000 C 
ENDROOT
BRANCH   1   2
ATOM      2  C   UNL     1      16.064 -28.445  24.453  1.00  0.00     0.000 C 
BRANCH   2   3
ATOM      3  C   UNL     1      17.336 -28.120  23.649  1.00  0.00     0.000 C 
BRANCH   3   4
ATOM      4  C   UNL     1      17.264 -26.750  22.957  1.00  0.00     0.000 C 
BRANCH   4   5
ATOM      5  C   UNL     1      16.055 -26.631  22.013  1.00  0.00     0.000 C 
BRANCH   5   6
ATOM      6  C   UNL     1      15.623 -25.173  21.787  1.00  0.00     0.000 C 
BRANCH   6   7
ATOM      7  C   UNL     1      14.742 -25.001  20.537  1.00  0.00     0.000 C 
BRANCH   7   8
ATOM      8  C   UNL     1      14.691 -23.546  20.048  1.00  0.00     0.000 C 
BRANCH   8   9
ATOM      9  C   UNL     1      13.305 -22.905  20.246  1.00  0.00     0.000 C 
BRANCH   9  10
ATOM     10  C   UNL     1      12.231 -23.937  20.643  1.00  0.00     0.000 C 
BRANCH  10  11
ATOM     11  C   UNL     1      11.708 -23.780  22.084  1.00  0.00     0.000 C 
BRANCH  11  12
ATOM     12  C   UNL     1      12.272 -22.555  22.831  1.00  0.00     0.000 C 
BRANCH  12  13
ATOM     13  C   UNL     1      11.721 -22.435  24.263  1.00  0.00     0.006 C 
BRANCH  13  14
ATOM     14  C   UNL     1      10.370 -23.141  24.426  1.00  0.00     0.053 C 
BRANCH  14  15
ATOM     15  C   UNL     1      10.166 -23.634  25.827  1.00  0.00     0.041 C 
ATOM     16  O   UNL     1      10.409 -22.880  26.805  1.00  0.00    -0.550 OA
ATOM     17  O   UNL     1       9.677 -24.914  26.049  1.00  0.00    -0.550 OA
ENDBRANCH  14  15
ENDBRANCH  13  14
ENDBRANCH  12  13
ENDBRANCH  11  12
ENDBRANCH  10  11
ENDBRANCH   9  10
ENDBRANCH   8   9
ENDBRANCH   7   8
ENDBRANCH   6   7
ENDBRANCH   5   6
ENDBRANCH   4   5
ENDBRANCH   3   4
ENDBRANCH   2   3
ENDBRANCH   1   2
BRANCH   1  18
ATOM     18  C   UNL     1      16.105 -30.495  22.860  1.00  0.00     0.000 C 
BRANCH  18  19
ATOM     19  C   UNL     1      16.751 -31.811  23.335  1.00  0.00     0.000 C 
BRANCH  19  20
ATOM     20  C   UNL     1      18.134 -31.657  24.001  1.00  0.00     0.000 C 
BRANCH  20  21
ATOM     21  C   UNL     1      18.114 -31.587  25.539  1.00  0.00     0.000 C 
BRANCH  21  22
ATOM     22  C   UNL     1      19.214 -30.674  26.109  1.00  0.00     0.000 C 
BRANCH  22  23
ATOM     23  C   UNL     1      20.134 -30.094  25.019  1.00  0.00     0.000 C 
BRANCH  23  24
ATOM     24  C   UNL     1      21.061 -28.950  25.481  1.00  0.00    -0.000 C 
BRANCH  24  25
ATOM     25  C   UNL     1      20.781 -27.580  24.832  1.00  0.00    -0.000 C 
BRANCH  25  26
ATOM     26  C   UNL     1      20.194 -26.518  25.782  1.00  0.00    -0.000 C 
BRANCH  26  27
ATOM     27  C   UNL     1      19.191 -27.055  26.823  1.00  0.00    -0.000 C 
BRANCH  27  28
ATOM     28  C   UNL     1      19.494 -26.663  28.281  1.00  0.00    -0.000 C 
BRANCH  28  29
ATOM     29  C   UNL     1      20.766 -27.299  28.874  1.00  0.00    -0.000 C 
BRANCH  29  30
ATOM     30  C   UNL     1      21.933 -26.304  29.051  1.00  0.00    -0.000 C 
BRANCH  30  31
ATOM     31  C   UNL     1      23.168 -26.688  28.222  1.00  0.00    -0.003 C 
ATOM     32  C   UNL     1      23.783 -25.464  27.550  1.00  0.00     0.004 C 
ENDBRANCH  30  31
ENDBRANCH  29  30
ENDBRANCH  28  29
ENDBRANCH  27  28
ENDBRANCH  26  27
ENDBRANCH  25  26
ENDBRANCH  24  25
ENDBRANCH  23  24
ENDBRANCH  22  23
ENDBRANCH  21  22
ENDBRANCH  20  21
ENDBRANCH  19  20
ENDBRANCH  18  19
ENDBRANCH   1  18
TORSDOF 28
ENDMDL
MODEL 8
REMARK VINA RESULT:    -4.930      1.654      4.077
REMARK INTER + INTRA:         -16.657
REMARK INTER:                 -13.076
REMARK INTRA:                  -3.581
REMARK UNBOUND:                -3.657
REMARK SMILES CCCCCCCCCCCCCCCCCCCCCCCCCCCCCC(=O)[O-]
REMARK SMILES IDX 16 1 17 2 18 3 19 4 20 5 21 6 22 7 23 8 24 9 25 10 26 11
REMARK SMILES IDX 27 12 28 13 29 14 30 15 31 16 32 17 15 18 14 19 13 20 12 21
REMARK SMILES IDX 11 22 10 23 9 24 8 25 7 26 6 27 5 28 4 29 3 30 2 31 1 32
REMARK H PARENT
REMARK Flexibility Score: inf
ROOT
ATOM      1  C   UNL     1      16.563 -27.558  23.093  1.00  0.00     0.000 C 
ENDROOT
BRANCH   1   2
ATOM      2  C   UNL     1      16.173 -28.728  24.013  1.00  0.00     0.000 C 
BRANCH   2   3
ATOM      3  C   UNL     1      15.130 -29.665  23.377  1.00  0.00     0.000 C 
BRANCH   3   4
ATOM      4  C   UNL     1      15.773 -30.835  22.615  1.00  0.00     0.000 C 
BRANCH   4   5
ATOM      5  C   UNL     1      16.675 -31.698  23.515  1.00  0.00     0.000 C 
BRANCH   5   6
ATOM      6  C   UNL     1      18.124 -31.768  23.006  1.00  0.00     0.000 C 
BRANCH   6   7
ATOM      7  C   UNL     1      19.133 -31.170  24.002  1.00  0.00     0.000 C 
BRANCH   7   8
ATOM      8  C   UNL     1      18.673 -31.307  25.461  1.00  0.00     0.000 C 
BRANCH   8   9
ATOM      9  C   UNL     1      19.119 -30.122  26.336  1.00  0.00     0.000 C 
BRANCH   9  10
ATOM     10  C   UNL     1      19.541 -28.899  25.497  1.00  0.00     0.000 C 
BRANCH  10  11
ATOM     11  C   UNL     1      19.168 -27.543  26.128  1.00  0.00     0.000 C 
BRANCH  11  12
ATOM     12  C   UNL     1      20.001 -26.354  25.609  1.00  0.00     0.000 C 
BRANCH  12  13
ATOM     13  C   UNL     1      21.421 -26.771  25.187  1.00  0.00     0.006 C 
BRANCH  13  14
ATOM     14  C   UNL     1      22.492 -25.818  25.732  1.00  0.00     0.053 C 
BRANCH  14  15
ATOM     15  C   UNL     1      22.900 -26.180  27.128  1.00  0.00     0.041 C 
ATOM     16  O   UNL     1      22.608 -27.310  27.600  1.00  0.00    -0.550 OA
ATOM     17  O   UNL     1      23.628 -25.280  27.894  1.00  0.00    -0.550 OA
ENDBRANCH  14  15
ENDBRANCH  13  14
ENDBRANCH  12  13
ENDBRANCH  11  12
ENDBRANCH  10  11
ENDBRANCH   9  10
ENDBRANCH   8   9
ENDBRANCH   7   8
ENDBRANCH   6   7
ENDBRANCH   5   6
ENDBRANCH   4   5
ENDBRANCH   3   4
ENDBRANCH   2   3
ENDBRANCH   1   2
BRANCH   1  18
ATOM     18  C   UNL     1      15.593 -27.302  21.922  1.00  0.00     0.000 C 
BRANCH  18  19
ATOM     19  C   UNL     1      15.711 -25.912  21.267  1.00  0.00     0.000 C 
BRANCH  19  20
ATOM     20  C   UNL     1      15.512 -24.720  22.226  1.00  0.00     0.000 C 
BRANCH  20  21
ATOM     21  C   UNL     1      15.387 -23.345  21.544  1.00  0.00     0.000 C 
BRANCH  21  22
ATOM     22  C   UNL     1      14.641 -23.411  20.201  1.00  0.00     0.000 C 
BRANCH  22  23
ATOM     23  C   UNL     1      13.162 -22.998  20.315  1.00  0.00     0.000 C 
BRANCH  23  24
ATOM     24  C   UNL     1      12.234 -24.047  20.960  1.00  0.00    -0.000 C 
BRANCH  24  25
ATOM     25  C   UNL     1      11.806 -23.738  22.409  1.00  0.00    -0.000 C 
BRANCH  25  26
ATOM     26  C   UNL     1      12.034 -22.282  22.858  1.00  0.00    -0.000 C 
BRANCH  26  27
ATOM     27  C   UNL     1      12.626 -22.120  24.273  1.00  0.00    -0.000 C 
BRANCH  27  28
ATOM     28  C   UNL     1      12.757 -23.427  25.077  1.00  0.00    -0.000 C 
BRANCH  28  29
ATOM     29  C   UNL     1      12.024 -23.432  26.432  1.00  0.00    -0.000 C 
BRANCH  29  30
ATOM     30  C   UNL     1      10.502 -23.202  26.316  1.00  0.00    -0.000 C 
BRANCH  30  31
ATOM     31  C   UNL     1       9.780 -24.367  25.623  1.00  0.00    -0.003 C 
ATOM     32  C   UNL     1       9.532 -25.518  26.594  1.00  0.00     0.004 C 
ENDBRANCH  30  31
ENDBRANCH  29  30
ENDBRANCH  28  29
ENDBRANCH  27  28
ENDBRANCH  26  27
ENDBRANCH  25  26
ENDBRANCH  24  25
ENDBRANCH  23  24
ENDBRANCH  22  23
ENDBRANCH  21  22
ENDBRANCH  20  21
ENDBRANCH  19  20
ENDBRANCH  18  19
ENDBRANCH   1  18
TORSDOF 28
ENDMDL
MODEL 9
REMARK VINA RESULT:    -4.874      2.834      9.187
REMARK INTER + INTRA:         -16.509
REMARK INTER:                 -13.226
REMARK INTRA:                  -3.283
REMARK UNBOUND:                -3.657
REMARK SMILES CCCCCCCCCCCCCCCCCCCCCCCCCCCCCC(=O)[O-]
REMARK SMILES IDX 16 1 17 2 18 3 19 4 20 5 21 6 22 7 23 8 24 9 25 10 26 11
REMARK SMILES IDX 27 12 28 13 29 14 30 15 31 16 32 17 15 18 14 19 13 20 12 21
REMARK SMILES IDX 11 22 10 23 9 24 8 25 7 26 6 27 5 28 4 29 3 30 2 31 1 32
REMARK H PARENT
REMARK Flexibility Score: inf
ROOT
ATOM      1  C   UNL     1      15.832 -25.712  22.262  1.00  0.00     0.000 C 
ENDROOT
BRANCH   1   2
ATOM      2  C   UNL     1      15.258 -25.213  20.923  1.00  0.00     0.000 C 
BRANCH   2   3
ATOM      3  C   UNL     1      15.249 -23.678  20.812  1.00  0.00     0.000 C 
BRANCH   3   4
ATOM      4  C   UNL     1      14.087 -23.154  19.954  1.00  0.00     0.000 C 
BRANCH   4   5
ATOM      5  C   UNL     1      12.808 -22.919  20.777  1.00  0.00     0.000 C 
BRANCH   5   6
ATOM      6  C   UNL     1      11.920 -24.172  20.858  1.00  0.00     0.000 C 
BRANCH   6   7
ATOM      7  C   UNL     1      11.119 -24.248  22.170  1.00  0.00     0.000 C 
BRANCH   7   8
ATOM      8  C   UNL     1       9.874 -25.140  22.049  1.00  0.00     0.000 C 
BRANCH   8   9
ATOM      9  C   UNL     1       8.794 -24.791  23.089  1.00  0.00     0.000 C 
BRANCH   9  10
ATOM     10  C   UNL     1       9.330 -23.877  24.209  1.00  0.00     0.000 C 
BRANCH  10  11
ATOM     11  C   UNL     1       9.674 -24.618  25.517  1.00  0.00     0.000 C 
BRANCH  11  12
ATOM     12  C   UNL     1      10.729 -23.905  26.387  1.00  0.00     0.000 C 
BRANCH  12  13
ATOM     13  C   UNL     1      11.544 -22.870  25.593  1.00  0.00     0.006 C 
BRANCH  13  14
ATOM     14  C   UNL     1      12.961 -23.365  25.277  1.00  0.00     0.053 C 
BRANCH  14  15
ATOM     15  C   UNL     1      13.732 -22.366  24.468  1.00  0.00     0.041 C 
ATOM     16  O   UNL     1      14.907 -22.623  24.097  1.00  0.00    -0.550 OA
ATOM     17  O   UNL     1      13.139 -21.167  24.098  1.00  0.00    -0.550 OA
ENDBRANCH  14  15
ENDBRANCH  13  14
ENDBRANCH  12  13
ENDBRANCH  11  12
ENDBRANCH  10  11
ENDBRANCH   9  10
ENDBRANCH   8   9
ENDBRANCH   7   8
ENDBRANCH   6   7
ENDBRANCH   5   6
ENDBRANCH   4   5
ENDBRANCH   3   4
ENDBRANCH   2   3
ENDBRANCH   1   2
BRANCH   1  18
ATOM     18  C   UNL     1      16.274 -27.189  22.267  1.00  0.00     0.000 C 
BRANCH  18  19
ATOM     19  C   UNL     1      16.317 -27.852  23.658  1.00  0.00     0.000 C 
BRANCH  19  20
ATOM     20  C   UNL     1      17.449 -28.882  23.856  1.00  0.00     0.000 C 
BRANCH  20  21
ATOM     21  C   UNL     1      18.516 -28.489  24.894  1.00  0.00     0.000 C 
BRANCH  21  22
ATOM     22  C   UNL     1      19.226 -27.169  24.549  1.00  0.00     0.000 C 
BRANCH  22  23
ATOM     23  C   UNL     1      19.516 -26.303  25.789  1.00  0.00     0.000 C 
BRANCH  23  24
ATOM     24  C   UNL     1      19.301 -27.004  27.145  1.00  0.00    -0.000 C 
BRANCH  24  25
ATOM     25  C   UNL     1      19.859 -26.249  28.368  1.00  0.00    -0.000 C 
BRANCH  25  26
ATOM     26  C   UNL     1      20.989 -26.977  29.122  1.00  0.00    -0.000 C 
BRANCH  26  27
ATOM     27  C   UNL     1      22.309 -26.188  29.242  1.00  0.00    -0.000 C 
BRANCH  27  28
ATOM     28  C   UNL     1      23.337 -26.467  28.131  1.00  0.00    -0.000 C 
BRANCH  28  29
ATOM     29  C   UNL     1      23.240 -25.535  26.908  1.00  0.00    -0.000 C 
BRANCH  29  30
ATOM     30  C   UNL     1      23.069 -26.283  25.568  1.00  0.00    -0.000 C 
BRANCH  30  31
ATOM     31  C   UNL     1      22.798 -27.783  25.760  1.00  0.00    -0.003 C 
ATOM     32  C   UNL     1      22.922 -28.539  24.441  1.00  0.00     0.004 C 
ENDBRANCH  30  31
ENDBRANCH  29  30
ENDBRANCH  28  29
ENDBRANCH  27  28
ENDBRANCH  26  27
ENDBRANCH  25  26
ENDBRANCH  24  25
ENDBRANCH  23  24
ENDBRANCH  22  23
ENDBRANCH  21  22
ENDBRANCH  20  21
ENDBRANCH  19  20
ENDBRANCH  18  19
ENDBRANCH   1  18
TORSDOF 28
ENDMDL
