MODEL 1
REMARK VINA RESULT:    -4.654      0.000      0.000
REMARK INTER + INTRA:         -14.786
REMARK INTER:                 -11.728
REMARK INTRA:                  -3.058
REMARK UNBOUND:                -3.058
REMARK SMILES CCCCCCCCCCCCCCCCCCCCCCCCCCCC(=O)[O-]
REMARK SMILES IDX 15 1 16 2 17 3 18 4 19 5 20 6 21 7 22 8 23 9 24 10 25 11
REMARK SMILES IDX 26 12 27 13 28 14 29 15 30 16 14 17 13 18 12 19 11 20 10 21
REMARK SMILES IDX 9 22 8 23 7 24 6 25 5 26 4 27 3 28 2 29 1 30
REMARK H PARENT
REMARK Flexibility Score: inf
ROOT
ATOM      1  C   UNL     1      33.867   7.741  44.293  1.00  0.00     0.000 C 
ENDROOT
BRANCH   1   2
ATOM      2  C   UNL     1      34.851   8.896  44.051  1.00  0.00     0.000 C 
BRANCH   2   3
ATOM      3  C   UNL     1      34.099  10.204  43.759  1.00  0.00     0.000 C 
BRANCH   3   4
ATOM      4  C   UNL     1      34.699  11.417  44.493  1.00  0.00     0.000 C 
BRANCH   4   5
ATOM      5  C   UNL     1      35.108  11.153  45.957  1.00  0.00     0.000 C 
BRANCH   5   6
ATOM      6  C   UNL     1      36.339  11.944  46.446  1.00  0.00     0.000 C 
BRANCH   6   7
ATOM      7  C   UNL     1      36.386  13.416  45.998  1.00  0.00     0.000 C 
BRANCH   7   8
ATOM      8  C   UNL     1      37.779  14.044  46.149  1.00  0.00     0.000 C 
BRANCH   8   9
ATOM      9  C   UNL     1      37.855  15.391  45.413  1.00  0.00     0.000 C 
BRANCH   9  10
ATOM     10  C   UNL     1      36.486  16.082  45.311  1.00  0.00     0.000 C 
BRANCH  10  11
ATOM     11  C   UNL     1      36.535  17.549  45.772  1.00  0.00     0.000 C 
BRANCH  11  12
ATOM     12  C   UNL     1      35.825  17.763  47.119  1.00  0.00     0.006 C 
BRANCH  12  13
ATOM     13  C   UNL     1      34.771  16.685  47.403  1.00  0.00     0.053 C 
BRANCH  13  14
ATOM     14  C   UNL     1      35.016  16.056  48.738  1.00  0.00     0.041 C 
ATOM     15  O   UNL     1      35.182  16.776  49.759  1.00  0.00    -0.550 OA
ATOM     16  O   UNL     1      35.093  14.674  48.851  1.00  0.00    -0.550 OA
ENDBRANCH  13  14
ENDBRANCH  12  13
ENDBRANCH  11  12
ENDBRANCH  10  11
ENDBRANCH   9  10
ENDBRANCH   8   9
ENDBRANCH   7   8
ENDBRANCH   6   7
ENDBRANCH   5   6
ENDBRANCH   4   5
ENDBRANCH   3   4
ENDBRANCH   2   3
ENDBRANCH   1   2
BRANCH   1  17
ATOM     17  C   UNL     1      34.071   7.056  45.655  1.00  0.00     0.000 C 
BRANCH  17  18
ATOM     18  C   UNL     1      34.523   5.583  45.580  1.00  0.00     0.000 C 
BRANCH  18  19
ATOM     19  C   UNL     1      34.849   4.931  46.937  1.00  0.00     0.000 C 
BRANCH  19  20
ATOM     20  C   UNL     1      34.056   5.488  48.138  1.00  0.00     0.000 C 
BRANCH  20  21
ATOM     21  C   UNL     1      34.920   6.010  49.299  1.00  0.00     0.000 C 
BRANCH  21  22
ATOM     22  C   UNL     1      34.215   7.097  50.125  1.00  0.00    -0.000 C 
BRANCH  22  23
ATOM     23  C   UNL     1      34.771   8.490  49.788  1.00  0.00    -0.000 C 
BRANCH  23  24
ATOM     24  C   UNL     1      34.134   9.101  48.528  1.00  0.00    -0.000 C 
BRANCH  24  25
ATOM     25  C   UNL     1      33.124  10.233  48.792  1.00  0.00    -0.000 C 
BRANCH  25  26
ATOM     26  C   UNL     1      31.698   9.718  49.036  1.00  0.00    -0.000 C 
BRANCH  26  27
ATOM     27  C   UNL     1      31.448   8.412  48.268  1.00  0.00    -0.000 C 
BRANCH  27  28
ATOM     28  C   UNL     1      30.380   7.530  48.936  1.00  0.00    -0.000 C 
BRANCH  28  29
ATOM     29  C   UNL     1      30.212   6.175  48.234  1.00  0.00    -0.003 C 
ATOM     30  C   UNL     1      28.756   5.718  48.264  1.00  0.00     0.004 C 
ENDBRANCH  28  29
ENDBRANCH  27  28
ENDBRANCH  26  27
ENDBRANCH  25  26
ENDBRANCH  24  25
ENDBRANCH  23  24
ENDBRANCH  22  23
ENDBRANCH  21  22
ENDBRANCH  20  21
ENDBRANCH  19  20
ENDBRANCH  18  19
ENDBRANCH  17  18
ENDBRANCH   1  17
TORSDOF 26
ENDMDL
MODEL 2
REMARK VINA RESULT:    -4.519      1.980      2.715
REMARK INTER + INTRA:         -14.447
REMARK INTER:                 -11.353
REMARK INTRA:                  -3.094
REMARK UNBOUND:                -3.058
REMARK SMILES CCCCCCCCCCCCCCCCCCCCCCCCCCCC(=O)[O-]
REMARK SMILES IDX 15 1 16 2 17 3 18 4 19 5 20 6 21 7 22 8 23 9 24 10 25 11
REMARK SMILES IDX 26 12 27 13 28 14 29 15 30 16 14 17 13 18 12 19 11 20 10 21
REMARK SMILES IDX 9 22 8 23 7 24 6 25 5 26 4 27 3 28 2 29 1 30
REMARK H PARENT
REMARK Flexibility Score: inf
ROOT
ATOM      1  C   UNL     1      33.823   6.806  45.917  1.00  0.00     0.000 C 
ENDROOT
BRANCH   1   2
ATOM      2  C   UNL     1      33.884   7.380  44.494  1.00  0.00     0.000 C 
BRANCH   2   3
ATOM      3  C   UNL     1      34.674   8.697  44.469  1.00  0.00     0.000 C 
BRANCH   3   4
ATOM      4  C   UNL     1      33.956   9.812  43.687  1.00  0.00     0.000 C 
BRANCH   4   5
ATOM      5  C   UNL     1      34.298  11.247  44.139  1.00  0.00     0.000 C 
BRANCH   5   6
ATOM      6  C   UNL     1      34.992  11.353  45.512  1.00  0.00     0.000 C 
BRANCH   6   7
ATOM      7  C   UNL     1      35.718  12.686  45.772  1.00  0.00     0.000 C 
BRANCH   7   8
ATOM      8  C   UNL     1      36.912  12.541  46.727  1.00  0.00     0.000 C 
BRANCH   8   9
ATOM      9  C   UNL     1      38.086  13.422  46.273  1.00  0.00     0.000 C 
BRANCH   9  10
ATOM     10  C   UNL     1      38.336  14.603  47.225  1.00  0.00     0.000 C 
BRANCH  10  11
ATOM     11  C   UNL     1      37.098  15.503  47.382  1.00  0.00     0.000 C 
BRANCH  11  12
ATOM     12  C   UNL     1      37.299  16.890  46.749  1.00  0.00     0.006 C 
BRANCH  12  13
ATOM     13  C   UNL     1      37.002  16.896  45.244  1.00  0.00     0.053 C 
BRANCH  13  14
ATOM     14  C   UNL     1      38.269  17.036  44.462  1.00  0.00     0.041 C 
ATOM     15  O   UNL     1      38.780  16.032  43.895  1.00  0.00    -0.550 OA
ATOM     16  O   UNL     1      38.906  18.267  44.386  1.00  0.00    -0.550 OA
ENDBRANCH  13  14
ENDBRANCH  12  13
ENDBRANCH  11  12
ENDBRANCH  10  11
ENDBRANCH   9  10
ENDBRANCH   8   9
ENDBRANCH   7   8
ENDBRANCH   6   7
ENDBRANCH   5   6
ENDBRANCH   4   5
ENDBRANCH   3   4
ENDBRANCH   2   3
ENDBRANCH   1   2
BRANCH   1  17
ATOM     17  C   UNL     1      34.624   5.501  46.072  1.00  0.00     0.000 C 
BRANCH  17  18
ATOM     18  C   UNL     1      34.494   4.818  47.449  1.00  0.00     0.000 C 
BRANCH  18  19
ATOM     19  C   UNL     1      35.327   5.459  48.575  1.00  0.00     0.000 C 
BRANCH  19  20
ATOM     20  C   UNL     1      34.530   6.342  49.557  1.00  0.00     0.000 C 
BRANCH  20  21
ATOM     21  C   UNL     1      35.220   7.661  49.950  1.00  0.00     0.000 C 
BRANCH  21  22
ATOM     22  C   UNL     1      34.249   8.851  49.995  1.00  0.00    -0.000 C 
BRANCH  22  23
ATOM     23  C   UNL     1      34.214   9.582  48.643  1.00  0.00    -0.000 C 
BRANCH  23  24
ATOM     24  C   UNL     1      32.883   9.394  47.895  1.00  0.00    -0.000 C 
BRANCH  24  25
ATOM     25  C   UNL     1      31.619   9.617  48.747  1.00  0.00    -0.000 C 
BRANCH  25  26
ATOM     26  C   UNL     1      30.833   8.322  49.003  1.00  0.00    -0.000 C 
BRANCH  26  27
ATOM     27  C   UNL     1      31.351   7.182  48.113  1.00  0.00    -0.000 C 
BRANCH  27  28
ATOM     28  C   UNL     1      30.441   5.943  48.152  1.00  0.00    -0.000 C 
BRANCH  28  29
ATOM     29  C   UNL     1      28.964   6.303  48.368  1.00  0.00    -0.003 C 
ATOM     30  C   UNL     1      28.047   5.288  47.691  1.00  0.00     0.004 C 
ENDBRANCH  28  29
ENDBRANCH  27  28
ENDBRANCH  26  27
ENDBRANCH  25  26
ENDBRANCH  24  25
ENDBRANCH  23  24
ENDBRANCH  22  23
ENDBRANCH  21  22
ENDBRANCH  20  21
ENDBRANCH  19  20
ENDBRANCH  18  19
ENDBRANCH  17  18
ENDBRANCH   1  17
TORSDOF 26
ENDMDL
MODEL 3
REMARK VINA RESULT:    -4.486      1.639      4.611
REMARK INTER + INTRA:         -14.363
REMARK INTER:                 -11.374
REMARK INTRA:                  -2.988
REMARK UNBOUND:                -3.058
REMARK SMILES CCCCCCCCCCCCCCCCCCCCCCCCCCCC(=O)[O-]
REMARK SMILES IDX 15 1 16 2 17 3 18 4 19 5 20 6 21 7 22 8 23 9 24 10 25 11
REMARK SMILES IDX 26 12 27 13 28 14 29 15 30 16 14 17 13 18 12 19 11 20 10 21
REMARK SMILES IDX 9 22 8 23 7 24 6 25 5 26 4 27 3 28 2 29 1 30
REMARK H PARENT
REMARK Flexibility Score: inf
ROOT
ATOM      1  C   UNL     1      34.080  10.570  48.407  1.00  0.00     0.000 C 
ENDROOT
BRANCH   1   2
ATOM      2  C   UNL     1      35.256  11.159  49.201  1.00  0.00     0.000 C 
BRANCH   2   3
ATOM      3  C   UNL     1      36.558  11.080  48.390  1.00  0.00     0.000 C 
BRANCH   3   4
ATOM      4  C   UNL     1      36.482  11.847  47.057  1.00  0.00     0.000 C 
BRANCH   4   5
ATOM      5  C   UNL     1      36.169  13.351  47.190  1.00  0.00     0.000 C 
BRANCH   5   6
ATOM      6  C   UNL     1      36.261  14.158  45.879  1.00  0.00     0.000 C 
BRANCH   6   7
ATOM      7  C   UNL     1      37.184  15.389  45.937  1.00  0.00     0.000 C 
BRANCH   7   8
ATOM      8  C   UNL     1      36.558  16.637  45.298  1.00  0.00     0.000 C 
BRANCH   8   9
ATOM      9  C   UNL     1      35.958  17.560  46.370  1.00  0.00     0.000 C 
BRANCH   9  10
ATOM     10  C   UNL     1      36.499  17.253  47.776  1.00  0.00     0.000 C 
BRANCH  10  11
ATOM     11  C   UNL     1      35.395  16.781  48.739  1.00  0.00     0.000 C 
BRANCH  11  12
ATOM     12  C   UNL     1      33.985  17.003  48.166  1.00  0.00     0.006 C 
BRANCH  12  13
ATOM     13  C   UNL     1      33.024  17.610  49.197  1.00  0.00     0.053 C 
BRANCH  13  14
ATOM     14  C   UNL     1      31.853  16.704  49.415  1.00  0.00     0.041 C 
ATOM     15  O   UNL     1      30.686  17.099  49.147  1.00  0.00    -0.550 OA
ATOM     16  O   UNL     1      32.045  15.436  49.946  1.00  0.00    -0.550 OA
ENDBRANCH  13  14
ENDBRANCH  12  13
ENDBRANCH  11  12
ENDBRANCH  10  11
ENDBRANCH   9  10
ENDBRANCH   8   9
ENDBRANCH   7   8
ENDBRANCH   6   7
ENDBRANCH   5   6
ENDBRANCH   4   5
ENDBRANCH   3   4
ENDBRANCH   2   3
ENDBRANCH   1   2
BRANCH   1  17
ATOM     17  C   UNL     1      32.720  10.807  49.086  1.00  0.00     0.000 C 
BRANCH  17  18
ATOM     18  C   UNL     1      31.577   9.902  48.584  1.00  0.00     0.000 C 
BRANCH  18  19
ATOM     19  C   UNL     1      31.289   8.668  49.461  1.00  0.00     0.000 C 
BRANCH  19  20
ATOM     20  C   UNL     1      29.870   8.082  49.321  1.00  0.00     0.000 C 
BRANCH  20  21
ATOM     21  C   UNL     1      29.813   6.554  49.143  1.00  0.00     0.000 C 
BRANCH  21  22
ATOM     22  C   UNL     1      30.476   6.081  47.841  1.00  0.00    -0.000 C 
BRANCH  22  23
ATOM     23  C   UNL     1      31.668   5.156  48.135  1.00  0.00    -0.000 C 
BRANCH  23  24
ATOM     24  C   UNL     1      33.028   5.853  47.948  1.00  0.00    -0.000 C 
BRANCH  24  25
ATOM     25  C   UNL     1      33.074   6.896  46.816  1.00  0.00    -0.000 C 
BRANCH  25  26
ATOM     26  C   UNL     1      34.124   6.571  45.744  1.00  0.00    -0.000 C 
BRANCH  26  27
ATOM     27  C   UNL     1      34.005   7.532  44.551  1.00  0.00    -0.000 C 
BRANCH  27  28
ATOM     28  C   UNL     1      34.362   8.981  44.923  1.00  0.00    -0.000 C 
BRANCH  28  29
ATOM     29  C   UNL     1      34.312   9.928  43.717  1.00  0.00    -0.003 C 
ATOM     30  C   UNL     1      34.445  11.384  44.156  1.00  0.00     0.004 C 
ENDBRANCH  28  29
ENDBRANCH  27  28
ENDBRANCH  26  27
ENDBRANCH  25  26
ENDBRANCH  24  25
ENDBRANCH  23  24
ENDBRANCH  22  23
ENDBRANCH  21  22
ENDBRANCH  20  21
ENDBRANCH  19  20
ENDBRANCH  18  19
ENDBRANCH  17  18
ENDBRANCH   1  17
TORSDOF 26
ENDMDL
MODEL 4
REMARK VINA RESULT:    -4.420      2.088      8.451
REMARK INTER + INTRA:         -14.197
REMARK INTER:                 -10.786
REMARK INTRA:                  -3.411
REMARK UNBOUND:                -3.058
REMARK SMILES CCCCCCCCCCCCCCCCCCCCCCCCCCCC(=O)[O-]
REMARK SMILES IDX 15 1 16 2 17 3 18 4 19 5 20 6 21 7 22 8 23 9 24 10 25 11
REMARK SMILES IDX 26 12 27 13 28 14 29 15 30 16 14 17 13 18 12 19 11 20 10 21
REMARK SMILES IDX 9 22 8 23 7 24 6 25 5 26 4 27 3 28 2 29 1 30
REMARK H PARENT
REMARK Flexibility Score: inf
ROOT
ATOM      1  C   UNL     1      33.251   9.817  48.361  1.00  0.00     0.000 C 
ENDROOT
BRANCH   1   2
ATOM      2  C   UNL     1      31.774   9.873  48.780  1.00  0.00     0.000 C 
BRANCH   2   3
ATOM      3  C   UNL     1      31.496   8.905  49.940  1.00  0.00     0.000 C 
BRANCH   3   4
ATOM      4  C   UNL     1      30.187   8.115  49.761  1.00  0.00     0.000 C 
BRANCH   4   5
ATOM      5  C   UNL     1      30.074   7.336  48.434  1.00  0.00     0.000 C 
BRANCH   5   6
ATOM      6  C   UNL     1      30.350   5.822  48.537  1.00  0.00     0.000 C 
BRANCH   6   7
ATOM      7  C   UNL     1      31.723   5.375  48.004  1.00  0.00     0.000 C 
BRANCH   7   8
ATOM      8  C   UNL     1      32.453   6.480  47.228  1.00  0.00     0.000 C 
BRANCH   8   9
ATOM      9  C   UNL     1      33.893   6.058  46.898  1.00  0.00     0.000 C 
BRANCH   9  10
ATOM     10  C   UNL     1      34.249   6.291  45.420  1.00  0.00     0.000 C 
BRANCH  10  11
ATOM     11  C   UNL     1      33.600   7.567  44.855  1.00  0.00     0.000 C 
BRANCH  11  12
ATOM     12  C   UNL     1      34.604   8.444  44.088  1.00  0.00     0.006 C 
BRANCH  12  13
ATOM     13  C   UNL     1      33.986   9.767  43.618  1.00  0.00     0.053 C 
BRANCH  13  14
ATOM     14  C   UNL     1      34.533  10.910  44.413  1.00  0.00     0.041 C 
ATOM     15  O   UNL     1      34.405  12.093  43.997  1.00  0.00    -0.550 OA
ATOM     16  O   UNL     1      35.216  10.668  45.598  1.00  0.00    -0.550 OA
ENDBRANCH  13  14
ENDBRANCH  12  13
ENDBRANCH  11  12
ENDBRANCH  10  11
ENDBRANCH   9  10
ENDBRANCH   8   9
ENDBRANCH   7   8
ENDBRANCH   6   7
ENDBRANCH   5   6
ENDBRANCH   4   5
ENDBRANCH   3   4
ENDBRANCH   2   3
ENDBRANCH   1   2
BRANCH   1  17
ATOM     17  C   UNL     1      34.210  10.231  49.491  1.00  0.00     0.000 C 
BRANCH  17  18
ATOM     18  C   UNL     1      35.587  10.741  49.019  1.00  0.00     0.000 C 
BRANCH  18  19
ATOM     19  C   UNL     1      35.687  12.266  48.827  1.00  0.00     0.000 C 
BRANCH  19  20
ATOM     20  C   UNL     1      37.120  12.836  48.850  1.00  0.00     0.000 C 
BRANCH  20  21
ATOM     21  C   UNL     1      37.393  13.948  47.821  1.00  0.00     0.000 C 
BRANCH  21  22
ATOM     22  C   UNL     1      36.904  13.587  46.410  1.00  0.00    -0.000 C 
BRANCH  22  23
ATOM     23  C   UNL     1      35.852  14.594  45.919  1.00  0.00    -0.000 C 
BRANCH  23  24
ATOM     24  C   UNL     1      36.474  15.888  45.364  1.00  0.00    -0.000 C 
BRANCH  24  25
ATOM     25  C   UNL     1      35.864  17.191  45.914  1.00  0.00    -0.000 C 
BRANCH  25  26
ATOM     26  C   UNL     1      36.648  17.763  47.104  1.00  0.00    -0.000 C 
BRANCH  26  27
ATOM     27  C   UNL     1      35.727  17.980  48.314  1.00  0.00    -0.000 C 
BRANCH  27  28
ATOM     28  C   UNL     1      35.617  16.729  49.202  1.00  0.00    -0.000 C 
BRANCH  28  29
ATOM     29  C   UNL     1      34.229  16.078  49.133  1.00  0.00    -0.003 C 
ATOM     30  C   UNL     1      33.163  17.097  48.736  1.00  0.00     0.004 C 
ENDBRANCH  28  29
ENDBRANCH  27  28
ENDBRANCH  26  27
ENDBRANCH  25  26
ENDBRANCH  24  25
ENDBRANCH  23  24
ENDBRANCH  22  23
ENDBRANCH  21  22
ENDBRANCH  20  21
ENDBRANCH  19  20
ENDBRANCH  18  19
ENDBRANCH  17  18
ENDBRANCH   1  17
TORSDOF 26
ENDMDL
MODEL 5
REMARK VINA RESULT:    -4.379      1.668      2.318
REMARK INTER + INTRA:         -14.094
REMARK INTER:                 -10.406
REMARK INTRA:                  -3.688
REMARK UNBOUND:                -3.058
REMARK SMILES CCCCCCCCCCCCCCCCCCCCCCCCCCCC(=O)[O-]
REMARK SMILES IDX 15 1 16 2 17 3 18 4 19 5 20 6 21 7 22 8 23 9 24 10 25 11
REMARK SMILES IDX 26 12 27 13 28 14 29 15 30 16 14 17 13 18 12 19 11 20 10 21
REMARK SMILES IDX 9 22 8 23 7 24 6 25 5 26 4 27 3 28 2 29 1 30
REMARK H PARENT
REMARK Flexibility Score: inf
ROOT
ATOM      1  C   UNL     1      34.255   8.372  44.082  1.00  0.00     0.000 C 
ENDROOT
BRANCH   1   2
ATOM      2  C   UNL     1      35.001   9.714  44.108  1.00  0.00     0.000 C 
BRANCH   2   3
ATOM      3  C   UNL     1      34.407  10.651  45.171  1.00  0.00     0.000 C 
BRANCH   3   4
ATOM      4  C   UNL     1      35.468  11.219  46.131  1.00  0.00     0.000 C 
BRANCH   4   5
ATOM      5  C   UNL     1      35.727  12.733  45.991  1.00  0.00     0.000 C 
BRANCH   5   6
ATOM      6  C   UNL     1      37.058  13.229  46.592  1.00  0.00     0.000 C 
BRANCH   6   7
ATOM      7  C   UNL     1      37.111  13.243  48.131  1.00  0.00     0.000 C 
BRANCH   7   8
ATOM      8  C   UNL     1      35.732  13.446  48.775  1.00  0.00     0.000 C 
BRANCH   8   9
ATOM      9  C   UNL     1      35.601  14.862  49.357  1.00  0.00     0.000 C 
BRANCH   9  10
ATOM     10  C   UNL     1      34.870  15.822  48.404  1.00  0.00     0.000 C 
BRANCH  10  11
ATOM     11  C   UNL     1      35.560  17.195  48.312  1.00  0.00     0.000 C 
BRANCH  11  12
ATOM     12  C   UNL     1      36.994  17.094  47.766  1.00  0.00     0.006 C 
BRANCH  12  13
ATOM     13  C   UNL     1      37.167  17.840  46.436  1.00  0.00     0.053 C 
BRANCH  13  14
ATOM     14  C   UNL     1      37.173  16.874  45.293  1.00  0.00     0.041 C 
ATOM     15  O   UNL     1      36.168  16.146  45.071  1.00  0.00    -0.550 OA
ATOM     16  O   UNL     1      38.300  16.753  44.492  1.00  0.00    -0.550 OA
ENDBRANCH  13  14
ENDBRANCH  12  13
ENDBRANCH  11  12
ENDBRANCH  10  11
ENDBRANCH   9  10
ENDBRANCH   8   9
ENDBRANCH   7   8
ENDBRANCH   6   7
ENDBRANCH   5   6
ENDBRANCH   4   5
ENDBRANCH   3   4
ENDBRANCH   2   3
ENDBRANCH   1   2
BRANCH   1  17
ATOM     17  C   UNL     1      34.090   7.751  45.480  1.00  0.00     0.000 C 
BRANCH  17  18
ATOM     18  C   UNL     1      33.821   6.233  45.489  1.00  0.00     0.000 C 
BRANCH  18  19
ATOM     19  C   UNL     1      34.767   5.408  46.383  1.00  0.00     0.000 C 
BRANCH  19  20
ATOM     20  C   UNL     1      34.236   5.114  47.801  1.00  0.00     0.000 C 
BRANCH  20  21
ATOM     21  C   UNL     1      35.060   5.733  48.944  1.00  0.00     0.000 C 
BRANCH  21  22
ATOM     22  C   UNL     1      34.270   6.773  49.752  1.00  0.00    -0.000 C 
BRANCH  22  23
ATOM     23  C   UNL     1      35.050   8.093  49.861  1.00  0.00    -0.000 C 
BRANCH  23  24
ATOM     24  C   UNL     1      34.475   9.204  48.965  1.00  0.00    -0.000 C 
BRANCH  24  25
ATOM     25  C   UNL     1      33.056   9.672  49.339  1.00  0.00    -0.000 C 
BRANCH  25  26
ATOM     26  C   UNL     1      32.029   9.419  48.225  1.00  0.00    -0.000 C 
BRANCH  26  27
ATOM     27  C   UNL     1      31.003   8.360  48.656  1.00  0.00    -0.000 C 
BRANCH  27  28
ATOM     28  C   UNL     1      31.097   7.073  47.819  1.00  0.00    -0.000 C 
BRANCH  28  29
ATOM     29  C   UNL     1      30.593   5.838  48.579  1.00  0.00    -0.003 C 
ATOM     30  C   UNL     1      29.068   5.775  48.575  1.00  0.00     0.004 C 
ENDBRANCH  28  29
ENDBRANCH  27  28
ENDBRANCH  26  27
ENDBRANCH  25  26
ENDBRANCH  24  25
ENDBRANCH  23  24
ENDBRANCH  22  23
ENDBRANCH  21  22
ENDBRANCH  20  21
ENDBRANCH  19  20
ENDBRANCH  18  19
ENDBRANCH  17  18
ENDBRANCH   1  17
TORSDOF 26
ENDMDL
MODEL 6
REMARK VINA RESULT:    -4.368      2.943      7.998
REMARK INTER + INTRA:         -14.066
REMARK INTER:                 -10.112
REMARK INTRA:                  -3.955
REMARK UNBOUND:                -3.058
REMARK SMILES CCCCCCCCCCCCCCCCCCCCCCCCCCCC(=O)[O-]
REMARK SMILES IDX 15 1 16 2 17 3 18 4 19 5 20 6 21 7 22 8 23 9 24 10 25 11
REMARK SMILES IDX 26 12 27 13 28 14 29 15 30 16 14 17 13 18 12 19 11 20 10 21
REMARK SMILES IDX 9 22 8 23 7 24 6 25 5 26 4 27 3 28 2 29 1 30
REMARK H PARENT
REMARK Flexibility Score: inf
ROOT
ATOM      1  C   UNL     1      34.368   8.143  44.170  1.00  0.00     0.000 C 
ENDROOT
BRANCH   1   2
ATOM      2  C   UNL     1      33.590   6.958  44.762  1.00  0.00     0.000 C 
BRANCH   2   3
ATOM      3  C   UNL     1      33.889   6.799  46.260  1.00  0.00     0.000 C 
BRANCH   3   4
ATOM      4  C   UNL     1      34.560   5.456  46.599  1.00  0.00     0.000 C 
BRANCH   4   5
ATOM      5  C   UNL     1      34.880   5.248  48.094  1.00  0.00     0.000 C 
BRANCH   5   6
ATOM      6  C   UNL     1      34.265   6.293  49.047  1.00  0.00     0.000 C 
BRANCH   6   7
ATOM      7  C   UNL     1      35.286   7.124  49.845  1.00  0.00     0.000 C 
BRANCH   7   8
ATOM      8  C   UNL     1      34.823   8.567  50.090  1.00  0.00     0.000 C 
BRANCH   8   9
ATOM      9  C   UNL     1      34.386   9.233  48.776  1.00  0.00     0.000 C 
BRANCH   9  10
ATOM     10  C   UNL     1      33.064  10.004  48.920  1.00  0.00     0.000 C 
BRANCH  10  11
ATOM     11  C   UNL     1      31.869   9.234  48.331  1.00  0.00     0.000 C 
BRANCH  11  12
ATOM     12  C   UNL     1      31.290   8.207  49.319  1.00  0.00     0.006 C 
BRANCH  12  13
ATOM     13  C   UNL     1      29.853   7.799  48.965  1.00  0.00     0.053 C 
BRANCH  13  14
ATOM     14  C   UNL     1      29.837   6.446  48.327  1.00  0.00     0.041 C 
ATOM     15  O   UNL     1      30.903   5.941  47.881  1.00  0.00    -0.550 OA
ATOM     16  O   UNL     1      28.641   5.755  48.194  1.00  0.00    -0.550 OA
ENDBRANCH  13  14
ENDBRANCH  12  13
ENDBRANCH  11  12
ENDBRANCH  10  11
ENDBRANCH   9  10
ENDBRANCH   8   9
ENDBRANCH   7   8
ENDBRANCH   6   7
ENDBRANCH   5   6
ENDBRANCH   4   5
ENDBRANCH   3   4
ENDBRANCH   2   3
ENDBRANCH   1   2
BRANCH   1  17
ATOM     17  C   UNL     1      34.264   9.416  45.028  1.00  0.00     0.000 C 
BRANCH  17  18
ATOM     18  C   UNL     1      34.252  10.736  44.231  1.00  0.00     0.000 C 
BRANCH  18  19
ATOM     19  C   UNL     1      34.998  11.907  44.899  1.00  0.00     0.000 C 
BRANCH  19  20
ATOM     20  C   UNL     1      35.376  11.684  46.378  1.00  0.00     0.000 C 
BRANCH  20  21
ATOM     21  C   UNL     1      36.876  11.821  46.692  1.00  0.00     0.000 C 
BRANCH  21  22
ATOM     22  C   UNL     1      37.155  12.032  48.188  1.00  0.00    -0.000 C 
BRANCH  22  23
ATOM     23  C   UNL     1      37.870  13.371  48.430  1.00  0.00    -0.000 C 
BRANCH  23  24
ATOM     24  C   UNL     1      37.015  14.371  49.228  1.00  0.00    -0.000 C 
BRANCH  24  25
ATOM     25  C   UNL     1      35.512  14.039  49.290  1.00  0.00    -0.000 C 
BRANCH  25  26
ATOM     26  C   UNL     1      34.618  15.278  49.143  1.00  0.00    -0.000 C 
BRANCH  26  27
ATOM     27  C   UNL     1      35.413  16.463  48.575  1.00  0.00    -0.000 C 
BRANCH  27  28
ATOM     28  C   UNL     1      34.977  16.836  47.148  1.00  0.00    -0.000 C 
BRANCH  28  29
ATOM     29  C   UNL     1      36.119  16.708  46.131  1.00  0.00    -0.003 C 
ATOM     30  C   UNL     1      36.232  15.278  45.608  1.00  0.00     0.004 C 
ENDBRANCH  28  29
ENDBRANCH  27  28
ENDBRANCH  26  27
ENDBRANCH  25  26
ENDBRANCH  24  25
ENDBRANCH  23  24
ENDBRANCH  22  23
ENDBRANCH  21  22
ENDBRANCH  20  21
ENDBRANCH  19  20
ENDBRANCH  18  19
ENDBRANCH  17  18
ENDBRANCH   1  17
TORSDOF 26
ENDMDL
MODEL 7
REMARK VINA RESULT:    -4.354      0.990      2.037
REMARK INTER + INTRA:         -14.030
REMARK INTER:                 -10.908
REMARK INTRA:                  -3.122
REMARK UNBOUND:                -3.058
REMARK SMILES CCCCCCCCCCCCCCCCCCCCCCCCCCCC(=O)[O-]
REMARK SMILES IDX 15 1 16 2 17 3 18 4 19 5 20 6 21 7 22 8 23 9 24 10 25 11
REMARK SMILES IDX 26 12 27 13 28 14 29 15 30 16 14 17 13 18 12 19 11 20 10 21
REMARK SMILES IDX 9 22 8 23 7 24 6 25 5 26 4 27 3 28 2 29 1 30
REMARK H PARENT
REMARK Flexibility Score: inf
ROOT
ATOM      1  C   UNL     1      34.910  10.001  44.169  1.00  0.00     0.000 C 
ENDROOT
BRANCH   1   2
ATOM      2  C   UNL     1      34.138  11.327  44.097  1.00  0.00     0.000 C 
BRANCH   2   3
ATOM      3  C   UNL     1      34.957  12.471  44.713  1.00  0.00     0.000 C 
BRANCH   3   4
ATOM      4  C   UNL     1      35.691  12.058  46.002  1.00  0.00     0.000 C 
BRANCH   4   5
ATOM      5  C   UNL     1      36.811  13.019  46.448  1.00  0.00     0.000 C 
BRANCH   5   6
ATOM      6  C   UNL     1      36.774  14.417  45.798  1.00  0.00     0.000 C 
BRANCH   6   7
ATOM      7  C   UNL     1      38.151  15.072  45.587  1.00  0.00     0.000 C 
BRANCH   7   8
ATOM      8  C   UNL     1      38.086  16.333  44.714  1.00  0.00     0.000 C 
BRANCH   8   9
ATOM      9  C   UNL     1      38.715  17.534  45.438  1.00  0.00     0.000 C 
BRANCH   9  10
ATOM     10  C   UNL     1      37.998  17.865  46.757  1.00  0.00     0.000 C 
BRANCH  10  11
ATOM     11  C   UNL     1      36.490  18.102  46.560  1.00  0.00     0.000 C 
BRANCH  11  12
ATOM     12  C   UNL     1      35.694  17.919  47.863  1.00  0.00     0.006 C 
BRANCH  12  13
ATOM     13  C   UNL     1      34.797  16.675  47.832  1.00  0.00     0.053 C 
BRANCH  13  14
ATOM     14  C   UNL     1      35.244  15.683  48.858  1.00  0.00     0.041 C 
ATOM     15  O   UNL     1      36.463  15.596  49.170  1.00  0.00    -0.550 OA
ATOM     16  O   UNL     1      34.321  14.829  49.448  1.00  0.00    -0.550 OA
ENDBRANCH  13  14
ENDBRANCH  12  13
ENDBRANCH  11  12
ENDBRANCH  10  11
ENDBRANCH   9  10
ENDBRANCH   8   9
ENDBRANCH   7   8
ENDBRANCH   6   7
ENDBRANCH   5   6
ENDBRANCH   4   5
ENDBRANCH   3   4
ENDBRANCH   2   3
ENDBRANCH   1   2
BRANCH   1  17
ATOM     17  C   UNL     1      34.242   8.968  45.094  1.00  0.00     0.000 C 
BRANCH  17  18
ATOM     18  C   UNL     1      34.241   7.522  44.558  1.00  0.00     0.000 C 
BRANCH  18  19
ATOM     19  C   UNL     1      33.847   6.446  45.588  1.00  0.00     0.000 C 
BRANCH  19  20
ATOM     20  C   UNL     1      34.796   5.232  45.663  1.00  0.00     0.000 C 
BRANCH  20  21
ATOM     21  C   UNL     1      35.173   4.790  47.088  1.00  0.00     0.000 C 
BRANCH  21  22
ATOM     22  C   UNL     1      34.160   5.257  48.144  1.00  0.00    -0.000 C 
BRANCH  22  23
ATOM     23  C   UNL     1      34.812   6.234  49.135  1.00  0.00    -0.000 C 
BRANCH  23  24
ATOM     24  C   UNL     1      33.814   7.251  49.718  1.00  0.00    -0.000 C 
BRANCH  24  25
ATOM     25  C   UNL     1      33.760   8.604  48.983  1.00  0.00    -0.000 C 
BRANCH  25  26
ATOM     26  C   UNL     1      32.491   8.774  48.135  1.00  0.00    -0.000 C 
BRANCH  26  27
ATOM     27  C   UNL     1      31.317   7.992  48.743  1.00  0.00    -0.000 C 
BRANCH  27  28
ATOM     28  C   UNL     1      30.762   6.923  47.787  1.00  0.00    -0.000 C 
BRANCH  28  29
ATOM     29  C   UNL     1      30.309   5.653  48.521  1.00  0.00    -0.003 C 
ATOM     30  C   UNL     1      29.363   5.991  49.670  1.00  0.00     0.004 C 
ENDBRANCH  28  29
ENDBRANCH  27  28
ENDBRANCH  26  27
ENDBRANCH  25  26
ENDBRANCH  24  25
ENDBRANCH  23  24
ENDBRANCH  22  23
ENDBRANCH  21  22
ENDBRANCH  20  21
ENDBRANCH  19  20
ENDBRANCH  18  19
ENDBRANCH  17  18
ENDBRANCH   1  17
TORSDOF 26
ENDMDL
MODEL 8
REMARK VINA RESULT:    -4.346      1.166      2.553
REMARK INTER + INTRA:         -14.009
REMARK INTER:                 -10.638
REMARK INTRA:                  -3.371
REMARK UNBOUND:                -3.058
REMARK SMILES CCCCCCCCCCCCCCCCCCCCCCCCCCCC(=O)[O-]
REMARK SMILES IDX 15 1 16 2 17 3 18 4 19 5 20 6 21 7 22 8 23 9 24 10 25 11
REMARK SMILES IDX 26 12 27 13 28 14 29 15 30 16 14 17 13 18 12 19 11 20 10 21
REMARK SMILES IDX 9 22 8 23 7 24 6 25 5 26 4 27 3 28 2 29 1 30
REMARK H PARENT
REMARK Flexibility Score: inf
ROOT
ATOM      1  C   UNL     1      34.615   8.733  44.107  1.00  0.00     0.000 C 
ENDROOT
BRANCH   1   2
ATOM      2  C   UNL     1      33.782   9.997  43.847  1.00  0.00     0.000 C 
BRANCH   2   3
ATOM      3  C   UNL     1      34.601  11.263  44.144  1.00  0.00     0.000 C 
BRANCH   3   4
ATOM      4  C   UNL     1      35.177  11.284  45.571  1.00  0.00     0.000 C 
BRANCH   4   5
ATOM      5  C   UNL     1      35.616  12.674  46.075  1.00  0.00     0.000 C 
BRANCH   5   6
ATOM      6  C   UNL     1      36.993  12.716  46.767  1.00  0.00     0.000 C 
BRANCH   6   7
ATOM      7  C   UNL     1      38.076  13.506  46.011  1.00  0.00     0.000 C 
BRANCH   7   8
ATOM      8  C   UNL     1      38.455  14.821  46.708  1.00  0.00     0.000 C 
BRANCH   8   9
ATOM      9  C   UNL     1      38.211  16.022  45.781  1.00  0.00     0.000 C 
BRANCH   9  10
ATOM     10  C   UNL     1      36.752  16.111  45.307  1.00  0.00     0.000 C 
BRANCH  10  11
ATOM     11  C   UNL     1      36.078  17.430  45.727  1.00  0.00     0.000 C 
BRANCH  11  12
ATOM     12  C   UNL     1      35.922  17.547  47.252  1.00  0.00     0.006 C 
BRANCH  12  13
ATOM     13  C   UNL     1      34.931  16.522  47.819  1.00  0.00     0.053 C 
BRANCH  13  14
ATOM     14  C   UNL     1      33.993  17.180  48.781  1.00  0.00     0.041 C 
ATOM     15  O   UNL     1      34.434  17.711  49.836  1.00  0.00    -0.550 OA
ATOM     16  O   UNL     1      32.627  17.179  48.532  1.00  0.00    -0.550 OA
ENDBRANCH  13  14
ENDBRANCH  12  13
ENDBRANCH  11  12
ENDBRANCH  10  11
ENDBRANCH   9  10
ENDBRANCH   8   9
ENDBRANCH   7   8
ENDBRANCH   6   7
ENDBRANCH   5   6
ENDBRANCH   4   5
ENDBRANCH   3   4
ENDBRANCH   2   3
ENDBRANCH   1   2
BRANCH   1  17
ATOM     17  C   UNL     1      34.197   7.994  45.391  1.00  0.00     0.000 C 
BRANCH  17  18
ATOM     18  C   UNL     1      33.756   6.530  45.183  1.00  0.00     0.000 C 
BRANCH  18  19
ATOM     19  C   UNL     1      34.841   5.476  45.473  1.00  0.00     0.000 C 
BRANCH  19  20
ATOM     20  C   UNL     1      34.903   4.984  46.933  1.00  0.00     0.000 C 
BRANCH  20  21
ATOM     21  C   UNL     1      33.668   5.328  47.786  1.00  0.00     0.000 C 
BRANCH  21  22
ATOM     22  C   UNL     1      33.944   6.434  48.815  1.00  0.00    -0.000 C 
BRANCH  22  23
ATOM     23  C   UNL     1      32.685   6.743  49.641  1.00  0.00    -0.000 C 
BRANCH  23  24
ATOM     24  C   UNL     1      31.384   6.568  48.838  1.00  0.00    -0.000 C 
BRANCH  24  25
ATOM     25  C   UNL     1      30.625   7.874  48.537  1.00  0.00    -0.000 C 
BRANCH  25  26
ATOM     26  C   UNL     1      31.148   9.071  49.345  1.00  0.00    -0.000 C 
BRANCH  26  27
ATOM     27  C   UNL     1      31.596  10.207  48.414  1.00  0.00    -0.000 C 
BRANCH  27  28
ATOM     28  C   UNL     1      33.098  10.145  48.088  1.00  0.00    -0.000 C 
BRANCH  28  29
ATOM     29  C   UNL     1      33.970  10.699  49.223  1.00  0.00    -0.003 C 
ATOM     30  C   UNL     1      35.268   9.906  49.355  1.00  0.00     0.004 C 
ENDBRANCH  28  29
ENDBRANCH  27  28
ENDBRANCH  26  27
ENDBRANCH  25  26
ENDBRANCH  24  25
ENDBRANCH  23  24
ENDBRANCH  22  23
ENDBRANCH  21  22
ENDBRANCH  20  21
ENDBRANCH  19  20
ENDBRANCH  18  19
ENDBRANCH  17  18
ENDBRANCH   1  17
TORSDOF 26
ENDMDL
MODEL 9
REMARK VINA RESULT:    -4.344      3.572      9.966
REMARK INTER + INTRA:         -14.005
REMARK INTER:                 -11.849
REMARK INTRA:                  -2.156
REMARK UNBOUND:                -3.058
REMARK SMILES CCCCCCCCCCCCCCCCCCCCCCCCCCCC(=O)[O-]
REMARK SMILES IDX 15 1 16 2 17 3 18 4 19 5 20 6 21 7 22 8 23 9 24 10 25 11
REMARK SMILES IDX 26 12 27 13 28 14 29 15 30 16 14 17 13 18 12 19 11 20 10 21
REMARK SMILES IDX 9 22 8 23 7 24 6 25 5 26 4 27 3 28 2 29 1 30
REMARK H PARENT
REMARK Flexibility Score: inf
ROOT
ATOM      1  C   UNL     1      35.753  13.106  46.049  1.00  0.00     0.000 C 
ENDROOT
BRANCH   1   2
ATOM      2  C   UNL     1      35.384  11.616  45.993  1.00  0.00     0.000 C 
BRANCH   2   3
ATOM      3  C   UNL     1      35.180  11.049  47.407  1.00  0.00     0.000 C 
BRANCH   3   4
ATOM      4  C   UNL     1      33.941  10.142  47.516  1.00  0.00     0.000 C 
BRANCH   4   5
ATOM      5  C   UNL     1      33.047  10.409  48.745  1.00  0.00     0.000 C 
BRANCH   5   6
ATOM      6  C   UNL     1      31.603   9.878  48.633  1.00  0.00     0.000 C 
BRANCH   6   7
ATOM      7  C   UNL     1      31.303   8.628  49.479  1.00  0.00     0.000 C 
BRANCH   7   8
ATOM      8  C   UNL     1      29.944   7.995  49.151  1.00  0.00     0.000 C 
BRANCH   8   9
ATOM      9  C   UNL     1      30.116   6.544  48.675  1.00  0.00     0.000 C 
BRANCH   9  10
ATOM     10  C   UNL     1      31.138   6.418  47.534  1.00  0.00     0.000 C 
BRANCH  10  11
ATOM     11  C   UNL     1      32.437   5.726  47.984  1.00  0.00     0.000 C 
BRANCH  11  12
ATOM     12  C   UNL     1      33.693   6.468  47.500  1.00  0.00     0.006 C 
BRANCH  12  13
ATOM     13  C   UNL     1      34.203   5.941  46.152  1.00  0.00     0.053 C 
BRANCH  13  14
ATOM     14  C   UNL     1      35.184   4.832  46.363  1.00  0.00     0.041 C 
ATOM     15  O   UNL     1      35.642   4.598  47.514  1.00  0.00    -0.550 OA
ATOM     16  O   UNL     1      35.621   4.076  45.283  1.00  0.00    -0.550 OA
ENDBRANCH  13  14
ENDBRANCH  12  13
ENDBRANCH  11  12
ENDBRANCH  10  11
ENDBRANCH   9  10
ENDBRANCH   8   9
ENDBRANCH   7   8
ENDBRANCH   6   7
ENDBRANCH   5   6
ENDBRANCH   4   5
ENDBRANCH   3   4
ENDBRANCH   2   3
ENDBRANCH   1   2
BRANCH   1  17
ATOM     17  C   UNL     1      37.258  13.343  46.271  1.00  0.00     0.000 C 
BRANCH  17  18
ATOM     18  C   UNL     1      37.689  14.823  46.271  1.00  0.00     0.000 C 
BRANCH  18  19
ATOM     19  C   UNL     1      37.171  15.653  45.081  1.00  0.00     0.000 C 
BRANCH  19  20
ATOM     20  C   UNL     1      37.325  17.180  45.232  1.00  0.00     0.000 C 
BRANCH  20  21
ATOM     21  C   UNL     1      36.150  17.884  45.934  1.00  0.00     0.000 C 
BRANCH  21  22
ATOM     22  C   UNL     1      36.449  18.218  47.404  1.00  0.00    -0.000 C 
BRANCH  22  23
ATOM     23  C   UNL     1      35.750  17.225  48.346  1.00  0.00    -0.000 C 
BRANCH  23  24
ATOM     24  C   UNL     1      34.360  16.798  47.842  1.00  0.00    -0.000 C 
BRANCH  24  25
ATOM     25  C   UNL     1      33.187  17.186  48.761  1.00  0.00    -0.000 C 
BRANCH  25  26
ATOM     26  C   UNL     1      33.478  18.431  49.611  1.00  0.00    -0.000 C 
BRANCH  26  27
ATOM     27  C   UNL     1      32.252  19.354  49.670  1.00  0.00    -0.000 C 
BRANCH  27  28
ATOM     28  C   UNL     1      31.072  18.821  48.841  1.00  0.00    -0.000 C 
BRANCH  28  29
ATOM     29  C   UNL     1      29.723  19.392  49.300  1.00  0.00    -0.003 C 
ATOM     30  C   UNL     1      28.727  19.444  48.144  1.00  0.00     0.004 C 
ENDBRANCH  28  29
ENDBRANCH  27  28
ENDBRANCH  26  27
ENDBRANCH  25  26
ENDBRANCH  24  25
ENDBRANCH  23  24
ENDBRANCH  22  23
ENDBRANCH  21  22
ENDBRANCH  20  21
ENDBRANCH  19  20
ENDBRANCH  18  19
ENDBRANCH  17  18
ENDBRANCH   1  17
TORSDOF 26
ENDMDL
