MODEL 1
REMARK VINA RESULT:    -7.125      0.000      0.000
REMARK INTER + INTRA:          -8.671
REMARK INTER:                  -8.374
REMARK INTRA:                  -0.297
REMARK UNBOUND:                -0.297
REMARK SMILES O=c1cc(-c2ccc(O)c(O)c2)oc2cc(O)cc(O)c12
REMARK SMILES IDX 4 1 3 2 2 3 1 4 21 5 19 6 18 7 16 8 15 9 14 10 13 11 5 12
REMARK SMILES IDX 6 13 7 14 8 15 12 16 10 17 9 18 11 20 20 22 17 24
REMARK H PARENT 9 19 11 21 20 23 17 25
REMARK Flexibility Score: inf
ROOT
ATOM      1  C   UNL     1      27.466  -2.318  35.620  1.00  0.00     0.138 A 
ATOM      2  C   UNL     1      27.730  -1.299  36.550  1.00  0.00     0.100 A 
ATOM      3  C   UNL     1      26.699  -0.448  36.948  1.00  0.00     0.197 A 
ATOM      4  O   UNL     1      26.946   0.465  37.782  1.00  0.00    -0.289 OA
ATOM      5  C   UNL     1      25.408  -0.619  36.409  1.00  0.00     0.107 A 
ATOM      6  C   UNL     1      24.308   0.198  36.758  1.00  0.00     0.134 A 
ATOM      7  C   UNL     1      23.054  -0.034  36.172  1.00  0.00     0.093 A 
ATOM      8  C   UNL     1      22.883  -1.068  35.243  1.00  0.00     0.123 A 
ATOM      9  C   UNL     1      23.967  -1.877  34.895  1.00  0.00     0.094 A 
ATOM     10  C   UNL     1      25.223  -1.662  35.469  1.00  0.00     0.146 A 
ATOM     11  O   UNL     1      26.238  -2.446  35.122  1.00  0.00    -0.456 OA
ENDROOT
BRANCH   1  12
ATOM     12  C   UNL     1      28.525  -3.251  35.159  1.00  0.00     0.021 A 
ATOM     13  C   UNL     1      28.193  -4.284  34.265  1.00  0.00     0.016 A 
ATOM     14  C   UNL     1      29.170  -5.180  33.822  1.00  0.00     0.051 A 
ATOM     15  C   UNL     1      30.488  -5.069  34.271  1.00  0.00     0.157 A 
ATOM     16  C   UNL     1      29.852  -3.151  35.618  1.00  0.00     0.062 A 
ATOM     17  C   UNL     1      30.831  -4.052  35.176  1.00  0.00     0.158 A 
BRANCH  15  18
ATOM     18  O   UNL     1      31.440  -5.977  33.810  1.00  0.00    -0.504 OA
ATOM     19  H   UNL     1      32.376  -6.018  34.196  1.00  0.00     0.293 HD
ENDBRANCH  15  18
BRANCH  17  20
ATOM     20  O   UNL     1      32.144  -3.942  35.636  1.00  0.00    -0.504 OA
ATOM     21  H   UNL     1      32.932  -4.220  35.064  1.00  0.00     0.293 HD
ENDBRANCH  17  20
ENDBRANCH   1  12
BRANCH   6  22
ATOM     22  O   UNL     1      24.448   1.236  37.681  1.00  0.00    -0.507 OA
ATOM     23  H   UNL     1      24.902   1.095  38.575  1.00  0.00     0.293 HD
ENDBRANCH   6  22
BRANCH   8  24
ATOM     24  O   UNL     1      21.639  -1.299  34.660  1.00  0.00    -0.508 OA
ATOM     25  H   UNL     1      21.000  -0.540  34.457  1.00  0.00     0.293 HD
ENDBRANCH   8  24
TORSDOF 5
ENDMDL
MODEL 2
REMARK VINA RESULT:    -6.378      1.190      2.773
REMARK INTER + INTRA:          -7.794
REMARK INTER:                  -7.476
REMARK INTRA:                  -0.318
REMARK UNBOUND:                -0.297
REMARK SMILES O=c1cc(-c2ccc(O)c(O)c2)oc2cc(O)cc(O)c12
REMARK SMILES IDX 4 1 3 2 2 3 1 4 21 5 19 6 18 7 16 8 15 9 14 10 13 11 5 12
REMARK SMILES IDX 6 13 7 14 8 15 12 16 10 17 9 18 11 20 20 22 17 24
REMARK H PARENT 9 19 11 21 20 23 17 25
REMARK Flexibility Score: inf
ROOT
ATOM      1  C   UNL     1      27.850  -3.066  34.738  1.00  0.00     0.138 A 
ATOM      2  C   UNL     1      26.694  -3.427  34.027  1.00  0.00     0.100 A 
ATOM      3  C   UNL     1      25.497  -2.756  34.275  1.00  0.00     0.197 A 
ATOM      4  O   UNL     1      24.464  -3.088  33.632  1.00  0.00    -0.289 OA
ATOM      5  C   UNL     1      25.463  -1.728  35.239  1.00  0.00     0.107 A 
ATOM      6  C   UNL     1      24.292  -0.997  35.551  1.00  0.00     0.134 A 
ATOM      7  C   UNL     1      24.339   0.008  36.528  1.00  0.00     0.093 A 
ATOM      8  C   UNL     1      25.535   0.295  37.199  1.00  0.00     0.123 A 
ATOM      9  C   UNL     1      26.693  -0.424  36.894  1.00  0.00     0.094 A 
ATOM     10  C   UNL     1      26.666  -1.429  35.922  1.00  0.00     0.146 A 
ATOM     11  O   UNL     1      27.781  -2.098  35.650  1.00  0.00    -0.456 OA
ENDROOT
BRANCH   1  12
ATOM     12  C   UNL     1      29.151  -3.748  34.516  1.00  0.00     0.021 A 
ATOM     13  C   UNL     1      29.221  -4.822  33.613  1.00  0.00     0.016 A 
ATOM     14  C   UNL     1      30.432  -5.485  33.391  1.00  0.00     0.051 A 
ATOM     15  C   UNL     1      31.587  -5.096  34.074  1.00  0.00     0.157 A 
ATOM     16  C   UNL     1      30.314  -3.367  35.212  1.00  0.00     0.062 A 
ATOM     17  C   UNL     1      31.528  -4.035  34.992  1.00  0.00     0.158 A 
BRANCH  15  18
ATOM     18  O   UNL     1      32.779  -5.776  33.832  1.00  0.00    -0.504 OA
ATOM     19  H   UNL     1      32.797  -6.702  33.421  1.00  0.00     0.293 HD
ENDBRANCH  15  18
BRANCH  17  20
ATOM     20  O   UNL     1      32.676  -3.648  35.685  1.00  0.00    -0.504 OA
ATOM     21  H   UNL     1      32.634  -3.330  36.645  1.00  0.00     0.293 HD
ENDBRANCH  17  20
ENDBRANCH   1  12
BRANCH   6  22
ATOM     22  O   UNL     1      23.086  -1.260  34.900  1.00  0.00    -0.507 OA
ATOM     23  H   UNL     1      22.437  -1.958  35.242  1.00  0.00     0.293 HD
ENDBRANCH   6  22
BRANCH   8  24
ATOM     24  O   UNL     1      25.583   1.292  38.170  1.00  0.00    -0.508 OA
ATOM     25  H   UNL     1      24.906   2.045  38.189  1.00  0.00     0.293 HD
ENDBRANCH   8  24
TORSDOF 5
ENDMDL
MODEL 3
REMARK VINA RESULT:    -6.025      2.615      3.790
REMARK INTER + INTRA:          -7.378
REMARK INTER:                  -7.111
REMARK INTRA:                  -0.267
REMARK UNBOUND:                -0.297
REMARK SMILES O=c1cc(-c2ccc(O)c(O)c2)oc2cc(O)cc(O)c12
REMARK SMILES IDX 4 1 3 2 2 3 1 4 21 5 19 6 18 7 16 8 15 9 14 10 13 11 5 12
REMARK SMILES IDX 6 13 7 14 8 15 12 16 10 17 9 18 11 20 20 22 17 24
REMARK H PARENT 9 19 11 21 20 23 17 25
REMARK Flexibility Score: inf
ROOT
ATOM      1  C   UNL     1      25.651  -1.524  34.484  1.00  0.00     0.138 A 
ATOM      2  C   UNL     1      24.363  -1.914  34.888  1.00  0.00     0.100 A 
ATOM      3  C   UNL     1      23.273  -1.092  34.600  1.00  0.00     0.197 A 
ATOM      4  O   UNL     1      22.122  -1.451  34.968  1.00  0.00    -0.289 OA
ATOM      5  C   UNL     1      23.479   0.120  33.912  1.00  0.00     0.107 A 
ATOM      6  C   UNL     1      22.431   1.011  33.580  1.00  0.00     0.134 A 
ATOM      7  C   UNL     1      22.720   2.202  32.898  1.00  0.00     0.093 A 
ATOM      8  C   UNL     1      24.037   2.519  32.543  1.00  0.00     0.123 A 
ATOM      9  C   UNL     1      25.075   1.643  32.869  1.00  0.00     0.094 A 
ATOM     10  C   UNL     1      24.807   0.450  33.548  1.00  0.00     0.146 A 
ATOM     11  O   UNL     1      25.812  -0.367  33.845  1.00  0.00    -0.456 OA
ENDROOT
BRANCH   1  12
ATOM     12  C   UNL     1      26.846  -2.358  34.765  1.00  0.00     0.021 A 
ATOM     13  C   UNL     1      27.679  -2.027  35.848  1.00  0.00     0.016 A 
ATOM     14  C   UNL     1      28.815  -2.792  36.130  1.00  0.00     0.051 A 
ATOM     15  C   UNL     1      29.144  -3.890  35.331  1.00  0.00     0.157 A 
ATOM     16  C   UNL     1      27.189  -3.457  33.955  1.00  0.00     0.062 A 
ATOM     17  C   UNL     1      28.330  -4.223  34.236  1.00  0.00     0.158 A 
BRANCH  15  18
ATOM     18  O   UNL     1      30.283  -4.634  35.637  1.00  0.00    -0.504 OA
ATOM     19  H   UNL     1      31.217  -4.288  35.453  1.00  0.00     0.293 HD
ENDBRANCH  15  18
BRANCH  17  20
ATOM     20  O   UNL     1      28.660  -5.311  33.428  1.00  0.00    -0.504 OA
ATOM     21  H   UNL     1      28.166  -5.499  32.564  1.00  0.00     0.293 HD
ENDBRANCH  17  20
ENDBRANCH   1  12
BRANCH   6  22
ATOM     22  O   UNL     1      21.109   0.722  33.921  1.00  0.00    -0.507 OA
ATOM     23  H   UNL     1      20.871  -0.063  34.515  1.00  0.00     0.293 HD
ENDBRANCH   6  22
BRANCH   8  24
ATOM     24  O   UNL     1      24.325   3.702  31.866  1.00  0.00    -0.508 OA
ATOM     25  H   UNL     1      23.830   4.561  32.068  1.00  0.00     0.293 HD
ENDBRANCH   8  24
TORSDOF 5
ENDMDL
MODEL 4
REMARK VINA RESULT:    -5.890      1.876      7.726
REMARK INTER + INTRA:          -7.220
REMARK INTER:                  -6.952
REMARK INTRA:                  -0.268
REMARK UNBOUND:                -0.297
REMARK SMILES O=c1cc(-c2ccc(O)c(O)c2)oc2cc(O)cc(O)c12
REMARK SMILES IDX 4 1 3 2 2 3 1 4 21 5 19 6 18 7 16 8 15 9 14 10 13 11 5 12
REMARK SMILES IDX 6 13 7 14 8 15 12 16 10 17 9 18 11 20 20 22 17 24
REMARK H PARENT 9 19 11 21 20 23 17 25
REMARK Flexibility Score: inf
ROOT
ATOM      1  C   UNL     1      28.791  -3.076  35.060  1.00  0.00     0.138 A 
ATOM      2  C   UNL     1      28.856  -4.432  34.695  1.00  0.00     0.100 A 
ATOM      3  C   UNL     1      30.077  -4.980  34.303  1.00  0.00     0.197 A 
ATOM      4  O   UNL     1      30.125  -6.197  33.977  1.00  0.00    -0.289 OA
ATOM      5  C   UNL     1      31.227  -4.166  34.273  1.00  0.00     0.107 A 
ATOM      6  C   UNL     1      32.503  -4.642  33.888  1.00  0.00     0.134 A 
ATOM      7  C   UNL     1      33.599  -3.766  33.880  1.00  0.00     0.093 A 
ATOM      8  C   UNL     1      33.442  -2.424  34.248  1.00  0.00     0.123 A 
ATOM      9  C   UNL     1      32.184  -1.950  34.627  1.00  0.00     0.094 A 
ATOM     10  C   UNL     1      31.080  -2.808  34.643  1.00  0.00     0.146 A 
ATOM     11  O   UNL     1      29.894  -2.333  35.010  1.00  0.00    -0.456 OA
ENDROOT
BRANCH   1  12
ATOM     12  C   UNL     1      27.519  -2.439  35.484  1.00  0.00     0.021 A 
ATOM     13  C   UNL     1      27.429  -1.861  36.761  1.00  0.00     0.016 A 
ATOM     14  C   UNL     1      26.241  -1.261  37.188  1.00  0.00     0.051 A 
ATOM     15  C   UNL     1      25.121  -1.240  36.354  1.00  0.00     0.157 A 
ATOM     16  C   UNL     1      26.383  -2.427  34.651  1.00  0.00     0.062 A 
ATOM     17  C   UNL     1      25.190  -1.828  35.080  1.00  0.00     0.158 A 
BRANCH  15  18
ATOM     18  O   UNL     1      23.949  -0.634  36.806  1.00  0.00    -0.504 OA
ATOM     19  H   UNL     1      23.172  -1.171  37.171  1.00  0.00     0.293 HD
ENDBRANCH  15  18
BRANCH  17  20
ATOM     20  O   UNL     1      24.071  -1.819  34.247  1.00  0.00    -0.504 OA
ATOM     21  H   UNL     1      24.062  -2.320  33.367  1.00  0.00     0.293 HD
ENDBRANCH  17  20
ENDBRANCH   1  12
BRANCH   6  22
ATOM     22  O   UNL     1      32.691  -5.974  33.516  1.00  0.00    -0.507 OA
ATOM     23  H   UNL     1      32.419  -6.739  34.121  1.00  0.00     0.293 HD
ENDBRANCH   6  22
BRANCH   8  24
ATOM     24  O   UNL     1      34.529  -1.553  34.238  1.00  0.00    -0.508 OA
ATOM     25  H   UNL     1      34.786  -1.018  35.059  1.00  0.00     0.293 HD
ENDBRANCH   8  24
TORSDOF 5
ENDMDL
MODEL 5
REMARK VINA RESULT:    -5.653      4.751      9.055
REMARK INTER + INTRA:          -6.941
REMARK INTER:                  -6.632
REMARK INTRA:                  -0.310
REMARK UNBOUND:                -0.297
REMARK SMILES O=c1cc(-c2ccc(O)c(O)c2)oc2cc(O)cc(O)c12
REMARK SMILES IDX 4 1 3 2 2 3 1 4 21 5 19 6 18 7 16 8 15 9 14 10 13 11 5 12
REMARK SMILES IDX 6 13 7 14 8 15 12 16 10 17 9 18 11 20 20 22 17 24
REMARK H PARENT 9 19 11 21 20 23 17 25
REMARK Flexibility Score: inf
ROOT
ATOM      1  C   UNL     1      22.341   2.574  38.258  1.00  0.00     0.138 A 
ATOM      2  C   UNL     1      21.545   3.089  37.222  1.00  0.00     0.100 A 
ATOM      3  C   UNL     1      21.478   2.411  36.004  1.00  0.00     0.197 A 
ATOM      4  O   UNL     1      20.761   2.882  35.080  1.00  0.00    -0.289 OA
ATOM      5  C   UNL     1      22.214   1.222  35.830  1.00  0.00     0.107 A 
ATOM      6  C   UNL     1      22.203   0.473  34.629  1.00  0.00     0.134 A 
ATOM      7  C   UNL     1      22.968  -0.699  34.533  1.00  0.00     0.093 A 
ATOM      8  C   UNL     1      23.745  -1.134  35.614  1.00  0.00     0.123 A 
ATOM      9  C   UNL     1      23.759  -0.397  36.800  1.00  0.00     0.094 A 
ATOM     10  C   UNL     1      23.003   0.772  36.917  1.00  0.00     0.146 A 
ATOM     11  O   UNL     1      23.032   1.454  38.057  1.00  0.00    -0.456 OA
ENDROOT
BRANCH   1  12
ATOM     12  C   UNL     1      22.451   3.255  39.573  1.00  0.00     0.021 A 
ATOM     13  C   UNL     1      22.222   4.639  39.655  1.00  0.00     0.016 A 
ATOM     14  C   UNL     1      22.325   5.305  40.880  1.00  0.00     0.051 A 
ATOM     15  C   UNL     1      22.670   4.605  42.038  1.00  0.00     0.157 A 
ATOM     16  C   UNL     1      22.811   2.556  40.741  1.00  0.00     0.062 A 
ATOM     17  C   UNL     1      22.917   3.224  41.970  1.00  0.00     0.158 A 
BRANCH  15  18
ATOM     18  O   UNL     1      22.765   5.296  43.245  1.00  0.00    -0.504 OA
ATOM     19  H   UNL     1      22.835   4.818  44.136  1.00  0.00     0.293 HD
ENDBRANCH  15  18
BRANCH  17  20
ATOM     20  O   UNL     1      23.273   2.521  43.121  1.00  0.00    -0.504 OA
ATOM     21  H   UNL     1      23.833   2.946  43.850  1.00  0.00     0.293 HD
ENDBRANCH  17  20
ENDBRANCH   1  12
BRANCH   6  22
ATOM     22  O   UNL     1      21.439   0.882  33.535  1.00  0.00    -0.507 OA
ATOM     23  H   UNL     1      20.480   0.581  33.413  1.00  0.00     0.293 HD
ENDBRANCH   6  22
BRANCH   8  24
ATOM     24  O   UNL     1      24.506  -2.297  35.519  1.00  0.00    -0.508 OA
ATOM     25  H   UNL     1      24.505  -2.992  36.256  1.00  0.00     0.293 HD
ENDBRANCH   8  24
TORSDOF 5
ENDMDL
MODEL 6
REMARK VINA RESULT:    -5.616      3.601      7.836
REMARK INTER + INTRA:          -6.898
REMARK INTER:                  -6.632
REMARK INTRA:                  -0.267
REMARK UNBOUND:                -0.297
REMARK SMILES O=c1cc(-c2ccc(O)c(O)c2)oc2cc(O)cc(O)c12
REMARK SMILES IDX 4 1 3 2 2 3 1 4 21 5 19 6 18 7 16 8 15 9 14 10 13 11 5 12
REMARK SMILES IDX 6 13 7 14 8 15 12 16 10 17 9 18 11 20 20 22 17 24
REMARK H PARENT 9 19 11 21 20 23 17 25
REMARK Flexibility Score: inf
ROOT
ATOM      1  C   UNL     1      25.165   1.969  38.303  1.00  0.00     0.138 A 
ATOM      2  C   UNL     1      26.457   1.610  37.883  1.00  0.00     0.100 A 
ATOM      3  C   UNL     1      26.614   0.625  36.908  1.00  0.00     0.197 A 
ATOM      4  O   UNL     1      27.778   0.310  36.539  1.00  0.00    -0.289 OA
ATOM      5  C   UNL     1      25.476   0.001  36.360  1.00  0.00     0.107 A 
ATOM      6  C   UNL     1      25.546  -1.006  35.368  1.00  0.00     0.134 A 
ATOM      7  C   UNL     1      24.365  -1.582  34.878  1.00  0.00     0.093 A 
ATOM      8  C   UNL     1      23.116  -1.172  35.362  1.00  0.00     0.123 A 
ATOM      9  C   UNL     1      23.043  -0.180  36.341  1.00  0.00     0.094 A 
ATOM     10  C   UNL     1      24.208   0.408  36.842  1.00  0.00     0.146 A 
ATOM     11  O   UNL     1      24.111   1.351  37.773  1.00  0.00    -0.456 OA
ENDROOT
BRANCH   1  12
ATOM     12  C   UNL     1      24.938   3.008  39.338  1.00  0.00     0.021 A 
ATOM     13  C   UNL     1      24.217   4.168  39.005  1.00  0.00     0.016 A 
ATOM     14  C   UNL     1      23.996   5.165  39.959  1.00  0.00     0.051 A 
ATOM     15  C   UNL     1      24.499   5.028  41.255  1.00  0.00     0.157 A 
ATOM     16  C   UNL     1      25.454   2.881  40.642  1.00  0.00     0.062 A 
ATOM     17  C   UNL     1      25.235   3.883  41.599  1.00  0.00     0.158 A 
BRANCH  15  18
ATOM     18  O   UNL     1      24.261   6.039  42.185  1.00  0.00    -0.504 OA
ATOM     19  H   UNL     1      23.324   6.342  42.424  1.00  0.00     0.293 HD
ENDBRANCH  15  18
BRANCH  17  20
ATOM     20  O   UNL     1      25.749   3.745  42.888  1.00  0.00    -0.504 OA
ATOM     21  H   UNL     1      25.793   2.844  43.348  1.00  0.00     0.293 HD
ENDBRANCH  17  20
ENDBRANCH   1  12
BRANCH   6  22
ATOM     22  O   UNL     1      26.776  -1.435  34.867  1.00  0.00    -0.507 OA
ATOM     23  H   UNL     1      27.289  -2.196  35.294  1.00  0.00     0.293 HD
ENDBRANCH   6  22
BRANCH   8  24
ATOM     24  O   UNL     1      21.944  -1.745  34.876  1.00  0.00    -0.508 OA
ATOM     25  H   UNL     1      21.064  -1.244  34.890  1.00  0.00     0.293 HD
ENDBRANCH   8  24
TORSDOF 5
ENDMDL
MODEL 7
REMARK VINA RESULT:    -5.603      3.188      6.846
REMARK INTER + INTRA:          -6.883
REMARK INTER:                  -6.587
REMARK INTRA:                  -0.296
REMARK UNBOUND:                -0.297
REMARK SMILES O=c1cc(-c2ccc(O)c(O)c2)oc2cc(O)cc(O)c12
REMARK SMILES IDX 4 1 3 2 2 3 1 4 21 5 19 6 18 7 16 8 15 9 14 10 13 11 5 12
REMARK SMILES IDX 6 13 7 14 8 15 12 16 10 17 9 18 11 20 20 22 17 24
REMARK H PARENT 9 19 11 21 20 23 17 25
REMARK Flexibility Score: inf
ROOT
ATOM      1  C   UNL     1      25.851   1.078  37.499  1.00  0.00     0.138 A 
ATOM      2  C   UNL     1      27.016   0.579  36.892  1.00  0.00     0.100 A 
ATOM      3  C   UNL     1      26.913  -0.418  35.922  1.00  0.00     0.197 A 
ATOM      4  O   UNL     1      27.965  -0.859  35.384  1.00  0.00    -0.289 OA
ATOM      5  C   UNL     1      25.643  -0.915  35.568  1.00  0.00     0.107 A 
ATOM      6  C   UNL     1      25.450  -1.924  34.595  1.00  0.00     0.134 A 
ATOM      7  C   UNL     1      24.152  -2.369  34.303  1.00  0.00     0.093 A 
ATOM      8  C   UNL     1      23.045  -1.824  34.966  1.00  0.00     0.123 A 
ATOM      9  C   UNL     1      23.231  -0.828  35.927  1.00  0.00     0.094 A 
ATOM     10  C   UNL     1      24.517  -0.371  36.232  1.00  0.00     0.146 A 
ATOM     11  O   UNL     1      24.667   0.579  37.149  1.00  0.00    -0.456 OA
ENDROOT
BRANCH   1  12
ATOM     12  C   UNL     1      25.901   2.138  38.538  1.00  0.00     0.021 A 
ATOM     13  C   UNL     1      24.710   2.768  38.938  1.00  0.00     0.016 A 
ATOM     14  C   UNL     1      24.731   3.773  39.909  1.00  0.00     0.051 A 
ATOM     15  C   UNL     1      25.938   4.174  40.486  1.00  0.00     0.157 A 
ATOM     16  C   UNL     1      27.117   2.554  39.113  1.00  0.00     0.062 A 
ATOM     17  C   UNL     1      27.138   3.565  40.085  1.00  0.00     0.158 A 
BRANCH  15  18
ATOM     18  O   UNL     1      25.926   5.180  41.452  1.00  0.00    -0.504 OA
ATOM     19  H   UNL     1      26.777   5.628  41.773  1.00  0.00     0.293 HD
ENDBRANCH  15  18
BRANCH  17  20
ATOM     20  O   UNL     1      28.348   3.968  40.651  1.00  0.00    -0.504 OA
ATOM     21  H   UNL     1      28.490   3.971  41.653  1.00  0.00     0.293 HD
ENDBRANCH  17  20
ENDBRANCH   1  12
BRANCH   6  22
ATOM     22  O   UNL     1      26.533  -2.486  33.918  1.00  0.00    -0.507 OA
ATOM     23  H   UNL     1      26.531  -2.600  32.912  1.00  0.00     0.293 HD
ENDBRANCH   6  22
BRANCH   8  24
ATOM     24  O   UNL     1      21.756  -2.266  34.677  1.00  0.00    -0.508 OA
ATOM     25  H   UNL     1      20.960  -1.978  35.233  1.00  0.00     0.293 HD
ENDBRANCH   8  24
TORSDOF 5
ENDMDL
MODEL 8
REMARK VINA RESULT:    -5.550      2.658      4.980
REMARK INTER + INTRA:          -6.821
REMARK INTER:                  -6.507
REMARK INTRA:                  -0.314
REMARK UNBOUND:                -0.297
REMARK SMILES O=c1cc(-c2ccc(O)c(O)c2)oc2cc(O)cc(O)c12
REMARK SMILES IDX 4 1 3 2 2 3 1 4 21 5 19 6 18 7 16 8 15 9 14 10 13 11 5 12
REMARK SMILES IDX 6 13 7 14 8 15 12 16 10 17 9 18 11 20 20 22 17 24
REMARK H PARENT 9 19 11 21 20 23 17 25
REMARK Flexibility Score: inf
ROOT
ATOM      1  C   UNL     1      23.751   0.038  35.210  1.00  0.00     0.138 A 
ATOM      2  C   UNL     1      22.823   0.296  34.187  1.00  0.00     0.100 A 
ATOM      3  C   UNL     1      21.790   1.206  34.409  1.00  0.00     0.197 A 
ATOM      4  O   UNL     1      20.961   1.430  33.485  1.00  0.00    -0.289 OA
ATOM      5  C   UNL     1      21.689   1.852  35.657  1.00  0.00     0.107 A 
ATOM      6  C   UNL     1      20.674   2.789  35.965  1.00  0.00     0.134 A 
ATOM      7  C   UNL     1      20.640   3.385  37.235  1.00  0.00     0.093 A 
ATOM      8  C   UNL     1      21.601   3.061  38.201  1.00  0.00     0.123 A 
ATOM      9  C   UNL     1      22.604   2.137  37.901  1.00  0.00     0.094 A 
ATOM     10  C   UNL     1      22.656   1.533  36.642  1.00  0.00     0.146 A 
ATOM     11  O   UNL     1      23.621   0.658  36.381  1.00  0.00    -0.456 OA
ENDROOT
BRANCH   1  12
ATOM     12  C   UNL     1      24.869  -0.922  35.029  1.00  0.00     0.021 A 
ATOM     13  C   UNL     1      24.805  -1.869  33.992  1.00  0.00     0.016 A 
ATOM     14  C   UNL     1      25.840  -2.789  33.805  1.00  0.00     0.051 A 
ATOM     15  C   UNL     1      26.949  -2.787  34.655  1.00  0.00     0.157 A 
ATOM     16  C   UNL     1      25.982  -0.933  35.891  1.00  0.00     0.062 A 
ATOM     17  C   UNL     1      27.020  -1.858  35.705  1.00  0.00     0.158 A 
BRANCH  15  18
ATOM     18  O   UNL     1      27.967  -3.717  34.443  1.00  0.00    -0.504 OA
ATOM     19  H   UNL     1      28.238  -4.015  33.513  1.00  0.00     0.293 HD
ENDBRANCH  15  18
BRANCH  17  20
ATOM     20  O   UNL     1      28.120  -1.859  36.563  1.00  0.00    -0.504 OA
ATOM     21  H   UNL     1      28.510  -0.997  36.927  1.00  0.00     0.293 HD
ENDBRANCH  17  20
ENDBRANCH   1  12
BRANCH   6  22
ATOM     22  O   UNL     1      19.703   3.132  35.023  1.00  0.00    -0.507 OA
ATOM     23  H   UNL     1      19.911   3.742  34.242  1.00  0.00     0.293 HD
ENDBRANCH   6  22
BRANCH   8  24
ATOM     24  O   UNL     1      21.567   3.652  39.462  1.00  0.00    -0.508 OA
ATOM     25  H   UNL     1      21.792   4.630  39.595  1.00  0.00     0.293 HD
ENDBRANCH   8  24
TORSDOF 5
ENDMDL
MODEL 9
REMARK VINA RESULT:    -5.442      4.196      7.557
REMARK INTER + INTRA:          -6.694
REMARK INTER:                  -6.414
REMARK INTRA:                  -0.280
REMARK UNBOUND:                -0.297
REMARK SMILES O=c1cc(-c2ccc(O)c(O)c2)oc2cc(O)cc(O)c12
REMARK SMILES IDX 4 1 3 2 2 3 1 4 21 5 19 6 18 7 16 8 15 9 14 10 13 11 5 12
REMARK SMILES IDX 6 13 7 14 8 15 12 16 10 17 9 18 11 20 20 22 17 24
REMARK H PARENT 9 19 11 21 20 23 17 25
REMARK Flexibility Score: inf
ROOT
ATOM      1  C   UNL     1      22.579   1.777  37.616  1.00  0.00     0.138 A 
ATOM      2  C   UNL     1      21.541   2.571  37.098  1.00  0.00     0.100 A 
ATOM      3  C   UNL     1      21.040   3.629  37.857  1.00  0.00     0.197 A 
ATOM      4  O   UNL     1      20.108   4.334  37.384  1.00  0.00    -0.289 OA
ATOM      5  C   UNL     1      21.579   3.885  39.133  1.00  0.00     0.107 A 
ATOM      6  C   UNL     1      21.131   4.937  39.967  1.00  0.00     0.134 A 
ATOM      7  C   UNL     1      21.716   5.123  41.228  1.00  0.00     0.093 A 
ATOM      8  C   UNL     1      22.740   4.276  41.671  1.00  0.00     0.123 A 
ATOM      9  C   UNL     1      23.185   3.237  40.852  1.00  0.00     0.094 A 
ATOM     10  C   UNL     1      22.616   3.036  39.591  1.00  0.00     0.146 A 
ATOM     11  O   UNL     1      23.058   2.040  38.830  1.00  0.00    -0.456 OA
ENDROOT
BRANCH   1  12
ATOM     12  C   UNL     1      23.148   0.638  36.854  1.00  0.00     0.021 A 
ATOM     13  C   UNL     1      24.541   0.453  36.828  1.00  0.00     0.016 A 
ATOM     14  C   UNL     1      25.104  -0.608  36.112  1.00  0.00     0.051 A 
ATOM     15  C   UNL     1      24.288  -1.492  35.402  1.00  0.00     0.157 A 
ATOM     16  C   UNL     1      22.332  -0.248  36.126  1.00  0.00     0.062 A 
ATOM     17  C   UNL     1      22.896  -1.311  35.405  1.00  0.00     0.158 A 
BRANCH  15  18
ATOM     18  O   UNL     1      24.878  -2.541  34.698  1.00  0.00    -0.504 OA
ATOM     19  H   UNL     1      24.394  -3.030  33.954  1.00  0.00     0.293 HD
ENDBRANCH  15  18
BRANCH  17  20
ATOM     20  O   UNL     1      22.077  -2.185  34.689  1.00  0.00    -0.504 OA
ATOM     21  H   UNL     1      21.829  -3.097  35.052  1.00  0.00     0.293 HD
ENDBRANCH  17  20
ENDBRANCH   1  12
BRANCH   6  22
ATOM     22  O   UNL     1      20.112   5.797  39.553  1.00  0.00    -0.507 OA
ATOM     23  H   UNL     1      19.190   5.454  39.315  1.00  0.00     0.293 HD
ENDBRANCH   6  22
BRANCH   8  24
ATOM     24  O   UNL     1      23.321   4.460  42.923  1.00  0.00    -0.508 OA
ATOM     25  H   UNL     1      23.750   5.339  43.185  1.00  0.00     0.293 HD
ENDBRANCH   8  24
TORSDOF 5
ENDMDL
