MODEL 1
REMARK VINA RESULT:    -4.661      0.000      0.000
REMARK INTER + INTRA:          -9.836
REMARK INTER:                  -7.931
REMARK INTRA:                  -1.905
REMARK UNBOUND:                -1.905
REMARK SMILES CCCCCCCCCCCCCC(=O)[O-]
REMARK SMILES IDX 8 1 9 2 10 3 11 4 12 5 13 6 14 7 15 8 16 9 7 10 6 11 5 12
REMARK SMILES IDX 4 13 3 14 2 15 1 16
REMARK H PARENT
REMARK Flexibility Score: inf
ROOT
ATOM      1  C   UNL     1      13.533  11.165  33.670  1.00  0.00     0.000 C 
ENDROOT
BRANCH   1   2
ATOM      2  C   UNL     1      14.784  10.538  33.030  1.00  0.00     0.000 C 
BRANCH   2   3
ATOM      3  C   UNL     1      16.027  11.437  33.145  1.00  0.00     0.000 C 
BRANCH   3   4
ATOM      4  C   UNL     1      16.556  11.547  34.587  1.00  0.00     0.000 C 
BRANCH   4   5
ATOM      5  C   UNL     1      16.686  12.984  35.133  1.00  0.00     0.006 C 
BRANCH   5   6
ATOM      6  C   UNL     1      17.231  13.076  36.567  1.00  0.00     0.053 C 
BRANCH   6   7
ATOM      7  C   UNL     1      18.451  13.941  36.651  1.00  0.00     0.041 C 
ATOM      8  O   UNL     1      18.811  14.625  35.656  1.00  0.00    -0.550 OA
ATOM      9  O   UNL     1      19.209  13.966  37.814  1.00  0.00    -0.550 OA
ENDBRANCH   6   7
ENDBRANCH   5   6
ENDBRANCH   4   5
ENDBRANCH   3   4
ENDBRANCH   2   3
ENDBRANCH   1   2
BRANCH   1  10
ATOM     10  C   UNL     1      13.267  12.637  33.289  1.00  0.00     0.000 C 
BRANCH  10  11
ATOM     11  C   UNL     1      12.387  13.423  34.281  1.00  0.00    -0.000 C 
BRANCH  11  12
ATOM     12  C   UNL     1      13.159  14.171  35.382  1.00  0.00    -0.000 C 
BRANCH  12  13
ATOM     13  C   UNL     1      13.388  13.317  36.637  1.00  0.00    -0.000 C 
BRANCH  13  14
ATOM     14  C   UNL     1      12.146  12.482  36.967  1.00  0.00    -0.000 C 
BRANCH  14  15
ATOM     15  C   UNL     1      12.519  11.017  37.224  1.00  0.00    -0.003 C 
ATOM     16  C   UNL     1      14.031  10.842  37.319  1.00  0.00     0.004 C 
ENDBRANCH  14  15
ENDBRANCH  13  14
ENDBRANCH  12  13
ENDBRANCH  11  12
ENDBRANCH  10  11
ENDBRANCH   1  10
TORSDOF 12
ENDMDL
MODEL 2
REMARK VINA RESULT:    -4.458      3.101      5.413
REMARK INTER + INTRA:          -9.491
REMARK INTER:                  -7.930
REMARK INTRA:                  -1.562
REMARK UNBOUND:                -1.905
REMARK SMILES CCCCCCCCCCCCCC(=O)[O-]
REMARK SMILES IDX 8 1 9 2 10 3 11 4 12 5 13 6 14 7 15 8 16 9 7 10 6 11 5 12
REMARK SMILES IDX 4 13 3 14 2 15 1 16
REMARK H PARENT
REMARK Flexibility Score: inf
ROOT
ATOM      1  C   UNL     1      13.375  11.360  33.408  1.00  0.00     0.000 C 
ENDROOT
BRANCH   1   2
ATOM      2  C   UNL     1      13.357  12.899  33.378  1.00  0.00     0.000 C 
BRANCH   2   3
ATOM      3  C   UNL     1      12.429  13.505  34.444  1.00  0.00     0.000 C 
BRANCH   3   4
ATOM      4  C   UNL     1      13.194  14.062  35.659  1.00  0.00     0.000 C 
BRANCH   4   5
ATOM      5  C   UNL     1      13.459  13.049  36.792  1.00  0.00     0.006 C 
BRANCH   5   6
ATOM      6  C   UNL     1      12.447  11.895  36.867  1.00  0.00     0.053 C 
BRANCH   6   7
ATOM      7  C   UNL     1      11.592  11.976  38.094  1.00  0.00     0.041 C 
ATOM      8  O   UNL     1      11.856  11.261  39.097  1.00  0.00    -0.550 OA
ATOM      9  O   UNL     1      10.485  12.814  38.119  1.00  0.00    -0.550 OA
ENDBRANCH   6   7
ENDBRANCH   5   6
ENDBRANCH   4   5
ENDBRANCH   3   4
ENDBRANCH   2   3
ENDBRANCH   1   2
BRANCH   1  10
ATOM     10  C   UNL     1      14.738  10.726  33.759  1.00  0.00     0.000 C 
BRANCH  10  11
ATOM     11  C   UNL     1      15.923  11.198  32.894  1.00  0.00    -0.000 C 
BRANCH  11  12
ATOM     12  C   UNL     1      17.089  11.827  33.678  1.00  0.00    -0.000 C 
BRANCH  12  13
ATOM     13  C   UNL     1      16.740  12.104  35.147  1.00  0.00    -0.000 C 
BRANCH  13  14
ATOM     14  C   UNL     1      16.873  13.597  35.470  1.00  0.00    -0.000 C 
BRANCH  14  15
ATOM     15  C   UNL     1      18.343  14.033  35.462  1.00  0.00    -0.003 C 
ATOM     16  C   UNL     1      18.556  15.235  34.548  1.00  0.00     0.004 C 
ENDBRANCH  14  15
ENDBRANCH  13  14
ENDBRANCH  12  13
ENDBRANCH  11  12
ENDBRANCH  10  11
ENDBRANCH   1  10
TORSDOF 12
ENDMDL
MODEL 3
REMARK VINA RESULT:    -4.394      3.702      5.808
REMARK INTER + INTRA:          -9.381
REMARK INTER:                  -7.301
REMARK INTRA:                  -2.080
REMARK UNBOUND:                -1.905
REMARK SMILES CCCCCCCCCCCCCC(=O)[O-]
REMARK SMILES IDX 8 1 9 2 10 3 11 4 12 5 13 6 14 7 15 8 16 9 7 10 6 11 5 12
REMARK SMILES IDX 4 13 3 14 2 15 1 16
REMARK H PARENT
REMARK Flexibility Score: inf
ROOT
ATOM      1  C   UNL     1      12.541  13.211  34.156  1.00  0.00     0.000 C 
ENDROOT
BRANCH   1   2
ATOM      2  C   UNL     1      13.130  14.113  35.257  1.00  0.00     0.000 C 
BRANCH   2   3
ATOM      3  C   UNL     1      13.297  13.383  36.600  1.00  0.00     0.000 C 
BRANCH   3   4
ATOM      4  C   UNL     1      12.130  12.429  36.914  1.00  0.00     0.000 C 
BRANCH   4   5
ATOM      5  C   UNL     1      12.536  11.063  37.505  1.00  0.00     0.006 C 
BRANCH   5   6
ATOM      6  C   UNL     1      11.359  10.202  37.991  1.00  0.00     0.053 C 
BRANCH   6   7
ATOM      7  C   UNL     1      10.862   9.276  36.924  1.00  0.00     0.041 C 
ATOM      8  O   UNL     1      11.579   9.025  35.919  1.00  0.00    -0.550 OA
ATOM      9  O   UNL     1       9.593   8.718  37.021  1.00  0.00    -0.550 OA
ENDBRANCH   6   7
ENDBRANCH   5   6
ENDBRANCH   4   5
ENDBRANCH   3   4
ENDBRANCH   2   3
ENDBRANCH   1   2
BRANCH   1  10
ATOM     10  C   UNL     1      13.574  12.384  33.363  1.00  0.00     0.000 C 
BRANCH  10  11
ATOM     11  C   UNL     1      13.572  10.871  33.660  1.00  0.00    -0.000 C 
BRANCH  11  12
ATOM     12  C   UNL     1      14.720  10.385  34.562  1.00  0.00    -0.000 C 
BRANCH  12  13
ATOM     13  C   UNL     1      15.953  11.298  34.504  1.00  0.00    -0.000 C 
BRANCH  13  14
ATOM     14  C   UNL     1      16.436  11.659  35.913  1.00  0.00    -0.000 C 
BRANCH  14  15
ATOM     15  C   UNL     1      16.878  13.126  35.985  1.00  0.00    -0.003 C 
ATOM     16  C   UNL     1      16.775  13.800  34.621  1.00  0.00     0.004 C 
ENDBRANCH  14  15
ENDBRANCH  13  14
ENDBRANCH  12  13
ENDBRANCH  11  12
ENDBRANCH  10  11
ENDBRANCH   1  10
TORSDOF 12
ENDMDL
MODEL 4
REMARK VINA RESULT:    -4.352      1.333      2.748
REMARK INTER + INTRA:          -9.311
REMARK INTER:                  -7.333
REMARK INTRA:                  -1.978
REMARK UNBOUND:                -1.905
REMARK SMILES CCCCCCCCCCCCCC(=O)[O-]
REMARK SMILES IDX 8 1 9 2 10 3 11 4 12 5 13 6 14 7 15 8 16 9 7 10 6 11 5 12
REMARK SMILES IDX 4 13 3 14 2 15 1 16
REMARK H PARENT
REMARK Flexibility Score: inf
ROOT
ATOM      1  C   UNL     1      12.556  13.273  34.282  1.00  0.00     0.000 C 
ENDROOT
BRANCH   1   2
ATOM      2  C   UNL     1      13.396  12.736  33.109  1.00  0.00     0.000 C 
BRANCH   2   3
ATOM      3  C   UNL     1      13.529  11.204  33.123  1.00  0.00     0.000 C 
BRANCH   3   4
ATOM      4  C   UNL     1      14.994  10.730  33.139  1.00  0.00     0.000 C 
BRANCH   4   5
ATOM      5  C   UNL     1      15.863  11.312  34.274  1.00  0.00     0.006 C 
BRANCH   5   6
ATOM      6  C   UNL     1      16.998  12.234  33.801  1.00  0.00     0.053 C 
BRANCH   6   7
ATOM      7  C   UNL     1      17.139  13.444  34.672  1.00  0.00     0.041 C 
ATOM      8  O   UNL     1      16.989  13.346  35.919  1.00  0.00    -0.550 OA
ATOM      9  O   UNL     1      17.403  14.684  34.105  1.00  0.00    -0.550 OA
ENDBRANCH   6   7
ENDBRANCH   5   6
ENDBRANCH   4   5
ENDBRANCH   3   4
ENDBRANCH   2   3
ENDBRANCH   1   2
BRANCH   1  10
ATOM     10  C   UNL     1      13.343  14.072  35.342  1.00  0.00     0.000 C 
BRANCH  10  11
ATOM     11  C   UNL     1      13.616  13.321  36.661  1.00  0.00    -0.000 C 
BRANCH  11  12
ATOM     12  C   UNL     1      12.902  11.964  36.795  1.00  0.00    -0.000 C 
BRANCH  12  13
ATOM     13  C   UNL     1      13.814  10.861  37.352  1.00  0.00    -0.000 C 
BRANCH  13  14
ATOM     14  C   UNL     1      13.579   9.533  36.624  1.00  0.00    -0.000 C 
BRANCH  14  15
ATOM     15  C   UNL     1      12.177   9.487  36.003  1.00  0.00    -0.003 C 
ATOM     16  C   UNL     1      11.323   8.401  36.651  1.00  0.00     0.004 C 
ENDBRANCH  14  15
ENDBRANCH  13  14
ENDBRANCH  12  13
ENDBRANCH  11  12
ENDBRANCH  10  11
ENDBRANCH   1  10
TORSDOF 12
ENDMDL
MODEL 5
REMARK VINA RESULT:    -4.333      1.309      2.439
REMARK INTER + INTRA:          -9.279
REMARK INTER:                  -7.617
REMARK INTRA:                  -1.662
REMARK UNBOUND:                -1.905
REMARK SMILES CCCCCCCCCCCCCC(=O)[O-]
REMARK SMILES IDX 8 1 9 2 10 3 11 4 12 5 13 6 14 7 15 8 16 9 7 10 6 11 5 12
REMARK SMILES IDX 4 13 3 14 2 15 1 16
REMARK H PARENT
REMARK Flexibility Score: inf
ROOT
ATOM      1  C   UNL     1      15.963  11.266  34.058  1.00  0.00     0.000 C 
ENDROOT
BRANCH   1   2
ATOM      2  C   UNL     1      16.897  12.452  33.753  1.00  0.00     0.000 C 
BRANCH   2   3
ATOM      3  C   UNL     1      16.774  13.588  34.782  1.00  0.00     0.000 C 
BRANCH   3   4
ATOM      4  C   UNL     1      17.060  13.127  36.223  1.00  0.00     0.000 C 
BRANCH   4   5
ATOM      5  C   UNL     1      18.299  13.765  36.885  1.00  0.00     0.006 C 
BRANCH   5   6
ATOM      6  C   UNL     1      19.228  14.513  35.915  1.00  0.00     0.053 C 
BRANCH   6   7
ATOM      7  C   UNL     1      20.404  13.680  35.508  1.00  0.00     0.041 C 
ATOM      8  O   UNL     1      20.352  12.425  35.598  1.00  0.00    -0.550 OA
ATOM      9  O   UNL     1      21.570  14.290  35.063  1.00  0.00    -0.550 OA
ENDBRANCH   6   7
ENDBRANCH   5   6
ENDBRANCH   4   5
ENDBRANCH   3   4
ENDBRANCH   2   3
ENDBRANCH   1   2
BRANCH   1  10
ATOM     10  C   UNL     1      14.897  10.976  32.981  1.00  0.00     0.000 C 
BRANCH  10  11
ATOM     11  C   UNL     1      13.479  11.483  33.308  1.00  0.00    -0.000 C 
BRANCH  11  12
ATOM     12  C   UNL     1      13.351  13.011  33.442  1.00  0.00    -0.000 C 
BRANCH  12  13
ATOM     13  C   UNL     1      12.458  13.434  34.618  1.00  0.00    -0.000 C 
BRANCH  13  14
ATOM     14  C   UNL     1      13.288  13.643  35.890  1.00  0.00    -0.000 C 
BRANCH  14  15
ATOM     15  C   UNL     1      12.867  12.661  36.990  1.00  0.00    -0.003 C 
ATOM     16  C   UNL     1      13.868  11.518  37.121  1.00  0.00     0.004 C 
ENDBRANCH  14  15
ENDBRANCH  13  14
ENDBRANCH  12  13
ENDBRANCH  11  12
ENDBRANCH  10  11
ENDBRANCH   1  10
TORSDOF 12
ENDMDL
MODEL 6
REMARK VINA RESULT:    -4.321      1.859      3.431
REMARK INTER + INTRA:          -9.257
REMARK INTER:                  -7.335
REMARK INTRA:                  -1.921
REMARK UNBOUND:                -1.905
REMARK SMILES CCCCCCCCCCCCCC(=O)[O-]
REMARK SMILES IDX 8 1 9 2 10 3 11 4 12 5 13 6 14 7 15 8 16 9 7 10 6 11 5 12
REMARK SMILES IDX 4 13 3 14 2 15 1 16
REMARK H PARENT
REMARK Flexibility Score: inf
ROOT
ATOM      1  C   UNL     1      13.800  11.667  37.391  1.00  0.00     0.000 C 
ENDROOT
BRANCH   1   2
ATOM      2  C   UNL     1      14.573  10.461  36.828  1.00  0.00     0.000 C 
BRANCH   2   3
ATOM      3  C   UNL     1      16.052  10.778  36.547  1.00  0.00     0.000 C 
BRANCH   3   4
ATOM      4  C   UNL     1      16.325  12.286  36.406  1.00  0.00     0.000 C 
BRANCH   4   5
ATOM      5  C   UNL     1      17.574  12.655  35.578  1.00  0.00     0.006 C 
BRANCH   5   6
ATOM      6  C   UNL     1      18.462  11.461  35.194  1.00  0.00     0.053 C 
BRANCH   6   7
ATOM      7  C   UNL     1      19.171  11.683  33.894  1.00  0.00     0.041 C 
ATOM      8  O   UNL     1      18.526  11.677  32.812  1.00  0.00    -0.550 OA
ATOM      9  O   UNL     1      20.548  11.863  33.873  1.00  0.00    -0.550 OA
ENDBRANCH   6   7
ENDBRANCH   5   6
ENDBRANCH   4   5
ENDBRANCH   3   4
ENDBRANCH   2   3
ENDBRANCH   1   2
BRANCH   1  10
ATOM     10  C   UNL     1      12.622  12.156  36.522  1.00  0.00     0.000 C 
BRANCH  10  11
ATOM     11  C   UNL     1      12.802  13.555  35.899  1.00  0.00    -0.000 C 
BRANCH  11  12
ATOM     12  C   UNL     1      12.513  13.636  34.390  1.00  0.00    -0.000 C 
BRANCH  12  13
ATOM     13  C   UNL     1      13.003  12.400  33.621  1.00  0.00    -0.000 C 
BRANCH  13  14
ATOM     14  C   UNL     1      14.527  12.428  33.451  1.00  0.00    -0.000 C 
BRANCH  14  15
ATOM     15  C   UNL     1      15.056  11.060  33.003  1.00  0.00    -0.003 C 
ATOM     16  C   UNL     1      14.051   9.953  33.309  1.00  0.00     0.004 C 
ENDBRANCH  14  15
ENDBRANCH  13  14
ENDBRANCH  12  13
ENDBRANCH  11  12
ENDBRANCH  10  11
ENDBRANCH   1  10
TORSDOF 12
ENDMDL
MODEL 7
REMARK VINA RESULT:    -4.308      1.953      2.487
REMARK INTER + INTRA:          -9.235
REMARK INTER:                  -7.265
REMARK INTRA:                  -1.970
REMARK UNBOUND:                -1.905
REMARK SMILES CCCCCCCCCCCCCC(=O)[O-]
REMARK SMILES IDX 8 1 9 2 10 3 11 4 12 5 13 6 14 7 15 8 16 9 7 10 6 11 5 12
REMARK SMILES IDX 4 13 3 14 2 15 1 16
REMARK H PARENT
REMARK Flexibility Score: inf
ROOT
ATOM      1  C   UNL     1      12.972  11.853  33.437  1.00  0.00     0.000 C 
ENDROOT
BRANCH   1   2
ATOM      2  C   UNL     1      14.216  11.031  33.053  1.00  0.00     0.000 C 
BRANCH   2   3
ATOM      3  C   UNL     1      14.907  10.392  34.270  1.00  0.00     0.000 C 
BRANCH   3   4
ATOM      4  C   UNL     1      16.093  11.224  34.791  1.00  0.00     0.000 C 
BRANCH   4   5
ATOM      5  C   UNL     1      16.736  12.173  33.759  1.00  0.00     0.006 C 
BRANCH   5   6
ATOM      6  C   UNL     1      18.134  12.684  34.144  1.00  0.00     0.053 C 
BRANCH   6   7
ATOM      7  C   UNL     1      19.223  11.856  33.534  1.00  0.00     0.041 C 
ATOM      8  O   UNL     1      20.336  11.749  34.114  1.00  0.00    -0.550 OA
ATOM      9  O   UNL     1      19.021  11.232  32.310  1.00  0.00    -0.550 OA
ENDBRANCH   6   7
ENDBRANCH   5   6
ENDBRANCH   4   5
ENDBRANCH   3   4
ENDBRANCH   2   3
ENDBRANCH   1   2
BRANCH   1  10
ATOM     10  C   UNL     1      13.208  13.372  33.580  1.00  0.00     0.000 C 
BRANCH  10  11
ATOM     11  C   UNL     1      13.287  13.890  35.030  1.00  0.00    -0.000 C 
BRANCH  11  12
ATOM     12  C   UNL     1      12.531  13.038  36.065  1.00  0.00    -0.000 C 
BRANCH  12  13
ATOM     13  C   UNL     1      13.459  12.417  37.119  1.00  0.00    -0.000 C 
BRANCH  13  14
ATOM     14  C   UNL     1      13.063  10.965  37.412  1.00  0.00    -0.000 C 
BRANCH  14  15
ATOM     15  C   UNL     1      11.768  10.589  36.682  1.00  0.00    -0.003 C 
ATOM     16  C   UNL     1      11.862   9.192  36.078  1.00  0.00     0.004 C 
ENDBRANCH  14  15
ENDBRANCH  13  14
ENDBRANCH  12  13
ENDBRANCH  11  12
ENDBRANCH  10  11
ENDBRANCH   1  10
TORSDOF 12
ENDMDL
MODEL 8
REMARK VINA RESULT:    -4.276      1.451      2.731
REMARK INTER + INTRA:          -9.181
REMARK INTER:                  -7.596
REMARK INTRA:                  -1.585
REMARK UNBOUND:                -1.905
REMARK SMILES CCCCCCCCCCCCCC(=O)[O-]
REMARK SMILES IDX 8 1 9 2 10 3 11 4 12 5 13 6 14 7 15 8 16 9 7 10 6 11 5 12
REMARK SMILES IDX 4 13 3 14 2 15 1 16
REMARK H PARENT
REMARK Flexibility Score: inf
ROOT
ATOM      1  C   UNL     1      16.226  11.880  33.868  1.00  0.00     0.000 C 
ENDROOT
BRANCH   1   2
ATOM      2  C   UNL     1      16.642  11.284  35.225  1.00  0.00     0.000 C 
BRANCH   2   3
ATOM      3  C   UNL     1      16.870  12.357  36.303  1.00  0.00     0.000 C 
BRANCH   3   4
ATOM      4  C   UNL     1      17.313  13.711  35.718  1.00  0.00     0.000 C 
BRANCH   4   5
ATOM      5  C   UNL     1      18.676  14.231  36.220  1.00  0.00     0.006 C 
BRANCH   5   6
ATOM      6  C   UNL     1      19.764  14.323  35.138  1.00  0.00     0.053 C 
BRANCH   6   7
ATOM      7  C   UNL     1      19.888  15.707  34.582  1.00  0.00     0.041 C 
ATOM      8  O   UNL     1      20.876  16.426  34.888  1.00  0.00    -0.550 OA
ATOM      9  O   UNL     1      18.896  16.217  33.753  1.00  0.00    -0.550 OA
ENDBRANCH   6   7
ENDBRANCH   5   6
ENDBRANCH   4   5
ENDBRANCH   3   4
ENDBRANCH   2   3
ENDBRANCH   1   2
BRANCH   1  10
ATOM     10  C   UNL     1      15.158  11.075  33.097  1.00  0.00     0.000 C 
BRANCH  10  11
ATOM     11  C   UNL     1      13.698  11.475  33.388  1.00  0.00    -0.000 C 
BRANCH  11  12
ATOM     12  C   UNL     1      13.448  12.990  33.485  1.00  0.00    -0.000 C 
BRANCH  12  13
ATOM     13  C   UNL     1      12.552  13.373  34.672  1.00  0.00    -0.000 C 
BRANCH  13  14
ATOM     14  C   UNL     1      13.370  13.488  35.963  1.00  0.00    -0.000 C 
BRANCH  14  15
ATOM     15  C   UNL     1      12.759  12.634  37.081  1.00  0.00    -0.003 C 
ATOM     16  C   UNL     1      13.489  11.301  37.217  1.00  0.00     0.004 C 
ENDBRANCH  14  15
ENDBRANCH  13  14
ENDBRANCH  12  13
ENDBRANCH  11  12
ENDBRANCH  10  11
ENDBRANCH   1  10
TORSDOF 12
ENDMDL
MODEL 9
REMARK VINA RESULT:    -4.187      2.176      3.714
REMARK INTER + INTRA:          -9.029
REMARK INTER:                  -7.168
REMARK INTRA:                  -1.861
REMARK UNBOUND:                -1.905
REMARK SMILES CCCCCCCCCCCCCC(=O)[O-]
REMARK SMILES IDX 8 1 9 2 10 3 11 4 12 5 13 6 14 7 15 8 16 9 7 10 6 11 5 12
REMARK SMILES IDX 4 13 3 14 2 15 1 16
REMARK H PARENT
REMARK Flexibility Score: inf
ROOT
ATOM      1  C   UNL     1      16.965  11.585  34.792  1.00  0.00     0.000 C 
ENDROOT
BRANCH   1   2
ATOM      2  C   UNL     1      16.943  12.971  35.461  1.00  0.00     0.000 C 
BRANCH   2   3
ATOM      3  C   UNL     1      16.783  14.120  34.451  1.00  0.00     0.000 C 
BRANCH   3   4
ATOM      4  C   UNL     1      18.072  14.940  34.266  1.00  0.00     0.000 C 
BRANCH   4   5
ATOM      5  C   UNL     1      19.354  14.288  34.827  1.00  0.00     0.006 C 
BRANCH   5   6
ATOM      6  C   UNL     1      20.271  13.663  33.765  1.00  0.00     0.053 C 
BRANCH   6   7
ATOM      7  C   UNL     1      20.656  12.258  34.111  1.00  0.00     0.041 C 
ATOM      8  O   UNL     1      21.358  12.027  35.131  1.00  0.00    -0.550 OA
ATOM      9  O   UNL     1      20.269  11.207  33.289  1.00  0.00    -0.550 OA
ENDBRANCH   6   7
ENDBRANCH   5   6
ENDBRANCH   4   5
ENDBRANCH   3   4
ENDBRANCH   2   3
ENDBRANCH   1   2
BRANCH   1  10
ATOM     10  C   UNL     1      16.637  11.579  33.284  1.00  0.00     0.000 C 
BRANCH  10  11
ATOM     11  C   UNL     1      15.194  11.168  32.928  1.00  0.00    -0.000 C 
BRANCH  11  12
ATOM     12  C   UNL     1      14.430  10.444  34.051  1.00  0.00    -0.000 C 
BRANCH  12  13
ATOM     13  C   UNL     1      13.286  11.285  34.634  1.00  0.00    -0.000 C 
BRANCH  13  14
ATOM     14  C   UNL     1      13.153  12.620  33.892  1.00  0.00    -0.000 C 
BRANCH  14  15
ATOM     15  C   UNL     1      13.041  13.789  34.878  1.00  0.00    -0.003 C 
ATOM     16  C   UNL     1      13.273  13.325  36.312  1.00  0.00     0.004 C 
ENDBRANCH  14  15
ENDBRANCH  13  14
ENDBRANCH  12  13
ENDBRANCH  11  12
ENDBRANCH  10  11
ENDBRANCH   1  10
TORSDOF 12
ENDMDL
