MODEL 1
REMARK VINA RESULT:    -4.390      0.000      0.000
REMARK INTER + INTRA:         -15.819
REMARK INTER:                 -11.577
REMARK INTRA:                  -4.242
REMARK UNBOUND:                -4.242
REMARK SMILES CCCCCCCCCCCCCCCCCCCCCCCCCCCCCC(=O)[O-]
REMARK SMILES IDX 16 1 17 2 18 3 19 4 20 5 21 6 22 7 23 8 24 9 25 10 26 11
REMARK SMILES IDX 27 12 28 13 29 14 30 15 31 16 32 17 15 18 14 19 13 20 12 21
REMARK SMILES IDX 11 22 10 23 9 24 8 25 7 26 6 27 5 28 4 29 3 30 2 31 1 32
REMARK H PARENT
REMARK Flexibility Score: inf
ROOT
ATOM      1  C   UNL     1       0.127  -1.768   6.171  1.00  0.00     0.000 C 
ENDROOT
BRANCH   1   2
ATOM      2  C   UNL     1       1.234  -1.285   5.219  1.00  0.00     0.000 C 
BRANCH   2   3
ATOM      3  C   UNL     1       2.405  -2.279   5.136  1.00  0.00     0.000 C 
BRANCH   3   4
ATOM      4  C   UNL     1       3.686  -1.740   5.791  1.00  0.00     0.000 C 
BRANCH   4   5
ATOM      5  C   UNL     1       4.016  -2.464   7.109  1.00  0.00     0.000 C 
BRANCH   5   6
ATOM      6  C   UNL     1       4.837  -1.596   8.081  1.00  0.00     0.000 C 
BRANCH   6   7
ATOM      7  C   UNL     1       4.015  -0.632   8.963  1.00  0.00     0.000 C 
BRANCH   7   8
ATOM      8  C   UNL     1       2.512  -0.954   9.062  1.00  0.00     0.000 C 
BRANCH   8   9
ATOM      9  C   UNL     1       1.621   0.216   8.609  1.00  0.00     0.000 C 
BRANCH   9  10
ATOM     10  C   UNL     1       2.407   1.286   7.832  1.00  0.00     0.000 C 
BRANCH  10  11
ATOM     11  C   UNL     1       1.502   2.153   6.939  1.00  0.00     0.000 C 
BRANCH  11  12
ATOM     12  C   UNL     1       0.778   3.259   7.737  1.00  0.00     0.000 C 
BRANCH  12  13
ATOM     13  C   UNL     1       0.517   4.541   6.922  1.00  0.00     0.006 C 
BRANCH  13  14
ATOM     14  C   UNL     1       1.445   4.716   5.710  1.00  0.00     0.053 C 
BRANCH  14  15
ATOM     15  C   UNL     1       0.698   5.161   4.490  1.00  0.00     0.041 C 
ATOM     16  O   UNL     1       1.287   5.232   3.378  1.00  0.00    -0.550 OA
ATOM     17  O   UNL     1      -0.641   5.518   4.581  1.00  0.00    -0.550 OA
ENDBRANCH  14  15
ENDBRANCH  13  14
ENDBRANCH  12  13
ENDBRANCH  11  12
ENDBRANCH  10  11
ENDBRANCH   9  10
ENDBRANCH   8   9
ENDBRANCH   7   8
ENDBRANCH   6   7
ENDBRANCH   5   6
ENDBRANCH   4   5
ENDBRANCH   3   4
ENDBRANCH   2   3
ENDBRANCH   1   2
BRANCH   1  18
ATOM     18  C   UNL     1       0.289  -3.253   6.548  1.00  0.00     0.000 C 
BRANCH  18  19
ATOM     19  C   UNL     1      -0.717  -3.696   7.631  1.00  0.00     0.000 C 
BRANCH  19  20
ATOM     20  C   UNL     1      -1.852  -2.684   7.878  1.00  0.00     0.000 C 
BRANCH  20  21
ATOM     21  C   UNL     1      -3.274  -3.263   7.782  1.00  0.00     0.000 C 
BRANCH  21  22
ATOM     22  C   UNL     1      -4.337  -2.320   8.371  1.00  0.00     0.000 C 
BRANCH  22  23
ATOM     23  C   UNL     1      -5.514  -2.079   7.413  1.00  0.00     0.000 C 
BRANCH  23  24
ATOM     24  C   UNL     1      -5.177  -1.073   6.302  1.00  0.00    -0.000 C 
BRANCH  24  25
ATOM     25  C   UNL     1      -5.147  -1.759   4.926  1.00  0.00    -0.000 C 
BRANCH  25  26
ATOM     26  C   UNL     1      -4.125  -1.107   3.970  1.00  0.00    -0.000 C 
BRANCH  26  27
ATOM     27  C   UNL     1      -2.683  -1.605   4.175  1.00  0.00    -0.000 C 
BRANCH  27  28
ATOM     28  C   UNL     1      -2.364  -2.868   3.358  1.00  0.00    -0.000 C 
BRANCH  28  29
ATOM     29  C   UNL     1      -2.389  -4.150   4.206  1.00  0.00    -0.000 C 
BRANCH  29  30
ATOM     30  C   UNL     1      -2.761  -5.394   3.381  1.00  0.00    -0.000 C 
BRANCH  30  31
ATOM     31  C   UNL     1      -3.052  -5.058   1.909  1.00  0.00    -0.003 C 
ATOM     32  C   UNL     1      -4.516  -4.694   1.664  1.00  0.00     0.004 C 
ENDBRANCH  30  31
ENDBRANCH  29  30
ENDBRANCH  28  29
ENDBRANCH  27  28
ENDBRANCH  26  27
ENDBRANCH  25  26
ENDBRANCH  24  25
ENDBRANCH  23  24
ENDBRANCH  22  23
ENDBRANCH  21  22
ENDBRANCH  20  21
ENDBRANCH  19  20
ENDBRANCH  18  19
ENDBRANCH   1  18
TORSDOF 28
ENDMDL
MODEL 2
REMARK VINA RESULT:    -4.254      3.382      8.939
REMARK INTER + INTRA:         -15.459
REMARK INTER:                 -10.435
REMARK INTRA:                  -5.023
REMARK UNBOUND:                -4.242
REMARK SMILES CCCCCCCCCCCCCCCCCCCCCCCCCCCCCC(=O)[O-]
REMARK SMILES IDX 16 1 17 2 18 3 19 4 20 5 21 6 22 7 23 8 24 9 25 10 26 11
REMARK SMILES IDX 27 12 28 13 29 14 30 15 31 16 32 17 15 18 14 19 13 20 12 21
REMARK SMILES IDX 11 22 10 23 9 24 8 25 7 26 6 27 5 28 4 29 3 30 2 31 1 32
REMARK H PARENT
REMARK Flexibility Score: inf
ROOT
ATOM      1  C   UNL     1      -2.335  -3.923   7.063  1.00  0.00     0.000 C 
ENDROOT
BRANCH   1   2
ATOM      2  C   UNL     1      -2.662  -2.797   8.058  1.00  0.00     0.000 C 
BRANCH   2   3
ATOM      3  C   UNL     1      -4.080  -2.236   7.857  1.00  0.00     0.000 C 
BRANCH   3   4
ATOM      4  C   UNL     1      -4.654  -2.559   6.469  1.00  0.00     0.000 C 
BRANCH   4   5
ATOM      5  C   UNL     1      -4.697  -1.322   5.554  1.00  0.00     0.000 C 
BRANCH   5   6
ATOM      6  C   UNL     1      -4.382  -1.652   4.083  1.00  0.00     0.000 C 
BRANCH   6   7
ATOM      7  C   UNL     1      -2.881  -1.725   3.728  1.00  0.00     0.000 C 
BRANCH   7   8
ATOM      8  C   UNL     1      -2.414  -3.064   3.128  1.00  0.00     0.000 C 
BRANCH   8   9
ATOM      9  C   UNL     1      -3.273  -4.255   3.588  1.00  0.00     0.000 C 
BRANCH   9  10
ATOM     10  C   UNL     1      -3.366  -5.360   2.521  1.00  0.00     0.000 C 
BRANCH  10  11
ATOM     11  C   UNL     1      -3.983  -4.859   1.203  1.00  0.00     0.000 C 
BRANCH  11  12
ATOM     12  C   UNL     1      -3.834  -5.884   0.059  1.00  0.00     0.000 C 
BRANCH  12  13
ATOM     13  C   UNL     1      -3.076  -5.339  -1.167  1.00  0.00     0.006 C 
BRANCH  13  14
ATOM     14  C   UNL     1      -1.756  -4.631  -0.826  1.00  0.00     0.053 C 
BRANCH  14  15
ATOM     15  C   UNL     1      -0.714  -4.844  -1.882  1.00  0.00     0.041 C 
ATOM     16  O   UNL     1      -0.250  -3.862  -2.521  1.00  0.00    -0.550 OA
ATOM     17  O   UNL     1      -0.269  -6.126  -2.175  1.00  0.00    -0.550 OA
ENDBRANCH  14  15
ENDBRANCH  13  14
ENDBRANCH  12  13
ENDBRANCH  11  12
ENDBRANCH  10  11
ENDBRANCH   9  10
ENDBRANCH   8   9
ENDBRANCH   7   8
ENDBRANCH   6   7
ENDBRANCH   5   6
ENDBRANCH   4   5
ENDBRANCH   3   4
ENDBRANCH   2   3
ENDBRANCH   1   2
BRANCH   1  18
ATOM     18  C   UNL     1      -0.949  -3.745   6.415  1.00  0.00     0.000 C 
BRANCH  18  19
ATOM     19  C   UNL     1      -0.491  -2.271   6.406  1.00  0.00     0.000 C 
BRANCH  19  20
ATOM     20  C   UNL     1       0.406  -1.905   5.207  1.00  0.00     0.000 C 
BRANCH  20  21
ATOM     21  C   UNL     1       1.754  -1.262   5.575  1.00  0.00     0.000 C 
BRANCH  21  22
ATOM     22  C   UNL     1       2.932  -2.240   5.434  1.00  0.00     0.000 C 
BRANCH  22  23
ATOM     23  C   UNL     1       3.387  -2.821   6.783  1.00  0.00     0.000 C 
BRANCH  23  24
ATOM     24  C   UNL     1       2.735  -4.177   7.093  1.00  0.00    -0.000 C 
BRANCH  24  25
ATOM     25  C   UNL     1       2.029  -4.151   8.458  1.00  0.00    -0.000 C 
BRANCH  25  26
ATOM     26  C   UNL     1       2.084  -2.758   9.121  1.00  0.00    -0.000 C 
BRANCH  26  27
ATOM     27  C   UNL     1       0.748  -2.318   9.745  1.00  0.00    -0.000 C 
BRANCH  27  28
ATOM     28  C   UNL     1       0.457  -0.822   9.541  1.00  0.00    -0.000 C 
BRANCH  28  29
ATOM     29  C   UNL     1       1.623  -0.071   8.879  1.00  0.00    -0.000 C 
BRANCH  29  30
ATOM     30  C   UNL     1       1.312   1.419   8.656  1.00  0.00    -0.000 C 
BRANCH  30  31
ATOM     31  C   UNL     1       2.074   2.005   7.456  1.00  0.00    -0.003 C 
ATOM     32  C   UNL     1       1.249   3.027   6.673  1.00  0.00     0.004 C 
ENDBRANCH  30  31
ENDBRANCH  29  30
ENDBRANCH  28  29
ENDBRANCH  27  28
ENDBRANCH  26  27
ENDBRANCH  25  26
ENDBRANCH  24  25
ENDBRANCH  23  24
ENDBRANCH  22  23
ENDBRANCH  21  22
ENDBRANCH  20  21
ENDBRANCH  19  20
ENDBRANCH  18  19
ENDBRANCH   1  18
TORSDOF 28
ENDMDL
MODEL 3
REMARK VINA RESULT:    -4.221      1.270      1.804
REMARK INTER + INTRA:         -15.373
REMARK INTER:                 -11.640
REMARK INTRA:                  -3.733
REMARK UNBOUND:                -4.242
REMARK SMILES CCCCCCCCCCCCCCCCCCCCCCCCCCCCCC(=O)[O-]
REMARK SMILES IDX 16 1 17 2 18 3 19 4 20 5 21 6 22 7 23 8 24 9 25 10 26 11
REMARK SMILES IDX 27 12 28 13 29 14 30 15 31 16 32 17 15 18 14 19 13 20 12 21
REMARK SMILES IDX 11 22 10 23 9 24 8 25 7 26 6 27 5 28 4 29 3 30 2 31 1 32
REMARK H PARENT
REMARK Flexibility Score: inf
ROOT
ATOM      1  C   UNL     1       1.458  -1.718   5.220  1.00  0.00     0.000 C 
ENDROOT
BRANCH   1   2
ATOM      2  C   UNL     1       2.708  -2.533   5.596  1.00  0.00     0.000 C 
BRANCH   2   3
ATOM      3  C   UNL     1       3.911  -1.633   5.926  1.00  0.00     0.000 C 
BRANCH   3   4
ATOM      4  C   UNL     1       4.027  -1.325   7.427  1.00  0.00     0.000 C 
BRANCH   4   5
ATOM      5  C   UNL     1       3.633  -2.529   8.301  1.00  0.00     0.000 C 
BRANCH   5   6
ATOM      6  C   UNL     1       2.494  -2.207   9.288  1.00  0.00     0.000 C 
BRANCH   6   7
ATOM      7  C   UNL     1       2.307  -0.711   9.617  1.00  0.00     0.000 C 
BRANCH   7   8
ATOM      8  C   UNL     1       0.984  -0.092   9.129  1.00  0.00     0.000 C 
BRANCH   8   9
ATOM      9  C   UNL     1       1.129   1.387   8.730  1.00  0.00     0.000 C 
BRANCH   9  10
ATOM     10  C   UNL     1       1.491   1.561   7.245  1.00  0.00     0.000 C 
BRANCH  10  11
ATOM     11  C   UNL     1       1.451   3.032   6.795  1.00  0.00     0.000 C 
BRANCH  11  12
ATOM     12  C   UNL     1       0.792   3.950   7.847  1.00  0.00     0.000 C 
BRANCH  12  13
ATOM     13  C   UNL     1      -0.221   4.948   7.252  1.00  0.00     0.006 C 
BRANCH  13  14
ATOM     14  C   UNL     1       0.401   5.986   6.306  1.00  0.00     0.053 C 
BRANCH  14  15
ATOM     15  C   UNL     1      -0.243   5.971   4.953  1.00  0.00     0.041 C 
ATOM     16  O   UNL     1       0.031   5.057   4.131  1.00  0.00    -0.550 OA
ATOM     17  O   UNL     1      -1.130   6.977   4.590  1.00  0.00    -0.550 OA
ENDBRANCH  14  15
ENDBRANCH  13  14
ENDBRANCH  12  13
ENDBRANCH  11  12
ENDBRANCH  10  11
ENDBRANCH   9  10
ENDBRANCH   8   9
ENDBRANCH   7   8
ENDBRANCH   6   7
ENDBRANCH   5   6
ENDBRANCH   4   5
ENDBRANCH   3   4
ENDBRANCH   2   3
ENDBRANCH   1   2
BRANCH   1  18
ATOM     18  C   UNL     1       0.336  -1.858   6.266  1.00  0.00     0.000 C 
BRANCH  18  19
ATOM     19  C   UNL     1      -0.547  -3.098   6.016  1.00  0.00     0.000 C 
BRANCH  19  20
ATOM     20  C   UNL     1      -1.507  -3.422   7.178  1.00  0.00     0.000 C 
BRANCH  20  21
ATOM     21  C   UNL     1      -2.676  -4.354   6.816  1.00  0.00     0.000 C 
BRANCH  21  22
ATOM     22  C   UNL     1      -4.043  -3.660   6.934  1.00  0.00     0.000 C 
BRANCH  22  23
ATOM     23  C   UNL     1      -3.928  -2.129   7.005  1.00  0.00     0.000 C 
BRANCH  23  24
ATOM     24  C   UNL     1      -4.744  -1.423   5.911  1.00  0.00    -0.000 C 
BRANCH  24  25
ATOM     25  C   UNL     1      -3.871  -1.107   4.687  1.00  0.00    -0.000 C 
BRANCH  25  26
ATOM     26  C   UNL     1      -3.940  -2.216   3.615  1.00  0.00    -0.000 C 
BRANCH  26  27
ATOM     27  C   UNL     1      -2.577  -2.861   3.306  1.00  0.00    -0.000 C 
BRANCH  27  28
ATOM     28  C   UNL     1      -2.691  -4.349   2.933  1.00  0.00    -0.000 C 
BRANCH  28  29
ATOM     29  C   UNL     1      -3.618  -4.595   1.732  1.00  0.00    -0.000 C 
BRANCH  29  30
ATOM     30  C   UNL     1      -2.970  -5.491   0.663  1.00  0.00    -0.000 C 
BRANCH  30  31
ATOM     31  C   UNL     1      -1.986  -4.720  -0.233  1.00  0.00    -0.003 C 
ATOM     32  C   UNL     1      -2.297  -4.872  -1.722  1.00  0.00     0.004 C 
ENDBRANCH  30  31
ENDBRANCH  29  30
ENDBRANCH  28  29
ENDBRANCH  27  28
ENDBRANCH  26  27
ENDBRANCH  25  26
ENDBRANCH  24  25
ENDBRANCH  23  24
ENDBRANCH  22  23
ENDBRANCH  21  22
ENDBRANCH  20  21
ENDBRANCH  19  20
ENDBRANCH  18  19
ENDBRANCH   1  18
TORSDOF 28
ENDMDL
MODEL 4
REMARK VINA RESULT:    -4.195      2.107      4.796
REMARK INTER + INTRA:         -15.304
REMARK INTER:                 -11.003
REMARK INTRA:                  -4.301
REMARK UNBOUND:                -4.242
REMARK SMILES CCCCCCCCCCCCCCCCCCCCCCCCCCCCCC(=O)[O-]
REMARK SMILES IDX 16 1 17 2 18 3 19 4 20 5 21 6 22 7 23 8 24 9 25 10 26 11
REMARK SMILES IDX 27 12 28 13 29 14 30 15 31 16 32 17 15 18 14 19 13 20 12 21
REMARK SMILES IDX 11 22 10 23 9 24 8 25 7 26 6 27 5 28 4 29 3 30 2 31 1 32
REMARK H PARENT
REMARK Flexibility Score: inf
ROOT
ATOM      1  C   UNL     1       1.613  -1.925   5.204  1.00  0.00     0.000 C 
ENDROOT
BRANCH   1   2
ATOM      2  C   UNL     1       1.104  -0.570   5.728  1.00  0.00     0.000 C 
BRANCH   2   3
ATOM      3  C   UNL     1       2.096   0.086   6.704  1.00  0.00     0.000 C 
BRANCH   3   4
ATOM      4  C   UNL     1       1.405   0.672   7.945  1.00  0.00     0.000 C 
BRANCH   4   5
ATOM      5  C   UNL     1       1.549   2.202   8.024  1.00  0.00     0.000 C 
BRANCH   5   6
ATOM      6  C   UNL     1       1.368   2.894   6.659  1.00  0.00     0.000 C 
BRANCH   6   7
ATOM      7  C   UNL     1       0.881   4.358   6.719  1.00  0.00     0.000 C 
BRANCH   7   8
ATOM      8  C   UNL     1       0.268   4.898   5.414  1.00  0.00     0.000 C 
BRANCH   8   9
ATOM      9  C   UNL     1       1.331   5.284   4.371  1.00  0.00     0.000 C 
BRANCH   9  10
ATOM     10  C   UNL     1       2.146   6.518   4.793  1.00  0.00     0.000 C 
BRANCH  10  11
ATOM     11  C   UNL     1       3.649   6.217   4.927  1.00  0.00     0.000 C 
BRANCH  11  12
ATOM     12  C   UNL     1       4.111   5.097   3.971  1.00  0.00     0.000 C 
BRANCH  12  13
ATOM     13  C   UNL     1       5.080   5.580   2.873  1.00  0.00     0.006 C 
BRANCH  13  14
ATOM     14  C   UNL     1       4.393   5.986   1.561  1.00  0.00     0.053 C 
BRANCH  14  15
ATOM     15  C   UNL     1       3.477   4.915   1.051  1.00  0.00     0.041 C 
ATOM     16  O   UNL     1       3.930   3.772   0.776  1.00  0.00    -0.550 OA
ATOM     17  O   UNL     1       2.127   5.183   0.860  1.00  0.00    -0.550 OA
ENDBRANCH  14  15
ENDBRANCH  13  14
ENDBRANCH  12  13
ENDBRANCH  11  12
ENDBRANCH  10  11
ENDBRANCH   9  10
ENDBRANCH   8   9
ENDBRANCH   7   8
ENDBRANCH   6   7
ENDBRANCH   5   6
ENDBRANCH   4   5
ENDBRANCH   3   4
ENDBRANCH   2   3
ENDBRANCH   1   2
BRANCH   1  18
ATOM     18  C   UNL     1       2.903  -2.377   5.915  1.00  0.00     0.000 C 
BRANCH  18  19
ATOM     19  C   UNL     1       2.692  -3.655   6.754  1.00  0.00     0.000 C 
BRANCH  19  20
ATOM     20  C   UNL     1       2.898  -3.447   8.267  1.00  0.00     0.000 C 
BRANCH  20  21
ATOM     21  C   UNL     1       1.637  -3.036   9.046  1.00  0.00     0.000 C 
BRANCH  21  22
ATOM     22  C   UNL     1       0.340  -3.466   8.339  1.00  0.00     0.000 C 
BRANCH  22  23
ATOM     23  C   UNL     1      -0.726  -2.359   8.328  1.00  0.00     0.000 C 
BRANCH  23  24
ATOM     24  C   UNL     1      -1.870  -2.650   7.346  1.00  0.00    -0.000 C 
BRANCH  24  25
ATOM     25  C   UNL     1      -1.546  -3.865   6.463  1.00  0.00    -0.000 C 
BRANCH  25  26
ATOM     26  C   UNL     1      -1.674  -3.547   4.958  1.00  0.00    -0.000 C 
BRANCH  26  27
ATOM     27  C   UNL     1      -2.176  -2.121   4.668  1.00  0.00    -0.000 C 
BRANCH  27  28
ATOM     28  C   UNL     1      -3.249  -2.076   3.568  1.00  0.00    -0.000 C 
BRANCH  28  29
ATOM     29  C   UNL     1      -4.446  -1.185   3.936  1.00  0.00    -0.000 C 
BRANCH  29  30
ATOM     30  C   UNL     1      -4.415  -0.736   5.407  1.00  0.00    -0.000 C 
BRANCH  30  31
ATOM     31  C   UNL     1      -5.630  -1.242   6.202  1.00  0.00    -0.003 C 
ATOM     32  C   UNL     1      -5.370  -1.299   7.708  1.00  0.00     0.004 C 
ENDBRANCH  30  31
ENDBRANCH  29  30
ENDBRANCH  28  29
ENDBRANCH  27  28
ENDBRANCH  26  27
ENDBRANCH  25  26
ENDBRANCH  24  25
ENDBRANCH  23  24
ENDBRANCH  22  23
ENDBRANCH  21  22
ENDBRANCH  20  21
ENDBRANCH  19  20
ENDBRANCH  18  19
ENDBRANCH   1  18
TORSDOF 28
ENDMDL
MODEL 5
REMARK VINA RESULT:    -4.165      1.499      3.541
REMARK INTER + INTRA:         -15.225
REMARK INTER:                 -11.126
REMARK INTRA:                  -4.099
REMARK UNBOUND:                -4.242
REMARK SMILES CCCCCCCCCCCCCCCCCCCCCCCCCCCCCC(=O)[O-]
REMARK SMILES IDX 16 1 17 2 18 3 19 4 20 5 21 6 22 7 23 8 24 9 25 10 26 11
REMARK SMILES IDX 27 12 28 13 29 14 30 15 31 16 32 17 15 18 14 19 13 20 12 21
REMARK SMILES IDX 11 22 10 23 9 24 8 25 7 26 6 27 5 28 4 29 3 30 2 31 1 32
REMARK H PARENT
REMARK Flexibility Score: inf
ROOT
ATOM      1  C   UNL     1       0.651  -1.973   6.073  1.00  0.00     0.000 C 
ENDROOT
BRANCH   1   2
ATOM      2  C   UNL     1       1.835  -1.339   5.323  1.00  0.00     0.000 C 
BRANCH   2   3
ATOM      3  C   UNL     1       2.998  -2.327   5.131  1.00  0.00     0.000 C 
BRANCH   3   4
ATOM      4  C   UNL     1       4.326  -1.796   5.695  1.00  0.00     0.000 C 
BRANCH   4   5
ATOM      5  C   UNL     1       4.581  -2.277   7.134  1.00  0.00     0.000 C 
BRANCH   5   6
ATOM      6  C   UNL     1       4.565  -1.130   8.163  1.00  0.00     0.000 C 
BRANCH   6   7
ATOM      7  C   UNL     1       3.303  -1.053   9.048  1.00  0.00     0.000 C 
BRANCH   7   8
ATOM      8  C   UNL     1       2.723   0.361   9.239  1.00  0.00     0.000 C 
BRANCH   8   9
ATOM      9  C   UNL     1       1.335   0.528   8.595  1.00  0.00     0.000 C 
BRANCH   9  10
ATOM     10  C   UNL     1       1.105   1.951   8.057  1.00  0.00     0.000 C 
BRANCH  10  11
ATOM     11  C   UNL     1       1.574   2.115   6.601  1.00  0.00     0.000 C 
BRANCH  11  12
ATOM     12  C   UNL     1       1.544   3.587   6.137  1.00  0.00     0.000 C 
BRANCH  12  13
ATOM     13  C   UNL     1       0.638   4.490   6.999  1.00  0.00     0.006 C 
BRANCH  13  14
ATOM     14  C   UNL     1       0.507   5.929   6.478  1.00  0.00     0.053 C 
BRANCH  14  15
ATOM     15  C   UNL     1      -0.811   6.167   5.807  1.00  0.00     0.041 C 
ATOM     16  O   UNL     1      -1.027   5.707   4.654  1.00  0.00    -0.550 OA
ATOM     17  O   UNL     1      -1.795   6.912   6.443  1.00  0.00    -0.550 OA
ENDBRANCH  14  15
ENDBRANCH  13  14
ENDBRANCH  12  13
ENDBRANCH  11  12
ENDBRANCH  10  11
ENDBRANCH   9  10
ENDBRANCH   8   9
ENDBRANCH   7   8
ENDBRANCH   6   7
ENDBRANCH   5   6
ENDBRANCH   4   5
ENDBRANCH   3   4
ENDBRANCH   2   3
ENDBRANCH   1   2
BRANCH   1  18
ATOM     18  C   UNL     1       1.067  -3.224   6.868  1.00  0.00     0.000 C 
BRANCH  18  19
ATOM     19  C   UNL     1       0.455  -3.249   8.285  1.00  0.00     0.000 C 
BRANCH  19  20
ATOM     20  C   UNL     1      -0.835  -2.418   8.421  1.00  0.00     0.000 C 
BRANCH  20  21
ATOM     21  C   UNL     1      -2.140  -3.230   8.383  1.00  0.00     0.000 C 
BRANCH  21  22
ATOM     22  C   UNL     1      -2.853  -3.138   7.023  1.00  0.00     0.000 C 
BRANCH  22  23
ATOM     23  C   UNL     1      -2.467  -4.282   6.071  1.00  0.00     0.000 C 
BRANCH  23  24
ATOM     24  C   UNL     1      -2.454  -3.847   4.598  1.00  0.00    -0.000 C 
BRANCH  24  25
ATOM     25  C   UNL     1      -2.468  -2.315   4.474  1.00  0.00    -0.000 C 
BRANCH  25  26
ATOM     26  C   UNL     1      -3.642  -1.808   3.609  1.00  0.00    -0.000 C 
BRANCH  26  27
ATOM     27  C   UNL     1      -4.953  -1.626   4.393  1.00  0.00    -0.000 C 
BRANCH  27  28
ATOM     28  C   UNL     1      -4.847  -0.559   5.496  1.00  0.00    -0.000 C 
BRANCH  28  29
ATOM     29  C   UNL     1      -6.012  -0.616   6.497  1.00  0.00    -0.000 C 
BRANCH  29  30
ATOM     30  C   UNL     1      -6.279   0.742   7.168  1.00  0.00    -0.000 C 
BRANCH  30  31
ATOM     31  C   UNL     1      -7.039   0.602   8.497  1.00  0.00    -0.003 C 
ATOM     32  C   UNL     1      -6.952   1.859   9.363  1.00  0.00     0.004 C 
ENDBRANCH  30  31
ENDBRANCH  29  30
ENDBRANCH  28  29
ENDBRANCH  27  28
ENDBRANCH  26  27
ENDBRANCH  25  26
ENDBRANCH  24  25
ENDBRANCH  23  24
ENDBRANCH  22  23
ENDBRANCH  21  22
ENDBRANCH  20  21
ENDBRANCH  19  20
ENDBRANCH  18  19
ENDBRANCH   1  18
TORSDOF 28
ENDMDL
MODEL 6
REMARK VINA RESULT:    -4.152      1.293      3.151
REMARK INTER + INTRA:         -15.191
REMARK INTER:                 -10.726
REMARK INTRA:                  -4.464
REMARK UNBOUND:                -4.242
REMARK SMILES CCCCCCCCCCCCCCCCCCCCCCCCCCCCCC(=O)[O-]
REMARK SMILES IDX 16 1 17 2 18 3 19 4 20 5 21 6 22 7 23 8 24 9 25 10 26 11
REMARK SMILES IDX 27 12 28 13 29 14 30 15 31 16 32 17 15 18 14 19 13 20 12 21
REMARK SMILES IDX 11 22 10 23 9 24 8 25 7 26 6 27 5 28 4 29 3 30 2 31 1 32
REMARK H PARENT
REMARK Flexibility Score: inf
ROOT
ATOM      1  C   UNL     1       0.071  -2.708   5.833  1.00  0.00     0.000 C 
ENDROOT
BRANCH   1   2
ATOM      2  C   UNL     1       0.704  -1.417   5.287  1.00  0.00     0.000 C 
BRANCH   2   3
ATOM      3  C   UNL     1       2.188  -1.290   5.669  1.00  0.00     0.000 C 
BRANCH   3   4
ATOM      4  C   UNL     1       2.808  -2.630   6.096  1.00  0.00     0.000 C 
BRANCH   4   5
ATOM      5  C   UNL     1       3.642  -2.502   7.383  1.00  0.00     0.000 C 
BRANCH   5   6
ATOM      6  C   UNL     1       2.796  -2.640   8.663  1.00  0.00     0.000 C 
BRANCH   6   7
ATOM      7  C   UNL     1       2.622  -1.344   9.484  1.00  0.00     0.000 C 
BRANCH   7   8
ATOM      8  C   UNL     1       1.211  -0.727   9.443  1.00  0.00     0.000 C 
BRANCH   8   9
ATOM      9  C   UNL     1       1.179   0.639   8.736  1.00  0.00     0.000 C 
BRANCH   9  10
ATOM     10  C   UNL     1       2.580   1.116   8.316  1.00  0.00     0.000 C 
BRANCH  10  11
ATOM     11  C   UNL     1       2.539   2.401   7.470  1.00  0.00     0.000 C 
BRANCH  11  12
ATOM     12  C   UNL     1       1.116   2.989   7.365  1.00  0.00     0.000 C 
BRANCH  12  13
ATOM     13  C   UNL     1       1.016   4.205   6.423  1.00  0.00     0.006 C 
BRANCH  13  14
ATOM     14  C   UNL     1      -0.186   5.120   6.703  1.00  0.00     0.053 C 
BRANCH  14  15
ATOM     15  C   UNL     1      -0.565   5.934   5.504  1.00  0.00     0.041 C 
ATOM     16  O   UNL     1      -0.354   5.489   4.344  1.00  0.00    -0.550 OA
ATOM     17  O   UNL     1      -1.131   7.192   5.664  1.00  0.00    -0.550 OA
ENDBRANCH  14  15
ENDBRANCH  13  14
ENDBRANCH  12  13
ENDBRANCH  11  12
ENDBRANCH  10  11
ENDBRANCH   9  10
ENDBRANCH   8   9
ENDBRANCH   7   8
ENDBRANCH   6   7
ENDBRANCH   5   6
ENDBRANCH   4   5
ENDBRANCH   3   4
ENDBRANCH   2   3
ENDBRANCH   1   2
BRANCH   1  18
ATOM     18  C   UNL     1      -0.779  -2.454   7.091  1.00  0.00     0.000 C 
BRANCH  18  19
ATOM     19  C   UNL     1      -0.750  -3.647   8.069  1.00  0.00     0.000 C 
BRANCH  19  20
ATOM     20  C   UNL     1       0.033  -4.865   7.543  1.00  0.00     0.000 C 
BRANCH  20  21
ATOM     21  C   UNL     1      -0.833  -6.070   7.135  1.00  0.00     0.000 C 
BRANCH  21  22
ATOM     22  C   UNL     1      -2.161  -5.648   6.483  1.00  0.00     0.000 C 
BRANCH  22  23
ATOM     23  C   UNL     1      -2.425  -6.371   5.153  1.00  0.00     0.000 C 
BRANCH  23  24
ATOM     24  C   UNL     1      -2.493  -5.407   3.959  1.00  0.00    -0.000 C 
BRANCH  24  25
ATOM     25  C   UNL     1      -3.894  -4.788   3.828  1.00  0.00    -0.000 C 
BRANCH  25  26
ATOM     26  C   UNL     1      -3.884  -3.486   2.999  1.00  0.00    -0.000 C 
BRANCH  26  27
ATOM     27  C   UNL     1      -2.656  -2.595   3.263  1.00  0.00    -0.000 C 
BRANCH  27  28
ATOM     28  C   UNL     1      -2.936  -1.478   4.282  1.00  0.00    -0.000 C 
BRANCH  28  29
ATOM     29  C   UNL     1      -4.421  -1.085   4.346  1.00  0.00    -0.000 C 
BRANCH  29  30
ATOM     30  C   UNL     1      -5.030  -1.311   5.739  1.00  0.00    -0.000 C 
BRANCH  30  31
ATOM     31  C   UNL     1      -5.566  -0.013   6.365  1.00  0.00    -0.003 C 
ATOM     32  C   UNL     1      -6.048  -0.204   7.803  1.00  0.00     0.004 C 
ENDBRANCH  30  31
ENDBRANCH  29  30
ENDBRANCH  28  29
ENDBRANCH  27  28
ENDBRANCH  26  27
ENDBRANCH  25  26
ENDBRANCH  24  25
ENDBRANCH  23  24
ENDBRANCH  22  23
ENDBRANCH  21  22
ENDBRANCH  20  21
ENDBRANCH  19  20
ENDBRANCH  18  19
ENDBRANCH   1  18
TORSDOF 28
ENDMDL
MODEL 7
REMARK VINA RESULT:    -4.140      4.124      9.157
REMARK INTER + INTRA:         -15.159
REMARK INTER:                 -10.522
REMARK INTRA:                  -4.638
REMARK UNBOUND:                -4.242
REMARK SMILES CCCCCCCCCCCCCCCCCCCCCCCCCCCCCC(=O)[O-]
REMARK SMILES IDX 16 1 17 2 18 3 19 4 20 5 21 6 22 7 23 8 24 9 25 10 26 11
REMARK SMILES IDX 27 12 28 13 29 14 30 15 31 16 32 17 15 18 14 19 13 20 12 21
REMARK SMILES IDX 11 22 10 23 9 24 8 25 7 26 6 27 5 28 4 29 3 30 2 31 1 32
REMARK H PARENT
REMARK Flexibility Score: inf
ROOT
ATOM      1  C   UNL     1      -2.592  -3.592   2.625  1.00  0.00     0.000 C 
ENDROOT
BRANCH   1   2
ATOM      2  C   UNL     1      -2.684  -5.101   2.906  1.00  0.00     0.000 C 
BRANCH   2   3
ATOM      3  C   UNL     1      -2.999  -5.401   4.381  1.00  0.00     0.000 C 
BRANCH   3   4
ATOM      4  C   UNL     1      -4.496  -5.645   4.630  1.00  0.00     0.000 C 
BRANCH   4   5
ATOM      5  C   UNL     1      -5.238  -6.065   3.349  1.00  0.00     0.000 C 
BRANCH   5   6
ATOM      6  C   UNL     1      -6.412  -5.129   3.001  1.00  0.00     0.000 C 
BRANCH   6   7
ATOM      7  C   UNL     1      -6.130  -4.099   1.887  1.00  0.00     0.000 C 
BRANCH   7   8
ATOM      8  C   UNL     1      -6.893  -4.332   0.569  1.00  0.00     0.000 C 
BRANCH   8   9
ATOM      9  C   UNL     1      -5.956  -4.491  -0.641  1.00  0.00     0.000 C 
BRANCH   9  10
ATOM     10  C   UNL     1      -4.557  -4.989  -0.239  1.00  0.00     0.000 C 
BRANCH  10  11
ATOM     11  C   UNL     1      -3.835  -5.716  -1.387  1.00  0.00     0.000 C 
BRANCH  11  12
ATOM     12  C   UNL     1      -2.329  -5.902  -1.108  1.00  0.00     0.000 C 
BRANCH  12  13
ATOM     13  C   UNL     1      -1.590  -4.587  -0.788  1.00  0.00     0.006 C 
BRANCH  13  14
ATOM     14  C   UNL     1      -0.876  -3.958  -1.994  1.00  0.00     0.053 C 
BRANCH  14  15
ATOM     15  C   UNL     1       0.178  -4.862  -2.559  1.00  0.00     0.041 C 
ATOM     16  O   UNL     1       0.008  -5.407  -3.682  1.00  0.00    -0.550 OA
ATOM     17  O   UNL     1       1.336  -5.120  -1.838  1.00  0.00    -0.550 OA
ENDBRANCH  14  15
ENDBRANCH  13  14
ENDBRANCH  12  13
ENDBRANCH  11  12
ENDBRANCH  10  11
ENDBRANCH   9  10
ENDBRANCH   8   9
ENDBRANCH   7   8
ENDBRANCH   6   7
ENDBRANCH   5   6
ENDBRANCH   4   5
ENDBRANCH   3   4
ENDBRANCH   2   3
ENDBRANCH   1   2
BRANCH   1  18
ATOM     18  C   UNL     1      -1.971  -2.817   3.802  1.00  0.00     0.000 C 
BRANCH  18  19
ATOM     19  C   UNL     1      -2.711  -1.494   4.089  1.00  0.00     0.000 C 
BRANCH  19  20
ATOM     20  C   UNL     1      -4.211  -1.531   3.739  1.00  0.00     0.000 C 
BRANCH  20  21
ATOM     21  C   UNL     1      -5.128  -2.060   4.855  1.00  0.00     0.000 C 
BRANCH  21  22
ATOM     22  C   UNL     1      -4.661  -1.631   6.256  1.00  0.00     0.000 C 
BRANCH  22  23
ATOM     23  C   UNL     1      -4.168  -2.813   7.106  1.00  0.00     0.000 C 
BRANCH  23  24
ATOM     24  C   UNL     1      -2.717  -2.638   7.578  1.00  0.00    -0.000 C 
BRANCH  24  25
ATOM     25  C   UNL     1      -1.981  -3.987   7.614  1.00  0.00    -0.000 C 
BRANCH  25  26
ATOM     26  C   UNL     1      -0.543  -3.885   7.061  1.00  0.00    -0.000 C 
BRANCH  26  27
ATOM     27  C   UNL     1      -0.174  -2.479   6.555  1.00  0.00    -0.000 C 
BRANCH  27  28
ATOM     28  C   UNL     1       1.333  -2.189   6.640  1.00  0.00    -0.000 C 
BRANCH  28  29
ATOM     29  C   UNL     1       1.973  -1.941   5.264  1.00  0.00    -0.000 C 
BRANCH  29  30
ATOM     30  C   UNL     1       3.507  -1.851   5.336  1.00  0.00    -0.000 C 
BRANCH  30  31
ATOM     31  C   UNL     1       4.064  -2.363   6.675  1.00  0.00    -0.003 C 
ATOM     32  C   UNL     1       5.344  -1.643   7.097  1.00  0.00     0.004 C 
ENDBRANCH  30  31
ENDBRANCH  29  30
ENDBRANCH  28  29
ENDBRANCH  27  28
ENDBRANCH  26  27
ENDBRANCH  25  26
ENDBRANCH  24  25
ENDBRANCH  23  24
ENDBRANCH  22  23
ENDBRANCH  21  22
ENDBRANCH  20  21
ENDBRANCH  19  20
ENDBRANCH  18  19
ENDBRANCH   1  18
TORSDOF 28
ENDMDL
MODEL 8
REMARK VINA RESULT:    -4.131      1.604      3.189
REMARK INTER + INTRA:         -15.134
REMARK INTER:                 -11.854
REMARK INTRA:                  -3.280
REMARK UNBOUND:                -4.242
REMARK SMILES CCCCCCCCCCCCCCCCCCCCCCCCCCCCCC(=O)[O-]
REMARK SMILES IDX 16 1 17 2 18 3 19 4 20 5 21 6 22 7 23 8 24 9 25 10 26 11
REMARK SMILES IDX 27 12 28 13 29 14 30 15 31 16 32 17 15 18 14 19 13 20 12 21
REMARK SMILES IDX 11 22 10 23 9 24 8 25 7 26 6 27 5 28 4 29 3 30 2 31 1 32
REMARK H PARENT
REMARK Flexibility Score: inf
ROOT
ATOM      1  C   UNL     1      -2.953  -1.428   3.955  1.00  0.00     0.000 C 
ENDROOT
BRANCH   1   2
ATOM      2  C   UNL     1      -2.407  -2.518   4.893  1.00  0.00     0.000 C 
BRANCH   2   3
ATOM      3  C   UNL     1      -0.870  -2.529   4.941  1.00  0.00     0.000 C 
BRANCH   3   4
ATOM      4  C   UNL     1      -0.323  -2.928   6.320  1.00  0.00     0.000 C 
BRANCH   4   5
ATOM      5  C   UNL     1       1.210  -2.801   6.398  1.00  0.00     0.000 C 
BRANCH   5   6
ATOM      6  C   UNL     1       1.769  -1.701   5.475  1.00  0.00     0.000 C 
BRANCH   6   7
ATOM      7  C   UNL     1       1.506  -0.252   5.939  1.00  0.00     0.000 C 
BRANCH   7   8
ATOM      8  C   UNL     1       2.272   0.180   7.203  1.00  0.00     0.000 C 
BRANCH   8   9
ATOM      9  C   UNL     1       1.398   0.145   8.469  1.00  0.00     0.000 C 
BRANCH   9  10
ATOM     10  C   UNL     1       1.009   1.553   8.953  1.00  0.00     0.000 C 
BRANCH  10  11
ATOM     11  C   UNL     1       1.099   2.608   7.836  1.00  0.00     0.000 C 
BRANCH  11  12
ATOM     12  C   UNL     1       0.350   3.908   8.197  1.00  0.00     0.000 C 
BRANCH  12  13
ATOM     13  C   UNL     1       0.209   4.890   7.016  1.00  0.00     0.006 C 
BRANCH  13  14
ATOM     14  C   UNL     1       1.110   4.563   5.816  1.00  0.00     0.053 C 
BRANCH  14  15
ATOM     15  C   UNL     1       0.591   5.161   4.543  1.00  0.00     0.041 C 
ATOM     16  O   UNL     1       1.304   5.156   3.504  1.00  0.00    -0.550 OA
ATOM     17  O   UNL     1      -0.670   5.743   4.508  1.00  0.00    -0.550 OA
ENDBRANCH  14  15
ENDBRANCH  13  14
ENDBRANCH  12  13
ENDBRANCH  11  12
ENDBRANCH  10  11
ENDBRANCH   9  10
ENDBRANCH   8   9
ENDBRANCH   7   8
ENDBRANCH   6   7
ENDBRANCH   5   6
ENDBRANCH   4   5
ENDBRANCH   3   4
ENDBRANCH   2   3
ENDBRANCH   1   2
BRANCH   1  18
ATOM     18  C   UNL     1      -4.388  -1.008   4.323  1.00  0.00     0.000 C 
BRANCH  18  19
ATOM     19  C   UNL     1      -4.725  -1.300   5.800  1.00  0.00     0.000 C 
BRANCH  19  20
ATOM     20  C   UNL     1      -5.452  -0.143   6.513  1.00  0.00     0.000 C 
BRANCH  20  21
ATOM     21  C   UNL     1      -6.573  -0.572   7.475  1.00  0.00     0.000 C 
BRANCH  21  22
ATOM     22  C   UNL     1      -7.975  -0.288   6.911  1.00  0.00     0.000 C 
BRANCH  22  23
ATOM     23  C   UNL     1      -8.490  -1.415   6.002  1.00  0.00     0.000 C 
BRANCH  23  24
ATOM     24  C   UNL     1      -8.026  -2.805   6.461  1.00  0.00    -0.000 C 
BRANCH  24  25
ATOM     25  C   UNL     1      -7.563  -3.656   5.268  1.00  0.00    -0.000 C 
BRANCH  25  26
ATOM     26  C   UNL     1      -7.560  -2.859   3.946  1.00  0.00    -0.000 C 
BRANCH  26  27
ATOM     27  C   UNL     1      -7.088  -3.678   2.732  1.00  0.00    -0.000 C 
BRANCH  27  28
ATOM     28  C   UNL     1      -5.560  -3.839   2.676  1.00  0.00    -0.000 C 
BRANCH  28  29
ATOM     29  C   UNL     1      -5.099  -5.278   2.960  1.00  0.00    -0.000 C 
BRANCH  29  30
ATOM     30  C   UNL     1      -3.577  -5.447   2.817  1.00  0.00    -0.000 C 
BRANCH  30  31
ATOM     31  C   UNL     1      -2.976  -4.498   1.767  1.00  0.00    -0.003 C 
ATOM     32  C   UNL     1      -2.779  -5.168   0.407  1.00  0.00     0.004 C 
ENDBRANCH  30  31
ENDBRANCH  29  30
ENDBRANCH  28  29
ENDBRANCH  27  28
ENDBRANCH  26  27
ENDBRANCH  25  26
ENDBRANCH  24  25
ENDBRANCH  23  24
ENDBRANCH  22  23
ENDBRANCH  21  22
ENDBRANCH  20  21
ENDBRANCH  19  20
ENDBRANCH  18  19
ENDBRANCH   1  18
TORSDOF 28
ENDMDL
MODEL 9
REMARK VINA RESULT:    -4.087      1.475      3.364
REMARK INTER + INTRA:         -15.020
REMARK INTER:                 -10.392
REMARK INTRA:                  -4.628
REMARK UNBOUND:                -4.242
REMARK SMILES CCCCCCCCCCCCCCCCCCCCCCCCCCCCCC(=O)[O-]
REMARK SMILES IDX 16 1 17 2 18 3 19 4 20 5 21 6 22 7 23 8 24 9 25 10 26 11
REMARK SMILES IDX 27 12 28 13 29 14 30 15 31 16 32 17 15 18 14 19 13 20 12 21
REMARK SMILES IDX 11 22 10 23 9 24 8 25 7 26 6 27 5 28 4 29 3 30 2 31 1 32
REMARK H PARENT
REMARK Flexibility Score: inf
ROOT
ATOM      1  C   UNL     1       1.788  -3.517   9.098  1.00  0.00     0.000 C 
ENDROOT
BRANCH   1   2
ATOM      2  C   UNL     1       2.962  -3.047   8.223  1.00  0.00     0.000 C 
BRANCH   2   3
ATOM      3  C   UNL     1       2.770  -3.421   6.743  1.00  0.00     0.000 C 
BRANCH   3   4
ATOM      4  C   UNL     1       2.878  -2.207   5.806  1.00  0.00     0.000 C 
BRANCH   4   5
ATOM      5  C   UNL     1       1.511  -1.791   5.234  1.00  0.00     0.000 C 
BRANCH   5   6
ATOM      6  C   UNL     1       1.045  -0.411   5.735  1.00  0.00     0.000 C 
BRANCH   6   7
ATOM      7  C   UNL     1       1.954   0.250   6.793  1.00  0.00     0.000 C 
BRANCH   7   8
ATOM      8  C   UNL     1       1.215   0.896   7.980  1.00  0.00     0.000 C 
BRANCH   8   9
ATOM      9  C   UNL     1       1.385   2.425   8.027  1.00  0.00     0.000 C 
BRANCH   9  10
ATOM     10  C   UNL     1       2.308   2.947   6.912  1.00  0.00     0.000 C 
BRANCH  10  11
ATOM     11  C   UNL     1       2.205   4.471   6.724  1.00  0.00     0.000 C 
BRANCH  11  12
ATOM     12  C   UNL     1       1.350   5.141   7.820  1.00  0.00     0.000 C 
BRANCH  12  13
ATOM     13  C   UNL     1       0.367   6.199   7.280  1.00  0.00     0.006 C 
BRANCH  13  14
ATOM     14  C   UNL     1      -0.748   5.626   6.393  1.00  0.00     0.053 C 
BRANCH  14  15
ATOM     15  C   UNL     1      -0.585   6.023   4.957  1.00  0.00     0.041 C 
ATOM     16  O   UNL     1      -0.062   5.224   4.135  1.00  0.00    -0.550 OA
ATOM     17  O   UNL     1      -0.991   7.280   4.529  1.00  0.00    -0.550 OA
ENDBRANCH  14  15
ENDBRANCH  13  14
ENDBRANCH  12  13
ENDBRANCH  11  12
ENDBRANCH  10  11
ENDBRANCH   9  10
ENDBRANCH   8   9
ENDBRANCH   7   8
ENDBRANCH   6   7
ENDBRANCH   5   6
ENDBRANCH   4   5
ENDBRANCH   3   4
ENDBRANCH   2   3
ENDBRANCH   1   2
BRANCH   1  18
ATOM     18  C   UNL     1       0.768  -2.393   9.358  1.00  0.00     0.000 C 
BRANCH  18  19
ATOM     19  C   UNL     1      -0.453  -2.481   8.418  1.00  0.00     0.000 C 
BRANCH  19  20
ATOM     20  C   UNL     1      -0.959  -3.919   8.188  1.00  0.00     0.000 C 
BRANCH  20  21
ATOM     21  C   UNL     1      -0.890  -4.408   6.732  1.00  0.00     0.000 C 
BRANCH  21  22
ATOM     22  C   UNL     1      -1.512  -3.407   5.743  1.00  0.00     0.000 C 
BRANCH  22  23
ATOM     23  C   UNL     1      -2.410  -4.086   4.696  1.00  0.00     0.000 C 
BRANCH  23  24
ATOM     24  C   UNL     1      -2.653  -3.203   3.463  1.00  0.00    -0.000 C 
BRANCH  24  25
ATOM     25  C   UNL     1      -2.567  -1.712   3.826  1.00  0.00    -0.000 C 
BRANCH  25  26
ATOM     26  C   UNL     1      -3.955  -1.093   4.099  1.00  0.00    -0.000 C 
BRANCH  26  27
ATOM     27  C   UNL     1      -5.035  -2.131   4.448  1.00  0.00    -0.000 C 
BRANCH  27  28
ATOM     28  C   UNL     1      -5.971  -1.665   5.576  1.00  0.00    -0.000 C 
BRANCH  28  29
ATOM     29  C   UNL     1      -5.213  -1.059   6.769  1.00  0.00    -0.000 C 
BRANCH  29  30
ATOM     30  C   UNL     1      -4.433  -2.116   7.569  1.00  0.00    -0.000 C 
BRANCH  30  31
ATOM     31  C   UNL     1      -5.298  -3.335   7.931  1.00  0.00    -0.003 C 
ATOM     32  C   UNL     1      -4.670  -4.658   7.490  1.00  0.00     0.004 C 
ENDBRANCH  30  31
ENDBRANCH  29  30
ENDBRANCH  28  29
ENDBRANCH  27  28
ENDBRANCH  26  27
ENDBRANCH  25  26
ENDBRANCH  24  25
ENDBRANCH  23  24
ENDBRANCH  22  23
ENDBRANCH  21  22
ENDBRANCH  20  21
ENDBRANCH  19  20
ENDBRANCH  18  19
ENDBRANCH   1  18
TORSDOF 28
ENDMDL
