MODEL 1
REMARK VINA RESULT:    -7.404      0.000      0.000
REMARK INTER + INTRA:          -8.954
REMARK INTER:                  -9.135
REMARK INTRA:                   0.182
REMARK UNBOUND:                 0.182
REMARK SMILES Oc1cc(O)c2cc(O)c(-c3cc(O)c(O)c(O)c3)[o+]c2c1
REMARK SMILES IDX 10 1 20 2 21 3 22 4 2 5 3 6 4 7 6 8 7 9 8 10 11 11 12 12
REMARK SMILES IDX 13 13 19 14 15 15 17 16 14 17 16 19 18 21 9 23 1 25 5 27
REMARK H PARENT 14 18 16 20 18 22 9 24 1 26 5 28
REMARK Flexibility Score: inf
ROOT
ATOM      1  C   UNL     1      -1.182  -0.222  27.428  1.00  0.00     0.402 A 
ATOM      2  O   UNL     1      -2.317   0.326  27.857  1.00  0.00    -0.202 OA
ATOM      3  C   UNL     1      -2.758   0.207  29.106  1.00  0.00     0.368 A 
ATOM      4  C   UNL     1      -3.960   0.820  29.464  1.00  0.00     0.162 A 
ATOM      5  C   UNL     1      -4.446   0.715  30.767  1.00  0.00     0.128 A 
ATOM      6  C   UNL     1      -3.724  -0.010  31.722  1.00  0.00     0.093 A 
ATOM      7  C   UNL     1      -2.516  -0.635  31.390  1.00  0.00     0.136 A 
ATOM      8  C   UNL     1      -2.020  -0.531  30.064  1.00  0.00     0.125 A 
ATOM      9  C   UNL     1      -0.827  -1.135  29.637  1.00  0.00     0.078 A 
ATOM     10  C   UNL     1      -0.404  -0.993  28.312  1.00  0.00     0.223 A 
ENDROOT
BRANCH   1  11
ATOM     11  C   UNL     1      -0.793  -0.009  26.016  1.00  0.00     0.091 A 
ATOM     12  C   UNL     1      -1.784   0.256  25.059  1.00  0.00     0.068 A 
ATOM     13  C   UNL     1      -1.444   0.481  23.721  1.00  0.00     0.162 A 
ATOM     14  C   UNL     1       0.556  -0.010  25.620  1.00  0.00     0.068 A 
ATOM     15  C   UNL     1      -0.096   0.458  23.326  1.00  0.00     0.200 A 
ATOM     16  C   UNL     1       0.906   0.216  24.281  1.00  0.00     0.162 A 
BRANCH  13  17
ATOM     17  O   UNL     1      -2.462   0.727  22.798  1.00  0.00    -0.504 OA
ATOM     18  H   UNL     1      -3.100   1.507  22.897  1.00  0.00     0.293 HD
ENDBRANCH  13  17
BRANCH  15  19
ATOM     19  O   UNL     1       0.235   0.680  21.988  1.00  0.00    -0.502 OA
ATOM     20  H   UNL     1       0.384  -0.080  21.336  1.00  0.00     0.293 HD
ENDBRANCH  15  19
BRANCH  16  21
ATOM     21  O   UNL     1       2.247   0.205  23.899  1.00  0.00    -0.504 OA
ATOM     22  H   UNL     1       2.603   0.837  23.192  1.00  0.00     0.293 HD
ENDBRANCH  16  21
ENDBRANCH   1  11
BRANCH  10  23
ATOM     23  O   UNL     1       0.755  -1.633  27.875  1.00  0.00    -0.500 OA
ATOM     24  H   UNL     1       1.671  -1.219  27.997  1.00  0.00     0.294 HD
ENDBRANCH  10  23
BRANCH   5  25
ATOM     25  O   UNL     1      -5.647   1.334  31.104  1.00  0.00    -0.507 OA
ATOM     26  H   UNL     1      -6.179   1.864  30.422  1.00  0.00     0.293 HD
ENDBRANCH   5  25
BRANCH   7  27
ATOM     27  O   UNL     1      -1.855  -1.336  32.401  1.00  0.00    -0.507 OA
ATOM     28  H   UNL     1      -2.005  -2.313  32.610  1.00  0.00     0.293 HD
ENDBRANCH   7  27
TORSDOF 7
ENDMDL
MODEL 2
REMARK VINA RESULT:    -7.353      1.476      7.042
REMARK INTER + INTRA:          -8.891
REMARK INTER:                  -8.522
REMARK INTRA:                  -0.369
REMARK UNBOUND:                 0.182
REMARK SMILES Oc1cc(O)c2cc(O)c(-c3cc(O)c(O)c(O)c3)[o+]c2c1
REMARK SMILES IDX 10 1 20 2 21 3 22 4 2 5 3 6 4 7 6 8 7 9 8 10 11 11 12 12
REMARK SMILES IDX 13 13 19 14 15 15 17 16 14 17 16 19 18 21 9 23 1 25 5 27
REMARK H PARENT 14 18 16 20 18 22 9 24 1 26 5 28
REMARK Flexibility Score: inf
ROOT
ATOM      1  C   UNL     1      -1.449  -0.212  27.221  1.00  0.00     0.402 A 
ATOM      2  O   UNL     1      -1.907  -0.178  25.973  1.00  0.00    -0.202 OA
ATOM      3  C   UNL     1      -1.124  -0.002  24.912  1.00  0.00     0.368 A 
ATOM      4  C   UNL     1      -1.697   0.017  23.639  1.00  0.00     0.162 A 
ATOM      5  C   UNL     1      -0.900   0.196  22.508  1.00  0.00     0.128 A 
ATOM      6  C   UNL     1       0.483   0.358  22.650  1.00  0.00     0.093 A 
ATOM      7  C   UNL     1       1.083   0.342  23.915  1.00  0.00     0.136 A 
ATOM      8  C   UNL     1       0.274   0.162  25.068  1.00  0.00     0.125 A 
ATOM      9  C   UNL     1       0.786   0.147  26.375  1.00  0.00     0.078 A 
ATOM     10  C   UNL     1      -0.074  -0.031  27.463  1.00  0.00     0.223 A 
ENDROOT
BRANCH   1  11
ATOM     11  C   UNL     1      -2.420  -0.424  28.318  1.00  0.00     0.091 A 
ATOM     12  C   UNL     1      -2.589  -1.711  28.851  1.00  0.00     0.068 A 
ATOM     13  C   UNL     1      -3.485  -1.938  29.901  1.00  0.00     0.162 A 
ATOM     14  C   UNL     1      -3.138   0.647  28.877  1.00  0.00     0.068 A 
ATOM     15  C   UNL     1      -4.217  -0.867  30.443  1.00  0.00     0.200 A 
ATOM     16  C   UNL     1      -4.037   0.429  29.930  1.00  0.00     0.162 A 
BRANCH  13  17
ATOM     17  O   UNL     1      -3.634  -3.235  30.394  1.00  0.00    -0.504 OA
ATOM     18  H   UNL     1      -2.839  -3.830  30.589  1.00  0.00     0.293 HD
ENDBRANCH  13  17
BRANCH  15  19
ATOM     19  O   UNL     1      -5.111  -1.102  31.489  1.00  0.00    -0.502 OA
ATOM     20  H   UNL     1      -5.012  -0.657  32.393  1.00  0.00     0.293 HD
ENDBRANCH  15  19
BRANCH  16  21
ATOM     21  O   UNL     1      -4.749   1.499  30.473  1.00  0.00    -0.504 OA
ATOM     22  H   UNL     1      -4.375   2.056  31.231  1.00  0.00     0.293 HD
ENDBRANCH  16  21
ENDBRANCH   1  11
BRANCH  10  23
ATOM     23  O   UNL     1       0.428   0.004  28.764  1.00  0.00    -0.500 OA
ATOM     24  H   UNL     1       0.230   0.774  29.390  1.00  0.00     0.294 HD
ENDBRANCH  10  23
BRANCH   5  25
ATOM     25  O   UNL     1      -1.492   0.212  21.247  1.00  0.00    -0.507 OA
ATOM     26  H   UNL     1      -1.057   0.688  20.464  1.00  0.00     0.293 HD
ENDBRANCH   5  25
BRANCH   7  27
ATOM     27  O   UNL     1       2.469   0.506  23.971  1.00  0.00    -0.507 OA
ATOM     28  H   UNL     1       2.936   1.401  24.019  1.00  0.00     0.293 HD
ENDBRANCH   7  27
TORSDOF 7
ENDMDL
MODEL 3
REMARK VINA RESULT:    -7.315      5.094     11.045
REMARK INTER + INTRA:          -8.844
REMARK INTER:                  -8.930
REMARK INTRA:                   0.086
REMARK UNBOUND:                 0.182
REMARK SMILES Oc1cc(O)c2cc(O)c(-c3cc(O)c(O)c(O)c3)[o+]c2c1
REMARK SMILES IDX 10 1 20 2 21 3 22 4 2 5 3 6 4 7 6 8 7 9 8 10 11 11 12 12
REMARK SMILES IDX 13 13 19 14 15 15 17 16 14 17 16 19 18 21 9 23 1 25 5 27
REMARK H PARENT 14 18 16 20 18 22 9 24 1 26 5 28
REMARK Flexibility Score: inf
ROOT
ATOM      1  C   UNL     1       0.821   0.014  19.660  1.00  0.00     0.402 A 
ATOM      2  O   UNL     1       1.957   0.592  19.277  1.00  0.00    -0.202 OA
ATOM      3  C   UNL     1       2.408   0.558  18.027  1.00  0.00     0.368 A 
ATOM      4  C   UNL     1       3.611   1.198  17.720  1.00  0.00     0.162 A 
ATOM      5  C   UNL     1       4.107   1.181  16.416  1.00  0.00     0.128 A 
ATOM      6  C   UNL     1       3.396   0.519  15.409  1.00  0.00     0.093 A 
ATOM      7  C   UNL     1       2.187  -0.130  15.690  1.00  0.00     0.136 A 
ATOM      8  C   UNL     1       1.681  -0.117  17.016  1.00  0.00     0.125 A 
ATOM      9  C   UNL     1       0.486  -0.751  17.392  1.00  0.00     0.078 A 
ATOM     10  C   UNL     1       0.053  -0.699  18.720  1.00  0.00     0.223 A 
ENDROOT
BRANCH   1  11
ATOM     11  C   UNL     1       0.420   0.131  21.080  1.00  0.00     0.091 A 
ATOM     12  C   UNL     1       1.409   0.173  22.075  1.00  0.00     0.068 A 
ATOM     13  C   UNL     1       1.060   0.302  23.423  1.00  0.00     0.162 A 
ATOM     14  C   UNL     1      -0.929   0.258  21.452  1.00  0.00     0.068 A 
ATOM     15  C   UNL     1      -0.292   0.408  23.792  1.00  0.00     0.200 A 
ATOM     16  C   UNL     1      -1.287   0.390  22.801  1.00  0.00     0.162 A 
BRANCH  13  17
ATOM     17  O   UNL     1       2.073   0.326  24.383  1.00  0.00    -0.504 OA
ATOM     18  H   UNL     1       3.050   0.223  24.137  1.00  0.00     0.293 HD
ENDBRANCH  13  17
BRANCH  15  19
ATOM     19  O   UNL     1      -0.631   0.535  25.140  1.00  0.00    -0.502 OA
ATOM     20  H   UNL     1      -0.469   1.389  25.659  1.00  0.00     0.293 HD
ENDBRANCH  15  19
BRANCH  16  21
ATOM     21  O   UNL     1      -2.630   0.509  23.158  1.00  0.00    -0.504 OA
ATOM     22  H   UNL     1      -3.288  -0.247  23.012  1.00  0.00     0.293 HD
ENDBRANCH  16  21
ENDBRANCH   1  11
BRANCH  10  23
ATOM     23  O   UNL     1      -1.108  -1.371  19.105  1.00  0.00    -0.500 OA
ATOM     24  H   UNL     1      -1.220  -2.366  18.958  1.00  0.00     0.294 HD
ENDBRANCH  10  23
BRANCH   5  25
ATOM     25  O   UNL     1       5.309   1.825  16.131  1.00  0.00    -0.507 OA
ATOM     26  H   UNL     1       6.086   1.332  15.705  1.00  0.00     0.293 HD
ENDBRANCH   5  25
BRANCH   7  27
ATOM     27  O   UNL     1       1.536  -0.765  14.629  1.00  0.00    -0.507 OA
ATOM     28  H   UNL     1       1.101  -1.674  14.688  1.00  0.00     0.293 HD
ENDBRANCH   7  27
TORSDOF 7
ENDMDL
MODEL 4
REMARK VINA RESULT:    -7.271      0.086      1.796
REMARK INTER + INTRA:          -8.789
REMARK INTER:                  -9.041
REMARK INTRA:                   0.252
REMARK UNBOUND:                 0.182
REMARK SMILES Oc1cc(O)c2cc(O)c(-c3cc(O)c(O)c(O)c3)[o+]c2c1
REMARK SMILES IDX 10 1 20 2 21 3 22 4 2 5 3 6 4 7 6 8 7 9 8 10 11 11 12 12
REMARK SMILES IDX 13 13 19 14 15 15 17 16 14 17 16 19 18 21 9 23 1 25 5 27
REMARK H PARENT 14 18 16 20 18 22 9 24 1 26 5 28
REMARK Flexibility Score: inf
ROOT
ATOM      1  C   UNL     1      -1.209  -0.169  27.360  1.00  0.00     0.402 A 
ATOM      2  O   UNL     1      -2.340   0.368  27.810  1.00  0.00    -0.202 OA
ATOM      3  C   UNL     1      -2.768   0.226  29.061  1.00  0.00     0.368 A 
ATOM      4  C   UNL     1      -3.968   0.830  29.443  1.00  0.00     0.162 A 
ATOM      5  C   UNL     1      -4.440   0.700  30.749  1.00  0.00     0.128 A 
ATOM      6  C   UNL     1      -3.706  -0.040  31.684  1.00  0.00     0.093 A 
ATOM      7  C   UNL     1      -2.500  -0.655  31.327  1.00  0.00     0.136 A 
ATOM      8  C   UNL     1      -2.019  -0.527  29.998  1.00  0.00     0.125 A 
ATOM      9  C   UNL     1      -0.828  -1.120  29.549  1.00  0.00     0.078 A 
ATOM     10  C   UNL     1      -0.419  -0.953  28.222  1.00  0.00     0.223 A 
ENDROOT
BRANCH   1  11
ATOM     11  C   UNL     1      -0.835   0.069  25.948  1.00  0.00     0.091 A 
ATOM     12  C   UNL     1       0.519   0.052  25.580  1.00  0.00     0.068 A 
ATOM     13  C   UNL     1       0.901   0.255  24.250  1.00  0.00     0.162 A 
ATOM     14  C   UNL     1      -1.811   0.257  24.953  1.00  0.00     0.068 A 
ATOM     15  C   UNL     1      -0.078   0.463  23.262  1.00  0.00     0.200 A 
ATOM     16  C   UNL     1      -1.437   0.459  23.617  1.00  0.00     0.162 A 
BRANCH  13  17
ATOM     17  O   UNL     1       2.258   0.244  23.928  1.00  0.00    -0.504 OA
ATOM     18  H   UNL     1       2.970   0.006  24.607  1.00  0.00     0.293 HD
ENDBRANCH  13  17
BRANCH  15  19
ATOM     19  O   UNL     1       0.312   0.667  21.937  1.00  0.00    -0.502 OA
ATOM     20  H   UNL     1      -0.260   0.371  21.155  1.00  0.00     0.293 HD
ENDBRANCH  15  19
BRANCH  16  21
ATOM     21  O   UNL     1      -2.414   0.650  22.641  1.00  0.00    -0.504 OA
ATOM     22  H   UNL     1      -3.034   1.451  22.658  1.00  0.00     0.293 HD
ENDBRANCH  16  21
ENDBRANCH   1  11
BRANCH  10  23
ATOM     23  O   UNL     1       0.737  -1.583  27.762  1.00  0.00    -0.500 OA
ATOM     24  H   UNL     1       1.633  -1.446  28.212  1.00  0.00     0.294 HD
ENDBRANCH  10  23
BRANCH   5  25
ATOM     25  O   UNL     1      -5.639   1.310  31.109  1.00  0.00    -0.507 OA
ATOM     26  H   UNL     1      -6.406   0.778  31.506  1.00  0.00     0.293 HD
ENDBRANCH   5  25
BRANCH   7  27
ATOM     27  O   UNL     1      -1.826  -1.372  32.320  1.00  0.00    -0.507 OA
ATOM     28  H   UNL     1      -1.618  -2.359  32.268  1.00  0.00     0.293 HD
ENDBRANCH   7  27
TORSDOF 7
ENDMDL
MODEL 5
REMARK VINA RESULT:    -7.128      4.559      8.101
REMARK INTER + INTRA:          -8.613
REMARK INTER:                  -8.233
REMARK INTRA:                  -0.380
REMARK UNBOUND:                 0.182
REMARK SMILES Oc1cc(O)c2cc(O)c(-c3cc(O)c(O)c(O)c3)[o+]c2c1
REMARK SMILES IDX 10 1 20 2 21 3 22 4 2 5 3 6 4 7 6 8 7 9 8 10 11 11 12 12
REMARK SMILES IDX 13 13 19 14 15 15 17 16 14 17 16 19 18 21 9 23 1 25 5 27
REMARK H PARENT 14 18 16 20 18 22 9 24 1 26 5 28
REMARK Flexibility Score: inf
ROOT
ATOM      1  C   UNL     1       1.138   0.135  20.109  1.00  0.00     0.402 A 
ATOM      2  O   UNL     1       1.596  -0.017  21.349  1.00  0.00    -0.202 OA
ATOM      3  C   UNL     1       0.818   0.044  22.427  1.00  0.00     0.368 A 
ATOM      4  C   UNL     1       1.390  -0.131  23.688  1.00  0.00     0.162 A 
ATOM      5  C   UNL     1       0.599  -0.074  24.836  1.00  0.00     0.128 A 
ATOM      6  C   UNL     1      -0.776   0.159  24.723  1.00  0.00     0.093 A 
ATOM      7  C   UNL     1      -1.374   0.338  23.470  1.00  0.00     0.136 A 
ATOM      8  C   UNL     1      -0.572   0.283  22.300  1.00  0.00     0.125 A 
ATOM      9  C   UNL     1      -1.082   0.464  21.005  1.00  0.00     0.078 A 
ATOM     10  C   UNL     1      -0.228   0.401  19.899  1.00  0.00     0.223 A 
ENDROOT
BRANCH   1  11
ATOM     11  C   UNL     1       2.102   0.034  18.991  1.00  0.00     0.091 A 
ATOM     12  C   UNL     1       2.302  -1.203  18.360  1.00  0.00     0.068 A 
ATOM     13  C   UNL     1       3.192  -1.324  17.288  1.00  0.00     0.162 A 
ATOM     14  C   UNL     1       2.782   1.165  18.506  1.00  0.00     0.068 A 
ATOM     15  C   UNL     1       3.885  -0.194  16.821  1.00  0.00     0.200 A 
ATOM     16  C   UNL     1       3.675   1.054  17.431  1.00  0.00     0.162 A 
BRANCH  13  17
ATOM     17  O   UNL     1       3.372  -2.575  16.698  1.00  0.00    -0.504 OA
ATOM     18  H   UNL     1       2.934  -2.824  15.819  1.00  0.00     0.293 HD
ENDBRANCH  13  17
BRANCH  15  19
ATOM     19  O   UNL     1       4.773  -0.323  15.752  1.00  0.00    -0.502 OA
ATOM     20  H   UNL     1       4.467  -0.280  14.788  1.00  0.00     0.293 HD
ENDBRANCH  15  19
BRANCH  16  21
ATOM     21  O   UNL     1       4.349   2.182  16.964  1.00  0.00    -0.504 OA
ATOM     22  H   UNL     1       5.207   2.106  16.430  1.00  0.00     0.293 HD
ENDBRANCH  16  21
ENDBRANCH   1  11
BRANCH  10  23
ATOM     23  O   UNL     1      -0.726   0.631  18.617  1.00  0.00    -0.500 OA
ATOM     24  H   UNL     1      -1.042   1.546  18.324  1.00  0.00     0.294 HD
ENDBRANCH  10  23
BRANCH   5  25
ATOM     25  O   UNL     1       1.189  -0.252  26.086  1.00  0.00    -0.507 OA
ATOM     26  H   UNL     1       1.360   0.531  26.707  1.00  0.00     0.293 HD
ENDBRANCH   5  25
BRANCH   7  27
ATOM     27  O   UNL     1      -2.753   0.562  23.441  1.00  0.00    -0.507 OA
ATOM     28  H   UNL     1      -3.186   1.416  23.116  1.00  0.00     0.293 HD
ENDBRANCH   7  27
TORSDOF 7
ENDMDL
MODEL 6
REMARK VINA RESULT:    -7.060      1.385      1.407
REMARK INTER + INTRA:          -8.530
REMARK INTER:                  -8.165
REMARK INTRA:                  -0.364
REMARK UNBOUND:                 0.182
REMARK SMILES Oc1cc(O)c2cc(O)c(-c3cc(O)c(O)c(O)c3)[o+]c2c1
REMARK SMILES IDX 10 1 20 2 21 3 22 4 2 5 3 6 4 7 6 8 7 9 8 10 11 11 12 12
REMARK SMILES IDX 13 13 19 14 15 15 17 16 14 17 16 19 18 21 9 23 1 25 5 27
REMARK H PARENT 14 18 16 20 18 22 9 24 1 26 5 28
REMARK Flexibility Score: inf
ROOT
ATOM      1  C   UNL     1      -0.803  -1.139  27.494  1.00  0.00     0.402 A 
ATOM      2  O   UNL     1      -1.957  -0.558  27.813  1.00  0.00    -0.202 OA
ATOM      3  C   UNL     1      -2.415  -0.479  29.058  1.00  0.00     0.368 A 
ATOM      4  C   UNL     1      -3.637   0.154  29.295  1.00  0.00     0.162 A 
ATOM      5  C   UNL     1      -4.142   0.253  30.591  1.00  0.00     0.128 A 
ATOM      6  C   UNL     1      -3.420  -0.285  31.662  1.00  0.00     0.093 A 
ATOM      7  C   UNL     1      -2.192  -0.924  31.453  1.00  0.00     0.136 A 
ATOM      8  C   UNL     1      -1.677  -1.029  30.134  1.00  0.00     0.125 A 
ATOM      9  C   UNL     1      -0.463  -1.664  29.829  1.00  0.00     0.078 A 
ATOM     10  C   UNL     1      -0.021  -1.733  28.504  1.00  0.00     0.223 A 
ENDROOT
BRANCH   1  11
ATOM     11  C   UNL     1      -0.395  -1.153  26.072  1.00  0.00     0.091 A 
ATOM     12  C   UNL     1      -1.017  -2.045  25.185  1.00  0.00     0.068 A 
ATOM     13  C   UNL     1      -0.666  -2.068  23.831  1.00  0.00     0.162 A 
ATOM     14  C   UNL     1       0.562  -0.252  25.575  1.00  0.00     0.068 A 
ATOM     15  C   UNL     1       0.307  -1.179  23.343  1.00  0.00     0.200 A 
ATOM     16  C   UNL     1       0.919  -0.267  24.219  1.00  0.00     0.162 A 
BRANCH  13  17
ATOM     17  O   UNL     1      -1.298  -2.980  22.984  1.00  0.00    -0.504 OA
ATOM     18  H   UNL     1      -1.977  -2.689  22.292  1.00  0.00     0.293 HD
ENDBRANCH  13  17
BRANCH  15  19
ATOM     19  O   UNL     1       0.653  -1.209  21.991  1.00  0.00    -0.502 OA
ATOM     20  H   UNL     1       1.606  -1.358  21.681  1.00  0.00     0.293 HD
ENDBRANCH  15  19
BRANCH  16  21
ATOM     21  O   UNL     1       1.875   0.628  23.739  1.00  0.00    -0.504 OA
ATOM     22  H   UNL     1       1.741   1.135  22.872  1.00  0.00     0.293 HD
ENDBRANCH  16  21
ENDBRANCH   1  11
BRANCH  10  23
ATOM     23  O   UNL     1       1.160  -2.407  28.193  1.00  0.00    -0.500 OA
ATOM     24  H   UNL     1       1.736  -2.136  27.407  1.00  0.00     0.294 HD
ENDBRANCH  10  23
BRANCH   5  25
ATOM     25  O   UNL     1      -5.363   0.889  30.805  1.00  0.00    -0.507 OA
ATOM     26  H   UNL     1      -6.015   0.559  31.508  1.00  0.00     0.293 HD
ENDBRANCH   5  25
BRANCH   7  27
ATOM     27  O   UNL     1      -1.531  -1.431  32.575  1.00  0.00    -0.507 OA
ATOM     28  H   UNL     1      -1.819  -2.256  33.082  1.00  0.00     0.293 HD
ENDBRANCH   7  27
TORSDOF 7
ENDMDL
MODEL 7
REMARK VINA RESULT:    -7.007      5.505     11.128
REMARK INTER + INTRA:          -8.464
REMARK INTER:                  -8.084
REMARK INTRA:                  -0.380
REMARK UNBOUND:                 0.182
REMARK SMILES Oc1cc(O)c2cc(O)c(-c3cc(O)c(O)c(O)c3)[o+]c2c1
REMARK SMILES IDX 10 1 20 2 21 3 22 4 2 5 3 6 4 7 6 8 7 9 8 10 11 11 12 12
REMARK SMILES IDX 13 13 19 14 15 15 17 16 14 17 16 19 18 21 9 23 1 25 5 27
REMARK H PARENT 14 18 16 20 18 22 9 24 1 26 5 28
REMARK Flexibility Score: inf
ROOT
ATOM      1  C   UNL     1       0.694  -0.894  19.305  1.00  0.00     0.402 A 
ATOM      2  O   UNL     1       1.827  -0.232  19.089  1.00  0.00    -0.202 OA
ATOM      3  C   UNL     1       2.311   0.010  17.874  1.00  0.00     0.368 A 
ATOM      4  C   UNL     1       3.508   0.718  17.747  1.00  0.00     0.162 A 
ATOM      5  C   UNL     1       4.039   0.988  16.486  1.00  0.00     0.128 A 
ATOM      6  C   UNL     1       3.366   0.549  15.339  1.00  0.00     0.093 A 
ATOM      7  C   UNL     1       2.164  -0.162  15.439  1.00  0.00     0.136 A 
ATOM      8  C   UNL     1       1.623  -0.441  16.721  1.00  0.00     0.125 A 
ATOM      9  C   UNL     1       0.432  -1.158  16.917  1.00  0.00     0.078 A 
ATOM     10  C   UNL     1      -0.036  -1.399  18.212  1.00  0.00     0.223 A 
ENDROOT
BRANCH   1  11
ATOM     11  C   UNL     1       0.254  -1.091  20.704  1.00  0.00     0.091 A 
ATOM     12  C   UNL     1      -0.616  -0.161  21.292  1.00  0.00     0.068 A 
ATOM     13  C   UNL     1      -1.064  -0.331  22.606  1.00  0.00     0.162 A 
ATOM     14  C   UNL     1       0.644  -2.222  21.442  1.00  0.00     0.068 A 
ATOM     15  C   UNL     1      -0.654  -1.453  23.347  1.00  0.00     0.200 A 
ATOM     16  C   UNL     1       0.199  -2.402  22.759  1.00  0.00     0.162 A 
BRANCH  13  17
ATOM     17  O   UNL     1      -1.917   0.625  23.158  1.00  0.00    -0.504 OA
ATOM     18  H   UNL     1      -2.558   0.403  23.910  1.00  0.00     0.293 HD
ENDBRANCH  13  17
BRANCH  15  19
ATOM     19  O   UNL     1      -1.103  -1.615  24.659  1.00  0.00    -0.502 OA
ATOM     20  H   UNL     1      -2.070  -1.823  24.876  1.00  0.00     0.293 HD
ENDBRANCH  15  19
BRANCH  16  21
ATOM     21  O   UNL     1       0.598  -3.525  23.483  1.00  0.00    -0.504 OA
ATOM     22  H   UNL     1       0.511  -4.461  23.104  1.00  0.00     0.293 HD
ENDBRANCH  16  21
ENDBRANCH   1  11
BRANCH  10  23
ATOM     23  O   UNL     1      -1.193  -2.154  18.409  1.00  0.00    -0.500 OA
ATOM     24  H   UNL     1      -1.242  -2.878  19.114  1.00  0.00     0.294 HD
ENDBRANCH  10  23
BRANCH   5  25
ATOM     25  O   UNL     1       5.234   1.696  16.381  1.00  0.00    -0.507 OA
ATOM     26  H   UNL     1       5.564   2.291  17.132  1.00  0.00     0.293 HD
ENDBRANCH   5  25
BRANCH   7  27
ATOM     27  O   UNL     1       1.553  -0.562  14.247  1.00  0.00    -0.507 OA
ATOM     28  H   UNL     1       0.583  -0.396  14.020  1.00  0.00     0.293 HD
ENDBRANCH   7  27
TORSDOF 7
ENDMDL
MODEL 8
REMARK VINA RESULT:    -6.773      2.163      7.340
REMARK INTER + INTRA:          -8.175
REMARK INTER:                  -7.821
REMARK INTRA:                  -0.354
REMARK UNBOUND:                 0.182
REMARK SMILES Oc1cc(O)c2cc(O)c(-c3cc(O)c(O)c(O)c3)[o+]c2c1
REMARK SMILES IDX 10 1 20 2 21 3 22 4 2 5 3 6 4 7 6 8 7 9 8 10 11 11 12 12
REMARK SMILES IDX 13 13 19 14 15 15 17 16 14 17 16 19 18 21 9 23 1 25 5 27
REMARK H PARENT 14 18 16 20 18 22 9 24 1 26 5 28
REMARK Flexibility Score: inf
ROOT
ATOM      1  C   UNL     1      -1.428  -1.968  27.906  1.00  0.00     0.402 A 
ATOM      2  O   UNL     1      -1.014  -0.989  27.106  1.00  0.00    -0.202 OA
ATOM      3  C   UNL     1      -0.637  -1.185  25.846  1.00  0.00     0.368 A 
ATOM      4  C   UNL     1      -0.220  -0.092  25.083  1.00  0.00     0.162 A 
ATOM      5  C   UNL     1       0.178  -0.267  23.758  1.00  0.00     0.128 A 
ATOM      6  C   UNL     1       0.160  -1.546  23.189  1.00  0.00     0.093 A 
ATOM      7  C   UNL     1      -0.254  -2.658  23.932  1.00  0.00     0.136 A 
ATOM      8  C   UNL     1      -0.658  -2.483  25.282  1.00  0.00     0.125 A 
ATOM      9  C   UNL     1      -1.074  -3.541  26.105  1.00  0.00     0.078 A 
ATOM     10  C   UNL     1      -1.453  -3.292  27.428  1.00  0.00     0.223 A 
ENDROOT
BRANCH   1  11
ATOM     11  C   UNL     1      -1.831  -1.621  29.287  1.00  0.00     0.091 A 
ATOM     12  C   UNL     1      -0.909  -1.774  30.334  1.00  0.00     0.068 A 
ATOM     13  C   UNL     1      -1.256  -1.436  31.646  1.00  0.00     0.162 A 
ATOM     14  C   UNL     1      -3.100  -1.087  29.567  1.00  0.00     0.068 A 
ATOM     15  C   UNL     1      -2.534  -0.921  31.924  1.00  0.00     0.200 A 
ATOM     16  C   UNL     1      -3.455  -0.743  30.879  1.00  0.00     0.162 A 
BRANCH  13  17
ATOM     17  O   UNL     1      -0.315  -1.617  32.661  1.00  0.00    -0.504 OA
ATOM     18  H   UNL     1      -0.551  -1.506  33.639  1.00  0.00     0.293 HD
ENDBRANCH  13  17
BRANCH  15  19
ATOM     19  O   UNL     1      -2.873  -0.589  33.237  1.00  0.00    -0.502 OA
ATOM     20  H   UNL     1      -3.774  -0.819  33.636  1.00  0.00     0.293 HD
ENDBRANCH  15  19
BRANCH  16  21
ATOM     21  O   UNL     1      -4.720  -0.220  31.145  1.00  0.00    -0.504 OA
ATOM     22  H   UNL     1      -5.523  -0.819  31.297  1.00  0.00     0.293 HD
ENDBRANCH  16  21
ENDBRANCH   1  11
BRANCH  10  23
ATOM     23  O   UNL     1      -1.819  -4.349  28.262  1.00  0.00    -0.500 OA
ATOM     24  H   UNL     1      -1.130  -4.887  28.773  1.00  0.00     0.294 HD
ENDBRANCH  10  23
BRANCH   5  25
ATOM     25  O   UNL     1       0.590   0.836  23.014  1.00  0.00    -0.507 OA
ATOM     26  H   UNL     1       1.027   0.728  22.105  1.00  0.00     0.293 HD
ENDBRANCH   5  25
BRANCH   7  27
ATOM     27  O   UNL     1      -0.247  -3.899  23.290  1.00  0.00    -0.507 OA
ATOM     28  H   UNL     1       0.559  -4.504  23.226  1.00  0.00     0.293 HD
ENDBRANCH   7  27
TORSDOF 7
ENDMDL
MODEL 9
REMARK VINA RESULT:    -6.682      2.433      4.051
REMARK INTER + INTRA:          -8.063
REMARK INTER:                  -7.678
REMARK INTRA:                  -0.384
REMARK UNBOUND:                 0.182
REMARK SMILES Oc1cc(O)c2cc(O)c(-c3cc(O)c(O)c(O)c3)[o+]c2c1
REMARK SMILES IDX 10 1 20 2 21 3 22 4 2 5 3 6 4 7 6 8 7 9 8 10 11 11 12 12
REMARK SMILES IDX 13 13 19 14 15 15 17 16 14 17 16 19 18 21 9 23 1 25 5 27
REMARK H PARENT 14 18 16 20 18 22 9 24 1 26 5 28
REMARK Flexibility Score: inf
ROOT
ATOM      1  C   UNL     1      -0.108  -0.895  23.760  1.00  0.00     0.402 A 
ATOM      2  O   UNL     1      -0.940  -0.171  24.504  1.00  0.00    -0.202 OA
ATOM      3  C   UNL     1      -0.978  -0.237  25.831  1.00  0.00     0.368 A 
ATOM      4  C   UNL     1      -1.885   0.566  26.526  1.00  0.00     0.162 A 
ATOM      5  C   UNL     1      -1.946   0.519  27.919  1.00  0.00     0.128 A 
ATOM      6  C   UNL     1      -1.093  -0.337  28.625  1.00  0.00     0.093 A 
ATOM      7  C   UNL     1      -0.174  -1.152  27.952  1.00  0.00     0.136 A 
ATOM      8  C   UNL     1      -0.112  -1.108  26.535  1.00  0.00     0.125 A 
ATOM      9  C   UNL     1       0.767  -1.898  25.777  1.00  0.00     0.078 A 
ATOM     10  C   UNL     1       0.768  -1.805  24.382  1.00  0.00     0.223 A 
ENDROOT
BRANCH   1  11
ATOM     11  C   UNL     1      -0.154  -0.724  22.290  1.00  0.00     0.091 A 
ATOM     12  C   UNL     1      -1.061  -1.482  21.535  1.00  0.00     0.068 A 
ATOM     13  C   UNL     1      -1.140  -1.328  20.147  1.00  0.00     0.162 A 
ATOM     14  C   UNL     1       0.653   0.224  21.638  1.00  0.00     0.068 A 
ATOM     15  C   UNL     1      -0.316  -0.394  19.497  1.00  0.00     0.200 A 
ATOM     16  C   UNL     1       0.579   0.386  20.247  1.00  0.00     0.162 A 
BRANCH  13  17
ATOM     17  O   UNL     1      -2.046  -2.112  19.432  1.00  0.00    -0.504 OA
ATOM     18  H   UNL     1      -2.230  -3.077  19.673  1.00  0.00     0.293 HD
ENDBRANCH  13  17
BRANCH  15  19
ATOM     19  O   UNL     1      -0.400  -0.248  18.111  1.00  0.00    -0.502 OA
ATOM     20  H   UNL     1      -0.006  -0.927  17.472  1.00  0.00     0.293 HD
ENDBRANCH  15  19
BRANCH  16  21
ATOM     21  O   UNL     1       1.390   1.326  19.610  1.00  0.00    -0.504 OA
ATOM     22  H   UNL     1       1.254   1.572  18.637  1.00  0.00     0.293 HD
ENDBRANCH  16  21
ENDBRANCH   1  11
BRANCH  10  23
ATOM     23  O   UNL     1       1.606  -2.625  23.626  1.00  0.00    -0.500 OA
ATOM     24  H   UNL     1       1.366  -3.587  23.421  1.00  0.00     0.294 HD
ENDBRANCH  10  23
BRANCH   5  25
ATOM     25  O   UNL     1      -2.858   1.328  28.594  1.00  0.00    -0.507 OA
ATOM     26  H   UNL     1      -3.596   0.931  29.164  1.00  0.00     0.293 HD
ENDBRANCH   5  25
BRANCH   7  27
ATOM     27  O   UNL     1       0.645  -1.975  28.729  1.00  0.00    -0.507 OA
ATOM     28  H   UNL     1       1.654  -1.981  28.685  1.00  0.00     0.293 HD
ENDBRANCH   7  27
TORSDOF 7
ENDMDL
