MODEL 1
REMARK VINA RESULT:    -4.979      0.000      0.000
REMARK INTER + INTRA:         -18.214
REMARK INTER:                 -13.130
REMARK INTRA:                  -5.084
REMARK UNBOUND:                -5.084
REMARK SMILES CCCCCCCCCCCCCCCCCCCCCCCCCCCCCC(=O)[O-]
REMARK SMILES IDX 16 1 17 2 18 3 19 4 20 5 21 6 22 7 23 8 24 9 25 10 26 11
REMARK SMILES IDX 27 12 28 13 29 14 30 15 31 16 32 17 15 18 14 19 13 20 12 21
REMARK SMILES IDX 11 22 10 23 9 24 8 25 7 26 6 27 5 28 4 29 3 30 2 31 1 32
REMARK H PARENT
REMARK Flexibility Score: inf
ROOT
ATOM      1  C   UNL     1      47.348 -38.213  -1.391  1.00  0.00     0.000 C 
ENDROOT
BRANCH   1   2
ATOM      2  C   UNL     1      45.832 -38.457  -1.323  1.00  0.00     0.000 C 
BRANCH   2   3
ATOM      3  C   UNL     1      45.425 -39.856  -1.821  1.00  0.00     0.000 C 
BRANCH   3   4
ATOM      4  C   UNL     1      44.529 -39.832  -3.077  1.00  0.00     0.000 C 
BRANCH   4   5
ATOM      5  C   UNL     1      44.673 -38.526  -3.875  1.00  0.00     0.000 C 
BRANCH   5   6
ATOM      6  C   UNL     1      45.588 -38.683  -5.102  1.00  0.00     0.000 C 
BRANCH   6   7
ATOM      7  C   UNL     1      46.380 -37.403  -5.416  1.00  0.00     0.000 C 
BRANCH   7   8
ATOM      8  C   UNL     1      45.939 -36.212  -4.551  1.00  0.00     0.000 C 
BRANCH   8   9
ATOM      9  C   UNL     1      46.455 -34.866  -5.092  1.00  0.00     0.000 C 
BRANCH   9  10
ATOM     10  C   UNL     1      47.960 -34.889  -5.408  1.00  0.00     0.000 C 
BRANCH  10  11
ATOM     11  C   UNL     1      48.585 -33.485  -5.411  1.00  0.00     0.000 C 
BRANCH  11  12
ATOM     12  C   UNL     1      48.778 -32.961  -3.980  1.00  0.00     0.000 C 
BRANCH  12  13
ATOM     13  C   UNL     1      48.212 -31.542  -3.789  1.00  0.00     0.006 C 
BRANCH  13  14
ATOM     14  C   UNL     1      48.046 -31.169  -2.311  1.00  0.00     0.053 C 
BRANCH  14  15
ATOM     15  C   UNL     1      47.169 -32.161  -1.611  1.00  0.00     0.041 C 
ATOM     16  O   UNL     1      45.941 -32.232  -1.889  1.00  0.00    -0.550 OA
ATOM     17  O   UNL     1      47.703 -32.996  -0.642  1.00  0.00    -0.550 OA
ENDBRANCH  14  15
ENDBRANCH  13  14
ENDBRANCH  12  13
ENDBRANCH  11  12
ENDBRANCH  10  11
ENDBRANCH   9  10
ENDBRANCH   8   9
ENDBRANCH   7   8
ENDBRANCH   6   7
ENDBRANCH   5   6
ENDBRANCH   4   5
ENDBRANCH   3   4
ENDBRANCH   2   3
ENDBRANCH   1   2
BRANCH   1  18
ATOM     18  C   UNL     1      47.748 -36.851  -0.802  1.00  0.00     0.000 C 
BRANCH  18  19
ATOM     19  C   UNL     1      48.960 -36.230  -1.516  1.00  0.00     0.000 C 
BRANCH  19  20
ATOM     20  C   UNL     1      49.226 -36.896  -2.877  1.00  0.00     0.000 C 
BRANCH  20  21
ATOM     21  C   UNL     1      50.637 -37.505  -2.963  1.00  0.00     0.000 C 
BRANCH  21  22
ATOM     22  C   UNL     1      51.107 -37.719  -4.408  1.00  0.00     0.000 C 
BRANCH  22  23
ATOM     23  C   UNL     1      50.016 -38.308  -5.319  1.00  0.00     0.000 C 
BRANCH  23  24
ATOM     24  C   UNL     1      50.331 -39.758  -5.717  1.00  0.00    -0.000 C 
BRANCH  24  25
ATOM     25  C   UNL     1      49.188 -40.725  -5.362  1.00  0.00    -0.000 C 
BRANCH  25  26
ATOM     26  C   UNL     1      48.586 -40.446  -3.971  1.00  0.00    -0.000 C 
BRANCH  26  27
ATOM     27  C   UNL     1      49.277 -41.198  -2.812  1.00  0.00    -0.000 C 
BRANCH  27  28
ATOM     28  C   UNL     1      50.671 -41.777  -3.141  1.00  0.00    -0.000 C 
BRANCH  28  29
ATOM     29  C   UNL     1      51.863 -40.967  -2.594  1.00  0.00    -0.000 C 
BRANCH  29  30
ATOM     30  C   UNL     1      52.975 -41.809  -1.944  1.00  0.00    -0.000 C 
BRANCH  30  31
ATOM     31  C   UNL     1      54.307 -41.053  -1.848  1.00  0.00    -0.003 C 
ATOM     32  C   UNL     1      54.117 -39.562  -2.114  1.00  0.00     0.004 C 
ENDBRANCH  30  31
ENDBRANCH  29  30
ENDBRANCH  28  29
ENDBRANCH  27  28
ENDBRANCH  26  27
ENDBRANCH  25  26
ENDBRANCH  24  25
ENDBRANCH  23  24
ENDBRANCH  22  23
ENDBRANCH  21  22
ENDBRANCH  20  21
ENDBRANCH  19  20
ENDBRANCH  18  19
ENDBRANCH   1  18
TORSDOF 28
ENDMDL
MODEL 2
REMARK VINA RESULT:    -4.857      1.566      5.063
REMARK INTER + INTRA:         -17.891
REMARK INTER:                 -11.909
REMARK INTRA:                  -5.982
REMARK UNBOUND:                -5.084
REMARK SMILES CCCCCCCCCCCCCCCCCCCCCCCCCCCCCC(=O)[O-]
REMARK SMILES IDX 16 1 17 2 18 3 19 4 20 5 21 6 22 7 23 8 24 9 25 10 26 11
REMARK SMILES IDX 27 12 28 13 29 14 30 15 31 16 32 17 15 18 14 19 13 20 12 21
REMARK SMILES IDX 11 22 10 23 9 24 8 25 7 26 6 27 5 28 4 29 3 30 2 31 1 32
REMARK H PARENT
REMARK Flexibility Score: inf
ROOT
ATOM      1  C   UNL     1      51.467 -38.592  -3.541  1.00  0.00     0.000 C 
ENDROOT
BRANCH   1   2
ATOM      2  C   UNL     1      51.643 -38.380  -5.054  1.00  0.00     0.000 C 
BRANCH   2   3
ATOM      3  C   UNL     1      50.750 -37.256  -5.610  1.00  0.00     0.000 C 
BRANCH   3   4
ATOM      4  C   UNL     1      51.414 -36.435  -6.735  1.00  0.00     0.000 C 
BRANCH   4   5
ATOM      5  C   UNL     1      50.815 -35.023  -6.862  1.00  0.00     0.000 C 
BRANCH   5   6
ATOM      6  C   UNL     1      49.558 -34.837  -5.996  1.00  0.00     0.000 C 
BRANCH   6   7
ATOM      7  C   UNL     1      48.401 -34.181  -6.767  1.00  0.00     0.000 C 
BRANCH   7   8
ATOM      8  C   UNL     1      47.110 -35.012  -6.708  1.00  0.00     0.000 C 
BRANCH   8   9
ATOM      9  C   UNL     1      47.226 -36.218  -5.758  1.00  0.00     0.000 C 
BRANCH   9  10
ATOM     10  C   UNL     1      45.875 -36.903  -5.497  1.00  0.00     0.000 C 
BRANCH  10  11
ATOM     11  C   UNL     1      44.849 -35.960  -4.851  1.00  0.00     0.000 C 
BRANCH  11  12
ATOM     12  C   UNL     1      44.834 -36.120  -3.323  1.00  0.00     0.000 C 
BRANCH  12  13
ATOM     13  C   UNL     1      45.325 -34.857  -2.592  1.00  0.00     0.006 C 
BRANCH  13  14
ATOM     14  C   UNL     1      45.369 -33.627  -3.507  1.00  0.00     0.053 C 
BRANCH  14  15
ATOM     15  C   UNL     1      46.639 -32.860  -3.301  1.00  0.00     0.041 C 
ATOM     16  O   UNL     1      47.752 -33.452  -3.332  1.00  0.00    -0.550 OA
ATOM     17  O   UNL     1      46.593 -31.496  -3.060  1.00  0.00    -0.550 OA
ENDBRANCH  14  15
ENDBRANCH  13  14
ENDBRANCH  12  13
ENDBRANCH  11  12
ENDBRANCH  10  11
ENDBRANCH   9  10
ENDBRANCH   8   9
ENDBRANCH   7   8
ENDBRANCH   6   7
ENDBRANCH   5   6
ENDBRANCH   4   5
ENDBRANCH   3   4
ENDBRANCH   2   3
ENDBRANCH   1   2
BRANCH   1  18
ATOM     18  C   UNL     1      52.377 -39.705  -2.997  1.00  0.00     0.000 C 
BRANCH  18  19
ATOM     19  C   UNL     1      51.613 -41.006  -2.703  1.00  0.00     0.000 C 
BRANCH  19  20
ATOM     20  C   UNL     1      50.090 -40.785  -2.690  1.00  0.00     0.000 C 
BRANCH  20  21
ATOM     21  C   UNL     1      49.363 -41.669  -3.720  1.00  0.00     0.000 C 
BRANCH  21  22
ATOM     22  C   UNL     1      48.809 -40.869  -4.906  1.00  0.00     0.000 C 
BRANCH  22  23
ATOM     23  C   UNL     1      47.679 -39.903  -4.510  1.00  0.00     0.000 C 
BRANCH  23  24
ATOM     24  C   UNL     1      46.542 -40.629  -3.776  1.00  0.00    -0.000 C 
BRANCH  24  25
ATOM     25  C   UNL     1      45.319 -39.724  -3.545  1.00  0.00    -0.000 C 
BRANCH  25  26
ATOM     26  C   UNL     1      44.607 -40.019  -2.211  1.00  0.00    -0.000 C 
BRANCH  26  27
ATOM     27  C   UNL     1      44.994 -39.071  -1.056  1.00  0.00    -0.000 C 
BRANCH  27  28
ATOM     28  C   UNL     1      46.187 -39.538  -0.192  1.00  0.00    -0.000 C 
BRANCH  28  29
ATOM     29  C   UNL     1      47.561 -38.986  -0.619  1.00  0.00    -0.000 C 
BRANCH  29  30
ATOM     30  C   UNL     1      47.592 -37.473  -0.903  1.00  0.00    -0.000 C 
BRANCH  30  31
ATOM     31  C   UNL     1      48.344 -37.132  -2.196  1.00  0.00    -0.003 C 
ATOM     32  C   UNL     1      49.458 -36.122  -1.937  1.00  0.00     0.004 C 
ENDBRANCH  30  31
ENDBRANCH  29  30
ENDBRANCH  28  29
ENDBRANCH  27  28
ENDBRANCH  26  27
ENDBRANCH  25  26
ENDBRANCH  24  25
ENDBRANCH  23  24
ENDBRANCH  22  23
ENDBRANCH  21  22
ENDBRANCH  20  21
ENDBRANCH  19  20
ENDBRANCH  18  19
ENDBRANCH   1  18
TORSDOF 28
ENDMDL
MODEL 3
REMARK VINA RESULT:    -4.823      2.943      7.206
REMARK INTER + INTRA:         -17.802
REMARK INTER:                 -11.728
REMARK INTRA:                  -6.074
REMARK UNBOUND:                -5.084
REMARK SMILES CCCCCCCCCCCCCCCCCCCCCCCCCCCCCC(=O)[O-]
REMARK SMILES IDX 16 1 17 2 18 3 19 4 20 5 21 6 22 7 23 8 24 9 25 10 26 11
REMARK SMILES IDX 27 12 28 13 29 14 30 15 31 16 32 17 15 18 14 19 13 20 12 21
REMARK SMILES IDX 11 22 10 23 9 24 8 25 7 26 6 27 5 28 4 29 3 30 2 31 1 32
REMARK H PARENT
REMARK Flexibility Score: inf
ROOT
ATOM      1  C   UNL     1      49.121 -35.785  -0.837  1.00  0.00     0.000 C 
ENDROOT
BRANCH   1   2
ATOM      2  C   UNL     1      48.616 -36.146   0.570  1.00  0.00     0.000 C 
BRANCH   2   3
ATOM      3  C   UNL     1      47.916 -37.517   0.623  1.00  0.00     0.000 C 
BRANCH   3   4
ATOM      4  C   UNL     1      46.476 -37.458   1.173  1.00  0.00     0.000 C 
BRANCH   4   5
ATOM      5  C   UNL     1      45.598 -38.604   0.642  1.00  0.00     0.000 C 
BRANCH   5   6
ATOM      6  C   UNL     1      46.251 -39.348  -0.535  1.00  0.00     0.000 C 
BRANCH   6   7
ATOM      7  C   UNL     1      45.223 -40.083  -1.412  1.00  0.00     0.000 C 
BRANCH   7   8
ATOM      8  C   UNL     1      45.696 -40.237  -2.866  1.00  0.00     0.000 C 
BRANCH   8   9
ATOM      9  C   UNL     1      47.210 -40.006  -3.023  1.00  0.00     0.000 C 
BRANCH   9  10
ATOM     10  C   UNL     1      47.679 -40.102  -4.484  1.00  0.00     0.000 C 
BRANCH  10  11
ATOM     11  C   UNL     1      48.858 -41.070  -4.664  1.00  0.00     0.000 C 
BRANCH  11  12
ATOM     12  C   UNL     1      49.357 -41.594  -3.309  1.00  0.00     0.000 C 
BRANCH  12  13
ATOM     13  C   UNL     1      50.879 -41.822  -3.287  1.00  0.00     0.006 C 
BRANCH  13  14
ATOM     14  C   UNL     1      51.656 -40.563  -2.881  1.00  0.00     0.053 C 
BRANCH  14  15
ATOM     15  C   UNL     1      52.928 -40.930  -2.180  1.00  0.00     0.041 C 
ATOM     16  O   UNL     1      53.078 -42.085  -1.697  1.00  0.00    -0.550 OA
ATOM     17  O   UNL     1      53.941 -39.993  -2.048  1.00  0.00    -0.550 OA
ENDBRANCH  14  15
ENDBRANCH  13  14
ENDBRANCH  12  13
ENDBRANCH  11  12
ENDBRANCH  10  11
ENDBRANCH   9  10
ENDBRANCH   8   9
ENDBRANCH   7   8
ENDBRANCH   6   7
ENDBRANCH   5   6
ENDBRANCH   4   5
ENDBRANCH   3   4
ENDBRANCH   2   3
ENDBRANCH   1   2
BRANCH   1  18
ATOM     18  C   UNL     1      48.516 -36.687  -1.925  1.00  0.00     0.000 C 
BRANCH  18  19
ATOM     19  C   UNL     1      49.530 -37.054  -3.021  1.00  0.00     0.000 C 
BRANCH  19  20
ATOM     20  C   UNL     1      49.013 -36.693  -4.424  1.00  0.00     0.000 C 
BRANCH  20  21
ATOM     21  C   UNL     1      48.390 -35.287  -4.473  1.00  0.00     0.000 C 
BRANCH  21  22
ATOM     22  C   UNL     1      46.967 -35.284  -5.046  1.00  0.00     0.000 C 
BRANCH  22  23
ATOM     23  C   UNL     1      46.590 -36.606  -5.739  1.00  0.00     0.000 C 
BRANCH  23  24
ATOM     24  C   UNL     1      45.368 -37.263  -5.081  1.00  0.00    -0.000 C 
BRANCH  24  25
ATOM     25  C   UNL     1      44.619 -36.301  -4.142  1.00  0.00    -0.000 C 
BRANCH  25  26
ATOM     26  C   UNL     1      44.697 -36.733  -2.665  1.00  0.00    -0.000 C 
BRANCH  26  27
ATOM     27  C   UNL     1      44.382 -35.610  -1.653  1.00  0.00    -0.000 C 
BRANCH  27  28
ATOM     28  C   UNL     1      45.591 -34.748  -1.227  1.00  0.00    -0.000 C 
BRANCH  28  29
ATOM     29  C   UNL     1      45.771 -33.436  -2.017  1.00  0.00    -0.000 C 
BRANCH  29  30
ATOM     30  C   UNL     1      47.164 -32.794  -1.897  1.00  0.00    -0.000 C 
BRANCH  30  31
ATOM     31  C   UNL     1      47.436 -32.236  -0.493  1.00  0.00    -0.003 C 
ATOM     32  C   UNL     1      48.090 -30.859  -0.563  1.00  0.00     0.004 C 
ENDBRANCH  30  31
ENDBRANCH  29  30
ENDBRANCH  28  29
ENDBRANCH  27  28
ENDBRANCH  26  27
ENDBRANCH  25  26
ENDBRANCH  24  25
ENDBRANCH  23  24
ENDBRANCH  22  23
ENDBRANCH  21  22
ENDBRANCH  20  21
ENDBRANCH  19  20
ENDBRANCH  18  19
ENDBRANCH   1  18
TORSDOF 28
ENDMDL
MODEL 4
REMARK VINA RESULT:    -4.792      1.483      4.944
REMARK INTER + INTRA:         -17.722
REMARK INTER:                 -11.810
REMARK INTRA:                  -5.912
REMARK UNBOUND:                -5.084
REMARK SMILES CCCCCCCCCCCCCCCCCCCCCCCCCCCCCC(=O)[O-]
REMARK SMILES IDX 16 1 17 2 18 3 19 4 20 5 21 6 22 7 23 8 24 9 25 10 26 11
REMARK SMILES IDX 27 12 28 13 29 14 30 15 31 16 32 17 15 18 14 19 13 20 12 21
REMARK SMILES IDX 11 22 10 23 9 24 8 25 7 26 6 27 5 28 4 29 3 30 2 31 1 32
REMARK H PARENT
REMARK Flexibility Score: inf
ROOT
ATOM      1  C   UNL     1      51.690 -40.796  -2.821  1.00  0.00     0.000 C 
ENDROOT
BRANCH   1   2
ATOM      2  C   UNL     1      52.335 -39.412  -2.999  1.00  0.00     0.000 C 
BRANCH   2   3
ATOM      3  C   UNL     1      51.406 -38.403  -3.698  1.00  0.00     0.000 C 
BRANCH   3   4
ATOM      4  C   UNL     1      51.570 -38.366  -5.232  1.00  0.00     0.000 C 
BRANCH   4   5
ATOM      5  C   UNL     1      50.650 -37.327  -5.895  1.00  0.00     0.000 C 
BRANCH   5   6
ATOM      6  C   UNL     1      49.720 -36.634  -4.884  1.00  0.00     0.000 C 
BRANCH   6   7
ATOM      7  C   UNL     1      48.638 -35.781  -5.567  1.00  0.00     0.000 C 
BRANCH   7   8
ATOM      8  C   UNL     1      47.582 -35.270  -4.575  1.00  0.00     0.000 C 
BRANCH   8   9
ATOM      9  C   UNL     1      46.220 -35.009  -5.244  1.00  0.00     0.000 C 
BRANCH   9  10
ATOM     10  C   UNL     1      45.069 -34.902  -4.230  1.00  0.00     0.000 C 
BRANCH  10  11
ATOM     11  C   UNL     1      45.563 -34.630  -2.801  1.00  0.00     0.000 C 
BRANCH  11  12
ATOM     12  C   UNL     1      45.377 -33.153  -2.423  1.00  0.00     0.000 C 
BRANCH  12  13
ATOM     13  C   UNL     1      46.387 -32.683  -1.360  1.00  0.00     0.006 C 
BRANCH  13  14
ATOM     14  C   UNL     1      47.801 -32.507  -1.928  1.00  0.00     0.053 C 
BRANCH  14  15
ATOM     15  C   UNL     1      47.867 -31.304  -2.818  1.00  0.00     0.041 C 
ATOM     16  O   UNL     1      47.064 -30.346  -2.653  1.00  0.00    -0.550 OA
ATOM     17  O   UNL     1      48.805 -31.247  -3.837  1.00  0.00    -0.550 OA
ENDBRANCH  14  15
ENDBRANCH  13  14
ENDBRANCH  12  13
ENDBRANCH  11  12
ENDBRANCH  10  11
ENDBRANCH   9  10
ENDBRANCH   8   9
ENDBRANCH   7   8
ENDBRANCH   6   7
ENDBRANCH   5   6
ENDBRANCH   4   5
ENDBRANCH   3   4
ENDBRANCH   2   3
ENDBRANCH   1   2
BRANCH   1  18
ATOM     18  C   UNL     1      50.158 -40.720  -2.717  1.00  0.00     0.000 C 
BRANCH  18  19
ATOM     19  C   UNL     1      49.451 -41.728  -3.636  1.00  0.00     0.000 C 
BRANCH  19  20
ATOM     20  C   UNL     1      48.840 -41.046  -4.873  1.00  0.00     0.000 C 
BRANCH  20  21
ATOM     21  C   UNL     1      48.108 -39.740  -4.518  1.00  0.00     0.000 C 
BRANCH  21  22
ATOM     22  C   UNL     1      46.584 -39.852  -4.663  1.00  0.00     0.000 C 
BRANCH  22  23
ATOM     23  C   UNL     1      45.934 -38.577  -5.228  1.00  0.00     0.000 C 
BRANCH  23  24
ATOM     24  C   UNL     1      44.430 -38.525  -4.922  1.00  0.00    -0.000 C 
BRANCH  24  25
ATOM     25  C   UNL     1      44.091 -39.109  -3.539  1.00  0.00    -0.000 C 
BRANCH  25  26
ATOM     26  C   UNL     1      44.059 -38.035  -2.434  1.00  0.00    -0.000 C 
BRANCH  26  27
ATOM     27  C   UNL     1      44.772 -38.442  -1.126  1.00  0.00    -0.000 C 
BRANCH  27  28
ATOM     28  C   UNL     1      46.020 -39.333  -1.306  1.00  0.00    -0.000 C 
BRANCH  28  29
ATOM     29  C   UNL     1      47.327 -38.755  -0.727  1.00  0.00    -0.000 C 
BRANCH  29  30
ATOM     30  C   UNL     1      48.021 -37.708  -1.617  1.00  0.00    -0.000 C 
BRANCH  30  31
ATOM     31  C   UNL     1      48.308 -36.398  -0.871  1.00  0.00    -0.003 C 
ATOM     32  C   UNL     1      49.558 -35.713  -1.416  1.00  0.00     0.004 C 
ENDBRANCH  30  31
ENDBRANCH  29  30
ENDBRANCH  28  29
ENDBRANCH  27  28
ENDBRANCH  26  27
ENDBRANCH  25  26
ENDBRANCH  24  25
ENDBRANCH  23  24
ENDBRANCH  22  23
ENDBRANCH  21  22
ENDBRANCH  20  21
ENDBRANCH  19  20
ENDBRANCH  18  19
ENDBRANCH   1  18
TORSDOF 28
ENDMDL
MODEL 5
REMARK VINA RESULT:    -4.730      1.490      3.620
REMARK INTER + INTRA:         -17.558
REMARK INTER:                 -11.491
REMARK INTRA:                  -6.067
REMARK UNBOUND:                -5.084
REMARK SMILES CCCCCCCCCCCCCCCCCCCCCCCCCCCCCC(=O)[O-]
REMARK SMILES IDX 16 1 17 2 18 3 19 4 20 5 21 6 22 7 23 8 24 9 25 10 26 11
REMARK SMILES IDX 27 12 28 13 29 14 30 15 31 16 32 17 15 18 14 19 13 20 12 21
REMARK SMILES IDX 11 22 10 23 9 24 8 25 7 26 6 27 5 28 4 29 3 30 2 31 1 32
REMARK H PARENT
REMARK Flexibility Score: inf
ROOT
ATOM      1  C   UNL     1      47.464 -36.265  -2.396  1.00  0.00     0.000 C 
ENDROOT
BRANCH   1   2
ATOM      2  C   UNL     1      46.093 -35.811  -1.871  1.00  0.00     0.000 C 
BRANCH   2   3
ATOM      3  C   UNL     1      45.088 -35.509  -2.999  1.00  0.00     0.000 C 
BRANCH   3   4
ATOM      4  C   UNL     1      45.685 -34.687  -4.160  1.00  0.00     0.000 C 
BRANCH   4   5
ATOM      5  C   UNL     1      45.625 -35.438  -5.501  1.00  0.00     0.000 C 
BRANCH   5   6
ATOM      6  C   UNL     1      46.865 -35.182  -6.375  1.00  0.00     0.000 C 
BRANCH   6   7
ATOM      7  C   UNL     1      48.098 -35.966  -5.894  1.00  0.00     0.000 C 
BRANCH   7   8
ATOM      8  C   UNL     1      49.287 -35.049  -5.569  1.00  0.00     0.000 C 
BRANCH   8   9
ATOM      9  C   UNL     1      48.895 -33.560  -5.544  1.00  0.00     0.000 C 
BRANCH   9  10
ATOM     10  C   UNL     1      48.939 -32.957  -4.131  1.00  0.00     0.000 C 
BRANCH  10  11
ATOM     11  C   UNL     1      48.340 -31.543  -4.072  1.00  0.00     0.000 C 
BRANCH  11  12
ATOM     12  C   UNL     1      47.915 -31.181  -2.641  1.00  0.00     0.000 C 
BRANCH  12  13
ATOM     13  C   UNL     1      47.586 -32.421  -1.790  1.00  0.00     0.006 C 
BRANCH  13  14
ATOM     14  C   UNL     1      47.974 -32.243  -0.317  1.00  0.00     0.053 C 
BRANCH  14  15
ATOM     15  C   UNL     1      46.763 -32.314   0.562  1.00  0.00     0.041 C 
ATOM     16  O   UNL     1      46.881 -32.230   1.815  1.00  0.00    -0.550 OA
ATOM     17  O   UNL     1      45.509 -32.488  -0.001  1.00  0.00    -0.550 OA
ENDBRANCH  14  15
ENDBRANCH  13  14
ENDBRANCH  12  13
ENDBRANCH  11  12
ENDBRANCH  10  11
ENDBRANCH   9  10
ENDBRANCH   8   9
ENDBRANCH   7   8
ENDBRANCH   6   7
ENDBRANCH   5   6
ENDBRANCH   4   5
ENDBRANCH   3   4
ENDBRANCH   2   3
ENDBRANCH   1   2
BRANCH   1  18
ATOM     18  C   UNL     1      48.196 -37.183  -1.403  1.00  0.00     0.000 C 
BRANCH  18  19
ATOM     19  C   UNL     1      47.232 -37.935  -0.470  1.00  0.00     0.000 C 
BRANCH  19  20
ATOM     20  C   UNL     1      47.488 -39.452  -0.484  1.00  0.00     0.000 C 
BRANCH  20  21
ATOM     21  C   UNL     1      46.254 -40.248  -0.943  1.00  0.00     0.000 C 
BRANCH  21  22
ATOM     22  C   UNL     1      44.956 -39.434  -0.865  1.00  0.00     0.000 C 
BRANCH  22  23
ATOM     23  C   UNL     1      44.371 -39.091  -2.246  1.00  0.00     0.000 C 
BRANCH  23  24
ATOM     24  C   UNL     1      45.058 -39.887  -3.366  1.00  0.00    -0.000 C 
BRANCH  24  25
ATOM     25  C   UNL     1      45.752 -38.976  -4.393  1.00  0.00    -0.000 C 
BRANCH  25  26
ATOM     26  C   UNL     1      47.236 -39.337  -4.598  1.00  0.00    -0.000 C 
BRANCH  26  27
ATOM     27  C   UNL     1      47.621 -40.754  -4.120  1.00  0.00    -0.000 C 
BRANCH  27  28
ATOM     28  C   UNL     1      49.121 -41.104  -4.233  1.00  0.00    -0.000 C 
BRANCH  28  29
ATOM     29  C   UNL     1      49.906 -41.059  -2.907  1.00  0.00    -0.000 C 
BRANCH  29  30
ATOM     30  C   UNL     1      51.329 -40.481  -3.017  1.00  0.00    -0.000 C 
BRANCH  30  31
ATOM     31  C   UNL     1      51.424 -39.341  -4.039  1.00  0.00    -0.003 C 
ATOM     32  C   UNL     1      51.020 -38.007  -3.418  1.00  0.00     0.004 C 
ENDBRANCH  30  31
ENDBRANCH  29  30
ENDBRANCH  28  29
ENDBRANCH  27  28
ENDBRANCH  26  27
ENDBRANCH  25  26
ENDBRANCH  24  25
ENDBRANCH  23  24
ENDBRANCH  22  23
ENDBRANCH  21  22
ENDBRANCH  20  21
ENDBRANCH  19  20
ENDBRANCH  18  19
ENDBRANCH   1  18
TORSDOF 28
ENDMDL
MODEL 6
REMARK VINA RESULT:    -4.655      1.519      5.167
REMARK INTER + INTRA:         -17.360
REMARK INTER:                 -11.358
REMARK INTRA:                  -6.002
REMARK UNBOUND:                -5.084
REMARK SMILES CCCCCCCCCCCCCCCCCCCCCCCCCCCCCC(=O)[O-]
REMARK SMILES IDX 16 1 17 2 18 3 19 4 20 5 21 6 22 7 23 8 24 9 25 10 26 11
REMARK SMILES IDX 27 12 28 13 29 14 30 15 31 16 32 17 15 18 14 19 13 20 12 21
REMARK SMILES IDX 11 22 10 23 9 24 8 25 7 26 6 27 5 28 4 29 3 30 2 31 1 32
REMARK H PARENT
REMARK Flexibility Score: inf
ROOT
ATOM      1  C   UNL     1      50.337 -40.693  -2.725  1.00  0.00     0.000 C 
ENDROOT
BRANCH   1   2
ATOM      2  C   UNL     1      51.755 -40.199  -3.055  1.00  0.00     0.000 C 
BRANCH   2   3
ATOM      3  C   UNL     1      51.764 -38.850  -3.795  1.00  0.00     0.000 C 
BRANCH   3   4
ATOM      4  C   UNL     1      50.672 -37.870  -3.316  1.00  0.00     0.000 C 
BRANCH   4   5
ATOM      5  C   UNL     1      49.903 -37.233  -4.486  1.00  0.00     0.000 C 
BRANCH   5   6
ATOM      6  C   UNL     1      50.744 -37.158  -5.772  1.00  0.00     0.000 C 
BRANCH   6   7
ATOM      7  C   UNL     1      50.700 -35.766  -6.426  1.00  0.00     0.000 C 
BRANCH   7   8
ATOM      8  C   UNL     1      49.276 -35.193  -6.493  1.00  0.00     0.000 C 
BRANCH   8   9
ATOM      9  C   UNL     1      49.210 -33.721  -6.048  1.00  0.00     0.000 C 
BRANCH   9  10
ATOM     10  C   UNL     1      49.076 -33.565  -4.524  1.00  0.00     0.000 C 
BRANCH  10  11
ATOM     11  C   UNL     1      48.596 -32.164  -4.113  1.00  0.00     0.000 C 
BRANCH  11  12
ATOM     12  C   UNL     1      47.327 -32.245  -3.251  1.00  0.00     0.000 C 
BRANCH  12  13
ATOM     13  C   UNL     1      47.619 -32.698  -1.810  1.00  0.00     0.006 C 
BRANCH  13  14
ATOM     14  C   UNL     1      46.640 -32.096  -0.794  1.00  0.00     0.053 C 
BRANCH  14  15
ATOM     15  C   UNL     1      45.348 -32.854  -0.791  1.00  0.00     0.041 C 
ATOM     16  O   UNL     1      44.301 -32.327  -1.256  1.00  0.00    -0.550 OA
ATOM     17  O   UNL     1      45.297 -34.134  -0.262  1.00  0.00    -0.550 OA
ENDBRANCH  14  15
ENDBRANCH  13  14
ENDBRANCH  12  13
ENDBRANCH  11  12
ENDBRANCH  10  11
ENDBRANCH   9  10
ENDBRANCH   8   9
ENDBRANCH   7   8
ENDBRANCH   6   7
ENDBRANCH   5   6
ENDBRANCH   4   5
ENDBRANCH   3   4
ENDBRANCH   2   3
ENDBRANCH   1   2
BRANCH   1  18
ATOM     18  C   UNL     1      49.811 -41.698  -3.762  1.00  0.00     0.000 C 
BRANCH  18  19
ATOM     19  C   UNL     1      48.906 -41.041  -4.817  1.00  0.00     0.000 C 
BRANCH  19  20
ATOM     20  C   UNL     1      47.553 -40.611  -4.225  1.00  0.00     0.000 C 
BRANCH  20  21
ATOM     21  C   UNL     1      47.075 -39.259  -4.784  1.00  0.00     0.000 C 
BRANCH  21  22
ATOM     22  C   UNL     1      45.547 -39.119  -4.781  1.00  0.00     0.000 C 
BRANCH  22  23
ATOM     23  C   UNL     1      45.052 -37.857  -5.508  1.00  0.00     0.000 C 
BRANCH  23  24
ATOM     24  C   UNL     1      46.172 -36.817  -5.664  1.00  0.00    -0.000 C 
BRANCH  24  25
ATOM     25  C   UNL     1      45.809 -35.465  -5.025  1.00  0.00    -0.000 C 
BRANCH  25  26
ATOM     26  C   UNL     1      45.634 -35.559  -3.497  1.00  0.00    -0.000 C 
BRANCH  26  27
ATOM     27  C   UNL     1      46.850 -36.149  -2.749  1.00  0.00    -0.000 C 
BRANCH  27  28
ATOM     28  C   UNL     1      46.509 -37.136  -1.611  1.00  0.00    -0.000 C 
BRANCH  28  29
ATOM     29  C   UNL     1      47.659 -38.072  -1.190  1.00  0.00    -0.000 C 
BRANCH  29  30
ATOM     30  C   UNL     1      47.228 -39.504  -0.825  1.00  0.00    -0.000 C 
BRANCH  30  31
ATOM     31  C   UNL     1      45.723 -39.734  -1.023  1.00  0.00    -0.003 C 
ATOM     32  C   UNL     1      45.138 -40.571   0.111  1.00  0.00     0.004 C 
ENDBRANCH  30  31
ENDBRANCH  29  30
ENDBRANCH  28  29
ENDBRANCH  27  28
ENDBRANCH  26  27
ENDBRANCH  25  26
ENDBRANCH  24  25
ENDBRANCH  23  24
ENDBRANCH  22  23
ENDBRANCH  21  22
ENDBRANCH  20  21
ENDBRANCH  19  20
ENDBRANCH  18  19
ENDBRANCH   1  18
TORSDOF 28
ENDMDL
MODEL 7
REMARK VINA RESULT:    -4.655      2.767      7.050
REMARK INTER + INTRA:         -17.359
REMARK INTER:                 -11.685
REMARK INTRA:                  -5.675
REMARK UNBOUND:                -5.084
REMARK SMILES CCCCCCCCCCCCCCCCCCCCCCCCCCCCCC(=O)[O-]
REMARK SMILES IDX 16 1 17 2 18 3 19 4 20 5 21 6 22 7 23 8 24 9 25 10 26 11
REMARK SMILES IDX 27 12 28 13 29 14 30 15 31 16 32 17 15 18 14 19 13 20 12 21
REMARK SMILES IDX 11 22 10 23 9 24 8 25 7 26 6 27 5 28 4 29 3 30 2 31 1 32
REMARK H PARENT
REMARK Flexibility Score: inf
ROOT
ATOM      1  C   UNL     1      47.529 -40.302  -2.822  1.00  0.00     0.000 C 
ENDROOT
BRANCH   1   2
ATOM      2  C   UNL     1      48.976 -40.688  -3.166  1.00  0.00     0.000 C 
BRANCH   2   3
ATOM      3  C   UNL     1      49.151 -41.111  -4.636  1.00  0.00     0.000 C 
BRANCH   3   4
ATOM      4  C   UNL     1      50.159 -40.243  -5.418  1.00  0.00     0.000 C 
BRANCH   4   5
ATOM      5  C   UNL     1      50.590 -38.993  -4.631  1.00  0.00     0.000 C 
BRANCH   5   6
ATOM      6  C   UNL     1      50.009 -37.697  -5.223  1.00  0.00     0.000 C 
BRANCH   6   7
ATOM      7  C   UNL     1      49.452 -36.754  -4.144  1.00  0.00     0.000 C 
BRANCH   7   8
ATOM      8  C   UNL     1      49.784 -37.227  -2.721  1.00  0.00     0.000 C 
BRANCH   8   9
ATOM      9  C   UNL     1      49.231 -36.282  -1.639  1.00  0.00     0.000 C 
BRANCH   9  10
ATOM     10  C   UNL     1      47.891 -36.762  -1.057  1.00  0.00     0.000 C 
BRANCH  10  11
ATOM     11  C   UNL     1      46.693 -35.961  -1.592  1.00  0.00     0.000 C 
BRANCH  11  12
ATOM     12  C   UNL     1      45.408 -36.803  -1.567  1.00  0.00     0.000 C 
BRANCH  12  13
ATOM     13  C   UNL     1      45.342 -37.743  -0.350  1.00  0.00     0.006 C 
BRANCH  13  14
ATOM     14  C   UNL     1      44.764 -39.120  -0.701  1.00  0.00     0.053 C 
BRANCH  14  15
ATOM     15  C   UNL     1      44.924 -40.070   0.446  1.00  0.00     0.041 C 
ATOM     16  O   UNL     1      44.282 -39.887   1.517  1.00  0.00    -0.550 OA
ATOM     17  O   UNL     1      45.790 -41.146   0.339  1.00  0.00    -0.550 OA
ENDBRANCH  14  15
ENDBRANCH  13  14
ENDBRANCH  12  13
ENDBRANCH  11  12
ENDBRANCH  10  11
ENDBRANCH   9  10
ENDBRANCH   8   9
ENDBRANCH   7   8
ENDBRANCH   6   7
ENDBRANCH   5   6
ENDBRANCH   4   5
ENDBRANCH   3   4
ENDBRANCH   2   3
ENDBRANCH   1   2
BRANCH   1  18
ATOM     18  C   UNL     1      46.645 -40.166  -4.072  1.00  0.00     0.000 C 
BRANCH  18  19
ATOM     19  C   UNL     1      46.451 -38.704  -4.505  1.00  0.00     0.000 C 
BRANCH  19  20
ATOM     20  C   UNL     1      44.991 -38.408  -4.889  1.00  0.00     0.000 C 
BRANCH  20  21
ATOM     21  C   UNL     1      44.844 -38.019  -6.370  1.00  0.00     0.000 C 
BRANCH  21  22
ATOM     22  C   UNL     1      44.773 -36.501  -6.584  1.00  0.00     0.000 C 
BRANCH  22  23
ATOM     23  C   UNL     1      46.099 -35.896  -7.077  1.00  0.00     0.000 C 
BRANCH  23  24
ATOM     24  C   UNL     1      46.813 -35.111  -5.967  1.00  0.00    -0.000 C 
BRANCH  24  25
ATOM     25  C   UNL     1      45.868 -34.743  -4.809  1.00  0.00    -0.000 C 
BRANCH  25  26
ATOM     26  C   UNL     1      46.388 -33.556  -3.975  1.00  0.00    -0.000 C 
BRANCH  26  27
ATOM     27  C   UNL     1      47.923 -33.392  -3.984  1.00  0.00    -0.000 C 
BRANCH  27  28
ATOM     28  C   UNL     1      48.431 -31.935  -3.912  1.00  0.00    -0.000 C 
BRANCH  28  29
ATOM     29  C   UNL     1      47.594 -30.992  -3.025  1.00  0.00    -0.000 C 
BRANCH  29  30
ATOM     30  C   UNL     1      47.989 -30.984  -1.537  1.00  0.00    -0.000 C 
BRANCH  30  31
ATOM     31  C   UNL     1      47.118 -31.924  -0.692  1.00  0.00    -0.003 C 
ATOM     32  C   UNL     1      47.968 -32.963   0.033  1.00  0.00     0.004 C 
ENDBRANCH  30  31
ENDBRANCH  29  30
ENDBRANCH  28  29
ENDBRANCH  27  28
ENDBRANCH  26  27
ENDBRANCH  25  26
ENDBRANCH  24  25
ENDBRANCH  23  24
ENDBRANCH  22  23
ENDBRANCH  21  22
ENDBRANCH  20  21
ENDBRANCH  19  20
ENDBRANCH  18  19
ENDBRANCH   1  18
TORSDOF 28
ENDMDL
MODEL 8
REMARK VINA RESULT:    -4.647      1.501      5.193
REMARK INTER + INTRA:         -17.338
REMARK INTER:                 -11.693
REMARK INTRA:                  -5.645
REMARK UNBOUND:                -5.084
REMARK SMILES CCCCCCCCCCCCCCCCCCCCCCCCCCCCCC(=O)[O-]
REMARK SMILES IDX 16 1 17 2 18 3 19 4 20 5 21 6 22 7 23 8 24 9 25 10 26 11
REMARK SMILES IDX 27 12 28 13 29 14 30 15 31 16 32 17 15 18 14 19 13 20 12 21
REMARK SMILES IDX 11 22 10 23 9 24 8 25 7 26 6 27 5 28 4 29 3 30 2 31 1 32
REMARK H PARENT
REMARK Flexibility Score: inf
ROOT
ATOM      1  C   UNL     1      52.001 -40.823  -2.686  1.00  0.00     0.000 C 
ENDROOT
BRANCH   1   2
ATOM      2  C   UNL     1      52.517 -39.405  -2.978  1.00  0.00     0.000 C 
BRANCH   2   3
ATOM      3  C   UNL     1      51.470 -38.515  -3.673  1.00  0.00     0.000 C 
BRANCH   3   4
ATOM      4  C   UNL     1      51.672 -38.394  -5.198  1.00  0.00     0.000 C 
BRANCH   4   5
ATOM      5  C   UNL     1      50.757 -37.330  -5.827  1.00  0.00     0.000 C 
BRANCH   5   6
ATOM      6  C   UNL     1      49.366 -37.288  -5.172  1.00  0.00     0.000 C 
BRANCH   6   7
ATOM      7  C   UNL     1      48.532 -36.081  -5.632  1.00  0.00     0.000 C 
BRANCH   7   8
ATOM      8  C   UNL     1      49.361 -34.789  -5.710  1.00  0.00     0.000 C 
BRANCH   8   9
ATOM      9  C   UNL     1      48.529 -33.533  -5.390  1.00  0.00     0.000 C 
BRANCH   9  10
ATOM     10  C   UNL     1      48.878 -32.921  -4.023  1.00  0.00     0.000 C 
BRANCH  10  11
ATOM     11  C   UNL     1      48.500 -31.435  -3.926  1.00  0.00     0.000 C 
BRANCH  11  12
ATOM     12  C   UNL     1      47.460 -31.200  -2.820  1.00  0.00     0.000 C 
BRANCH  12  13
ATOM     13  C   UNL     1      47.688 -32.100  -1.593  1.00  0.00     0.006 C 
BRANCH  13  14
ATOM     14  C   UNL     1      46.418 -32.280  -0.751  1.00  0.00     0.053 C 
BRANCH  14  15
ATOM     15  C   UNL     1      46.766 -32.534   0.684  1.00  0.00     0.041 C 
ATOM     16  O   UNL     1      46.923 -31.569   1.480  1.00  0.00    -0.550 OA
ATOM     17  O   UNL     1      46.930 -33.833   1.137  1.00  0.00    -0.550 OA
ENDBRANCH  14  15
ENDBRANCH  13  14
ENDBRANCH  12  13
ENDBRANCH  11  12
ENDBRANCH  10  11
ENDBRANCH   9  10
ENDBRANCH   8   9
ENDBRANCH   7   8
ENDBRANCH   6   7
ENDBRANCH   5   6
ENDBRANCH   4   5
ENDBRANCH   3   4
ENDBRANCH   2   3
ENDBRANCH   1   2
BRANCH   1  18
ATOM     18  C   UNL     1      50.466 -40.886  -2.628  1.00  0.00     0.000 C 
BRANCH  18  19
ATOM     19  C   UNL     1      49.859 -41.640  -3.823  1.00  0.00     0.000 C 
BRANCH  19  20
ATOM     20  C   UNL     1      48.573 -40.965  -4.332  1.00  0.00     0.000 C 
BRANCH  20  21
ATOM     21  C   UNL     1      47.779 -40.291  -3.198  1.00  0.00     0.000 C 
BRANCH  21  22
ATOM     22  C   UNL     1      46.367 -39.872  -3.627  1.00  0.00     0.000 C 
BRANCH  22  23
ATOM     23  C   UNL     1      46.302 -39.349  -5.073  1.00  0.00     0.000 C 
BRANCH  23  24
ATOM     24  C   UNL     1      45.234 -38.258  -5.234  1.00  0.00    -0.000 C 
BRANCH  24  25
ATOM     25  C   UNL     1      44.293 -38.174  -4.019  1.00  0.00    -0.000 C 
BRANCH  25  26
ATOM     26  C   UNL     1      44.139 -36.736  -3.487  1.00  0.00    -0.000 C 
BRANCH  26  27
ATOM     27  C   UNL     1      45.209 -35.747  -3.999  1.00  0.00    -0.000 C 
BRANCH  27  28
ATOM     28  C   UNL     1      46.184 -35.217  -2.925  1.00  0.00    -0.000 C 
BRANCH  28  29
ATOM     29  C   UNL     1      46.497 -36.202  -1.780  1.00  0.00    -0.000 C 
BRANCH  29  30
ATOM     30  C   UNL     1      47.890 -36.852  -1.849  1.00  0.00    -0.000 C 
BRANCH  30  31
ATOM     31  C   UNL     1      49.020 -35.817  -1.931  1.00  0.00    -0.003 C 
ATOM     32  C   UNL     1      49.455 -35.362  -0.541  1.00  0.00     0.004 C 
ENDBRANCH  30  31
ENDBRANCH  29  30
ENDBRANCH  28  29
ENDBRANCH  27  28
ENDBRANCH  26  27
ENDBRANCH  25  26
ENDBRANCH  24  25
ENDBRANCH  23  24
ENDBRANCH  22  23
ENDBRANCH  21  22
ENDBRANCH  20  21
ENDBRANCH  19  20
ENDBRANCH  18  19
ENDBRANCH   1  18
TORSDOF 28
ENDMDL
MODEL 9
REMARK VINA RESULT:    -4.590      2.180      5.481
REMARK INTER + INTRA:         -17.188
REMARK INTER:                 -10.665
REMARK INTRA:                  -6.522
REMARK UNBOUND:                -5.084
REMARK SMILES CCCCCCCCCCCCCCCCCCCCCCCCCCCCCC(=O)[O-]
REMARK SMILES IDX 16 1 17 2 18 3 19 4 20 5 21 6 22 7 23 8 24 9 25 10 26 11
REMARK SMILES IDX 27 12 28 13 29 14 30 15 31 16 32 17 15 18 14 19 13 20 12 21
REMARK SMILES IDX 11 22 10 23 9 24 8 25 7 26 6 27 5 28 4 29 3 30 2 31 1 32
REMARK H PARENT
REMARK Flexibility Score: inf
ROOT
ATOM      1  C   UNL     1      46.237 -39.032  -4.897  1.00  0.00     0.000 C 
ENDROOT
BRANCH   1   2
ATOM      2  C   UNL     1      45.125 -38.376  -5.731  1.00  0.00     0.000 C 
BRANCH   2   3
ATOM      3  C   UNL     1      44.413 -37.230  -4.988  1.00  0.00     0.000 C 
BRANCH   3   4
ATOM      4  C   UNL     1      45.021 -35.839  -5.262  1.00  0.00     0.000 C 
BRANCH   4   5
ATOM      5  C   UNL     1      45.077 -34.964  -3.998  1.00  0.00     0.000 C 
BRANCH   5   6
ATOM      6  C   UNL     1      45.926 -35.596  -2.882  1.00  0.00     0.000 C 
BRANCH   6   7
ATOM      7  C   UNL     1      45.161 -35.717  -1.554  1.00  0.00     0.000 C 
BRANCH   7   8
ATOM      8  C   UNL     1      45.492 -34.576  -0.579  1.00  0.00     0.000 C 
BRANCH   8   9
ATOM      9  C   UNL     1      46.737 -33.776  -1.008  1.00  0.00     0.000 C 
BRANCH   9  10
ATOM     10  C   UNL     1      47.982 -34.121  -0.174  1.00  0.00     0.000 C 
BRANCH  10  11
ATOM     11  C   UNL     1      49.013 -34.943  -0.964  1.00  0.00     0.000 C 
BRANCH  11  12
ATOM     12  C   UNL     1      48.883 -36.441  -0.653  1.00  0.00     0.000 C 
BRANCH  12  13
ATOM     13  C   UNL     1      48.439 -36.708   0.797  1.00  0.00     0.006 C 
BRANCH  13  14
ATOM     14  C   UNL     1      47.276 -37.704   0.882  1.00  0.00     0.053 C 
BRANCH  14  15
ATOM     15  C   UNL     1      46.270 -37.258   1.898  1.00  0.00     0.041 C 
ATOM     16  O   UNL     1      45.187 -37.888   2.041  1.00  0.00    -0.550 OA
ATOM     17  O   UNL     1      46.521 -36.139   2.676  1.00  0.00    -0.550 OA
ENDBRANCH  14  15
ENDBRANCH  13  14
ENDBRANCH  12  13
ENDBRANCH  11  12
ENDBRANCH  10  11
ENDBRANCH   9  10
ENDBRANCH   8   9
ENDBRANCH   7   8
ENDBRANCH   6   7
ENDBRANCH   5   6
ENDBRANCH   4   5
ENDBRANCH   3   4
ENDBRANCH   2   3
ENDBRANCH   1   2
BRANCH   1  18
ATOM     18  C   UNL     1      45.694 -39.710  -3.629  1.00  0.00     0.000 C 
BRANCH  18  19
ATOM     19  C   UNL     1      46.380 -39.207  -2.348  1.00  0.00     0.000 C 
BRANCH  19  20
ATOM     20  C   UNL     1      47.907 -39.389  -2.405  1.00  0.00     0.000 C 
BRANCH  20  21
ATOM     21  C   UNL     1      48.315 -40.869  -2.507  1.00  0.00     0.000 C 
BRANCH  21  22
ATOM     22  C   UNL     1      49.596 -41.080  -3.324  1.00  0.00     0.000 C 
BRANCH  22  23
ATOM     23  C   UNL     1      49.378 -40.941  -4.841  1.00  0.00     0.000 C 
BRANCH  23  24
ATOM     24  C   UNL     1      50.278 -39.854  -5.446  1.00  0.00    -0.000 C 
BRANCH  24  25
ATOM     25  C   UNL     1      51.099 -39.110  -4.378  1.00  0.00    -0.000 C 
BRANCH  25  26
ATOM     26  C   UNL     1      50.675 -37.637  -4.224  1.00  0.00    -0.000 C 
BRANCH  26  27
ATOM     27  C   UNL     1      49.513 -37.206  -5.145  1.00  0.00    -0.000 C 
BRANCH  27  28
ATOM     28  C   UNL     1      48.825 -35.877  -4.763  1.00  0.00    -0.000 C 
BRANCH  28  29
ATOM     29  C   UNL     1      48.517 -34.936  -5.945  1.00  0.00    -0.000 C 
BRANCH  29  30
ATOM     30  C   UNL     1      48.655 -33.435  -5.630  1.00  0.00    -0.000 C 
BRANCH  30  31
ATOM     31  C   UNL     1      48.837 -33.163  -4.131  1.00  0.00    -0.003 C 
ATOM     32  C   UNL     1      48.377 -31.754  -3.765  1.00  0.00     0.004 C 
ENDBRANCH  30  31
ENDBRANCH  29  30
ENDBRANCH  28  29
ENDBRANCH  27  28
ENDBRANCH  26  27
ENDBRANCH  25  26
ENDBRANCH  24  25
ENDBRANCH  23  24
ENDBRANCH  22  23
ENDBRANCH  21  22
ENDBRANCH  20  21
ENDBRANCH  19  20
ENDBRANCH  18  19
ENDBRANCH   1  18
TORSDOF 28
ENDMDL
