MODEL 1
REMARK VINA RESULT:    -4.074      0.000      0.000
REMARK INTER + INTRA:         -10.379
REMARK INTER:                  -7.646
REMARK INTRA:                  -2.732
REMARK UNBOUND:                -2.732
REMARK SMILES CCCCCCCCC=CCCCCCCCC(=O)[O-]
REMARK SMILES IDX 10 1 9 2 11 3 12 4 13 5 14 6 15 7 16 8 17 9 18 10 19 11
REMARK SMILES IDX 20 12 8 13 7 14 6 15 5 16 4 17 3 18 2 19 1 20
REMARK H PARENT
REMARK Flexibility Score: inf
ROOT
ATOM      1  C   UNL     1       0.222  -6.529   3.882  1.00  0.00    -0.031 C 
ATOM      2  C   UNL     1       1.357  -6.995   4.433  1.00  0.00    -0.031 C 
ENDROOT
BRANCH   1   3
ATOM      3  C   UNL     1      -1.029  -7.344   3.680  1.00  0.00     0.027 C 
BRANCH   3   4
ATOM      4  C   UNL     1      -2.268  -6.560   4.139  1.00  0.00     0.004 C 
BRANCH   4   5
ATOM      5  C   UNL     1      -3.035  -5.921   2.970  1.00  0.00     0.000 C 
BRANCH   5   6
ATOM      6  C   UNL     1      -3.267  -4.413   3.169  1.00  0.00     0.000 C 
BRANCH   6   7
ATOM      7  C   UNL     1      -2.549  -3.866   4.414  1.00  0.00     0.000 C 
BRANCH   7   8
ATOM      8  C   UNL     1      -3.509  -3.162   5.389  1.00  0.00     0.006 C 
BRANCH   8   9
ATOM      9  C   UNL     1      -4.939  -3.712   5.291  1.00  0.00     0.053 C 
BRANCH   9  10
ATOM     10  C   UNL     1      -5.827  -3.153   6.359  1.00  0.00     0.041 C 
ATOM     11  O   UNL     1      -6.331  -3.914   7.226  1.00  0.00    -0.550 OA
ATOM     12  O   UNL     1      -6.126  -1.797   6.377  1.00  0.00    -0.550 OA
ENDBRANCH   9  10
ENDBRANCH   8   9
ENDBRANCH   7   8
ENDBRANCH   6   7
ENDBRANCH   5   6
ENDBRANCH   4   5
ENDBRANCH   3   4
ENDBRANCH   1   3
BRANCH   2  13
ATOM     13  C   UNL     1       1.524  -8.378   5.016  1.00  0.00     0.027 C 
BRANCH  13  14
ATOM     14  C   UNL     1       1.414  -8.376   6.551  1.00  0.00     0.004 C 
BRANCH  14  15
ATOM     15  C   UNL     1       0.040  -8.820   7.091  1.00  0.00     0.000 C 
BRANCH  15  16
ATOM     16  C   UNL     1      -0.956  -7.678   7.377  1.00  0.00     0.000 C 
BRANCH  16  17
ATOM     17  C   UNL     1      -0.318  -6.291   7.565  1.00  0.00    -0.000 C 
BRANCH  17  18
ATOM     18  C   UNL     1      -1.360  -5.174   7.727  1.00  0.00    -0.000 C 
BRANCH  18  19
ATOM     19  C   UNL     1      -2.774  -5.755   7.837  1.00  0.00    -0.003 C 
ATOM     20  C   UNL     1      -3.614  -4.980   8.847  1.00  0.00     0.004 C 
ENDBRANCH  18  19
ENDBRANCH  17  18
ENDBRANCH  16  17
ENDBRANCH  15  16
ENDBRANCH  14  15
ENDBRANCH  13  14
ENDBRANCH   2  13
TORSDOF 15
ENDMDL
MODEL 2
REMARK VINA RESULT:    -3.984      1.496      2.807
REMARK INTER + INTRA:         -10.210
REMARK INTER:                  -7.527
REMARK INTRA:                  -2.683
REMARK UNBOUND:                -2.732
REMARK SMILES CCCCCCCCC=CCCCCCCCC(=O)[O-]
REMARK SMILES IDX 10 1 9 2 11 3 12 4 13 5 14 6 15 7 16 8 17 9 18 10 19 11
REMARK SMILES IDX 20 12 8 13 7 14 6 15 5 16 4 17 3 18 2 19 1 20
REMARK H PARENT
REMARK Flexibility Score: inf
ROOT
ATOM      1  C   UNL     1      -1.332  -7.066   5.925  1.00  0.00    -0.031 C 
ATOM      2  C   UNL     1      -0.950  -7.317   7.191  1.00  0.00    -0.031 C 
ENDROOT
BRANCH   1   3
ATOM      3  C   UNL     1      -0.895  -7.866   4.725  1.00  0.00     0.027 C 
BRANCH   3   4
ATOM      4  C   UNL     1      -1.241  -7.125   3.425  1.00  0.00     0.004 C 
BRANCH   4   5
ATOM      5  C   UNL     1      -2.619  -6.446   3.477  1.00  0.00     0.000 C 
BRANCH   5   6
ATOM      6  C   UNL     1      -2.709  -5.220   2.550  1.00  0.00     0.000 C 
BRANCH   6   7
ATOM      7  C   UNL     1      -3.440  -4.038   3.206  1.00  0.00     0.000 C 
BRANCH   7   8
ATOM      8  C   UNL     1      -3.984  -4.382   4.605  1.00  0.00     0.006 C 
BRANCH   8   9
ATOM      9  C   UNL     1      -5.312  -3.672   4.900  1.00  0.00     0.053 C 
BRANCH   9  10
ATOM     10  C   UNL     1      -5.361  -3.137   6.297  1.00  0.00     0.041 C 
ATOM     11  O   UNL     1      -4.393  -2.475   6.756  1.00  0.00    -0.550 OA
ATOM     12  O   UNL     1      -6.460  -3.397   7.105  1.00  0.00    -0.550 OA
ENDBRANCH   9  10
ENDBRANCH   8   9
ENDBRANCH   7   8
ENDBRANCH   6   7
ENDBRANCH   5   6
ENDBRANCH   4   5
ENDBRANCH   3   4
ENDBRANCH   1   3
BRANCH   2  13
ATOM     13  C   UNL     1      -0.100  -8.491   7.615  1.00  0.00     0.027 C 
BRANCH  13  14
ATOM     14  C   UNL     1       1.375  -8.098   7.806  1.00  0.00     0.004 C 
BRANCH  14  15
ATOM     15  C   UNL     1       2.338  -8.723   6.777  1.00  0.00     0.000 C 
BRANCH  15  16
ATOM     16  C   UNL     1       2.641  -7.848   5.543  1.00  0.00     0.000 C 
BRANCH  16  17
ATOM     17  C   UNL     1       2.719  -6.337   5.820  1.00  0.00    -0.000 C 
BRANCH  17  18
ATOM     18  C   UNL     1       1.888  -5.507   4.831  1.00  0.00    -0.000 C 
BRANCH  18  19
ATOM     19  C   UNL     1       1.152  -4.370   5.551  1.00  0.00    -0.003 C 
ATOM     20  C   UNL     1      -0.014  -3.851   4.716  1.00  0.00     0.004 C 
ENDBRANCH  18  19
ENDBRANCH  17  18
ENDBRANCH  16  17
ENDBRANCH  15  16
ENDBRANCH  14  15
ENDBRANCH  13  14
ENDBRANCH   2  13
TORSDOF 15
ENDMDL
MODEL 3
REMARK VINA RESULT:    -3.984      1.495      4.353
REMARK INTER + INTRA:         -10.209
REMARK INTER:                  -7.945
REMARK INTRA:                  -2.265
REMARK UNBOUND:                -2.732
REMARK SMILES CCCCCCCCC=CCCCCCCCC(=O)[O-]
REMARK SMILES IDX 10 1 9 2 11 3 12 4 13 5 14 6 15 7 16 8 17 9 18 10 19 11
REMARK SMILES IDX 20 12 8 13 7 14 6 15 5 16 4 17 3 18 2 19 1 20
REMARK H PARENT
REMARK Flexibility Score: inf
ROOT
ATOM      1  C   UNL     1       0.053  -8.643   6.233  1.00  0.00    -0.031 C 
ATOM      2  C   UNL     1       0.544  -8.453   4.995  1.00  0.00    -0.031 C 
ENDROOT
BRANCH   1   3
ATOM      3  C   UNL     1      -0.047  -7.571   7.288  1.00  0.00     0.027 C 
BRANCH   3   4
ATOM      4  C   UNL     1      -1.513  -7.327   7.675  1.00  0.00     0.004 C 
BRANCH   4   5
ATOM      5  C   UNL     1      -1.833  -5.838   7.884  1.00  0.00     0.000 C 
BRANCH   5   6
ATOM      6  C   UNL     1      -1.155  -4.935   6.838  1.00  0.00     0.000 C 
BRANCH   6   7
ATOM      7  C   UNL     1      -2.160  -4.045   6.089  1.00  0.00     0.000 C 
BRANCH   7   8
ATOM      8  C   UNL     1      -3.619  -4.334   6.490  1.00  0.00     0.006 C 
BRANCH   8   9
ATOM      9  C   UNL     1      -4.610  -3.948   5.383  1.00  0.00     0.053 C 
BRANCH   9  10
ATOM     10  C   UNL     1      -5.943  -3.555   5.940  1.00  0.00     0.041 C 
ATOM     11  O   UNL     1      -6.195  -3.725   7.161  1.00  0.00    -0.550 OA
ATOM     12  O   UNL     1      -6.921  -3.033   5.102  1.00  0.00    -0.550 OA
ENDBRANCH   9  10
ENDBRANCH   8   9
ENDBRANCH   7   8
ENDBRANCH   6   7
ENDBRANCH   5   6
ENDBRANCH   4   5
ENDBRANCH   3   4
ENDBRANCH   1   3
BRANCH   2  13
ATOM     13  C   UNL     1       0.985  -7.119   4.441  1.00  0.00     0.027 C 
BRANCH  13  14
ATOM     14  C   UNL     1      -0.045  -6.532   3.459  1.00  0.00     0.004 C 
BRANCH  14  15
ATOM     15  C   UNL     1      -1.455  -7.147   3.573  1.00  0.00     0.000 C 
BRANCH  15  16
ATOM     16  C   UNL     1      -2.615  -6.208   3.186  1.00  0.00     0.000 C 
BRANCH  16  17
ATOM     17  C   UNL     1      -2.187  -4.864   2.571  1.00  0.00    -0.000 C 
BRANCH  17  18
ATOM     18  C   UNL     1      -3.106  -4.414   1.425  1.00  0.00    -0.000 C 
BRANCH  18  19
ATOM     19  C   UNL     1      -2.689  -5.064   0.100  1.00  0.00    -0.003 C 
ATOM     20  C   UNL     1      -3.899  -5.334  -0.788  1.00  0.00     0.004 C 
ENDBRANCH  18  19
ENDBRANCH  17  18
ENDBRANCH  16  17
ENDBRANCH  15  16
ENDBRANCH  14  15
ENDBRANCH  13  14
ENDBRANCH   2  13
TORSDOF 15
ENDMDL
MODEL 4
REMARK VINA RESULT:    -3.983     12.577     14.398
REMARK INTER + INTRA:         -10.208
REMARK INTER:                  -8.464
REMARK INTRA:                  -1.744
REMARK UNBOUND:                -2.732
REMARK SMILES CCCCCCCCC=CCCCCCCCC(=O)[O-]
REMARK SMILES IDX 10 1 9 2 11 3 12 4 13 5 14 6 15 7 16 8 17 9 18 10 19 11
REMARK SMILES IDX 20 12 8 13 7 14 6 15 5 16 4 17 3 18 2 19 1 20
REMARK H PARENT
REMARK Flexibility Score: inf
ROOT
ATOM      1  C   UNL     1       3.190   5.426   3.581  1.00  0.00    -0.031 C 
ATOM      2  C   UNL     1       3.078   4.974   4.844  1.00  0.00    -0.031 C 
ENDROOT
BRANCH   1   3
ATOM      3  C   UNL     1       2.082   6.099   2.812  1.00  0.00     0.027 C 
BRANCH   3   4
ATOM      4  C   UNL     1       1.911   5.451   1.430  1.00  0.00     0.004 C 
BRANCH   4   5
ATOM      5  C   UNL     1       2.983   4.390   1.134  1.00  0.00     0.000 C 
BRANCH   5   6
ATOM      6  C   UNL     1       3.647   4.588  -0.241  1.00  0.00     0.000 C 
BRANCH   6   7
ATOM      7  C   UNL     1       2.643   5.021  -1.322  1.00  0.00     0.000 C 
BRANCH   7   8
ATOM      8  C   UNL     1       3.133   6.236  -2.131  1.00  0.00     0.006 C 
BRANCH   8   9
ATOM      9  C   UNL     1       4.563   6.643  -1.753  1.00  0.00     0.053 C 
BRANCH   9  10
ATOM     10  C   UNL     1       5.515   6.464  -2.896  1.00  0.00     0.041 C 
ATOM     11  O   UNL     1       6.627   7.055  -2.893  1.00  0.00    -0.550 OA
ATOM     12  O   UNL     1       5.160   5.671  -3.980  1.00  0.00    -0.550 OA
ENDBRANCH   9  10
ENDBRANCH   8   9
ENDBRANCH   7   8
ENDBRANCH   6   7
ENDBRANCH   5   6
ENDBRANCH   4   5
ENDBRANCH   3   4
ENDBRANCH   1   3
BRANCH   2  13
ATOM     13  C   UNL     1       1.857   5.152   5.715  1.00  0.00     0.027 C 
BRANCH  13  14
ATOM     14  C   UNL     1       2.180   5.912   7.013  1.00  0.00     0.004 C 
BRANCH  14  15
ATOM     15  C   UNL     1       1.504   7.293   7.126  1.00  0.00     0.000 C 
BRANCH  15  16
ATOM     16  C   UNL     1       0.951   7.865   5.805  1.00  0.00     0.000 C 
BRANCH  16  17
ATOM     17  C   UNL     1      -0.240   8.827   5.959  1.00  0.00    -0.000 C 
BRANCH  17  18
ATOM     18  C   UNL     1      -1.435   8.442   5.074  1.00  0.00    -0.000 C 
BRANCH  18  19
ATOM     19  C   UNL     1      -1.213   7.073   4.419  1.00  0.00    -0.003 C 
ATOM     20  C   UNL     1      -2.169   6.028   4.984  1.00  0.00     0.004 C 
ENDBRANCH  18  19
ENDBRANCH  17  18
ENDBRANCH  16  17
ENDBRANCH  15  16
ENDBRANCH  14  15
ENDBRANCH  13  14
ENDBRANCH   2  13
TORSDOF 15
ENDMDL
MODEL 5
REMARK VINA RESULT:    -3.970     11.415     13.924
REMARK INTER + INTRA:         -10.183
REMARK INTER:                  -8.282
REMARK INTRA:                  -1.901
REMARK UNBOUND:                -2.732
REMARK SMILES CCCCCCCCC=CCCCCCCCC(=O)[O-]
REMARK SMILES IDX 10 1 9 2 11 3 12 4 13 5 14 6 15 7 16 8 17 9 18 10 19 11
REMARK SMILES IDX 20 12 8 13 7 14 6 15 5 16 4 17 3 18 2 19 1 20
REMARK H PARENT
REMARK Flexibility Score: inf
ROOT
ATOM      1  C   UNL     1       0.979   7.488   5.583  1.00  0.00    -0.031 C 
ATOM      2  C   UNL     1       1.483   7.626   4.343  1.00  0.00    -0.031 C 
ENDROOT
BRANCH   1   3
ATOM      3  C   UNL     1       0.098   6.349   6.027  1.00  0.00     0.027 C 
BRANCH   3   4
ATOM      4  C   UNL     1       0.881   5.377   6.923  1.00  0.00     0.004 C 
BRANCH   4   5
ATOM      5  C   UNL     1       2.096   6.035   7.596  1.00  0.00     0.000 C 
BRANCH   5   6
ATOM      6  C   UNL     1       3.412   5.298   7.291  1.00  0.00     0.000 C 
BRANCH   6   7
ATOM      7  C   UNL     1       3.275   4.309   6.122  1.00  0.00     0.000 C 
BRANCH   7   8
ATOM      8  C   UNL     1       4.534   4.263   5.236  1.00  0.00     0.006 C 
BRANCH   8   9
ATOM      9  C   UNL     1       4.991   2.826   4.955  1.00  0.00     0.053 C 
BRANCH   9  10
ATOM     10  C   UNL     1       5.929   2.322   6.008  1.00  0.00     0.041 C 
ATOM     11  O   UNL     1       6.660   3.127   6.643  1.00  0.00    -0.550 OA
ATOM     12  O   UNL     1       6.021   0.960   6.265  1.00  0.00    -0.550 OA
ENDBRANCH   9  10
ENDBRANCH   8   9
ENDBRANCH   7   8
ENDBRANCH   6   7
ENDBRANCH   5   6
ENDBRANCH   4   5
ENDBRANCH   3   4
ENDBRANCH   1   3
BRANCH   2  13
ATOM     13  C   UNL     1       1.319   6.616   3.232  1.00  0.00     0.027 C 
BRANCH  13  14
ATOM     14  C   UNL     1       2.671   6.056   2.757  1.00  0.00     0.004 C 
BRANCH  14  15
ATOM     15  C   UNL     1       2.615   4.599   2.255  1.00  0.00     0.000 C 
BRANCH  15  16
ATOM     16  C   UNL     1       2.769   4.422   0.731  1.00  0.00     0.000 C 
BRANCH  16  17
ATOM     17  C   UNL     1       1.841   5.302  -0.124  1.00  0.00    -0.000 C 
BRANCH  17  18
ATOM     18  C   UNL     1       2.413   5.587  -1.521  1.00  0.00    -0.000 C 
BRANCH  18  19
ATOM     19  C   UNL     1       3.931   5.377  -1.545  1.00  0.00    -0.003 C 
ATOM     20  C   UNL     1       4.667   6.691  -1.789  1.00  0.00     0.004 C 
ENDBRANCH  18  19
ENDBRANCH  17  18
ENDBRANCH  16  17
ENDBRANCH  15  16
ENDBRANCH  14  15
ENDBRANCH  13  14
ENDBRANCH   2  13
TORSDOF 15
ENDMDL
MODEL 6
REMARK VINA RESULT:    -3.965     12.084     14.344
REMARK INTER + INTRA:         -10.174
REMARK INTER:                  -8.321
REMARK INTRA:                  -1.853
REMARK UNBOUND:                -2.732
REMARK SMILES CCCCCCCCC=CCCCCCCCC(=O)[O-]
REMARK SMILES IDX 10 1 9 2 11 3 12 4 13 5 14 6 15 7 16 8 17 9 18 10 19 11
REMARK SMILES IDX 20 12 8 13 7 14 6 15 5 16 4 17 3 18 2 19 1 20
REMARK H PARENT
REMARK Flexibility Score: inf
ROOT
ATOM      1  C   UNL     1       3.018   4.477   1.433  1.00  0.00    -0.031 C 
ATOM      2  C   UNL     1       2.755   4.260   0.131  1.00  0.00    -0.031 C 
ENDROOT
BRANCH   1   3
ATOM      3  C   UNL     1       2.563   5.686   2.209  1.00  0.00     0.027 C 
BRANCH   3   4
ATOM      4  C   UNL     1       1.138   5.480   2.746  1.00  0.00     0.004 C 
BRANCH   4   5
ATOM      5  C   UNL     1       1.114   5.107   4.237  1.00  0.00     0.000 C 
BRANCH   5   6
ATOM      6  C   UNL     1       2.209   5.826   5.045  1.00  0.00     0.000 C 
BRANCH   6   7
ATOM      7  C   UNL     1       2.971   4.874   5.982  1.00  0.00     0.000 C 
BRANCH   7   8
ATOM      8  C   UNL     1       3.700   3.752   5.220  1.00  0.00     0.006 C 
BRANCH   8   9
ATOM      9  C   UNL     1       5.207   4.016   5.104  1.00  0.00     0.053 C 
BRANCH   9  10
ATOM     10  C   UNL     1       5.949   3.557   6.321  1.00  0.00     0.041 C 
ATOM     11  O   UNL     1       6.413   2.388   6.377  1.00  0.00    -0.550 OA
ATOM     12  O   UNL     1       6.101   4.409   7.408  1.00  0.00    -0.550 OA
ENDBRANCH   9  10
ENDBRANCH   8   9
ENDBRANCH   7   8
ENDBRANCH   6   7
ENDBRANCH   5   6
ENDBRANCH   4   5
ENDBRANCH   3   4
ENDBRANCH   1   3
BRANCH   2  13
ATOM     13  C   UNL     1       1.888   5.149  -0.729  1.00  0.00     0.027 C 
BRANCH  13  14
ATOM     14  C   UNL     1       2.466   5.324  -2.144  1.00  0.00     0.004 C 
BRANCH  14  15
ATOM     15  C   UNL     1       3.222   6.651  -2.363  1.00  0.00     0.000 C 
BRANCH  15  16
ATOM     16  C   UNL     1       4.604   6.740  -1.686  1.00  0.00     0.000 C 
BRANCH  16  17
ATOM     17  C   UNL     1       5.805   6.611  -2.639  1.00  0.00    -0.000 C 
BRANCH  17  18
ATOM     18  C   UNL     1       6.116   5.153  -3.011  1.00  0.00    -0.000 C 
BRANCH  18  19
ATOM     19  C   UNL     1       6.300   4.294  -1.755  1.00  0.00    -0.003 C 
ATOM     20  C   UNL     1       5.525   2.984  -1.863  1.00  0.00     0.004 C 
ENDBRANCH  18  19
ENDBRANCH  17  18
ENDBRANCH  16  17
ENDBRANCH  15  16
ENDBRANCH  14  15
ENDBRANCH  13  14
ENDBRANCH   2  13
TORSDOF 15
ENDMDL
MODEL 7
REMARK VINA RESULT:    -3.946     13.043     14.994
REMARK INTER + INTRA:         -10.138
REMARK INTER:                  -8.532
REMARK INTRA:                  -1.606
REMARK UNBOUND:                -2.732
REMARK SMILES CCCCCCCCC=CCCCCCCCC(=O)[O-]
REMARK SMILES IDX 10 1 9 2 11 3 12 4 13 5 14 6 15 7 16 8 17 9 18 10 19 11
REMARK SMILES IDX 20 12 8 13 7 14 6 15 5 16 4 17 3 18 2 19 1 20
REMARK H PARENT
REMARK Flexibility Score: inf
ROOT
ATOM      1  C   UNL     1       0.871   3.824  -1.023  1.00  0.00    -0.031 C 
ATOM      2  C   UNL     1       1.084   3.994   0.295  1.00  0.00    -0.031 C 
ENDROOT
BRANCH   1   3
ATOM      3  C   UNL     1       0.963   4.920  -2.053  1.00  0.00     0.027 C 
BRANCH   3   4
ATOM      4  C   UNL     1       2.398   5.039  -2.590  1.00  0.00     0.004 C 
BRANCH   4   5
ATOM      5  C   UNL     1       2.997   6.439  -2.380  1.00  0.00     0.000 C 
BRANCH   5   6
ATOM      6  C   UNL     1       4.316   6.406  -1.588  1.00  0.00     0.000 C 
BRANCH   6   7
ATOM      7  C   UNL     1       4.811   4.973  -1.330  1.00  0.00     0.000 C 
BRANCH   7   8
ATOM      8  C   UNL     1       6.248   4.744  -1.834  1.00  0.00     0.006 C 
BRANCH   8   9
ATOM      9  C   UNL     1       6.637   5.734  -2.941  1.00  0.00     0.053 C 
BRANCH   9  10
ATOM     10  C   UNL     1       6.762   5.061  -4.273  1.00  0.00     0.041 C 
ATOM     11  O   UNL     1       6.052   4.058  -4.545  1.00  0.00    -0.550 OA
ATOM     12  O   UNL     1       7.687   5.522  -5.201  1.00  0.00    -0.550 OA
ENDBRANCH   9  10
ENDBRANCH   8   9
ENDBRANCH   7   8
ENDBRANCH   6   7
ENDBRANCH   5   6
ENDBRANCH   4   5
ENDBRANCH   3   4
ENDBRANCH   1   3
BRANCH   2  13
ATOM     13  C   UNL     1       1.538   5.287   0.932  1.00  0.00     0.027 C 
BRANCH  13  14
ATOM     14  C   UNL     1       2.732   5.076   1.879  1.00  0.00     0.004 C 
BRANCH  14  15
ATOM     15  C   UNL     1       2.976   6.237   2.864  1.00  0.00     0.000 C 
BRANCH  15  16
ATOM     16  C   UNL     1       1.857   6.466   3.900  1.00  0.00     0.000 C 
BRANCH  16  17
ATOM     17  C   UNL     1       1.299   7.899   3.950  1.00  0.00    -0.000 C 
BRANCH  17  18
ATOM     18  C   UNL     1       0.335   8.122   5.124  1.00  0.00    -0.000 C 
BRANCH  18  19
ATOM     19  C   UNL     1      -1.110   7.811   4.714  1.00  0.00    -0.003 C 
ATOM     20  C   UNL     1      -2.094   8.751   5.402  1.00  0.00     0.004 C 
ENDBRANCH  18  19
ENDBRANCH  17  18
ENDBRANCH  16  17
ENDBRANCH  15  16
ENDBRANCH  14  15
ENDBRANCH  13  14
ENDBRANCH   2  13
TORSDOF 15
ENDMDL
MODEL 8
REMARK VINA RESULT:    -3.906      4.769      6.074
REMARK INTER + INTRA:         -10.064
REMARK INTER:                  -8.365
REMARK INTRA:                  -1.699
REMARK UNBOUND:                -2.732
REMARK SMILES CCCCCCCCC=CCCCCCCCC(=O)[O-]
REMARK SMILES IDX 10 1 9 2 11 3 12 4 13 5 14 6 15 7 16 8 17 9 18 10 19 11
REMARK SMILES IDX 20 12 8 13 7 14 6 15 5 16 4 17 3 18 2 19 1 20
REMARK H PARENT
REMARK Flexibility Score: inf
ROOT
ATOM      1  C   UNL     1      -3.205  -4.629   2.443  1.00  0.00    -0.031 C 
ATOM      2  C   UNL     1      -2.485  -5.164   3.446  1.00  0.00    -0.031 C 
ENDROOT
BRANCH   1   3
ATOM      3  C   UNL     1      -2.621  -4.103   1.157  1.00  0.00     0.027 C 
BRANCH   3   4
ATOM      4  C   UNL     1      -2.769  -5.138   0.031  1.00  0.00     0.004 C 
BRANCH   4   5
ATOM      5  C   UNL     1      -1.762  -4.923  -1.110  1.00  0.00     0.000 C 
BRANCH   5   6
ATOM      6  C   UNL     1      -2.216  -5.573  -2.429  1.00  0.00     0.000 C 
BRANCH   6   7
ATOM      7  C   UNL     1      -3.453  -6.469  -2.249  1.00  0.00     0.000 C 
BRANCH   7   8
ATOM      8  C   UNL     1      -4.632  -6.034  -3.138  1.00  0.00     0.006 C 
BRANCH   8   9
ATOM      9  C   UNL     1      -5.976  -6.558  -2.613  1.00  0.00     0.053 C 
BRANCH   9  10
ATOM     10  C   UNL     1      -7.117  -5.682  -3.027  1.00  0.00     0.041 C 
ATOM     11  O   UNL     1      -7.660  -4.911  -2.192  1.00  0.00    -0.550 OA
ATOM     12  O   UNL     1      -7.604  -5.740  -4.327  1.00  0.00    -0.550 OA
ENDBRANCH   9  10
ENDBRANCH   8   9
ENDBRANCH   7   8
ENDBRANCH   6   7
ENDBRANCH   5   6
ENDBRANCH   4   5
ENDBRANCH   3   4
ENDBRANCH   1   3
BRANCH   2  13
ATOM     13  C   UNL     1      -0.994  -5.402   3.401  1.00  0.00     0.027 C 
BRANCH  13  14
ATOM     14  C   UNL     1      -0.651  -6.857   3.038  1.00  0.00     0.004 C 
BRANCH  14  15
ATOM     15  C   UNL     1      -1.149  -7.901   4.057  1.00  0.00     0.000 C 
BRANCH  15  16
ATOM     16  C   UNL     1      -0.081  -8.422   5.040  1.00  0.00     0.000 C 
BRANCH  16  17
ATOM     17  C   UNL     1      -0.098  -7.760   6.429  1.00  0.00    -0.000 C 
BRANCH  17  18
ATOM     18  C   UNL     1      -1.445  -7.100   6.758  1.00  0.00    -0.000 C 
BRANCH  18  19
ATOM     19  C   UNL     1      -1.258  -5.621   7.116  1.00  0.00    -0.003 C 
ATOM     20  C   UNL     1       0.196  -5.191   6.946  1.00  0.00     0.004 C 
ENDBRANCH  18  19
ENDBRANCH  17  18
ENDBRANCH  16  17
ENDBRANCH  15  16
ENDBRANCH  14  15
ENDBRANCH  13  14
ENDBRANCH   2  13
TORSDOF 15
ENDMDL
MODEL 9
REMARK VINA RESULT:    -3.868     12.274     14.543
REMARK INTER + INTRA:          -9.992
REMARK INTER:                  -8.293
REMARK INTRA:                  -1.699
REMARK UNBOUND:                -2.732
REMARK SMILES CCCCCCCCC=CCCCCCCCC(=O)[O-]
REMARK SMILES IDX 10 1 9 2 11 3 12 4 13 5 14 6 15 7 16 8 17 9 18 10 19 11
REMARK SMILES IDX 20 12 8 13 7 14 6 15 5 16 4 17 3 18 2 19 1 20
REMARK H PARENT
REMARK Flexibility Score: inf
ROOT
ATOM      1  C   UNL     1       0.761   8.238   4.348  1.00  0.00    -0.031 C 
ATOM      2  C   UNL     1       1.779   7.532   3.825  1.00  0.00    -0.031 C 
ENDROOT
BRANCH   1   3
ATOM      3  C   UNL     1      -0.632   7.703   4.561  1.00  0.00     0.027 C 
BRANCH   3   4
ATOM      4  C   UNL     1      -1.274   8.340   5.802  1.00  0.00     0.004 C 
BRANCH   4   5
ATOM      5  C   UNL     1      -0.241   8.979   6.745  1.00  0.00     0.000 C 
BRANCH   5   6
ATOM      6  C   UNL     1       0.004   8.138   8.010  1.00  0.00     0.000 C 
BRANCH   6   7
ATOM      7  C   UNL     1       1.388   7.468   8.013  1.00  0.00     0.000 C 
BRANCH   7   8
ATOM      8  C   UNL     1       1.376   6.084   7.339  1.00  0.00     0.006 C 
BRANCH   8   9
ATOM      9  C   UNL     1       2.791   5.589   7.008  1.00  0.00     0.053 C 
BRANCH   9  10
ATOM     10  C   UNL     1       3.534   5.162   8.236  1.00  0.00     0.041 C 
ATOM     11  O   UNL     1       4.620   5.718   8.545  1.00  0.00    -0.550 OA
ATOM     12  O   UNL     1       3.044   4.125   9.021  1.00  0.00    -0.550 OA
ENDBRANCH   9  10
ENDBRANCH   8   9
ENDBRANCH   7   8
ENDBRANCH   6   7
ENDBRANCH   5   6
ENDBRANCH   4   5
ENDBRANCH   3   4
ENDBRANCH   1   3
BRANCH   2  13
ATOM     13  C   UNL     1       1.710   6.070   3.454  1.00  0.00     0.027 C 
BRANCH  13  14
ATOM     14  C   UNL     1       2.959   5.609   2.683  1.00  0.00     0.004 C 
BRANCH  14  15
ATOM     15  C   UNL     1       2.661   4.701   1.473  1.00  0.00     0.000 C 
BRANCH  15  16
ATOM     16  C   UNL     1       3.329   5.128   0.150  1.00  0.00     0.000 C 
BRANCH  16  17
ATOM     17  C   UNL     1       2.354   5.516  -0.976  1.00  0.00    -0.000 C 
BRANCH  17  18
ATOM     18  C   UNL     1       3.048   6.236  -2.141  1.00  0.00    -0.000 C 
BRANCH  18  19
ATOM     19  C   UNL     1       4.474   6.651  -1.758  1.00  0.00    -0.003 C 
ATOM     20  C   UNL     1       5.473   6.263  -2.844  1.00  0.00     0.004 C 
ENDBRANCH  18  19
ENDBRANCH  17  18
ENDBRANCH  16  17
ENDBRANCH  15  16
ENDBRANCH  14  15
ENDBRANCH  13  14
ENDBRANCH   2  13
TORSDOF 15
ENDMDL
