MODEL 1
REMARK VINA RESULT:    -3.740      0.000      0.000
REMARK INTER + INTRA:          -4.952
REMARK INTER:                  -4.615
REMARK INTRA:                  -0.337
REMARK UNBOUND:                -0.337
REMARK SMILES Oc1cc(O)c2cc(O)c(-c3cc(O)c(O)c(O)c3)[o+]c2c1
REMARK SMILES IDX 10 1 20 2 21 3 22 4 2 5 3 6 4 7 6 8 7 9 8 10 11 11 12 12
REMARK SMILES IDX 13 13 19 14 15 15 17 16 14 17 16 19 18 21 9 23 1 25 5 27
REMARK H PARENT 14 18 16 20 18 22 9 24 1 26 5 28
REMARK Flexibility Score: inf
ROOT
ATOM      1  C   UNL     1      13.215 -32.605 -32.494  1.00  0.00     0.402 A 
ATOM      2  O   UNL     1      12.184 -32.436 -33.320  1.00  0.00    -0.202 OA
ATOM      3  C   UNL     1      12.179 -31.546 -34.306  1.00  0.00     0.368 A 
ATOM      4  C   UNL     1      11.047 -31.440 -35.120  1.00  0.00     0.162 A 
ATOM      5  C   UNL     1      11.011 -30.513 -36.162  1.00  0.00     0.128 A 
ATOM      6  C   UNL     1      12.115 -29.684 -36.394  1.00  0.00     0.093 A 
ATOM      7  C   UNL     1      13.261 -29.770 -35.593  1.00  0.00     0.136 A 
ATOM      8  C   UNL     1      13.301 -30.714 -34.535  1.00  0.00     0.125 A 
ATOM      9  C   UNL     1      14.411 -30.880 -33.690  1.00  0.00     0.078 A 
ATOM     10  C   UNL     1      14.379 -31.835 -32.669  1.00  0.00     0.223 A 
ENDROOT
BRANCH   1  11
ATOM     11  C   UNL     1      13.096 -33.623 -31.426  1.00  0.00     0.091 A 
ATOM     12  C   UNL     1      12.872 -33.213 -30.104  1.00  0.00     0.068 A 
ATOM     13  C   UNL     1      12.774 -34.146 -29.065  1.00  0.00     0.162 A 
ATOM     14  C   UNL     1      13.260 -34.990 -31.697  1.00  0.00     0.068 A 
ATOM     15  C   UNL     1      12.918 -35.525 -29.350  1.00  0.00     0.200 A 
ATOM     16  C   UNL     1      13.165 -35.935 -30.667  1.00  0.00     0.162 A 
BRANCH  13  17
ATOM     17  O   UNL     1      12.538 -33.663 -27.776  1.00  0.00    -0.504 OA
ATOM     18  H   UNL     1      12.665 -32.700 -27.501  1.00  0.00     0.293 HD
ENDBRANCH  13  17
BRANCH  15  19
ATOM     19  O   UNL     1      12.826 -36.510 -28.362  1.00  0.00    -0.502 OA
ATOM     20  H   UNL     1      13.344 -37.376 -28.377  1.00  0.00     0.293 HD
ENDBRANCH  15  19
BRANCH  16  21
ATOM     21  O   UNL     1      13.323 -37.292 -30.946  1.00  0.00    -0.504 OA
ATOM     22  H   UNL     1      13.864 -37.611 -31.741  1.00  0.00     0.293 HD
ENDBRANCH  16  21
ENDBRANCH   1  11
BRANCH  10  23
ATOM     23  O   UNL     1      15.499 -32.034 -31.862  1.00  0.00    -0.500 OA
ATOM     24  H   UNL     1      16.220 -32.703 -32.107  1.00  0.00     0.294 HD
ENDBRANCH  10  23
BRANCH   5  25
ATOM     25  O   UNL     1       9.875 -30.422 -36.961  1.00  0.00    -0.507 OA
ATOM     26  H   UNL     1       8.972 -30.170 -36.573  1.00  0.00     0.293 HD
ENDBRANCH   5  25
BRANCH   7  27
ATOM     27  O   UNL     1      14.318 -28.905 -35.887  1.00  0.00    -0.507 OA
ATOM     28  H   UNL     1      15.184 -28.866 -35.369  1.00  0.00     0.293 HD
ENDBRANCH   7  27
TORSDOF 7
ENDMDL
MODEL 2
REMARK VINA RESULT:    -3.728      0.100      1.800
REMARK INTER + INTRA:          -4.937
REMARK INTER:                  -4.585
REMARK INTRA:                  -0.352
REMARK UNBOUND:                -0.337
REMARK SMILES Oc1cc(O)c2cc(O)c(-c3cc(O)c(O)c(O)c3)[o+]c2c1
REMARK SMILES IDX 10 1 20 2 21 3 22 4 2 5 3 6 4 7 6 8 7 9 8 10 11 11 12 12
REMARK SMILES IDX 13 13 19 14 15 15 17 16 14 17 16 19 18 21 9 23 1 25 5 27
REMARK H PARENT 14 18 16 20 18 22 9 24 1 26 5 28
REMARK Flexibility Score: inf
ROOT
ATOM      1  C   UNL     1      13.240 -32.616 -32.477  1.00  0.00     0.402 A 
ATOM      2  O   UNL     1      12.208 -32.454 -33.302  1.00  0.00    -0.202 OA
ATOM      3  C   UNL     1      12.192 -31.559 -34.283  1.00  0.00     0.368 A 
ATOM      4  C   UNL     1      11.059 -31.461 -35.096  1.00  0.00     0.162 A 
ATOM      5  C   UNL     1      11.013 -30.528 -36.133  1.00  0.00     0.128 A 
ATOM      6  C   UNL     1      12.107 -29.686 -36.360  1.00  0.00     0.093 A 
ATOM      7  C   UNL     1      13.254 -29.763 -35.561  1.00  0.00     0.136 A 
ATOM      8  C   UNL     1      13.305 -30.713 -34.507  1.00  0.00     0.125 A 
ATOM      9  C   UNL     1      14.417 -30.871 -33.664  1.00  0.00     0.078 A 
ATOM     10  C   UNL     1      14.395 -31.832 -32.648  1.00  0.00     0.223 A 
ENDROOT
BRANCH   1  11
ATOM     11  C   UNL     1      13.133 -33.641 -31.414  1.00  0.00     0.091 A 
ATOM     12  C   UNL     1      13.233 -34.998 -31.752  1.00  0.00     0.068 A 
ATOM     13  C   UNL     1      13.116 -35.995 -30.776  1.00  0.00     0.162 A 
ATOM     14  C   UNL     1      12.877 -33.287 -30.081  1.00  0.00     0.068 A 
ATOM     15  C   UNL     1      12.881 -35.629 -29.430  1.00  0.00     0.200 A 
ATOM     16  C   UNL     1      12.758 -34.274 -29.094  1.00  0.00     0.162 A 
BRANCH  13  17
ATOM     17  O   UNL     1      13.239 -37.325 -31.187  1.00  0.00    -0.504 OA
ATOM     18  H   UNL     1      13.839 -38.001 -30.739  1.00  0.00     0.293 HD
ENDBRANCH  13  17
BRANCH  15  19
ATOM     19  O   UNL     1      12.761 -36.573 -28.405  1.00  0.00    -0.502 OA
ATOM     20  H   UNL     1      13.363 -36.608 -27.595  1.00  0.00     0.293 HD
ENDBRANCH  15  19
BRANCH  16  21
ATOM     21  O   UNL     1      12.510 -33.913 -27.770  1.00  0.00    -0.504 OA
ATOM     22  H   UNL     1      12.129 -33.005 -27.529  1.00  0.00     0.293 HD
ENDBRANCH  16  21
ENDBRANCH   1  11
BRANCH  10  23
ATOM     23  O   UNL     1      15.518 -32.023 -31.842  1.00  0.00    -0.500 OA
ATOM     24  H   UNL     1      15.641 -32.864 -31.291  1.00  0.00     0.294 HD
ENDBRANCH  10  23
BRANCH   5  25
ATOM     25  O   UNL     1       9.875 -30.446 -36.931  1.00  0.00    -0.507 OA
ATOM     26  H   UNL     1       9.385 -29.569 -37.067  1.00  0.00     0.293 HD
ENDBRANCH   5  25
BRANCH   7  27
ATOM     27  O   UNL     1      14.301 -28.885 -35.850  1.00  0.00    -0.507 OA
ATOM     28  H   UNL     1      15.097 -28.729 -35.249  1.00  0.00     0.293 HD
ENDBRANCH   7  27
TORSDOF 7
ENDMDL
MODEL 3
REMARK VINA RESULT:    -3.389      1.103      2.585
REMARK INTER + INTRA:          -4.519
REMARK INTER:                  -4.138
REMARK INTRA:                  -0.381
REMARK UNBOUND:                -0.337
REMARK SMILES Oc1cc(O)c2cc(O)c(-c3cc(O)c(O)c(O)c3)[o+]c2c1
REMARK SMILES IDX 10 1 20 2 21 3 22 4 2 5 3 6 4 7 6 8 7 9 8 10 11 11 12 12
REMARK SMILES IDX 13 13 19 14 15 15 17 16 14 17 16 19 18 21 9 23 1 25 5 27
REMARK H PARENT 14 18 16 20 18 22 9 24 1 26 5 28
REMARK Flexibility Score: inf
ROOT
ATOM      1  C   UNL     1      12.101 -33.146 -32.351  1.00  0.00     0.402 A 
ATOM      2  O   UNL     1      12.950 -32.265 -32.876  1.00  0.00    -0.202 OA
ATOM      3  C   UNL     1      12.652 -31.498 -33.919  1.00  0.00     0.368 A 
ATOM      4  C   UNL     1      13.613 -30.604 -34.402  1.00  0.00     0.162 A 
ATOM      5  C   UNL     1      13.329 -29.788 -35.498  1.00  0.00     0.128 A 
ATOM      6  C   UNL     1      12.077 -29.865 -36.118  1.00  0.00     0.093 A 
ATOM      7  C   UNL     1      11.098 -30.753 -35.655  1.00  0.00     0.136 A 
ATOM      8  C   UNL     1      11.382 -31.582 -34.538  1.00  0.00     0.125 A 
ATOM      9  C   UNL     1      10.458 -32.491 -33.997  1.00  0.00     0.078 A 
ATOM     10  C   UNL     1      10.809 -33.273 -32.892  1.00  0.00     0.223 A 
ENDROOT
BRANCH   1  11
ATOM     11  C   UNL     1      12.554 -33.951 -31.194  1.00  0.00     0.091 A 
ATOM     12  C   UNL     1      12.530 -33.388 -29.910  1.00  0.00     0.068 A 
ATOM     13  C   UNL     1      12.970 -34.112 -28.796  1.00  0.00     0.162 A 
ATOM     14  C   UNL     1      13.062 -35.248 -31.360  1.00  0.00     0.068 A 
ATOM     15  C   UNL     1      13.459 -35.429 -28.969  1.00  0.00     0.200 A 
ATOM     16  C   UNL     1      13.506 -35.985 -30.254  1.00  0.00     0.162 A 
BRANCH  13  17
ATOM     17  O   UNL     1      12.904 -33.489 -27.547  1.00  0.00    -0.504 OA
ATOM     18  H   UNL     1      12.788 -32.495 -27.417  1.00  0.00     0.293 HD
ENDBRANCH  13  17
BRANCH  15  19
ATOM     19  O   UNL     1      13.907 -36.210 -27.899  1.00  0.00    -0.502 OA
ATOM     20  H   UNL     1      14.800 -36.681 -27.879  1.00  0.00     0.293 HD
ENDBRANCH  15  19
BRANCH  16  21
ATOM     21  O   UNL     1      14.003 -37.276 -30.427  1.00  0.00    -0.504 OA
ATOM     22  H   UNL     1      14.661 -37.497 -31.165  1.00  0.00     0.293 HD
ENDBRANCH  16  21
ENDBRANCH   1  11
BRANCH  10  23
ATOM     23  O   UNL     1       9.875 -34.139 -32.323  1.00  0.00    -0.500 OA
ATOM     24  H   UNL     1       9.951 -34.447 -31.361  1.00  0.00     0.294 HD
ENDBRANCH  10  23
BRANCH   5  25
ATOM     25  O   UNL     1      14.299 -28.904 -35.963  1.00  0.00    -0.507 OA
ATOM     26  H   UNL     1      14.092 -27.923 -36.118  1.00  0.00     0.293 HD
ENDBRANCH   5  25
BRANCH   7  27
ATOM     27  O   UNL     1       9.875 -30.773 -36.330  1.00  0.00    -0.507 OA
ATOM     28  H   UNL     1       9.494 -29.991 -36.843  1.00  0.00     0.293 HD
ENDBRANCH   7  27
TORSDOF 7
ENDMDL
MODEL 4
REMARK VINA RESULT:    -1.603      1.409      7.078
REMARK INTER + INTRA:          -2.315
REMARK INTER:                  -2.182
REMARK INTRA:                  -0.133
REMARK UNBOUND:                -0.337
REMARK SMILES Oc1cc(O)c2cc(O)c(-c3cc(O)c(O)c(O)c3)[o+]c2c1
REMARK SMILES IDX 10 1 20 2 21 3 22 4 2 5 3 6 4 7 6 8 7 9 8 10 11 11 12 12
REMARK SMILES IDX 13 13 19 14 15 15 17 16 14 17 16 19 18 21 9 23 1 25 5 27
REMARK H PARENT 14 18 16 20 18 22 9 24 1 26 5 28
REMARK Flexibility Score: inf
ROOT
ATOM      1  C   UNL     1      12.770 -33.119 -32.230  1.00  0.00     0.402 A 
ATOM      2  O   UNL     1      12.507 -34.404 -32.461  1.00  0.00    -0.202 OA
ATOM      3  C   UNL     1      12.669 -35.356 -31.550  1.00  0.00     0.368 A 
ATOM      4  C   UNL     1      12.368 -36.679 -31.889  1.00  0.00     0.162 A 
ATOM      5  C   UNL     1      12.530 -37.701 -30.952  1.00  0.00     0.128 A 
ATOM      6  C   UNL     1      12.997 -37.400 -29.667  1.00  0.00     0.093 A 
ATOM      7  C   UNL     1      13.305 -36.084 -29.303  1.00  0.00     0.136 A 
ATOM      8  C   UNL     1      13.138 -35.042 -30.252  1.00  0.00     0.125 A 
ATOM      9  C   UNL     1      13.410 -33.692 -29.972  1.00  0.00     0.078 A 
ATOM     10  C   UNL     1      13.217 -32.719 -30.958  1.00  0.00     0.223 A 
ENDROOT
BRANCH   1  11
ATOM     11  C   UNL     1      12.560 -32.152 -33.332  1.00  0.00     0.091 A 
ATOM     12  C   UNL     1      11.343 -32.154 -34.028  1.00  0.00     0.068 A 
ATOM     13  C   UNL     1      11.117 -31.267 -35.089  1.00  0.00     0.162 A 
ATOM     14  C   UNL     1      13.574 -31.270 -33.733  1.00  0.00     0.068 A 
ATOM     15  C   UNL     1      12.137 -30.365 -35.472  1.00  0.00     0.200 A 
ATOM     16  C   UNL     1      13.363 -30.377 -34.793  1.00  0.00     0.162 A 
BRANCH  13  17
ATOM     17  O   UNL     1       9.875 -31.319 -35.727  1.00  0.00    -0.504 OA
ATOM     18  H   UNL     1       8.991 -31.233 -35.249  1.00  0.00     0.293 HD
ENDBRANCH  13  17
BRANCH  15  19
ATOM     19  O   UNL     1      11.976 -29.450 -36.517  1.00  0.00    -0.502 OA
ATOM     20  H   UNL     1      12.268 -28.484 -36.473  1.00  0.00     0.293 HD
ENDBRANCH  15  19
BRANCH  16  21
ATOM     21  O   UNL     1      14.374 -29.500 -35.181  1.00  0.00    -0.504 OA
ATOM     22  H   UNL     1      14.549 -29.290 -36.156  1.00  0.00     0.293 HD
ENDBRANCH  16  21
ENDBRANCH   1  11
BRANCH  10  23
ATOM     23  O   UNL     1      13.438 -31.373 -30.665  1.00  0.00    -0.500 OA
ATOM     24  H   UNL     1      14.133 -30.828 -31.161  1.00  0.00     0.294 HD
ENDBRANCH  10  23
BRANCH   5  25
ATOM     25  O   UNL     1      12.226 -39.012 -31.308  1.00  0.00    -0.507 OA
ATOM     26  H   UNL     1      12.837 -39.783 -31.065  1.00  0.00     0.293 HD
ENDBRANCH   5  25
BRANCH   7  27
ATOM     27  O   UNL     1      13.769 -35.867 -28.003  1.00  0.00    -0.507 OA
ATOM     28  H   UNL     1      14.743 -35.860 -27.739  1.00  0.00     0.293 HD
ENDBRANCH   7  27
TORSDOF 7
ENDMDL
MODEL 5
REMARK VINA RESULT:    -1.274      2.527      7.721
REMARK INTER + INTRA:          -1.909
REMARK INTER:                  -2.219
REMARK INTRA:                   0.310
REMARK UNBOUND:                -0.337
REMARK SMILES Oc1cc(O)c2cc(O)c(-c3cc(O)c(O)c(O)c3)[o+]c2c1
REMARK SMILES IDX 10 1 20 2 21 3 22 4 2 5 3 6 4 7 6 8 7 9 8 10 11 11 12 12
REMARK SMILES IDX 13 13 19 14 15 15 17 16 14 17 16 19 18 21 9 23 1 25 5 27
REMARK H PARENT 14 18 16 20 18 22 9 24 1 26 5 28
REMARK Flexibility Score: inf
ROOT
ATOM      1  C   UNL     1      10.638 -32.382 -33.325  1.00  0.00     0.402 A 
ATOM      2  O   UNL     1      11.142 -32.014 -32.150  1.00  0.00    -0.202 OA
ATOM      3  C   UNL     1      11.367 -32.865 -31.155  1.00  0.00     0.368 A 
ATOM      4  C   UNL     1      11.897 -32.382 -29.955  1.00  0.00     0.162 A 
ATOM      5  C   UNL     1      12.142 -33.252 -28.891  1.00  0.00     0.128 A 
ATOM      6  C   UNL     1      11.856 -34.615 -29.027  1.00  0.00     0.093 A 
ATOM      7  C   UNL     1      11.325 -35.124 -30.219  1.00  0.00     0.136 A 
ATOM      8  C   UNL     1      11.077 -34.243 -31.303  1.00  0.00     0.125 A 
ATOM      9  C   UNL     1      10.559 -34.665 -32.538  1.00  0.00     0.078 A 
ATOM     10  C   UNL     1      10.345 -33.737 -33.563  1.00  0.00     0.223 A 
ENDROOT
BRANCH   1  11
ATOM     11  C   UNL     1      10.421 -31.338 -34.352  1.00  0.00     0.091 A 
ATOM     12  C   UNL     1      10.449 -31.689 -35.710  1.00  0.00     0.068 A 
ATOM     13  C   UNL     1      10.269 -30.724 -36.708  1.00  0.00     0.162 A 
ATOM     14  C   UNL     1      10.244 -29.991 -34.000  1.00  0.00     0.068 A 
ATOM     15  C   UNL     1      10.068 -29.371 -36.343  1.00  0.00     0.200 A 
ATOM     16  C   UNL     1      10.063 -29.015 -34.988  1.00  0.00     0.162 A 
BRANCH  13  17
ATOM     17  O   UNL     1      10.298 -31.151 -38.038  1.00  0.00    -0.504 OA
ATOM     18  H   UNL     1       9.693 -30.790 -38.761  1.00  0.00     0.293 HD
ENDBRANCH  13  17
BRANCH  15  19
ATOM     19  O   UNL     1       9.876 -28.359 -37.289  1.00  0.00    -0.502 OA
ATOM     20  H   UNL     1       9.687 -27.396 -37.054  1.00  0.00     0.293 HD
ENDBRANCH  15  19
BRANCH  16  21
ATOM     21  O   UNL     1       9.882 -27.681 -34.628  1.00  0.00    -0.504 OA
ATOM     22  H   UNL     1      10.514 -26.954 -34.944  1.00  0.00     0.293 HD
ENDBRANCH  16  21
ENDBRANCH   1  11
BRANCH  10  23
ATOM     23  O   UNL     1       9.878 -34.164 -34.806  1.00  0.00    -0.500 OA
ATOM     24  H   UNL     1      10.510 -34.380 -35.568  1.00  0.00     0.294 HD
ENDBRANCH  10  23
BRANCH   5  25
ATOM     25  O   UNL     1      12.670 -32.752 -27.704  1.00  0.00    -0.507 OA
ATOM     26  H   UNL     1      13.248 -33.325 -27.098  1.00  0.00     0.293 HD
ENDBRANCH   5  25
BRANCH   7  27
ATOM     27  O   UNL     1      11.063 -36.496 -30.273  1.00  0.00    -0.507 OA
ATOM     28  H   UNL     1      10.846 -37.067 -29.470  1.00  0.00     0.293 HD
ENDBRANCH   7  27
TORSDOF 7
ENDMDL
MODEL 6
REMARK VINA RESULT:    -0.994      1.462      7.277
REMARK INTER + INTRA:          -1.564
REMARK INTER:                  -1.220
REMARK INTRA:                  -0.344
REMARK UNBOUND:                -0.337
REMARK SMILES Oc1cc(O)c2cc(O)c(-c3cc(O)c(O)c(O)c3)[o+]c2c1
REMARK SMILES IDX 10 1 20 2 21 3 22 4 2 5 3 6 4 7 6 8 7 9 8 10 11 11 12 12
REMARK SMILES IDX 13 13 19 14 15 15 17 16 14 17 16 19 18 21 9 23 1 25 5 27
REMARK H PARENT 14 18 16 20 18 22 9 24 1 26 5 28
REMARK Flexibility Score: inf
ROOT
ATOM      1  C   UNL     1      11.592 -32.455 -32.728  1.00  0.00     0.402 A 
ATOM      2  O   UNL     1      12.343 -33.536 -32.530  1.00  0.00    -0.202 OA
ATOM      3  C   UNL     1      12.339 -34.229 -31.397  1.00  0.00     0.368 A 
ATOM      4  C   UNL     1      13.166 -35.351 -31.284  1.00  0.00     0.162 A 
ATOM      5  C   UNL     1      13.185 -36.097 -30.104  1.00  0.00     0.128 A 
ATOM      6  C   UNL     1      12.372 -35.720 -29.029  1.00  0.00     0.093 A 
ATOM      7  C   UNL     1      11.535 -34.601 -29.117  1.00  0.00     0.136 A 
ATOM      8  C   UNL     1      11.511 -33.842 -30.316  1.00  0.00     0.125 A 
ATOM      9  C   UNL     1      10.694 -32.714 -30.499  1.00  0.00     0.078 A 
ATOM     10  C   UNL     1      10.722 -32.018 -31.712  1.00  0.00     0.223 A 
ENDROOT
BRANCH   1  11
ATOM     11  C   UNL     1      11.692 -31.761 -34.032  1.00  0.00     0.091 A 
ATOM     12  C   UNL     1      12.739 -30.854 -34.252  1.00  0.00     0.068 A 
ATOM     13  C   UNL     1      12.853 -30.165 -35.465  1.00  0.00     0.162 A 
ATOM     14  C   UNL     1      10.730 -31.948 -35.036  1.00  0.00     0.068 A 
ATOM     15  C   UNL     1      11.891 -30.376 -36.481  1.00  0.00     0.200 A 
ATOM     16  C   UNL     1      10.832 -31.265 -36.255  1.00  0.00     0.162 A 
BRANCH  13  17
ATOM     17  O   UNL     1      13.929 -29.286 -35.615  1.00  0.00    -0.504 OA
ATOM     18  H   UNL     1      13.865 -28.287 -35.486  1.00  0.00     0.293 HD
ENDBRANCH  13  17
BRANCH  15  19
ATOM     19  O   UNL     1      11.950 -29.726 -37.717  1.00  0.00    -0.502 OA
ATOM     20  H   UNL     1      11.143 -29.362 -38.203  1.00  0.00     0.293 HD
ENDBRANCH  15  19
BRANCH  16  21
ATOM     21  O   UNL     1       9.875 -31.462 -37.249  1.00  0.00    -0.504 OA
ATOM     22  H   UNL     1       9.460 -30.685 -37.749  1.00  0.00     0.293 HD
ENDBRANCH  16  21
ENDBRANCH   1  11
BRANCH  10  23
ATOM     23  O   UNL     1       9.875 -30.928 -31.912  1.00  0.00    -0.500 OA
ATOM     24  H   UNL     1       9.651 -30.283 -31.164  1.00  0.00     0.294 HD
ENDBRANCH  10  23
BRANCH   5  25
ATOM     25  O   UNL     1      14.015 -37.210 -30.011  1.00  0.00    -0.507 OA
ATOM     26  H   UNL     1      14.383 -37.668 -30.837  1.00  0.00     0.293 HD
ENDBRANCH   5  25
BRANCH   7  27
ATOM     27  O   UNL     1      10.757 -34.289 -27.999  1.00  0.00    -0.507 OA
ATOM     28  H   UNL     1       9.753 -34.181 -28.015  1.00  0.00     0.293 HD
ENDBRANCH   7  27
TORSDOF 7
ENDMDL
MODEL 7
REMARK VINA RESULT:    -0.823      1.403      7.008
REMARK INTER + INTRA:          -1.352
REMARK INTER:                  -1.302
REMARK INTRA:                  -0.050
REMARK UNBOUND:                -0.337
REMARK SMILES Oc1cc(O)c2cc(O)c(-c3cc(O)c(O)c(O)c3)[o+]c2c1
REMARK SMILES IDX 10 1 20 2 21 3 22 4 2 5 3 6 4 7 6 8 7 9 8 10 11 11 12 12
REMARK SMILES IDX 13 13 19 14 15 15 17 16 14 17 16 19 18 21 9 23 1 25 5 27
REMARK H PARENT 14 18 16 20 18 22 9 24 1 26 5 28
REMARK Flexibility Score: inf
ROOT
ATOM      1  C   UNL     1      12.713 -32.740 -32.439  1.00  0.00     0.402 A 
ATOM      2  O   UNL     1      11.790 -32.743 -31.479  1.00  0.00    -0.202 OA
ATOM      3  C   UNL     1      11.885 -33.480 -30.378  1.00  0.00     0.368 A 
ATOM      4  C   UNL     1      10.862 -33.417 -29.427  1.00  0.00     0.162 A 
ATOM      5  C   UNL     1      10.934 -34.182 -28.262  1.00  0.00     0.128 A 
ATOM      6  C   UNL     1      12.036 -35.017 -28.045  1.00  0.00     0.093 A 
ATOM      7  C   UNL     1      13.074 -35.099 -28.981  1.00  0.00     0.136 A 
ATOM      8  C   UNL     1      13.005 -34.320 -30.165  1.00  0.00     0.125 A 
ATOM      9  C   UNL     1      14.004 -34.327 -31.153  1.00  0.00     0.078 A 
ATOM     10  C   UNL     1      13.869 -33.528 -32.293  1.00  0.00     0.223 A 
ENDROOT
BRANCH   1  11
ATOM     11  C   UNL     1      12.487 -31.883 -33.624  1.00  0.00     0.091 A 
ATOM     12  C   UNL     1      13.478 -30.971 -34.015  1.00  0.00     0.068 A 
ATOM     13  C   UNL     1      13.291 -30.130 -35.118  1.00  0.00     0.162 A 
ATOM     14  C   UNL     1      11.278 -31.922 -34.336  1.00  0.00     0.068 A 
ATOM     15  C   UNL     1      12.078 -30.192 -35.844  1.00  0.00     0.200 A 
ATOM     16  C   UNL     1      11.077 -31.087 -35.442  1.00  0.00     0.162 A 
BRANCH  13  17
ATOM     17  O   UNL     1      14.328 -29.256 -35.454  1.00  0.00    -0.504 OA
ATOM     18  H   UNL     1      14.475 -28.359 -35.015  1.00  0.00     0.293 HD
ENDBRANCH  13  17
BRANCH  15  19
ATOM     19  O   UNL     1      11.828 -29.386 -36.959  1.00  0.00    -0.502 OA
ATOM     20  H   UNL     1      12.550 -28.965 -37.526  1.00  0.00     0.293 HD
ENDBRANCH  15  19
BRANCH  16  21
ATOM     21  O   UNL     1       9.875 -31.137 -36.147  1.00  0.00    -0.504 OA
ATOM     22  H   UNL     1       9.638 -30.440 -36.844  1.00  0.00     0.293 HD
ENDBRANCH  16  21
ENDBRANCH   1  11
BRANCH  10  23
ATOM     23  O   UNL     1      14.883 -33.497 -33.250  1.00  0.00    -0.500 OA
ATOM     24  H   UNL     1      14.902 -34.147 -34.028  1.00  0.00     0.294 HD
ENDBRANCH  10  23
BRANCH   5  25
ATOM     25  O   UNL     1       9.905 -34.106 -27.327  1.00  0.00    -0.507 OA
ATOM     26  H   UNL     1       8.959 -34.389 -27.556  1.00  0.00     0.293 HD
ENDBRANCH   5  25
BRANCH   7  27
ATOM     27  O   UNL     1      14.136 -35.958 -28.692  1.00  0.00    -0.507 OA
ATOM     28  H   UNL     1      14.301 -36.378 -27.788  1.00  0.00     0.293 HD
ENDBRANCH   7  27
TORSDOF 7
ENDMDL
