MODEL 1
REMARK VINA RESULT:    -4.214      0.000      0.000
REMARK INTER + INTRA:         -10.749
REMARK INTER:                  -8.155
REMARK INTRA:                  -2.594
REMARK UNBOUND:                -2.594
REMARK SMILES CCCCCCCCCCCCCCCCCC(=O)[O-]
REMARK SMILES IDX 10 1 11 2 12 3 13 4 14 5 15 6 16 7 17 8 18 9 19 10 20 11
REMARK SMILES IDX 9 12 8 13 7 14 6 15 5 16 4 17 3 18 2 19 1 20
REMARK H PARENT
REMARK Flexibility Score: inf
ROOT
ATOM      1  C   UNL     1      16.406  27.130  54.153  1.00  0.00     0.000 C 
ENDROOT
BRANCH   1   2
ATOM      2  C   UNL     1      17.649  26.987  53.256  1.00  0.00     0.000 C 
BRANCH   2   3
ATOM      3  C   UNL     1      18.448  28.295  53.132  1.00  0.00     0.000 C 
BRANCH   3   4
ATOM      4  C   UNL     1      18.102  29.376  54.176  1.00  0.00     0.000 C 
BRANCH   4   5
ATOM      5  C   UNL     1      17.408  30.619  53.580  1.00  0.00     0.000 C 
BRANCH   5   6
ATOM      6  C   UNL     1      16.323  31.182  54.512  1.00  0.00     0.000 C 
BRANCH   6   7
ATOM      7  C   UNL     1      16.201  30.340  55.787  1.00  0.00     0.006 C 
BRANCH   7   8
ATOM      8  C   UNL     1      16.513  31.179  57.029  1.00  0.00     0.053 C 
BRANCH   8   9
ATOM      9  C   UNL     1      15.489  32.256  57.204  1.00  0.00     0.041 C 
ATOM     10  O   UNL     1      14.266  31.997  57.059  1.00  0.00    -0.550 OA
ATOM     11  O   UNL     1      15.890  33.557  57.479  1.00  0.00    -0.550 OA
ENDBRANCH   8   9
ENDBRANCH   7   8
ENDBRANCH   6   7
ENDBRANCH   5   6
ENDBRANCH   4   5
ENDBRANCH   3   4
ENDBRANCH   2   3
ENDBRANCH   1   2
BRANCH   1  12
ATOM     12  C   UNL     1      15.491  25.897  54.097  1.00  0.00     0.000 C 
BRANCH  12  13
ATOM     13  C   UNL     1      16.148  24.703  53.382  1.00  0.00    -0.000 C 
BRANCH  13  14
ATOM     14  C   UNL     1      15.173  23.963  52.452  1.00  0.00    -0.000 C 
BRANCH  14  15
ATOM     15  C   UNL     1      15.423  24.276  50.966  1.00  0.00    -0.000 C 
BRANCH  15  16
ATOM     16  C   UNL     1      14.278  25.081  50.325  1.00  0.00    -0.000 C 
BRANCH  16  17
ATOM     17  C   UNL     1      14.324  26.601  50.579  1.00  0.00    -0.000 C 
BRANCH  17  18
ATOM     18  C   UNL     1      15.662  27.284  50.227  1.00  0.00    -0.000 C 
BRANCH  18  19
ATOM     19  C   UNL     1      15.730  28.784  50.564  1.00  0.00    -0.003 C 
ATOM     20  C   UNL     1      14.664  29.216  51.570  1.00  0.00     0.004 C 
ENDBRANCH  18  19
ENDBRANCH  17  18
ENDBRANCH  16  17
ENDBRANCH  15  16
ENDBRANCH  14  15
ENDBRANCH  13  14
ENDBRANCH  12  13
ENDBRANCH   1  12
TORSDOF 16
ENDMDL
MODEL 2
REMARK VINA RESULT:    -4.211      2.414      3.544
REMARK INTER + INTRA:         -10.743
REMARK INTER:                  -8.253
REMARK INTRA:                  -2.491
REMARK UNBOUND:                -2.594
REMARK SMILES CCCCCCCCCCCCCCCCCC(=O)[O-]
REMARK SMILES IDX 10 1 11 2 12 3 13 4 14 5 15 6 16 7 17 8 18 9 19 10 20 11
REMARK SMILES IDX 9 12 8 13 7 14 6 15 5 16 4 17 3 18 2 19 1 20
REMARK H PARENT
REMARK Flexibility Score: inf
ROOT
ATOM      1  C   UNL     1      15.728  27.090  55.170  1.00  0.00     0.000 C 
ENDROOT
BRANCH   1   2
ATOM      2  C   UNL     1      16.012  28.603  55.184  1.00  0.00     0.000 C 
BRANCH   2   3
ATOM      3  C   UNL     1      17.206  28.994  54.297  1.00  0.00     0.000 C 
BRANCH   3   4
ATOM      4  C   UNL     1      16.871  29.947  53.133  1.00  0.00     0.000 C 
BRANCH   4   5
ATOM      5  C   UNL     1      16.432  29.225  51.841  1.00  0.00     0.000 C 
BRANCH   5   6
ATOM      6  C   UNL     1      14.941  29.438  51.534  1.00  0.00     0.000 C 
BRANCH   6   7
ATOM      7  C   UNL     1      14.744  30.583  50.532  1.00  0.00     0.006 C 
BRANCH   7   8
ATOM      8  C   UNL     1      13.895  31.702  51.140  1.00  0.00     0.053 C 
BRANCH   8   9
ATOM      9  C   UNL     1      14.748  32.886  51.469  1.00  0.00     0.041 C 
ATOM     10  O   UNL     1      15.988  32.852  51.259  1.00  0.00    -0.550 OA
ATOM     11  O   UNL     1      14.180  34.010  52.055  1.00  0.00    -0.550 OA
ENDBRANCH   8   9
ENDBRANCH   7   8
ENDBRANCH   6   7
ENDBRANCH   5   6
ENDBRANCH   4   5
ENDBRANCH   3   4
ENDBRANCH   2   3
ENDBRANCH   1   2
BRANCH   1  12
ATOM     12  C   UNL     1      16.448  26.363  54.022  1.00  0.00     0.000 C 
BRANCH  12  13
ATOM     13  C   UNL     1      15.872  24.962  53.755  1.00  0.00    -0.000 C 
BRANCH  13  14
ATOM     14  C   UNL     1      15.108  24.882  52.423  1.00  0.00    -0.000 C 
BRANCH  14  15
ATOM     15  C   UNL     1      14.081  26.017  52.263  1.00  0.00    -0.000 C 
BRANCH  15  16
ATOM     16  C   UNL     1      13.443  26.050  50.862  1.00  0.00    -0.000 C 
BRANCH  16  17
ATOM     17  C   UNL     1      14.388  25.675  49.702  1.00  0.00    -0.000 C 
BRANCH  17  18
ATOM     18  C   UNL     1      14.665  26.807  48.692  1.00  0.00    -0.000 C 
BRANCH  18  19
ATOM     19  C   UNL     1      16.113  27.324  48.682  1.00  0.00    -0.003 C 
ATOM     20  C   UNL     1      17.060  26.457  49.509  1.00  0.00     0.004 C 
ENDBRANCH  18  19
ENDBRANCH  17  18
ENDBRANCH  16  17
ENDBRANCH  15  16
ENDBRANCH  14  15
ENDBRANCH  13  14
ENDBRANCH  12  13
ENDBRANCH   1  12
TORSDOF 16
ENDMDL
MODEL 3
REMARK VINA RESULT:    -4.195      2.621      5.877
REMARK INTER + INTRA:         -10.712
REMARK INTER:                  -8.756
REMARK INTRA:                  -1.956
REMARK UNBOUND:                -2.594
REMARK SMILES CCCCCCCCCCCCCCCCCC(=O)[O-]
REMARK SMILES IDX 10 1 11 2 12 3 13 4 14 5 15 6 16 7 17 8 18 9 19 10 20 11
REMARK SMILES IDX 9 12 8 13 7 14 6 15 5 16 4 17 3 18 2 19 1 20
REMARK H PARENT
REMARK Flexibility Score: inf
ROOT
ATOM      1  C   UNL     1      16.541  26.544  54.222  1.00  0.00     0.000 C 
ENDROOT
BRANCH   1   2
ATOM      2  C   UNL     1      15.431  25.768  53.490  1.00  0.00     0.000 C 
BRANCH   2   3
ATOM      3  C   UNL     1      14.973  26.462  52.195  1.00  0.00     0.000 C 
BRANCH   3   4
ATOM      4  C   UNL     1      15.994  27.438  51.579  1.00  0.00     0.000 C 
BRANCH   4   5
ATOM      5  C   UNL     1      15.350  28.617  50.819  1.00  0.00     0.000 C 
BRANCH   5   6
ATOM      6  C   UNL     1      14.880  29.733  51.765  1.00  0.00     0.000 C 
BRANCH   6   7
ATOM      7  C   UNL     1      15.645  31.036  51.501  1.00  0.00     0.006 C 
BRANCH   7   8
ATOM      8  C   UNL     1      15.261  32.112  52.521  1.00  0.00     0.053 C 
BRANCH   8   9
ATOM      9  C   UNL     1      14.865  33.376  51.824  1.00  0.00     0.041 C 
ATOM     10  O   UNL     1      13.846  34.013  52.198  1.00  0.00    -0.550 OA
ATOM     11  O   UNL     1      15.593  33.822  50.729  1.00  0.00    -0.550 OA
ENDBRANCH   8   9
ENDBRANCH   7   8
ENDBRANCH   6   7
ENDBRANCH   5   6
ENDBRANCH   4   5
ENDBRANCH   3   4
ENDBRANCH   2   3
ENDBRANCH   1   2
BRANCH   1  12
ATOM     12  C   UNL     1      16.020  27.305  55.451  1.00  0.00     0.000 C 
BRANCH  12  13
ATOM     13  C   UNL     1      15.734  28.787  55.153  1.00  0.00    -0.000 C 
BRANCH  13  14
ATOM     14  C   UNL     1      17.015  29.587  54.863  1.00  0.00    -0.000 C 
BRANCH  14  15
ATOM     15  C   UNL     1      17.198  30.776  55.823  1.00  0.00    -0.000 C 
BRANCH  15  16
ATOM     16  C   UNL     1      16.009  30.953  56.785  1.00  0.00    -0.000 C 
BRANCH  16  17
ATOM     17  C   UNL     1      15.522  32.405  56.967  1.00  0.00    -0.000 C 
BRANCH  17  18
ATOM     18  C   UNL     1      13.992  32.592  56.933  1.00  0.00    -0.000 C 
BRANCH  18  19
ATOM     19  C   UNL     1      13.489  33.621  55.906  1.00  0.00    -0.003 C 
ATOM     20  C   UNL     1      12.371  34.508  56.451  1.00  0.00     0.004 C 
ENDBRANCH  18  19
ENDBRANCH  17  18
ENDBRANCH  16  17
ENDBRANCH  15  16
ENDBRANCH  14  15
ENDBRANCH  13  14
ENDBRANCH  12  13
ENDBRANCH   1  12
TORSDOF 16
ENDMDL
MODEL 4
REMARK VINA RESULT:    -4.185      1.259      2.736
REMARK INTER + INTRA:         -10.694
REMARK INTER:                  -8.740
REMARK INTRA:                  -1.954
REMARK UNBOUND:                -2.594
REMARK SMILES CCCCCCCCCCCCCCCCCC(=O)[O-]
REMARK SMILES IDX 10 1 11 2 12 3 13 4 14 5 15 6 16 7 17 8 18 9 19 10 20 11
REMARK SMILES IDX 9 12 8 13 7 14 6 15 5 16 4 17 3 18 2 19 1 20
REMARK H PARENT
REMARK Flexibility Score: inf
ROOT
ATOM      1  C   UNL     1      14.391  25.671  52.504  1.00  0.00     0.000 C 
ENDROOT
BRANCH   1   2
ATOM      2  C   UNL     1      15.701  24.964  52.896  1.00  0.00     0.000 C 
BRANCH   2   3
ATOM      3  C   UNL     1      16.685  25.893  53.627  1.00  0.00     0.000 C 
BRANCH   3   4
ATOM      4  C   UNL     1      16.066  26.746  54.752  1.00  0.00     0.000 C 
BRANCH   4   5
ATOM      5  C   UNL     1      16.388  28.251  54.641  1.00  0.00     0.000 C 
BRANCH   5   6
ATOM      6  C   UNL     1      15.852  29.051  55.840  1.00  0.00     0.000 C 
BRANCH   6   7
ATOM      7  C   UNL     1      16.300  30.516  55.769  1.00  0.00     0.006 C 
BRANCH   7   8
ATOM      8  C   UNL     1      16.421  31.120  57.170  1.00  0.00     0.053 C 
BRANCH   8   9
ATOM      9  C   UNL     1      15.583  32.354  57.282  1.00  0.00     0.041 C 
ATOM     10  O   UNL     1      14.338  32.293  57.107  1.00  0.00    -0.550 OA
ATOM     11  O   UNL     1      16.184  33.582  57.532  1.00  0.00    -0.550 OA
ENDBRANCH   8   9
ENDBRANCH   7   8
ENDBRANCH   6   7
ENDBRANCH   5   6
ENDBRANCH   4   5
ENDBRANCH   3   4
ENDBRANCH   2   3
ENDBRANCH   1   2
BRANCH   1  12
ATOM     12  C   UNL     1      13.765  25.091  51.226  1.00  0.00     0.000 C 
BRANCH  12  13
ATOM     13  C   UNL     1      14.623  25.353  49.975  1.00  0.00    -0.000 C 
BRANCH  13  14
ATOM     14  C   UNL     1      14.244  26.662  49.264  1.00  0.00    -0.000 C 
BRANCH  14  15
ATOM     15  C   UNL     1      15.460  27.570  49.010  1.00  0.00    -0.000 C 
BRANCH  15  16
ATOM     16  C   UNL     1      16.401  27.659  50.226  1.00  0.00    -0.000 C 
BRANCH  16  17
ATOM     17  C   UNL     1      16.161  28.867  51.154  1.00  0.00    -0.000 C 
BRANCH  17  18
ATOM     18  C   UNL     1      14.680  29.188  51.442  1.00  0.00    -0.000 C 
BRANCH  18  19
ATOM     19  C   UNL     1      14.241  30.612  51.060  1.00  0.00    -0.003 C 
ATOM     20  C   UNL     1      15.416  31.578  50.916  1.00  0.00     0.004 C 
ENDBRANCH  18  19
ENDBRANCH  17  18
ENDBRANCH  16  17
ENDBRANCH  15  16
ENDBRANCH  14  15
ENDBRANCH  13  14
ENDBRANCH  12  13
ENDBRANCH   1  12
TORSDOF 16
ENDMDL
MODEL 5
REMARK VINA RESULT:    -4.175      2.813      4.269
REMARK INTER + INTRA:         -10.674
REMARK INTER:                  -7.684
REMARK INTRA:                  -2.990
REMARK UNBOUND:                -2.594
REMARK SMILES CCCCCCCCCCCCCCCCCC(=O)[O-]
REMARK SMILES IDX 10 1 11 2 12 3 13 4 14 5 15 6 16 7 17 8 18 9 19 10 20 11
REMARK SMILES IDX 9 12 8 13 7 14 6 15 5 16 4 17 3 18 2 19 1 20
REMARK H PARENT
REMARK Flexibility Score: inf
ROOT
ATOM      1  C   UNL     1      15.680  24.611  53.624  1.00  0.00     0.000 C 
ENDROOT
BRANCH   1   2
ATOM      2  C   UNL     1      15.520  26.139  53.520  1.00  0.00     0.000 C 
BRANCH   2   3
ATOM      3  C   UNL     1      15.952  26.872  54.801  1.00  0.00     0.000 C 
BRANCH   3   4
ATOM      4  C   UNL     1      16.475  28.307  54.589  1.00  0.00     0.000 C 
BRANCH   4   5
ATOM      5  C   UNL     1      17.524  28.428  53.463  1.00  0.00     0.000 C 
BRANCH   5   6
ATOM      6  C   UNL     1      16.964  29.135  52.218  1.00  0.00     0.000 C 
BRANCH   6   7
ATOM      7  C   UNL     1      15.637  29.836  52.534  1.00  0.00     0.006 C 
BRANCH   7   8
ATOM      8  C   UNL     1      14.643  29.670  51.381  1.00  0.00     0.053 C 
BRANCH   8   9
ATOM      9  C   UNL     1      14.904  30.686  50.315  1.00  0.00     0.041 C 
ATOM     10  O   UNL     1      14.699  30.404  49.106  1.00  0.00    -0.550 OA
ATOM     11  O   UNL     1      15.421  31.930  50.653  1.00  0.00    -0.550 OA
ENDBRANCH   8   9
ENDBRANCH   7   8
ENDBRANCH   6   7
ENDBRANCH   5   6
ENDBRANCH   4   5
ENDBRANCH   3   4
ENDBRANCH   2   3
ENDBRANCH   1   2
BRANCH   1  12
ATOM     12  C   UNL     1      15.261  23.883  52.337  1.00  0.00     0.000 C 
BRANCH  12  13
ATOM     13  C   UNL     1      14.021  24.512  51.677  1.00  0.00    -0.000 C 
BRANCH  13  14
ATOM     14  C   UNL     1      14.228  24.790  50.179  1.00  0.00    -0.000 C 
BRANCH  14  15
ATOM     15  C   UNL     1      14.534  26.270  49.890  1.00  0.00    -0.000 C 
BRANCH  15  16
ATOM     16  C   UNL     1      16.044  26.562  49.811  1.00  0.00    -0.000 C 
BRANCH  16  17
ATOM     17  C   UNL     1      16.903  25.419  49.232  1.00  0.00    -0.000 C 
BRANCH  17  18
ATOM     18  C   UNL     1      17.983  24.865  50.184  1.00  0.00    -0.000 C 
BRANCH  18  19
ATOM     19  C   UNL     1      18.552  25.889  51.181  1.00  0.00    -0.003 C 
ATOM     20  C   UNL     1      19.195  25.235  52.403  1.00  0.00     0.004 C 
ENDBRANCH  18  19
ENDBRANCH  17  18
ENDBRANCH  16  17
ENDBRANCH  15  16
ENDBRANCH  14  15
ENDBRANCH  13  14
ENDBRANCH  12  13
ENDBRANCH   1  12
TORSDOF 16
ENDMDL
MODEL 6
REMARK VINA RESULT:    -4.167      2.483      5.446
REMARK INTER + INTRA:         -10.659
REMARK INTER:                  -8.948
REMARK INTRA:                  -1.711
REMARK UNBOUND:                -2.594
REMARK SMILES CCCCCCCCCCCCCCCCCC(=O)[O-]
REMARK SMILES IDX 10 1 11 2 12 3 13 4 14 5 15 6 16 7 17 8 18 9 19 10 20 11
REMARK SMILES IDX 9 12 8 13 7 14 6 15 5 16 4 17 3 18 2 19 1 20
REMARK H PARENT
REMARK Flexibility Score: inf
ROOT
ATOM      1  C   UNL     1      14.650  24.794  52.214  1.00  0.00     0.000 C 
ENDROOT
BRANCH   1   2
ATOM      2  C   UNL     1      14.009  26.152  51.877  1.00  0.00     0.000 C 
BRANCH   2   3
ATOM      3  C   UNL     1      14.639  26.819  50.642  1.00  0.00     0.000 C 
BRANCH   3   4
ATOM      4  C   UNL     1      15.985  27.526  50.895  1.00  0.00     0.000 C 
BRANCH   4   5
ATOM      5  C   UNL     1      15.908  29.065  50.807  1.00  0.00     0.000 C 
BRANCH   5   6
ATOM      6  C   UNL     1      14.996  29.537  49.663  1.00  0.00     0.000 C 
BRANCH   6   7
ATOM      7  C   UNL     1      14.655  31.025  49.809  1.00  0.00     0.006 C 
BRANCH   7   8
ATOM      8  C   UNL     1      15.136  31.567  51.158  1.00  0.00     0.053 C 
BRANCH   8   9
ATOM      9  C   UNL     1      15.344  33.046  51.084  1.00  0.00     0.041 C 
ATOM     10  O   UNL     1      16.239  33.524  50.338  1.00  0.00    -0.550 OA
ATOM     11  O   UNL     1      14.582  33.896  51.875  1.00  0.00    -0.550 OA
ENDBRANCH   8   9
ENDBRANCH   7   8
ENDBRANCH   6   7
ENDBRANCH   5   6
ENDBRANCH   4   5
ENDBRANCH   3   4
ENDBRANCH   2   3
ENDBRANCH   1   2
BRANCH   1  12
ATOM     12  C   UNL     1      15.737  24.904  53.295  1.00  0.00     0.000 C 
BRANCH  12  13
ATOM     13  C   UNL     1      15.396  25.946  54.374  1.00  0.00    -0.000 C 
BRANCH  13  14
ATOM     14  C   UNL     1      16.515  26.983  54.567  1.00  0.00    -0.000 C 
BRANCH  14  15
ATOM     15  C   UNL     1      16.024  28.258  55.275  1.00  0.00    -0.000 C 
BRANCH  15  16
ATOM     16  C   UNL     1      16.151  29.515  54.394  1.00  0.00    -0.000 C 
BRANCH  16  17
ATOM     17  C   UNL     1      16.697  30.765  55.112  1.00  0.00    -0.000 C 
BRANCH  17  18
ATOM     18  C   UNL     1      16.625  30.721  56.652  1.00  0.00    -0.000 C 
BRANCH  18  19
ATOM     19  C   UNL     1      16.091  32.004  57.312  1.00  0.00    -0.003 C 
ATOM     20  C   UNL     1      14.756  32.461  56.728  1.00  0.00     0.004 C 
ENDBRANCH  18  19
ENDBRANCH  17  18
ENDBRANCH  16  17
ENDBRANCH  15  16
ENDBRANCH  14  15
ENDBRANCH  13  14
ENDBRANCH  12  13
ENDBRANCH   1  12
TORSDOF 16
ENDMDL
MODEL 7
REMARK VINA RESULT:    -4.095      2.378      5.156
REMARK INTER + INTRA:         -10.519
REMARK INTER:                  -7.733
REMARK INTRA:                  -2.785
REMARK UNBOUND:                -2.594
REMARK SMILES CCCCCCCCCCCCCCCCCC(=O)[O-]
REMARK SMILES IDX 10 1 11 2 12 3 13 4 14 5 15 6 16 7 17 8 18 9 19 10 20 11
REMARK SMILES IDX 9 12 8 13 7 14 6 15 5 16 4 17 3 18 2 19 1 20
REMARK H PARENT
REMARK Flexibility Score: inf
ROOT
ATOM      1  C   UNL     1      16.427  26.545  54.241  1.00  0.00     0.000 C 
ENDROOT
BRANCH   1   2
ATOM      2  C   UNL     1      15.779  25.284  53.641  1.00  0.00     0.000 C 
BRANCH   2   3
ATOM      3  C   UNL     1      14.881  25.594  52.431  1.00  0.00     0.000 C 
BRANCH   3   4
ATOM      4  C   UNL     1      15.027  27.016  51.854  1.00  0.00     0.000 C 
BRANCH   4   5
ATOM      5  C   UNL     1      15.291  27.048  50.334  1.00  0.00     0.000 C 
BRANCH   5   6
ATOM      6  C   UNL     1      15.453  28.481  49.801  1.00  0.00     0.000 C 
BRANCH   6   7
ATOM      7  C   UNL     1      15.011  29.511  50.848  1.00  0.00     0.006 C 
BRANCH   7   8
ATOM      8  C   UNL     1      14.998  30.923  50.256  1.00  0.00     0.053 C 
BRANCH   8   9
ATOM      9  C   UNL     1      15.043  31.947  51.346  1.00  0.00     0.041 C 
ATOM     10  O   UNL     1      16.101  32.125  52.005  1.00  0.00    -0.550 OA
ATOM     11  O   UNL     1      13.902  32.672  51.665  1.00  0.00    -0.550 OA
ENDBRANCH   8   9
ENDBRANCH   7   8
ENDBRANCH   6   7
ENDBRANCH   5   6
ENDBRANCH   4   5
ENDBRANCH   3   4
ENDBRANCH   2   3
ENDBRANCH   1   2
BRANCH   1  12
ATOM     12  C   UNL     1      15.519  27.249  55.261  1.00  0.00     0.000 C 
BRANCH  12  13
ATOM     13  C   UNL     1      15.958  28.696  55.546  1.00  0.00    -0.000 C 
BRANCH  13  14
ATOM     14  C   UNL     1      16.484  29.411  54.290  1.00  0.00    -0.000 C 
BRANCH  14  15
ATOM     15  C   UNL     1      17.901  29.978  54.484  1.00  0.00    -0.000 C 
BRANCH  15  16
ATOM     16  C   UNL     1      18.797  29.778  53.247  1.00  0.00    -0.000 C 
BRANCH  16  17
ATOM     17  C   UNL     1      18.320  28.693  52.261  1.00  0.00    -0.000 C 
BRANCH  17  18
ATOM     18  C   UNL     1      19.321  27.545  52.015  1.00  0.00    -0.000 C 
BRANCH  18  19
ATOM     19  C   UNL     1      18.895  26.537  50.934  1.00  0.00    -0.003 C 
ATOM     20  C   UNL     1      18.727  25.119  51.476  1.00  0.00     0.004 C 
ENDBRANCH  18  19
ENDBRANCH  17  18
ENDBRANCH  16  17
ENDBRANCH  15  16
ENDBRANCH  14  15
ENDBRANCH  13  14
ENDBRANCH  12  13
ENDBRANCH   1  12
TORSDOF 16
ENDMDL
MODEL 8
REMARK VINA RESULT:    -4.075      2.377      4.693
REMARK INTER + INTRA:         -10.480
REMARK INTER:                  -7.716
REMARK INTRA:                  -2.764
REMARK UNBOUND:                -2.594
REMARK SMILES CCCCCCCCCCCCCCCCCC(=O)[O-]
REMARK SMILES IDX 10 1 11 2 12 3 13 4 14 5 15 6 16 7 17 8 18 9 19 10 20 11
REMARK SMILES IDX 9 12 8 13 7 14 6 15 5 16 4 17 3 18 2 19 1 20
REMARK H PARENT
REMARK Flexibility Score: inf
ROOT
ATOM      1  C   UNL     1      15.299  24.868  51.635  1.00  0.00     0.000 C 
ENDROOT
BRANCH   1   2
ATOM      2  C   UNL     1      14.636  25.141  50.273  1.00  0.00     0.000 C 
BRANCH   2   3
ATOM      3  C   UNL     1      14.336  26.632  50.044  1.00  0.00     0.000 C 
BRANCH   3   4
ATOM      4  C   UNL     1      15.533  27.474  49.560  1.00  0.00     0.000 C 
BRANCH   4   5
ATOM      5  C   UNL     1      15.389  28.984  49.844  1.00  0.00     0.000 C 
BRANCH   5   6
ATOM      6  C   UNL     1      14.732  29.259  51.207  1.00  0.00     0.000 C 
BRANCH   6   7
ATOM      7  C   UNL     1      14.396  30.747  51.365  1.00  0.00     0.006 C 
BRANCH   7   8
ATOM      8  C   UNL     1      15.662  31.570  51.620  1.00  0.00     0.053 C 
BRANCH   8   9
ATOM      9  C   UNL     1      15.418  33.014  51.311  1.00  0.00     0.041 C 
ATOM     10  O   UNL     1      16.256  33.668  50.637  1.00  0.00    -0.550 OA
ATOM     11  O   UNL     1      14.289  33.650  51.811  1.00  0.00    -0.550 OA
ENDBRANCH   8   9
ENDBRANCH   7   8
ENDBRANCH   6   7
ENDBRANCH   5   6
ENDBRANCH   4   5
ENDBRANCH   3   4
ENDBRANCH   2   3
ENDBRANCH   1   2
BRANCH   1  12
ATOM     12  C   UNL     1      14.718  25.738  52.761  1.00  0.00     0.000 C 
BRANCH  12  13
ATOM     13  C   UNL     1      15.725  25.986  53.897  1.00  0.00    -0.000 C 
BRANCH  13  14
ATOM     14  C   UNL     1      17.114  25.400  53.593  1.00  0.00    -0.000 C 
BRANCH  14  15
ATOM     15  C   UNL     1      18.205  26.481  53.502  1.00  0.00    -0.000 C 
BRANCH  15  16
ATOM     16  C   UNL     1      18.080  27.347  52.234  1.00  0.00    -0.000 C 
BRANCH  16  17
ATOM     17  C   UNL     1      18.053  28.869  52.480  1.00  0.00    -0.000 C 
BRANCH  17  18
ATOM     18  C   UNL     1      18.401  29.307  53.917  1.00  0.00    -0.000 C 
BRANCH  18  19
ATOM     19  C   UNL     1      17.332  30.173  54.605  1.00  0.00    -0.003 C 
ATOM     20  C   UNL     1      16.106  29.372  55.040  1.00  0.00     0.004 C 
ENDBRANCH  18  19
ENDBRANCH  17  18
ENDBRANCH  16  17
ENDBRANCH  15  16
ENDBRANCH  14  15
ENDBRANCH  13  14
ENDBRANCH  12  13
ENDBRANCH   1  12
TORSDOF 16
ENDMDL
