MODEL 1
REMARK VINA RESULT:    23.030      0.000      0.000
REMARK INTER + INTRA:          58.878
REMARK INTER:                  60.729
REMARK INTRA:                  -1.851
REMARK UNBOUND:                -1.851
REMARK SMILES CCCCCCCCCCCCCCCCCCCCCCCCCCCCCC(=O)[O-]
REMARK SMILES IDX 16 1 17 2 18 3 19 4 20 5 21 6 22 7 23 8 24 9 25 10 26 11
REMARK SMILES IDX 27 12 28 13 29 14 30 15 31 16 32 17 15 18 14 19 13 20 12 21
REMARK SMILES IDX 11 22 10 23 9 24 8 25 7 26 6 27 5 28 4 29 3 30 2 31 1 32
REMARK H PARENT
REMARK Flexibility Score: inf
ROOT
ATOM      1  C   UNL     1      60.232 135.464  -5.717  1.00  0.00     0.000 C 
ENDROOT
BRANCH   1   2
ATOM      2  C   UNL     1      59.025 135.757  -4.810  1.00  0.00     0.000 C 
BRANCH   2   3
ATOM      3  C   UNL     1      57.983 136.668  -5.484  1.00  0.00     0.000 C 
BRANCH   3   4
ATOM      4  C   UNL     1      57.809 138.049  -4.827  1.00  0.00     0.000 C 
BRANCH   4   5
ATOM      5  C   UNL     1      57.213 137.968  -3.412  1.00  0.00     0.000 C 
BRANCH   5   6
ATOM      6  C   UNL     1      55.961 138.844  -3.288  1.00  0.00     0.000 C 
BRANCH   6   7
ATOM      7  C   UNL     1      55.830 139.417  -1.869  1.00  0.00     0.000 C 
BRANCH   7   8
ATOM      8  C   UNL     1      55.839 140.955  -1.847  1.00  0.00     0.000 C 
BRANCH   8   9
ATOM      9  C   UNL     1      55.253 141.526  -0.544  1.00  0.00     0.000 C 
BRANCH   9  10
ATOM     10  C   UNL     1      54.203 140.601   0.100  1.00  0.00     0.000 C 
BRANCH  10  11
ATOM     11  C   UNL     1      53.288 141.272   1.141  1.00  0.00     0.000 C 
BRANCH  11  12
ATOM     12  C   UNL     1      52.193 140.335   1.673  1.00  0.00     0.000 C 
BRANCH  12  13
ATOM     13  C   UNL     1      51.819 139.274   0.631  1.00  0.00     0.006 C 
BRANCH  13  14
ATOM     14  C   UNL     1      50.938 138.184   1.248  1.00  0.00     0.053 C 
BRANCH  14  15
ATOM     15  C   UNL     1      50.282 137.367   0.180  1.00  0.00     0.041 C 
ATOM     16  O   UNL     1      50.351 137.727  -1.026  1.00  0.00    -0.550 OA
ATOM     17  O   UNL     1      49.620 136.189   0.510  1.00  0.00    -0.550 OA
ENDBRANCH  14  15
ENDBRANCH  13  14
ENDBRANCH  12  13
ENDBRANCH  11  12
ENDBRANCH  10  11
ENDBRANCH   9  10
ENDBRANCH   8   9
ENDBRANCH   7   8
ENDBRANCH   6   7
ENDBRANCH   5   6
ENDBRANCH   4   5
ENDBRANCH   3   4
ENDBRANCH   2   3
ENDBRANCH   1   2
BRANCH   1  18
ATOM     18  C   UNL     1      60.681 133.995  -5.652  1.00  0.00     0.000 C 
BRANCH  18  19
ATOM     19  C   UNL     1      61.225 133.479  -6.994  1.00  0.00     0.000 C 
BRANCH  19  20
ATOM     20  C   UNL     1      61.778 132.053  -6.854  1.00  0.00     0.000 C 
BRANCH  20  21
ATOM     21  C   UNL     1      62.821 131.707  -7.933  1.00  0.00     0.000 C 
BRANCH  21  22
ATOM     22  C   UNL     1      63.107 130.201  -8.109  1.00  0.00     0.000 C 
BRANCH  22  23
ATOM     23  C   UNL     1      63.667 129.493  -6.863  1.00  0.00     0.000 C 
BRANCH  23  24
ATOM     24  C   UNL     1      63.141 128.058  -6.708  1.00  0.00    -0.000 C 
BRANCH  24  25
ATOM     25  C   UNL     1      61.804 127.879  -7.441  1.00  0.00    -0.000 C 
BRANCH  25  26
ATOM     26  C   UNL     1      60.646 128.640  -6.767  1.00  0.00    -0.000 C 
BRANCH  26  27
ATOM     27  C   UNL     1      59.941 127.877  -5.630  1.00  0.00    -0.000 C 
BRANCH  27  28
ATOM     28  C   UNL     1      60.027 128.542  -4.243  1.00  0.00    -0.000 C 
BRANCH  28  29
ATOM     29  C   UNL     1      60.701 129.930  -4.256  1.00  0.00    -0.000 C 
BRANCH  29  30
ATOM     30  C   UNL     1      60.390 130.752  -2.992  1.00  0.00    -0.000 C 
BRANCH  30  31
ATOM     31  C   UNL     1      59.172 130.212  -2.226  1.00  0.00    -0.003 C 
ATOM     32  C   UNL     1      58.150 131.298  -1.892  1.00  0.00     0.004 C 
ENDBRANCH  30  31
ENDBRANCH  29  30
ENDBRANCH  28  29
ENDBRANCH  27  28
ENDBRANCH  26  27
ENDBRANCH  25  26
ENDBRANCH  24  25
ENDBRANCH  23  24
ENDBRANCH  22  23
ENDBRANCH  21  22
ENDBRANCH  20  21
ENDBRANCH  19  20
ENDBRANCH  18  19
ENDBRANCH   1  18
TORSDOF 28
ENDMDL
MODEL 2
REMARK VINA RESULT:    23.407      2.118      4.173
REMARK INTER + INTRA:          59.869
REMARK INTER:                  60.107
REMARK INTRA:                  -0.238
REMARK UNBOUND:                -1.851
REMARK SMILES CCCCCCCCCCCCCCCCCCCCCCCCCCCCCC(=O)[O-]
REMARK SMILES IDX 16 1 17 2 18 3 19 4 20 5 21 6 22 7 23 8 24 9 25 10 26 11
REMARK SMILES IDX 27 12 28 13 29 14 30 15 31 16 32 17 15 18 14 19 13 20 12 21
REMARK SMILES IDX 11 22 10 23 9 24 8 25 7 26 6 27 5 28 4 29 3 30 2 31 1 32
REMARK H PARENT
REMARK Flexibility Score: inf
ROOT
ATOM      1  C   UNL     1      56.762 136.963  -3.883  1.00  0.00     0.000 C 
ENDROOT
BRANCH   1   2
ATOM      2  C   UNL     1      56.627 138.488  -4.028  1.00  0.00     0.000 C 
BRANCH   2   3
ATOM      3  C   UNL     1      56.745 139.227  -2.683  1.00  0.00     0.000 C 
BRANCH   3   4
ATOM      4  C   UNL     1      56.652 140.760  -2.775  1.00  0.00     0.000 C 
BRANCH   4   5
ATOM      5  C   UNL     1      55.805 141.377  -1.649  1.00  0.00     0.000 C 
BRANCH   5   6
ATOM      6  C   UNL     1      55.999 140.617  -0.332  1.00  0.00     0.000 C 
BRANCH   6   7
ATOM      7  C   UNL     1      55.086 141.179   0.767  1.00  0.00     0.000 C 
BRANCH   7   8
ATOM      8  C   UNL     1      53.815 141.837   0.205  1.00  0.00     0.000 C 
BRANCH   8   9
ATOM      9  C   UNL     1      52.566 140.959   0.398  1.00  0.00     0.000 C 
BRANCH   9  10
ATOM     10  C   UNL     1      52.861 139.651   1.155  1.00  0.00     0.000 C 
BRANCH  10  11
ATOM     11  C   UNL     1      51.855 138.511   0.911  1.00  0.00     0.000 C 
BRANCH  11  12
ATOM     12  C   UNL     1      50.534 138.995   0.295  1.00  0.00     0.000 C 
BRANCH  12  13
ATOM     13  C   UNL     1      49.671 137.811  -0.159  1.00  0.00     0.006 C 
BRANCH  13  14
ATOM     14  C   UNL     1      49.636 136.714   0.908  1.00  0.00     0.053 C 
BRANCH  14  15
ATOM     15  C   UNL     1      48.836 135.542   0.436  1.00  0.00     0.041 C 
ATOM     16  O   UNL     1      49.286 134.372   0.567  1.00  0.00    -0.550 OA
ATOM     17  O   UNL     1      47.576 135.737  -0.121  1.00  0.00    -0.550 OA
ENDBRANCH  14  15
ENDBRANCH  13  14
ENDBRANCH  12  13
ENDBRANCH  11  12
ENDBRANCH  10  11
ENDBRANCH   9  10
ENDBRANCH   8   9
ENDBRANCH   7   8
ENDBRANCH   6   7
ENDBRANCH   5   6
ENDBRANCH   4   5
ENDBRANCH   3   4
ENDBRANCH   2   3
ENDBRANCH   1   2
BRANCH   1  18
ATOM     18  C   UNL     1      58.207 136.520  -3.599  1.00  0.00     0.000 C 
BRANCH  18  19
ATOM     19  C   UNL     1      59.079 136.486  -4.864  1.00  0.00     0.000 C 
BRANCH  19  20
ATOM     20  C   UNL     1      59.709 135.100  -5.064  1.00  0.00     0.000 C 
BRANCH  20  21
ATOM     21  C   UNL     1      61.143 135.170  -5.623  1.00  0.00     0.000 C 
BRANCH  21  22
ATOM     22  C   UNL     1      62.233 134.575  -4.708  1.00  0.00     0.000 C 
BRANCH  22  23
ATOM     23  C   UNL     1      62.239 133.039  -4.613  1.00  0.00     0.000 C 
BRANCH  23  24
ATOM     24  C   UNL     1      61.969 132.359  -5.963  1.00  0.00    -0.000 C 
BRANCH  24  25
ATOM     25  C   UNL     1      62.128 130.835  -5.855  1.00  0.00    -0.000 C 
BRANCH  25  26
ATOM     26  C   UNL     1      61.880 130.111  -7.193  1.00  0.00    -0.000 C 
BRANCH  26  27
ATOM     27  C   UNL     1      63.114 129.999  -8.108  1.00  0.00    -0.000 C 
BRANCH  27  28
ATOM     28  C   UNL     1      64.403 129.516  -7.416  1.00  0.00    -0.000 C 
BRANCH  28  29
ATOM     29  C   UNL     1      64.955 130.504  -6.366  1.00  0.00    -0.000 C 
BRANCH  29  30
ATOM     30  C   UNL     1      65.866 129.819  -5.330  1.00  0.00    -0.000 C 
BRANCH  30  31
ATOM     31  C   UNL     1      65.671 128.295  -5.294  1.00  0.00    -0.003 C 
ATOM     32  C   UNL     1      64.199 127.885  -5.280  1.00  0.00     0.004 C 
ENDBRANCH  30  31
ENDBRANCH  29  30
ENDBRANCH  28  29
ENDBRANCH  27  28
ENDBRANCH  26  27
ENDBRANCH  25  26
ENDBRANCH  24  25
ENDBRANCH  23  24
ENDBRANCH  22  23
ENDBRANCH  21  22
ENDBRANCH  20  21
ENDBRANCH  19  20
ENDBRANCH  18  19
ENDBRANCH   1  18
TORSDOF 28
ENDMDL
MODEL 3
REMARK VINA RESULT:    23.825      1.902      4.324
REMARK INTER + INTRA:          60.974
REMARK INTER:                  61.880
REMARK INTRA:                  -0.907
REMARK UNBOUND:                -1.851
REMARK SMILES CCCCCCCCCCCCCCCCCCCCCCCCCCCCCC(=O)[O-]
REMARK SMILES IDX 16 1 17 2 18 3 19 4 20 5 21 6 22 7 23 8 24 9 25 10 26 11
REMARK SMILES IDX 27 12 28 13 29 14 30 15 31 16 32 17 15 18 14 19 13 20 12 21
REMARK SMILES IDX 11 22 10 23 9 24 8 25 7 26 6 27 5 28 4 29 3 30 2 31 1 32
REMARK H PARENT
REMARK Flexibility Score: inf
ROOT
ATOM      1  C   UNL     1      56.233 136.971  -3.805  1.00  0.00     0.000 C 
ENDROOT
BRANCH   1   2
ATOM      2  C   UNL     1      56.307 138.504  -3.716  1.00  0.00     0.000 C 
BRANCH   2   3
ATOM      3  C   UNL     1      56.653 139.001  -2.300  1.00  0.00     0.000 C 
BRANCH   3   4
ATOM      4  C   UNL     1      56.720 140.531  -2.149  1.00  0.00     0.000 C 
BRANCH   4   5
ATOM      5  C   UNL     1      56.297 141.013  -0.752  1.00  0.00     0.000 C 
BRANCH   5   6
ATOM      6  C   UNL     1      54.831 141.464  -0.742  1.00  0.00     0.000 C 
BRANCH   6   7
ATOM      7  C   UNL     1      53.979 140.545   0.146  1.00  0.00     0.000 C 
BRANCH   7   8
ATOM      8  C   UNL     1      54.087 139.064  -0.255  1.00  0.00     0.000 C 
BRANCH   8   9
ATOM      9  C   UNL     1      53.208 138.155   0.621  1.00  0.00     0.000 C 
BRANCH   9  10
ATOM     10  C   UNL     1      52.570 138.897   1.809  1.00  0.00     0.000 C 
BRANCH  10  11
ATOM     11  C   UNL     1      51.098 139.305   1.613  1.00  0.00     0.000 C 
BRANCH  11  12
ATOM     12  C   UNL     1      50.634 139.210   0.152  1.00  0.00     0.000 C 
BRANCH  12  13
ATOM     13  C   UNL     1      50.296 137.764  -0.227  1.00  0.00     0.006 C 
BRANCH  13  14
ATOM     14  C   UNL     1      49.760 136.990   0.981  1.00  0.00     0.053 C 
BRANCH  14  15
ATOM     15  C   UNL     1      48.737 135.985   0.554  1.00  0.00     0.041 C 
ATOM     16  O   UNL     1      47.518 136.299   0.513  1.00  0.00    -0.550 OA
ATOM     17  O   UNL     1      49.133 134.708   0.169  1.00  0.00    -0.550 OA
ENDBRANCH  14  15
ENDBRANCH  13  14
ENDBRANCH  12  13
ENDBRANCH  11  12
ENDBRANCH  10  11
ENDBRANCH   9  10
ENDBRANCH   8   9
ENDBRANCH   7   8
ENDBRANCH   6   7
ENDBRANCH   5   6
ENDBRANCH   4   5
ENDBRANCH   3   4
ENDBRANCH   2   3
ENDBRANCH   1   2
BRANCH   1  18
ATOM     18  C   UNL     1      57.378 136.276  -3.050  1.00  0.00     0.000 C 
BRANCH  18  19
ATOM     19  C   UNL     1      57.673 134.865  -3.583  1.00  0.00     0.000 C 
BRANCH  19  20
ATOM     20  C   UNL     1      57.447 133.805  -2.496  1.00  0.00     0.000 C 
BRANCH  20  21
ATOM     21  C   UNL     1      57.937 132.406  -2.914  1.00  0.00     0.000 C 
BRANCH  21  22
ATOM     22  C   UNL     1      59.437 132.138  -2.675  1.00  0.00     0.000 C 
BRANCH  22  23
ATOM     23  C   UNL     1      59.867 130.666  -2.806  1.00  0.00     0.000 C 
BRANCH  23  24
ATOM     24  C   UNL     1      59.157 129.939  -3.957  1.00  0.00    -0.000 C 
BRANCH  24  25
ATOM     25  C   UNL     1      59.854 128.610  -4.284  1.00  0.00    -0.000 C 
BRANCH  25  26
ATOM     26  C   UNL     1      59.219 127.881  -5.484  1.00  0.00    -0.000 C 
BRANCH  26  27
ATOM     27  C   UNL     1      59.866 128.189  -6.847  1.00  0.00    -0.000 C 
BRANCH  27  28
ATOM     28  C   UNL     1      61.372 127.875  -6.944  1.00  0.00    -0.000 C 
BRANCH  28  29
ATOM     29  C   UNL     1      62.281 129.102  -6.722  1.00  0.00    -0.000 C 
BRANCH  29  30
ATOM     30  C   UNL     1      63.737 128.847  -7.153  1.00  0.00    -0.000 C 
BRANCH  30  31
ATOM     31  C   UNL     1      64.753 129.502  -6.204  1.00  0.00    -0.003 C 
ATOM     32  C   UNL     1      64.090 130.348  -5.116  1.00  0.00     0.004 C 
ENDBRANCH  30  31
ENDBRANCH  29  30
ENDBRANCH  28  29
ENDBRANCH  27  28
ENDBRANCH  26  27
ENDBRANCH  25  26
ENDBRANCH  24  25
ENDBRANCH  23  24
ENDBRANCH  22  23
ENDBRANCH  21  22
ENDBRANCH  20  21
ENDBRANCH  19  20
ENDBRANCH  18  19
ENDBRANCH   1  18
TORSDOF 28
ENDMDL
MODEL 4
REMARK VINA RESULT:    24.185      4.684     13.310
REMARK INTER + INTRA:          61.922
REMARK INTER:                  60.997
REMARK INTRA:                   0.925
REMARK UNBOUND:                -1.851
REMARK SMILES CCCCCCCCCCCCCCCCCCCCCCCCCCCCCC(=O)[O-]
REMARK SMILES IDX 16 1 17 2 18 3 19 4 20 5 21 6 22 7 23 8 24 9 25 10 26 11
REMARK SMILES IDX 27 12 28 13 29 14 30 15 31 16 32 17 15 18 14 19 13 20 12 21
REMARK SMILES IDX 11 22 10 23 9 24 8 25 7 26 6 27 5 28 4 29 3 30 2 31 1 32
REMARK H PARENT
REMARK Flexibility Score: inf
ROOT
ATOM      1  C   UNL     1      57.230 135.477  -3.482  1.00  0.00     0.000 C 
ENDROOT
BRANCH   1   2
ATOM      2  C   UNL     1      58.195 134.970  -4.566  1.00  0.00     0.000 C 
BRANCH   2   3
ATOM      3  C   UNL     1      58.578 133.491  -4.377  1.00  0.00     0.000 C 
BRANCH   3   4
ATOM      4  C   UNL     1      57.421 132.572  -3.946  1.00  0.00     0.000 C 
BRANCH   4   5
ATOM      5  C   UNL     1      57.791 131.657  -2.767  1.00  0.00     0.000 C 
BRANCH   5   6
ATOM      6  C   UNL     1      59.212 131.104  -2.922  1.00  0.00     0.000 C 
BRANCH   6   7
ATOM      7  C   UNL     1      59.313 129.680  -2.355  1.00  0.00     0.000 C 
BRANCH   7   8
ATOM      8  C   UNL     1      60.290 128.793  -3.144  1.00  0.00     0.000 C 
BRANCH   8   9
ATOM      9  C   UNL     1      59.780 128.479  -4.562  1.00  0.00     0.000 C 
BRANCH   9  10
ATOM     10  C   UNL     1      60.918 128.268  -5.578  1.00  0.00     0.000 C 
BRANCH  10  11
ATOM     11  C   UNL     1      60.465 127.902  -7.003  1.00  0.00     0.000 C 
BRANCH  11  12
ATOM     12  C   UNL     1      61.288 128.601  -8.096  1.00  0.00     0.000 C 
BRANCH  12  13
ATOM     13  C   UNL     1      62.670 129.008  -7.570  1.00  0.00     0.006 C 
BRANCH  13  14
ATOM     14  C   UNL     1      62.892 128.489  -6.146  1.00  0.00     0.053 C 
BRANCH  14  15
ATOM     15  C   UNL     1      64.353 128.368  -5.850  1.00  0.00     0.041 C 
ATOM     16  O   UNL     1      64.798 128.685  -4.714  1.00  0.00    -0.550 OA
ATOM     17  O   UNL     1      65.223 127.877  -6.817  1.00  0.00    -0.550 OA
ENDBRANCH  14  15
ENDBRANCH  13  14
ENDBRANCH  12  13
ENDBRANCH  11  12
ENDBRANCH  10  11
ENDBRANCH   9  10
ENDBRANCH   8   9
ENDBRANCH   7   8
ENDBRANCH   6   7
ENDBRANCH   5   6
ENDBRANCH   4   5
ENDBRANCH   3   4
ENDBRANCH   2   3
ENDBRANCH   1   2
BRANCH   1  18
ATOM     18  C   UNL     1      57.361 136.988  -3.229  1.00  0.00     0.000 C 
BRANCH  18  19
ATOM     19  C   UNL     1      56.688 137.835  -4.320  1.00  0.00     0.000 C 
BRANCH  19  20
ATOM     20  C   UNL     1      56.124 139.139  -3.739  1.00  0.00     0.000 C 
BRANCH  20  21
ATOM     21  C   UNL     1      56.910 139.635  -2.511  1.00  0.00     0.000 C 
BRANCH  21  22
ATOM     22  C   UNL     1      56.565 141.066  -2.046  1.00  0.00     0.000 C 
BRANCH  22  23
ATOM     23  C   UNL     1      55.862 141.157  -0.680  1.00  0.00     0.000 C 
BRANCH  23  24
ATOM     24  C   UNL     1      54.427 141.695  -0.785  1.00  0.00    -0.000 C 
BRANCH  24  25
ATOM     25  C   UNL     1      53.745 141.716   0.591  1.00  0.00    -0.000 C 
BRANCH  25  26
ATOM     26  C   UNL     1      52.516 140.789   0.662  1.00  0.00    -0.000 C 
BRANCH  26  27
ATOM     27  C   UNL     1      52.785 139.324   0.271  1.00  0.00    -0.000 C 
BRANCH  27  28
ATOM     28  C   UNL     1      52.456 138.283   1.359  1.00  0.00    -0.000 C 
BRANCH  28  29
ATOM     29  C   UNL     1      50.964 137.893   1.418  1.00  0.00    -0.000 C 
BRANCH  29  30
ATOM     30  C   UNL     1      50.251 138.069   0.064  1.00  0.00    -0.000 C 
BRANCH  30  31
ATOM     31  C   UNL     1      49.827 136.727  -0.554  1.00  0.00    -0.003 C 
ATOM     32  C   UNL     1      49.165 135.791   0.457  1.00  0.00     0.004 C 
ENDBRANCH  30  31
ENDBRANCH  29  30
ENDBRANCH  28  29
ENDBRANCH  27  28
ENDBRANCH  26  27
ENDBRANCH  25  26
ENDBRANCH  24  25
ENDBRANCH  23  24
ENDBRANCH  22  23
ENDBRANCH  21  22
ENDBRANCH  20  21
ENDBRANCH  19  20
ENDBRANCH  18  19
ENDBRANCH   1  18
TORSDOF 28
ENDMDL
MODEL 5
REMARK VINA RESULT:    25.394      1.735      4.188
REMARK INTER + INTRA:          65.110
REMARK INTER:                  65.524
REMARK INTRA:                  -0.414
REMARK UNBOUND:                -1.851
REMARK SMILES CCCCCCCCCCCCCCCCCCCCCCCCCCCCCC(=O)[O-]
REMARK SMILES IDX 16 1 17 2 18 3 19 4 20 5 21 6 22 7 23 8 24 9 25 10 26 11
REMARK SMILES IDX 27 12 28 13 29 14 30 15 31 16 32 17 15 18 14 19 13 20 12 21
REMARK SMILES IDX 11 22 10 23 9 24 8 25 7 26 6 27 5 28 4 29 3 30 2 31 1 32
REMARK H PARENT
REMARK Flexibility Score: inf
ROOT
ATOM      1  C   UNL     1      56.583 135.943  -2.838  1.00  0.00     0.000 C 
ENDROOT
BRANCH   1   2
ATOM      2  C   UNL     1      57.384 136.702  -3.909  1.00  0.00     0.000 C 
BRANCH   2   3
ATOM      3  C   UNL     1      56.712 138.021  -4.331  1.00  0.00     0.000 C 
BRANCH   3   4
ATOM      4  C   UNL     1      55.868 138.697  -3.235  1.00  0.00     0.000 C 
BRANCH   4   5
ATOM      5  C   UNL     1      56.586 138.754  -1.877  1.00  0.00     0.000 C 
BRANCH   5   6
ATOM      6  C   UNL     1      57.264 140.113  -1.666  1.00  0.00     0.000 C 
BRANCH   6   7
ATOM      7  C   UNL     1      56.511 141.225  -2.411  1.00  0.00     0.000 C 
BRANCH   7   8
ATOM      8  C   UNL     1      55.555 142.009  -1.497  1.00  0.00     0.000 C 
BRANCH   8   9
ATOM      9  C   UNL     1      54.531 141.097  -0.799  1.00  0.00     0.000 C 
BRANCH   9  10
ATOM     10  C   UNL     1      53.962 141.709   0.494  1.00  0.00     0.000 C 
BRANCH  10  11
ATOM     11  C   UNL     1      52.546 141.239   0.874  1.00  0.00     0.000 C 
BRANCH  11  12
ATOM     12  C   UNL     1      52.439 140.760   2.330  1.00  0.00     0.000 C 
BRANCH  12  13
ATOM     13  C   UNL     1      51.453 139.592   2.456  1.00  0.00     0.006 C 
BRANCH  13  14
ATOM     14  C   UNL     1      52.103 138.274   2.027  1.00  0.00     0.053 C 
BRANCH  14  15
ATOM     15  C   UNL     1      52.062 138.124   0.539  1.00  0.00     0.041 C 
ATOM     16  O   UNL     1      53.061 138.445  -0.159  1.00  0.00    -0.550 OA
ATOM     17  O   UNL     1      50.931 137.600  -0.078  1.00  0.00    -0.550 OA
ENDBRANCH  14  15
ENDBRANCH  13  14
ENDBRANCH  12  13
ENDBRANCH  11  12
ENDBRANCH  10  11
ENDBRANCH   9  10
ENDBRANCH   8   9
ENDBRANCH   7   8
ENDBRANCH   6   7
ENDBRANCH   5   6
ENDBRANCH   4   5
ENDBRANCH   3   4
ENDBRANCH   2   3
ENDBRANCH   1   2
BRANCH   1  18
ATOM     18  C   UNL     1      56.697 134.417  -2.982  1.00  0.00     0.000 C 
BRANCH  18  19
ATOM     19  C   UNL     1      57.881 133.987  -3.863  1.00  0.00     0.000 C 
BRANCH  19  20
ATOM     20  C   UNL     1      57.946 132.460  -3.996  1.00  0.00     0.000 C 
BRANCH  20  21
ATOM     21  C   UNL     1      57.637 131.730  -2.675  1.00  0.00     0.000 C 
BRANCH  21  22
ATOM     22  C   UNL     1      58.767 130.821  -2.149  1.00  0.00     0.000 C 
BRANCH  22  23
ATOM     23  C   UNL     1      59.515 130.018  -3.229  1.00  0.00     0.000 C 
BRANCH  23  24
ATOM     24  C   UNL     1      58.905 128.629  -3.467  1.00  0.00    -0.000 C 
BRANCH  24  25
ATOM     25  C   UNL     1      59.061 128.203  -4.934  1.00  0.00    -0.000 C 
BRANCH  25  26
ATOM     26  C   UNL     1      60.521 127.890  -5.314  1.00  0.00    -0.000 C 
BRANCH  26  27
ATOM     27  C   UNL     1      61.102 128.769  -6.438  1.00  0.00    -0.000 C 
BRANCH  27  28
ATOM     28  C   UNL     1      62.475 128.323  -6.976  1.00  0.00    -0.000 C 
BRANCH  28  29
ATOM     29  C   UNL     1      63.037 129.236  -8.086  1.00  0.00    -0.000 C 
BRANCH  29  30
ATOM     30  C   UNL     1      64.231 130.084  -7.608  1.00  0.00    -0.000 C 
BRANCH  30  31
ATOM     31  C   UNL     1      65.550 129.296  -7.617  1.00  0.00    -0.003 C 
ATOM     32  C   UNL     1      66.052 128.959  -6.214  1.00  0.00     0.004 C 
ENDBRANCH  30  31
ENDBRANCH  29  30
ENDBRANCH  28  29
ENDBRANCH  27  28
ENDBRANCH  26  27
ENDBRANCH  25  26
ENDBRANCH  24  25
ENDBRANCH  23  24
ENDBRANCH  22  23
ENDBRANCH  21  22
ENDBRANCH  20  21
ENDBRANCH  19  20
ENDBRANCH  18  19
ENDBRANCH   1  18
TORSDOF 28
ENDMDL
MODEL 6
REMARK VINA RESULT:    25.495      2.402     11.466
REMARK INTER + INTRA:          65.378
REMARK INTER:                  66.672
REMARK INTRA:                  -1.295
REMARK UNBOUND:                -1.851
REMARK SMILES CCCCCCCCCCCCCCCCCCCCCCCCCCCCCC(=O)[O-]
REMARK SMILES IDX 16 1 17 2 18 3 19 4 20 5 21 6 22 7 23 8 24 9 25 10 26 11
REMARK SMILES IDX 27 12 28 13 29 14 30 15 31 16 32 17 15 18 14 19 13 20 12 21
REMARK SMILES IDX 11 22 10 23 9 24 8 25 7 26 6 27 5 28 4 29 3 30 2 31 1 32
REMARK H PARENT
REMARK Flexibility Score: inf
ROOT
ATOM      1  C   UNL     1      59.872 135.177  -5.333  1.00  0.00     0.000 C 
ENDROOT
BRANCH   1   2
ATOM      2  C   UNL     1      61.265 134.766  -5.839  1.00  0.00     0.000 C 
BRANCH   2   3
ATOM      3  C   UNL     1      61.391 133.249  -6.067  1.00  0.00     0.000 C 
BRANCH   3   4
ATOM      4  C   UNL     1      61.454 132.819  -7.544  1.00  0.00     0.000 C 
BRANCH   4   5
ATOM      5  C   UNL     1      62.606 131.844  -7.834  1.00  0.00     0.000 C 
BRANCH   5   6
ATOM      6  C   UNL     1      62.090 130.410  -7.999  1.00  0.00     0.000 C 
BRANCH   6   7
ATOM      7  C   UNL     1      62.592 129.510  -6.859  1.00  0.00     0.000 C 
BRANCH   7   8
ATOM      8  C   UNL     1      61.550 128.467  -6.422  1.00  0.00     0.000 C 
BRANCH   8   9
ATOM      9  C   UNL     1      60.695 128.954  -5.239  1.00  0.00     0.000 C 
BRANCH   9  10
ATOM     10  C   UNL     1      60.954 130.427  -4.875  1.00  0.00     0.000 C 
BRANCH  10  11
ATOM     11  C   UNL     1      60.791 130.773  -3.383  1.00  0.00     0.000 C 
BRANCH  11  12
ATOM     12  C   UNL     1      59.788 129.863  -2.659  1.00  0.00     0.000 C 
BRANCH  12  13
ATOM     13  C   UNL     1      58.764 130.688  -1.870  1.00  0.00     0.006 C 
BRANCH  13  14
ATOM     14  C   UNL     1      57.345 130.453  -2.397  1.00  0.00     0.053 C 
BRANCH  14  15
ATOM     15  C   UNL     1      56.814 131.688  -3.054  1.00  0.00     0.041 C 
ATOM     16  O   UNL     1      57.479 132.757  -3.026  1.00  0.00    -0.550 OA
ATOM     17  O   UNL     1      55.596 131.652  -3.725  1.00  0.00    -0.550 OA
ENDBRANCH  14  15
ENDBRANCH  13  14
ENDBRANCH  12  13
ENDBRANCH  11  12
ENDBRANCH  10  11
ENDBRANCH   9  10
ENDBRANCH   8   9
ENDBRANCH   7   8
ENDBRANCH   6   7
ENDBRANCH   5   6
ENDBRANCH   4   5
ENDBRANCH   3   4
ENDBRANCH   2   3
ENDBRANCH   1   2
BRANCH   1  18
ATOM     18  C   UNL     1      59.586 136.674  -5.533  1.00  0.00     0.000 C 
BRANCH  18  19
ATOM     19  C   UNL     1      58.088 136.979  -5.691  1.00  0.00     0.000 C 
BRANCH  19  20
ATOM     20  C   UNL     1      57.416 137.172  -4.324  1.00  0.00     0.000 C 
BRANCH  20  21
ATOM     21  C   UNL     1      56.863 138.595  -4.125  1.00  0.00     0.000 C 
BRANCH  21  22
ATOM     22  C   UNL     1      56.663 139.021  -2.655  1.00  0.00     0.000 C 
BRANCH  22  23
ATOM     23  C   UNL     1      56.251 140.490  -2.451  1.00  0.00     0.000 C 
BRANCH  23  24
ATOM     24  C   UNL     1      55.972 140.830  -0.980  1.00  0.00    -0.000 C 
BRANCH  24  25
ATOM     25  C   UNL     1      54.476 141.094  -0.749  1.00  0.00    -0.000 C 
BRANCH  25  26
ATOM     26  C   UNL     1      53.923 140.358   0.486  1.00  0.00    -0.000 C 
BRANCH  26  27
ATOM     27  C   UNL     1      52.891 139.257   0.178  1.00  0.00    -0.000 C 
BRANCH  27  28
ATOM     28  C   UNL     1      51.893 138.958   1.313  1.00  0.00    -0.000 C 
BRANCH  28  29
ATOM     29  C   UNL     1      51.176 137.598   1.171  1.00  0.00    -0.000 C 
BRANCH  29  30
ATOM     30  C   UNL     1      49.952 137.668   0.238  1.00  0.00    -0.000 C 
BRANCH  30  31
ATOM     31  C   UNL     1      48.922 136.569   0.541  1.00  0.00    -0.003 C 
ATOM     32  C   UNL     1      49.442 135.165   0.233  1.00  0.00     0.004 C 
ENDBRANCH  30  31
ENDBRANCH  29  30
ENDBRANCH  28  29
ENDBRANCH  27  28
ENDBRANCH  26  27
ENDBRANCH  25  26
ENDBRANCH  24  25
ENDBRANCH  23  24
ENDBRANCH  22  23
ENDBRANCH  21  22
ENDBRANCH  20  21
ENDBRANCH  19  20
ENDBRANCH  18  19
ENDBRANCH   1  18
TORSDOF 28
ENDMDL
MODEL 7
REMARK VINA RESULT:    25.620      3.099     12.443
REMARK INTER + INTRA:          65.706
REMARK INTER:                  66.299
REMARK INTRA:                  -0.592
REMARK UNBOUND:                -1.851
REMARK SMILES CCCCCCCCCCCCCCCCCCCCCCCCCCCCCC(=O)[O-]
REMARK SMILES IDX 16 1 17 2 18 3 19 4 20 5 21 6 22 7 23 8 24 9 25 10 26 11
REMARK SMILES IDX 27 12 28 13 29 14 30 15 31 16 32 17 15 18 14 19 13 20 12 21
REMARK SMILES IDX 11 22 10 23 9 24 8 25 7 26 6 27 5 28 4 29 3 30 2 31 1 32
REMARK H PARENT
REMARK Flexibility Score: inf
ROOT
ATOM      1  C   UNL     1      56.496 137.791  -4.218  1.00  0.00     0.000 C 
ENDROOT
BRANCH   1   2
ATOM      2  C   UNL     1      57.370 136.544  -4.004  1.00  0.00     0.000 C 
BRANCH   2   3
ATOM      3  C   UNL     1      58.467 136.397  -5.074  1.00  0.00     0.000 C 
BRANCH   3   4
ATOM      4  C   UNL     1      59.806 135.841  -4.557  1.00  0.00     0.000 C 
BRANCH   4   5
ATOM      5  C   UNL     1      60.698 135.290  -5.681  1.00  0.00     0.000 C 
BRANCH   5   6
ATOM      6  C   UNL     1      60.465 133.788  -5.887  1.00  0.00     0.000 C 
BRANCH   6   7
ATOM      7  C   UNL     1      61.643 133.145  -6.632  1.00  0.00     0.000 C 
BRANCH   7   8
ATOM      8  C   UNL     1      61.263 131.820  -7.315  1.00  0.00     0.000 C 
BRANCH   8   9
ATOM      9  C   UNL     1      62.428 130.815  -7.331  1.00  0.00     0.000 C 
BRANCH   9  10
ATOM     10  C   UNL     1      62.409 129.851  -6.130  1.00  0.00     0.000 C 
BRANCH  10  11
ATOM     11  C   UNL     1      61.778 128.474  -6.404  1.00  0.00     0.000 C 
BRANCH  11  12
ATOM     12  C   UNL     1      60.500 128.223  -5.589  1.00  0.00     0.000 C 
BRANCH  12  13
ATOM     13  C   UNL     1      60.138 129.447  -4.739  1.00  0.00     0.006 C 
BRANCH  13  14
ATOM     14  C   UNL     1      59.797 129.038  -3.303  1.00  0.00     0.053 C 
BRANCH  14  15
ATOM     15  C   UNL     1      59.508 130.243  -2.466  1.00  0.00     0.041 C 
ATOM     16  O   UNL     1      58.660 131.093  -2.848  1.00  0.00    -0.550 OA
ATOM     17  O   UNL     1      60.153 130.415  -1.245  1.00  0.00    -0.550 OA
ENDBRANCH  14  15
ENDBRANCH  13  14
ENDBRANCH  12  13
ENDBRANCH  11  12
ENDBRANCH  10  11
ENDBRANCH   9  10
ENDBRANCH   8   9
ENDBRANCH   7   8
ENDBRANCH   6   7
ENDBRANCH   5   6
ENDBRANCH   4   5
ENDBRANCH   3   4
ENDBRANCH   2   3
ENDBRANCH   1   2
BRANCH   1  18
ATOM     18  C   UNL     1      56.411 138.679  -2.965  1.00  0.00     0.000 C 
BRANCH  18  19
ATOM     19  C   UNL     1      56.908 140.111  -3.216  1.00  0.00     0.000 C 
BRANCH  19  20
ATOM     20  C   UNL     1      56.376 141.076  -2.146  1.00  0.00     0.000 C 
BRANCH  20  21
ATOM     21  C   UNL     1      55.936 140.356  -0.858  1.00  0.00     0.000 C 
BRANCH  21  22
ATOM     22  C   UNL     1      55.366 141.274   0.244  1.00  0.00     0.000 C 
BRANCH  22  23
ATOM     23  C   UNL     1      53.925 141.760   0.009  1.00  0.00     0.000 C 
BRANCH  23  24
ATOM     24  C   UNL     1      52.872 140.748   0.483  1.00  0.00    -0.000 C 
BRANCH  24  25
ATOM     25  C   UNL     1      53.227 139.326   0.024  1.00  0.00    -0.000 C 
BRANCH  25  26
ATOM     26  C   UNL     1      53.390 138.342   1.198  1.00  0.00    -0.000 C 
BRANCH  26  27
ATOM     27  C   UNL     1      52.270 138.398   2.253  1.00  0.00    -0.000 C 
BRANCH  27  28
ATOM     28  C   UNL     1      50.837 138.418   1.687  1.00  0.00    -0.000 C 
BRANCH  28  29
ATOM     29  C   UNL     1      50.726 137.874   0.247  1.00  0.00    -0.000 C 
BRANCH  29  30
ATOM     30  C   UNL     1      49.308 137.380  -0.092  1.00  0.00    -0.000 C 
BRANCH  30  31
ATOM     31  C   UNL     1      48.830 136.271   0.858  1.00  0.00    -0.003 C 
ATOM     32  C   UNL     1      48.984 134.872   0.264  1.00  0.00     0.004 C 
ENDBRANCH  30  31
ENDBRANCH  29  30
ENDBRANCH  28  29
ENDBRANCH  27  28
ENDBRANCH  26  27
ENDBRANCH  25  26
ENDBRANCH  24  25
ENDBRANCH  23  24
ENDBRANCH  22  23
ENDBRANCH  21  22
ENDBRANCH  20  21
ENDBRANCH  19  20
ENDBRANCH  18  19
ENDBRANCH   1  18
TORSDOF 28
ENDMDL
