MODEL 1
REMARK VINA RESULT:    -4.789      0.000      0.000
REMARK INTER + INTRA:          -9.341
REMARK INTER:                  -8.148
REMARK INTRA:                  -1.193
REMARK UNBOUND:                -1.193
REMARK SMILES CCCCCCCCCCCCCC(=O)[O-]
REMARK SMILES IDX 8 1 9 2 10 3 11 4 12 5 13 6 14 7 15 8 16 9 7 10 6 11 5 12
REMARK SMILES IDX 4 13 3 14 2 15 1 16
REMARK H PARENT
REMARK Flexibility Score: inf
ROOT
ATOM      1  C   UNL     1      43.317  22.474  21.772  1.00  0.00     0.000 C 
ENDROOT
BRANCH   1   2
ATOM      2  C   UNL     1      42.026  22.817  21.009  1.00  0.00     0.000 C 
BRANCH   2   3
ATOM      3  C   UNL     1      41.774  24.330  20.924  1.00  0.00     0.000 C 
BRANCH   3   4
ATOM      4  C   UNL     1      41.132  24.703  19.581  1.00  0.00     0.000 C 
BRANCH   4   5
ATOM      5  C   UNL     1      40.170  23.607  19.107  1.00  0.00     0.006 C 
BRANCH   5   6
ATOM      6  C   UNL     1      39.241  24.131  18.008  1.00  0.00     0.053 C 
BRANCH   6   7
ATOM      7  C   UNL     1      38.415  23.016  17.446  1.00  0.00     0.041 C 
ATOM      8  O   UNL     1      37.158  23.075  17.487  1.00  0.00    -0.550 OA
ATOM      9  O   UNL     1      39.034  21.933  16.833  1.00  0.00    -0.550 OA
ENDBRANCH   6   7
ENDBRANCH   5   6
ENDBRANCH   4   5
ENDBRANCH   3   4
ENDBRANCH   2   3
ENDBRANCH   1   2
BRANCH   1  10
ATOM     10  C   UNL     1      43.933  21.140  21.319  1.00  0.00     0.000 C 
BRANCH  10  11
ATOM     11  C   UNL     1      45.464  21.204  21.188  1.00  0.00    -0.000 C 
BRANCH  11  12
ATOM     12  C   UNL     1      46.036  22.633  21.294  1.00  0.00    -0.000 C 
BRANCH  12  13
ATOM     13  C   UNL     1      47.084  22.919  20.202  1.00  0.00    -0.000 C 
BRANCH  13  14
ATOM     14  C   UNL     1      46.589  23.934  19.160  1.00  0.00    -0.000 C 
BRANCH  14  15
ATOM     15  C   UNL     1      45.138  24.372  19.403  1.00  0.00    -0.003 C 
ATOM     16  C   UNL     1      45.057  25.864  19.710  1.00  0.00     0.004 C 
ENDBRANCH  14  15
ENDBRANCH  13  14
ENDBRANCH  12  13
ENDBRANCH  11  12
ENDBRANCH  10  11
ENDBRANCH   1  10
TORSDOF 12
ENDMDL
MODEL 2
REMARK VINA RESULT:    -4.621     15.067     16.418
REMARK INTER + INTRA:          -9.056
REMARK INTER:                  -8.512
REMARK INTRA:                  -0.544
REMARK UNBOUND:                -1.193
REMARK SMILES CCCCCCCCCCCCCC(=O)[O-]
REMARK SMILES IDX 8 1 9 2 10 3 11 4 12 5 13 6 14 7 15 8 16 9 7 10 6 11 5 12
REMARK SMILES IDX 4 13 3 14 2 15 1 16
REMARK H PARENT
REMARK Flexibility Score: inf
ROOT
ATOM      1  C   UNL     1      46.929  24.750   4.016  1.00  0.00     0.000 C 
ENDROOT
BRANCH   1   2
ATOM      2  C   UNL     1      46.680  25.525   2.711  1.00  0.00     0.000 C 
BRANCH   2   3
ATOM      3  C   UNL     1      45.726  26.714   2.903  1.00  0.00     0.000 C 
BRANCH   3   4
ATOM      4  C   UNL     1      44.352  26.240   3.394  1.00  0.00     0.000 C 
BRANCH   4   5
ATOM      5  C   UNL     1      43.848  27.117   4.547  1.00  0.00     0.006 C 
BRANCH   5   6
ATOM      6  C   UNL     1      44.950  27.344   5.586  1.00  0.00     0.053 C 
BRANCH   6   7
ATOM      7  C   UNL     1      44.563  26.740   6.899  1.00  0.00     0.041 C 
ATOM      8  O   UNL     1      43.386  26.857   7.329  1.00  0.00    -0.550 OA
ATOM      9  O   UNL     1      45.492  26.005   7.627  1.00  0.00    -0.550 OA
ENDBRANCH   6   7
ENDBRANCH   5   6
ENDBRANCH   4   5
ENDBRANCH   3   4
ENDBRANCH   2   3
ENDBRANCH   1   2
BRANCH   1  10
ATOM     10  C   UNL     1      48.145  23.812   3.922  1.00  0.00     0.000 C 
BRANCH  10  11
ATOM     11  C   UNL     1      47.768  22.391   3.472  1.00  0.00    -0.000 C 
BRANCH  11  12
ATOM     12  C   UNL     1      48.739  21.303   3.978  1.00  0.00    -0.000 C 
BRANCH  12  13
ATOM     13  C   UNL     1      48.107  19.899   3.937  1.00  0.00    -0.000 C 
BRANCH  13  14
ATOM     14  C   UNL     1      49.090  18.796   4.356  1.00  0.00    -0.000 C 
BRANCH  14  15
ATOM     15  C   UNL     1      48.382  17.495   4.762  1.00  0.00    -0.003 C 
ATOM     16  C   UNL     1      47.440  17.015   3.661  1.00  0.00     0.004 C 
ENDBRANCH  14  15
ENDBRANCH  13  14
ENDBRANCH  12  13
ENDBRANCH  11  12
ENDBRANCH  10  11
ENDBRANCH   1  10
TORSDOF 12
ENDMDL
MODEL 3
REMARK VINA RESULT:    -4.617     15.383     17.152
REMARK INTER + INTRA:          -9.049
REMARK INTER:                  -8.101
REMARK INTRA:                  -0.948
REMARK UNBOUND:                -1.193
REMARK SMILES CCCCCCCCCCCCCC(=O)[O-]
REMARK SMILES IDX 8 1 9 2 10 3 11 4 12 5 13 6 14 7 15 8 16 9 7 10 6 11 5 12
REMARK SMILES IDX 4 13 3 14 2 15 1 16
REMARK H PARENT
REMARK Flexibility Score: inf
ROOT
ATOM      1  C   UNL     1      47.232  24.750   4.074  1.00  0.00     0.000 C 
ENDROOT
BRANCH   1   2
ATOM      2  C   UNL     1      48.060  23.490   3.774  1.00  0.00     0.000 C 
BRANCH   2   3
ATOM      3  C   UNL     1      47.712  22.862   2.416  1.00  0.00     0.000 C 
BRANCH   3   4
ATOM      4  C   UNL     1      47.397  21.369   2.568  1.00  0.00     0.000 C 
BRANCH   4   5
ATOM      5  C   UNL     1      48.093  20.782   3.803  1.00  0.00     0.006 C 
BRANCH   5   6
ATOM      6  C   UNL     1      47.657  19.333   4.041  1.00  0.00     0.053 C 
BRANCH   6   7
ATOM      7  C   UNL     1      48.817  18.508   4.504  1.00  0.00     0.041 C 
ATOM      8  O   UNL     1      48.638  17.322   4.888  1.00  0.00    -0.550 OA
ATOM      9  O   UNL     1      50.103  19.032   4.464  1.00  0.00    -0.550 OA
ENDBRANCH   6   7
ENDBRANCH   5   6
ENDBRANCH   4   5
ENDBRANCH   3   4
ENDBRANCH   2   3
ENDBRANCH   1   2
BRANCH   1  10
ATOM     10  C   UNL     1      46.566  25.332   2.815  1.00  0.00     0.000 C 
BRANCH  10  11
ATOM     11  C   UNL     1      45.746  26.600   3.106  1.00  0.00    -0.000 C 
BRANCH  11  12
ATOM     12  C   UNL     1      44.306  26.312   3.580  1.00  0.00    -0.000 C 
BRANCH  12  13
ATOM     13  C   UNL     1      43.925  27.147   4.817  1.00  0.00    -0.000 C 
BRANCH  13  14
ATOM     14  C   UNL     1      45.107  27.358   5.775  1.00  0.00    -0.000 C 
BRANCH  14  15
ATOM     15  C   UNL     1      45.238  26.230   6.809  1.00  0.00    -0.003 C 
ATOM     16  C   UNL     1      43.924  26.012   7.554  1.00  0.00     0.004 C 
ENDBRANCH  14  15
ENDBRANCH  13  14
ENDBRANCH  12  13
ENDBRANCH  11  12
ENDBRANCH  10  11
ENDBRANCH   1  10
TORSDOF 12
ENDMDL
MODEL 4
REMARK VINA RESULT:    -4.566      3.003      6.256
REMARK INTER + INTRA:          -8.961
REMARK INTER:                  -7.840
REMARK INTRA:                  -1.122
REMARK UNBOUND:                -1.193
REMARK SMILES CCCCCCCCCCCCCC(=O)[O-]
REMARK SMILES IDX 8 1 9 2 10 3 11 4 12 5 13 6 14 7 15 8 16 9 7 10 6 11 5 12
REMARK SMILES IDX 4 13 3 14 2 15 1 16
REMARK H PARENT
REMARK Flexibility Score: inf
ROOT
ATOM      1  C   UNL     1      43.108  21.557  20.887  1.00  0.00     0.000 C 
ENDROOT
BRANCH   1   2
ATOM      2  C   UNL     1      44.303  20.783  21.469  1.00  0.00     0.000 C 
BRANCH   2   3
ATOM      3  C   UNL     1      45.495  21.694  21.797  1.00  0.00     0.000 C 
BRANCH   3   4
ATOM      4  C   UNL     1      46.495  21.727  20.634  1.00  0.00     0.000 C 
BRANCH   4   5
ATOM      5  C   UNL     1      47.078  23.134  20.448  1.00  0.00     0.006 C 
BRANCH   5   6
ATOM      6  C   UNL     1      46.264  23.934  19.427  1.00  0.00     0.053 C 
BRANCH   6   7
ATOM      7  C   UNL     1      45.560  25.073  20.097  1.00  0.00     0.041 C 
ATOM      8  O   UNL     1      44.637  25.686  19.500  1.00  0.00    -0.550 OA
ATOM      9  O   UNL     1      45.892  25.426  21.399  1.00  0.00    -0.550 OA
ENDBRANCH   6   7
ENDBRANCH   5   6
ENDBRANCH   4   5
ENDBRANCH   3   4
ENDBRANCH   2   3
ENDBRANCH   1   2
BRANCH   1  10
ATOM     10  C   UNL     1      42.844  22.879  21.627  1.00  0.00     0.000 C 
BRANCH  10  11
ATOM     11  C   UNL     1      41.720  23.709  20.984  1.00  0.00    -0.000 C 
BRANCH  11  12
ATOM     12  C   UNL     1      41.809  23.785  19.445  1.00  0.00    -0.000 C 
BRANCH  12  13
ATOM     13  C   UNL     1      40.428  23.644  18.778  1.00  0.00    -0.000 C 
BRANCH  13  14
ATOM     14  C   UNL     1      40.442  22.670  17.591  1.00  0.00    -0.000 C 
BRANCH  14  15
ATOM     15  C   UNL     1      39.035  22.196  17.199  1.00  0.00    -0.003 C 
ATOM     16  C   UNL     1      37.983  23.242  17.554  1.00  0.00     0.004 C 
ENDBRANCH  14  15
ENDBRANCH  13  14
ENDBRANCH  12  13
ENDBRANCH  11  12
ENDBRANCH  10  11
ENDBRANCH   1  10
TORSDOF 12
ENDMDL
MODEL 5
REMARK VINA RESULT:    -4.477      8.964     11.127
REMARK INTER + INTRA:          -8.810
REMARK INTER:                  -7.067
REMARK INTRA:                  -1.743
REMARK UNBOUND:                -1.193
REMARK SMILES CCCCCCCCCCCCCC(=O)[O-]
REMARK SMILES IDX 8 1 9 2 10 3 11 4 12 5 13 6 14 7 15 8 16 9 7 10 6 11 5 12
REMARK SMILES IDX 4 13 3 14 2 15 1 16
REMARK H PARENT
REMARK Flexibility Score: inf
ROOT
ATOM      1  C   UNL     1      46.334  29.852  16.712  1.00  0.00     0.000 C 
ENDROOT
BRANCH   1   2
ATOM      2  C   UNL     1      46.164  30.178  15.219  1.00  0.00     0.000 C 
BRANCH   2   3
ATOM      3  C   UNL     1      44.807  29.720  14.664  1.00  0.00     0.000 C 
BRANCH   3   4
ATOM      4  C   UNL     1      44.433  30.516  13.407  1.00  0.00     0.000 C 
BRANCH   4   5
ATOM      5  C   UNL     1      45.525  31.533  13.054  1.00  0.00     0.006 C 
BRANCH   5   6
ATOM      6  C   UNL     1      45.268  32.160  11.680  1.00  0.00     0.053 C 
BRANCH   6   7
ATOM      7  C   UNL     1      46.508  32.116  10.845  1.00  0.00     0.041 C 
ATOM      8  O   UNL     1      46.859  33.123  10.176  1.00  0.00    -0.550 OA
ATOM      9  O   UNL     1      47.305  30.977  10.842  1.00  0.00    -0.550 OA
ENDBRANCH   6   7
ENDBRANCH   5   6
ENDBRANCH   4   5
ENDBRANCH   3   4
ENDBRANCH   2   3
ENDBRANCH   1   2
BRANCH   1  10
ATOM     10  C   UNL     1      44.989  29.768  17.454  1.00  0.00     0.000 C 
BRANCH  10  11
ATOM     11  C   UNL     1      44.611  31.084  18.155  1.00  0.00    -0.000 C 
BRANCH  11  12
ATOM     12  C   UNL     1      43.487  31.865  17.441  1.00  0.00    -0.000 C 
BRANCH  12  13
ATOM     13  C   UNL     1      43.866  33.339  17.206  1.00  0.00    -0.000 C 
BRANCH  13  14
ATOM     14  C   UNL     1      44.581  33.559  15.865  1.00  0.00    -0.000 C 
BRANCH  14  15
ATOM     15  C   UNL     1      46.095  33.758  16.028  1.00  0.00    -0.003 C 
ATOM     16  C   UNL     1      46.400  34.910  16.981  1.00  0.00     0.004 C 
ENDBRANCH  14  15
ENDBRANCH  13  14
ENDBRANCH  12  13
ENDBRANCH  11  12
ENDBRANCH  10  11
ENDBRANCH   1  10
TORSDOF 12
ENDMDL
MODEL 6
REMARK VINA RESULT:    -4.471      9.017     11.506
REMARK INTER + INTRA:          -8.800
REMARK INTER:                  -6.626
REMARK INTRA:                  -2.174
REMARK UNBOUND:                -1.193
REMARK SMILES CCCCCCCCCCCCCC(=O)[O-]
REMARK SMILES IDX 8 1 9 2 10 3 11 4 12 5 13 6 14 7 15 8 16 9 7 10 6 11 5 12
REMARK SMILES IDX 4 13 3 14 2 15 1 16
REMARK H PARENT
REMARK Flexibility Score: inf
ROOT
ATOM      1  C   UNL     1      44.110  33.019  17.250  1.00  0.00     0.000 C 
ENDROOT
BRANCH   1   2
ATOM      2  C   UNL     1      45.548  33.557  17.180  1.00  0.00     0.000 C 
BRANCH   2   3
ATOM      3  C   UNL     1      45.853  34.261  15.850  1.00  0.00     0.000 C 
BRANCH   3   4
ATOM      4  C   UNL     1      46.791  33.412  14.982  1.00  0.00     0.000 C 
BRANCH   4   5
ATOM      5  C   UNL     1      46.305  33.365  13.529  1.00  0.00     0.006 C 
BRANCH   5   6
ATOM      6  C   UNL     1      46.901  32.163  12.790  1.00  0.00     0.053 C 
BRANCH   6   7
ATOM      7  C   UNL     1      46.220  31.969  11.471  1.00  0.00     0.041 C 
ATOM      8  O   UNL     1      45.168  31.284  11.396  1.00  0.00    -0.550 OA
ATOM      9  O   UNL     1      46.723  32.588  10.332  1.00  0.00    -0.550 OA
ENDBRANCH   6   7
ENDBRANCH   5   6
ENDBRANCH   4   5
ENDBRANCH   3   4
ENDBRANCH   2   3
ENDBRANCH   1   2
BRANCH   1  10
ATOM     10  C   UNL     1      43.276  33.401  16.015  1.00  0.00     0.000 C 
BRANCH  10  11
ATOM     11  C   UNL     1      42.486  32.214  15.438  1.00  0.00    -0.000 C 
BRANCH  11  12
ATOM     12  C   UNL     1      43.149  31.572  14.200  1.00  0.00    -0.000 C 
BRANCH  12  13
ATOM     13  C   UNL     1      43.540  30.104  14.450  1.00  0.00    -0.000 C 
BRANCH  13  14
ATOM     14  C   UNL     1      44.999  29.951  14.904  1.00  0.00    -0.000 C 
BRANCH  14  15
ATOM     15  C   UNL     1      45.126  29.695  16.413  1.00  0.00    -0.003 C 
ATOM     16  C   UNL     1      46.553  29.939  16.895  1.00  0.00     0.004 C 
ENDBRANCH  14  15
ENDBRANCH  13  14
ENDBRANCH  12  13
ENDBRANCH  11  12
ENDBRANCH  10  11
ENDBRANCH   1  10
TORSDOF 12
ENDMDL
MODEL 7
REMARK VINA RESULT:    -4.465      9.789     12.203
REMARK INTER + INTRA:          -8.790
REMARK INTER:                  -6.959
REMARK INTRA:                  -1.832
REMARK UNBOUND:                -1.193
REMARK SMILES CCCCCCCCCCCCCC(=O)[O-]
REMARK SMILES IDX 8 1 9 2 10 3 11 4 12 5 13 6 14 7 15 8 16 9 7 10 6 11 5 12
REMARK SMILES IDX 4 13 3 14 2 15 1 16
REMARK H PARENT
REMARK Flexibility Score: inf
ROOT
ATOM      1  C   UNL     1      45.913  33.352  16.434  1.00  0.00     0.000 C 
ENDROOT
BRANCH   1   2
ATOM      2  C   UNL     1      46.471  34.721  16.010  1.00  0.00     0.000 C 
BRANCH   2   3
ATOM      3  C   UNL     1      46.865  34.764  14.526  1.00  0.00     0.000 C 
BRANCH   3   4
ATOM      4  C   UNL     1      46.551  33.431  13.837  1.00  0.00     0.000 C 
BRANCH   4   5
ATOM      5  C   UNL     1      45.685  33.646  12.590  1.00  0.00     0.006 C 
BRANCH   5   6
ATOM      6  C   UNL     1      45.593  32.364  11.758  1.00  0.00     0.053 C 
BRANCH   6   7
ATOM      7  C   UNL     1      46.775  32.245  10.847  1.00  0.00     0.041 C 
ATOM      8  O   UNL     1      47.090  33.200  10.090  1.00  0.00    -0.550 OA
ATOM      9  O   UNL     1      47.557  31.097  10.870  1.00  0.00    -0.550 OA
ENDBRANCH   6   7
ENDBRANCH   5   6
ENDBRANCH   4   5
ENDBRANCH   3   4
ENDBRANCH   2   3
ENDBRANCH   1   2
BRANCH   1  10
ATOM     10  C   UNL     1      44.585  33.469  17.202  1.00  0.00     0.000 C 
BRANCH  10  11
ATOM     11  C   UNL     1      43.586  32.357  16.838  1.00  0.00    -0.000 C 
BRANCH  11  12
ATOM     12  C   UNL     1      42.708  32.690  15.613  1.00  0.00    -0.000 C 
BRANCH  12  13
ATOM     13  C   UNL     1      43.117  31.878  14.370  1.00  0.00    -0.000 C 
BRANCH  13  14
ATOM     14  C   UNL     1      43.177  30.368  14.643  1.00  0.00    -0.000 C 
BRANCH  14  15
ATOM     15  C   UNL     1      44.449  29.715  14.084  1.00  0.00    -0.003 C 
ATOM     16  C   UNL     1      45.647  29.978  14.992  1.00  0.00     0.004 C 
ENDBRANCH  14  15
ENDBRANCH  13  14
ENDBRANCH  12  13
ENDBRANCH  11  12
ENDBRANCH  10  11
ENDBRANCH   1  10
TORSDOF 12
ENDMDL
MODEL 8
REMARK VINA RESULT:    -4.404     10.450     12.579
REMARK INTER + INTRA:          -8.687
REMARK INTER:                  -7.212
REMARK INTRA:                  -1.475
REMARK UNBOUND:                -1.193
REMARK SMILES CCCCCCCCCCCCCC(=O)[O-]
REMARK SMILES IDX 8 1 9 2 10 3 11 4 12 5 13 6 14 7 15 8 16 9 7 10 6 11 5 12
REMARK SMILES IDX 4 13 3 14 2 15 1 16
REMARK H PARENT
REMARK Flexibility Score: inf
ROOT
ATOM      1  C   UNL     1      46.397  32.543  13.721  1.00  0.00     0.000 C 
ENDROOT
BRANCH   1   2
ATOM      2  C   UNL     1      45.873  32.186  12.320  1.00  0.00     0.000 C 
BRANCH   2   3
ATOM      3  C   UNL     1      44.643  31.267  12.365  1.00  0.00     0.000 C 
BRANCH   3   4
ATOM      4  C   UNL     1      44.787  30.212  13.468  1.00  0.00     0.000 C 
BRANCH   4   5
ATOM      5  C   UNL     1      43.488  30.074  14.272  1.00  0.00     0.006 C 
BRANCH   5   6
ATOM      6  C   UNL     1      42.775  31.424  14.396  1.00  0.00     0.053 C 
BRANCH   6   7
ATOM      7  C   UNL     1      43.162  32.105  15.671  1.00  0.00     0.041 C 
ATOM      8  O   UNL     1      42.861  33.312  15.861  1.00  0.00    -0.550 OA
ATOM      9  O   UNL     1      43.815  31.392  16.670  1.00  0.00    -0.550 OA
ENDBRANCH   6   7
ENDBRANCH   5   6
ENDBRANCH   4   5
ENDBRANCH   3   4
ENDBRANCH   2   3
ENDBRANCH   1   2
BRANCH   1  10
ATOM     10  C   UNL     1      45.918  33.925  14.196  1.00  0.00     0.000 C 
BRANCH  10  11
ATOM     11  C   UNL     1      46.882  34.579  15.200  1.00  0.00    -0.000 C 
BRANCH  11  12
ATOM     12  C   UNL     1      47.553  35.863  14.669  1.00  0.00    -0.000 C 
BRANCH  12  13
ATOM     13  C   UNL     1      48.363  35.604  13.385  1.00  0.00    -0.000 C 
BRANCH  13  14
ATOM     14  C   UNL     1      47.856  36.425  12.190  1.00  0.00    -0.000 C 
BRANCH  14  15
ATOM     15  C   UNL     1      46.931  35.617  11.268  1.00  0.00    -0.003 C 
ATOM     16  C   UNL     1      45.595  36.328  11.070  1.00  0.00     0.004 C 
ENDBRANCH  14  15
ENDBRANCH  13  14
ENDBRANCH  12  13
ENDBRANCH  11  12
ENDBRANCH  10  11
ENDBRANCH   1  10
TORSDOF 12
ENDMDL
MODEL 9
REMARK VINA RESULT:    -4.394     10.706     12.989
REMARK INTER + INTRA:          -8.669
REMARK INTER:                  -7.014
REMARK INTRA:                  -1.655
REMARK UNBOUND:                -1.193
REMARK SMILES CCCCCCCCCCCCCC(=O)[O-]
REMARK SMILES IDX 8 1 9 2 10 3 11 4 12 5 13 6 14 7 15 8 16 9 7 10 6 11 5 12
REMARK SMILES IDX 4 13 3 14 2 15 1 16
REMARK H PARENT
REMARK Flexibility Score: inf
ROOT
ATOM      1  C   UNL     1      44.760  30.055  13.694  1.00  0.00     0.000 C 
ENDROOT
BRANCH   1   2
ATOM      2  C   UNL     1      44.651  31.033  12.512  1.00  0.00     0.000 C 
BRANCH   2   3
ATOM      3  C   UNL     1      45.995  31.689  12.162  1.00  0.00     0.000 C 
BRANCH   3   4
ATOM      4  C   UNL     1      45.832  33.203  11.975  1.00  0.00     0.000 C 
BRANCH   4   5
ATOM      5  C   UNL     1      46.697  33.710  10.814  1.00  0.00     0.006 C 
BRANCH   5   6
ATOM      6  C   UNL     1      47.844  34.586  11.326  1.00  0.00     0.053 C 
BRANCH   6   7
ATOM      7  C   UNL     1      47.308  35.817  11.987  1.00  0.00     0.041 C 
ATOM      8  O   UNL     1      47.706  36.145  13.135  1.00  0.00    -0.550 OA
ATOM      9  O   UNL     1      46.403  36.629  11.313  1.00  0.00    -0.550 OA
ENDBRANCH   6   7
ENDBRANCH   5   6
ENDBRANCH   4   5
ENDBRANCH   3   4
ENDBRANCH   2   3
ENDBRANCH   1   2
BRANCH   1  10
ATOM     10  C   UNL     1      43.709  30.327  14.784  1.00  0.00     0.000 C 
BRANCH  10  11
ATOM     11  C   UNL     1      42.735  31.456  14.405  1.00  0.00    -0.000 C 
BRANCH  11  12
ATOM     12  C   UNL     1      42.789  32.667  15.360  1.00  0.00    -0.000 C 
BRANCH  12  13
ATOM     13  C   UNL     1      43.526  32.338  16.671  1.00  0.00    -0.000 C 
BRANCH  13  14
ATOM     14  C   UNL     1      44.612  33.368  17.014  1.00  0.00    -0.000 C 
BRANCH  14  15
ATOM     15  C   UNL     1      45.476  33.743  15.801  1.00  0.00    -0.003 C 
ATOM     16  C   UNL     1      46.621  32.751  15.614  1.00  0.00     0.004 C 
ENDBRANCH  14  15
ENDBRANCH  13  14
ENDBRANCH  12  13
ENDBRANCH  11  12
ENDBRANCH  10  11
ENDBRANCH   1  10
TORSDOF 12
ENDMDL
