MODEL 1
REMARK VINA RESULT:    -5.847      0.000      0.000
REMARK INTER + INTRA:          -6.995
REMARK INTER:                  -6.872
REMARK INTRA:                  -0.123
REMARK UNBOUND:                -0.123
REMARK SMILES O=C([O-])C=Cc1ccc(O)c(O)c1
REMARK SMILES IDX 6 1 13 2 7 3 11 4 8 5 9 6 5 7 4 8 2 9 1 10 3 11 12 12 10 14
REMARK H PARENT 12 13 10 15
REMARK Flexibility Score: inf
ROOT
ATOM      1  C   UNL     1     -33.588  15.910  51.433  1.00  0.00    -0.022 A 
ATOM      2  C   UNL     1     -33.817  16.623  50.240  1.00  0.00     0.058 A 
ATOM      3  C   UNL     1     -34.688  15.373  52.120  1.00  0.00     0.012 A 
ATOM      4  C   UNL     1     -35.111  16.776  49.728  1.00  0.00     0.157 A 
ATOM      5  C   UNL     1     -35.980  15.518  51.615  1.00  0.00     0.051 A 
ATOM      6  C   UNL     1     -36.207  16.211  50.421  1.00  0.00     0.157 A 
ENDROOT
BRANCH   1   7
ATOM      7  C   UNL     1     -32.234  15.736  52.015  1.00  0.00     0.010 C 
ATOM      8  C   UNL     1     -31.101  16.025  51.361  1.00  0.00     0.025 C 
BRANCH   8   9
ATOM      9  C   UNL     1     -29.778  15.826  51.972  1.00  0.00     0.064 C 
ATOM     10  O   UNL     1     -29.157  14.750  51.773  1.00  0.00    -0.545 OA
ATOM     11  O   UNL     1     -29.199  16.811  52.767  1.00  0.00    -0.545 OA
ENDBRANCH   8   9
ENDBRANCH   1   7
BRANCH   4  12
ATOM     12  O   UNL     1     -35.261  17.496  48.540  1.00  0.00    -0.504 OA
ATOM     13  H   UNL     1     -36.043  17.389  47.911  1.00  0.00     0.293 HD
ENDBRANCH   4  12
BRANCH   6  14
ATOM     14  O   UNL     1     -37.524  16.316  49.967  1.00  0.00    -0.504 OA
ATOM     15  H   UNL     1     -37.782  16.703  49.072  1.00  0.00     0.293 HD
ENDBRANCH   6  14
TORSDOF 4
ENDMDL
MODEL 2
REMARK VINA RESULT:    -5.617      2.505      3.340
REMARK INTER + INTRA:          -6.725
REMARK INTER:                  -6.576
REMARK INTRA:                  -0.149
REMARK UNBOUND:                -0.123
REMARK SMILES O=C([O-])C=Cc1ccc(O)c(O)c1
REMARK SMILES IDX 6 1 13 2 7 3 11 4 8 5 9 6 5 7 4 8 2 9 1 10 3 11 12 12 10 14
REMARK H PARENT 12 13 10 15
REMARK Flexibility Score: inf
ROOT
ATOM      1  C   UNL     1     -34.598  15.393  52.093  1.00  0.00    -0.022 A 
ATOM      2  C   UNL     1     -35.913  15.529  51.609  1.00  0.00     0.058 A 
ATOM      3  C   UNL     1     -33.544  15.954  51.356  1.00  0.00     0.012 A 
ATOM      4  C   UNL     1     -36.177  16.232  50.426  1.00  0.00     0.157 A 
ATOM      5  C   UNL     1     -33.799  16.659  50.178  1.00  0.00     0.051 A 
ATOM      6  C   UNL     1     -35.106  16.810  49.705  1.00  0.00     0.157 A 
ENDROOT
BRANCH   1   7
ATOM      7  C   UNL     1     -34.276  14.646  53.335  1.00  0.00     0.010 C 
ATOM      8  C   UNL     1     -33.100  14.045  53.558  1.00  0.00     0.025 C 
BRANCH   8   9
ATOM      9  C   UNL     1     -32.828  13.304  54.799  1.00  0.00     0.064 C 
ATOM     10  O   UNL     1     -33.512  12.285  55.078  1.00  0.00    -0.545 OA
ATOM     11  O   UNL     1     -31.823  13.709  55.671  1.00  0.00    -0.545 OA
ENDBRANCH   8   9
ENDBRANCH   1   7
BRANCH   4  12
ATOM     12  O   UNL     1     -37.506  16.326  50.007  1.00  0.00    -0.504 OA
ATOM     13  H   UNL     1     -38.300  16.124  50.597  1.00  0.00     0.293 HD
ENDBRANCH   4  12
BRANCH   6  14
ATOM     14  O   UNL     1     -35.294  17.532  48.524  1.00  0.00    -0.504 OA
ATOM     15  H   UNL     1     -36.190  17.666  48.081  1.00  0.00     0.293 HD
ENDBRANCH   6  14
TORSDOF 4
ENDMDL
MODEL 3
REMARK VINA RESULT:    -5.608      3.961      4.979
REMARK INTER + INTRA:          -6.714
REMARK INTER:                  -6.575
REMARK INTRA:                  -0.139
REMARK UNBOUND:                -0.123
REMARK SMILES O=C([O-])C=Cc1ccc(O)c(O)c1
REMARK SMILES IDX 6 1 13 2 7 3 11 4 8 5 9 6 5 7 4 8 2 9 1 10 3 11 12 12 10 14
REMARK H PARENT 12 13 10 15
REMARK Flexibility Score: inf
ROOT
ATOM      1  C   UNL     1     -32.956  14.186  53.632  1.00  0.00    -0.022 A 
ATOM      2  C   UNL     1     -31.859  14.684  52.903  1.00  0.00     0.058 A 
ATOM      3  C   UNL     1     -34.234  14.700  53.364  1.00  0.00     0.012 A 
ATOM      4  C   UNL     1     -32.034  15.655  51.909  1.00  0.00     0.157 A 
ATOM      5  C   UNL     1     -34.417  15.665  52.373  1.00  0.00     0.051 A 
ATOM      6  C   UNL     1     -33.331  16.148  51.636  1.00  0.00     0.157 A 
ENDROOT
BRANCH   1   7
ATOM      7  C   UNL     1     -32.811  13.167  54.700  1.00  0.00     0.010 C 
ATOM      8  C   UNL     1     -33.526  12.035  54.752  1.00  0.00     0.025 C 
BRANCH   8   9
ATOM      9  C   UNL     1     -33.358  11.057  55.837  1.00  0.00     0.064 C 
ATOM     10  O   UNL     1     -32.201  10.688  56.168  1.00  0.00    -0.545 OA
ATOM     11  O   UNL     1     -34.458  10.534  56.508  1.00  0.00    -0.545 OA
ENDBRANCH   8   9
ENDBRANCH   1   7
BRANCH   4  12
ATOM     12  O   UNL     1     -30.899  16.102  51.227  1.00  0.00    -0.504 OA
ATOM     13  H   UNL     1     -30.885  16.911  50.623  1.00  0.00     0.293 HD
ENDBRANCH   4  12
BRANCH   6  14
ATOM     14  O   UNL     1     -33.583  17.110  50.654  1.00  0.00    -0.504 OA
ATOM     15  H   UNL     1     -33.609  18.103  50.831  1.00  0.00     0.293 HD
ENDBRANCH   6  14
TORSDOF 4
ENDMDL
MODEL 4
REMARK VINA RESULT:    -5.567      6.884      8.455
REMARK INTER + INTRA:          -6.666
REMARK INTER:                  -6.535
REMARK INTRA:                  -0.131
REMARK UNBOUND:                -0.123
REMARK SMILES O=C([O-])C=Cc1ccc(O)c(O)c1
REMARK SMILES IDX 6 1 13 2 7 3 11 4 8 5 9 6 5 7 4 8 2 9 1 10 3 11 12 12 10 14
REMARK H PARENT 12 13 10 15
REMARK Flexibility Score: inf
ROOT
ATOM      1  C   UNL     1     -26.882  15.814  55.499  1.00  0.00    -0.022 A 
ATOM      2  C   UNL     1     -27.343  16.939  54.788  1.00  0.00     0.058 A 
ATOM      3  C   UNL     1     -26.581  14.642  54.788  1.00  0.00     0.012 A 
ATOM      4  C   UNL     1     -27.477  16.906  53.394  1.00  0.00     0.157 A 
ATOM      5  C   UNL     1     -26.709  14.602  53.399  1.00  0.00     0.051 A 
ATOM      6  C   UNL     1     -27.149  15.724  52.689  1.00  0.00     0.157 A 
ENDROOT
BRANCH   1   7
ATOM      7  C   UNL     1     -26.739  15.804  56.976  1.00  0.00     0.010 C 
ATOM      8  C   UNL     1     -27.574  15.160  57.801  1.00  0.00     0.025 C 
BRANCH   8   9
ATOM      9  C   UNL     1     -27.401  15.188  59.261  1.00  0.00     0.064 C 
ATOM     10  O   UNL     1     -27.790  16.190  59.914  1.00  0.00    -0.545 OA
ATOM     11  O   UNL     1     -26.815  14.121  59.934  1.00  0.00    -0.545 OA
ENDBRANCH   8   9
ENDBRANCH   1   7
BRANCH   4  12
ATOM     12  O   UNL     1     -27.939  18.060  52.756  1.00  0.00    -0.504 OA
ATOM     13  H   UNL     1     -28.861  18.450  52.893  1.00  0.00     0.293 HD
ENDBRANCH   4  12
BRANCH   6  14
ATOM     14  O   UNL     1     -27.250  15.621  51.300  1.00  0.00    -0.504 OA
ATOM     15  H   UNL     1     -26.530  15.229  50.710  1.00  0.00     0.293 HD
ENDBRANCH   6  14
TORSDOF 4
ENDMDL
MODEL 5
REMARK VINA RESULT:    -5.517      7.275      8.873
REMARK INTER + INTRA:          -6.607
REMARK INTER:                  -6.476
REMARK INTRA:                  -0.131
REMARK UNBOUND:                -0.123
REMARK SMILES O=C([O-])C=Cc1ccc(O)c(O)c1
REMARK SMILES IDX 6 1 13 2 7 3 11 4 8 5 9 6 5 7 4 8 2 9 1 10 3 11 12 12 10 14
REMARK H PARENT 12 13 10 15
REMARK Flexibility Score: inf
ROOT
ATOM      1  C   UNL     1     -26.270  14.852  54.492  1.00  0.00    -0.022 A 
ATOM      2  C   UNL     1     -27.000  15.676  53.613  1.00  0.00     0.058 A 
ATOM      3  C   UNL     1     -25.566  15.449  55.549  1.00  0.00     0.012 A 
ATOM      4  C   UNL     1     -27.048  17.064  53.798  1.00  0.00     0.157 A 
ATOM      5  C   UNL     1     -25.612  16.830  55.742  1.00  0.00     0.051 A 
ATOM      6  C   UNL     1     -26.350  17.648  54.880  1.00  0.00     0.157 A 
ENDROOT
BRANCH   1   7
ATOM      7  C   UNL     1     -26.184  13.380  54.323  1.00  0.00     0.010 C 
ATOM      8  C   UNL     1     -25.080  12.742  53.914  1.00  0.00     0.025 C 
BRANCH   8   9
ATOM      9  C   UNL     1     -25.043  11.280  53.749  1.00  0.00     0.064 C 
ATOM     10  O   UNL     1     -24.489  10.569  54.627  1.00  0.00    -0.545 OA
ATOM     11  O   UNL     1     -25.613  10.670  52.637  1.00  0.00    -0.545 OA
ENDBRANCH   8   9
ENDBRANCH   1   7
BRANCH   4  12
ATOM     12  O   UNL     1     -27.791  17.817  52.886  1.00  0.00    -0.504 OA
ATOM     13  H   UNL     1     -27.553  17.918  51.910  1.00  0.00     0.293 HD
ENDBRANCH   4  12
BRANCH   6  14
ATOM     14  O   UNL     1     -26.360  19.022  55.132  1.00  0.00    -0.504 OA
ATOM     15  H   UNL     1     -27.100  19.643  54.842  1.00  0.00     0.293 HD
ENDBRANCH   6  14
TORSDOF 4
ENDMDL
MODEL 6
REMARK VINA RESULT:    -5.460      4.121      5.621
REMARK INTER + INTRA:          -6.541
REMARK INTER:                  -6.395
REMARK INTRA:                  -0.146
REMARK UNBOUND:                -0.123
REMARK SMILES O=C([O-])C=Cc1ccc(O)c(O)c1
REMARK SMILES IDX 6 1 13 2 7 3 11 4 8 5 9 6 5 7 4 8 2 9 1 10 3 11 12 12 10 14
REMARK H PARENT 12 13 10 15
REMARK Flexibility Score: inf
ROOT
ATOM      1  C   UNL     1     -32.450  13.979  53.580  1.00  0.00    -0.022 A 
ATOM      2  C   UNL     1     -33.141  14.909  52.778  1.00  0.00     0.058 A 
ATOM      3  C   UNL     1     -31.049  13.943  53.518  1.00  0.00     0.012 A 
ATOM      4  C   UNL     1     -32.449  15.802  51.951  1.00  0.00     0.157 A 
ATOM      5  C   UNL     1     -30.352  14.832  52.699  1.00  0.00     0.051 A 
ATOM      6  C   UNL     1     -31.035  15.768  51.916  1.00  0.00     0.157 A 
ENDROOT
BRANCH   1   7
ATOM      7  C   UNL     1     -33.148  13.008  54.460  1.00  0.00     0.010 C 
ATOM      8  C   UNL     1     -32.773  11.730  54.602  1.00  0.00     0.025 C 
BRANCH   8   9
ATOM      9  C   UNL     1     -33.501  10.798  55.476  1.00  0.00     0.064 C 
ATOM     10  O   UNL     1     -34.720  10.995  55.716  1.00  0.00    -0.545 OA
ATOM     11  O   UNL     1     -32.863   9.699  56.042  1.00  0.00    -0.545 OA
ENDBRANCH   8   9
ENDBRANCH   1   7
BRANCH   4  12
ATOM     12  O   UNL     1     -33.200  16.696  51.184  1.00  0.00    -0.504 OA
ATOM     13  H   UNL     1     -34.192  16.842  51.298  1.00  0.00     0.293 HD
ENDBRANCH   4  12
BRANCH   6  14
ATOM     14  O   UNL     1     -30.278  16.633  51.122  1.00  0.00    -0.504 OA
ATOM     15  H   UNL     1     -30.620  17.510  50.760  1.00  0.00     0.293 HD
ENDBRANCH   6  14
TORSDOF 4
ENDMDL
MODEL 7
REMARK VINA RESULT:    -5.444      6.774      8.706
REMARK INTER + INTRA:          -6.522
REMARK INTER:                  -6.397
REMARK INTRA:                  -0.125
REMARK UNBOUND:                -0.123
REMARK SMILES O=C([O-])C=Cc1ccc(O)c(O)c1
REMARK SMILES IDX 6 1 13 2 7 3 11 4 8 5 9 6 5 7 4 8 2 9 1 10 3 11 12 12 10 14
REMARK H PARENT 12 13 10 15
REMARK Flexibility Score: inf
ROOT
ATOM      1  C   UNL     1     -26.079  14.639  54.282  1.00  0.00    -0.022 A 
ATOM      2  C   UNL     1     -26.202  15.830  55.023  1.00  0.00     0.058 A 
ATOM      3  C   UNL     1     -26.667  14.572  53.010  1.00  0.00     0.012 A 
ATOM      4  C   UNL     1     -26.875  16.941  54.498  1.00  0.00     0.157 A 
ATOM      5  C   UNL     1     -27.336  15.674  52.477  1.00  0.00     0.051 A 
ATOM      6  C   UNL     1     -27.444  16.864  53.205  1.00  0.00     0.157 A 
ENDROOT
BRANCH   1   7
ATOM      7  C   UNL     1     -25.385  13.438  54.808  1.00  0.00     0.010 C 
ATOM      8  C   UNL     1     -25.672  12.869  55.986  1.00  0.00     0.025 C 
BRANCH   8   9
ATOM      9  C   UNL     1     -24.949  11.684  56.475  1.00  0.00     0.064 C 
ATOM     10  O   UNL     1     -24.256  11.005  55.674  1.00  0.00    -0.545 OA
ATOM     11  O   UNL     1     -25.018  11.303  57.810  1.00  0.00    -0.545 OA
ENDBRANCH   8   9
ENDBRANCH   1   7
BRANCH   4  12
ATOM     12  O   UNL     1     -26.958  18.088  55.290  1.00  0.00    -0.504 OA
ATOM     13  H   UNL     1     -26.333  18.877  55.209  1.00  0.00     0.293 HD
ENDBRANCH   4  12
BRANCH   6  14
ATOM     14  O   UNL     1     -28.122  17.932  52.613  1.00  0.00    -0.504 OA
ATOM     15  H   UNL     1     -29.068  17.878  52.266  1.00  0.00     0.293 HD
ENDBRANCH   6  14
TORSDOF 4
ENDMDL
MODEL 8
REMARK VINA RESULT:    -5.398     12.110     14.210
REMARK INTER + INTRA:          -6.468
REMARK INTER:                  -6.343
REMARK INTRA:                  -0.125
REMARK UNBOUND:                -0.123
REMARK SMILES O=C([O-])C=Cc1ccc(O)c(O)c1
REMARK SMILES IDX 6 1 13 2 7 3 11 4 8 5 9 6 5 7 4 8 2 9 1 10 3 11 12 12 10 14
REMARK H PARENT 12 13 10 15
REMARK Flexibility Score: inf
ROOT
ATOM      1  C   UNL     1     -28.389   6.338  58.881  1.00  0.00    -0.022 A 
ATOM      2  C   UNL     1     -28.745   6.331  60.244  1.00  0.00     0.058 A 
ATOM      3  C   UNL     1     -28.481   5.143  58.153  1.00  0.00     0.012 A 
ATOM      4  C   UNL     1     -29.207   5.162  60.862  1.00  0.00     0.157 A 
ATOM      5  C   UNL     1     -28.943   3.975  58.760  1.00  0.00     0.051 A 
ATOM      6  C   UNL     1     -29.314   3.969  60.109  1.00  0.00     0.157 A 
ENDROOT
BRANCH   1   7
ATOM      7  C   UNL     1     -27.884   7.552  58.193  1.00  0.00     0.010 C 
ATOM      8  C   UNL     1     -26.783   8.216  58.569  1.00  0.00     0.025 C 
BRANCH   8   9
ATOM      9  C   UNL     1     -26.325   9.424  57.864  1.00  0.00     0.064 C 
ATOM     10  O   UNL     1     -27.161  10.299  57.523  1.00  0.00    -0.545 OA
ATOM     11  O   UNL     1     -24.979   9.615  57.571  1.00  0.00    -0.545 OA
ENDBRANCH   8   9
ENDBRANCH   1   7
BRANCH   4  12
ATOM     12  O   UNL     1     -29.541   5.229  62.217  1.00  0.00    -0.504 OA
ATOM     13  H   UNL     1     -29.947   4.465  62.737  1.00  0.00     0.293 HD
ENDBRANCH   4  12
BRANCH   6  14
ATOM     14  O   UNL     1     -29.774   2.769  60.655  1.00  0.00    -0.504 OA
ATOM     15  H   UNL     1     -29.587   1.860  60.258  1.00  0.00     0.293 HD
ENDBRANCH   6  14
TORSDOF 4
ENDMDL
MODEL 9
REMARK VINA RESULT:    -5.292      2.030      5.785
REMARK INTER + INTRA:          -6.343
REMARK INTER:                  -6.222
REMARK INTRA:                  -0.121
REMARK UNBOUND:                -0.123
REMARK SMILES O=C([O-])C=Cc1ccc(O)c(O)c1
REMARK SMILES IDX 6 1 13 2 7 3 11 4 8 5 9 6 5 7 4 8 2 9 1 10 3 11 12 12 10 14
REMARK H PARENT 12 13 10 15
REMARK Flexibility Score: inf
ROOT
ATOM      1  C   UNL     1     -33.352  15.077  52.738  1.00  0.00    -0.022 A 
ATOM      2  C   UNL     1     -32.021  15.022  52.284  1.00  0.00     0.058 A 
ATOM      3  C   UNL     1     -33.710  14.334  53.873  1.00  0.00     0.012 A 
ATOM      4  C   UNL     1     -31.059  14.262  52.960  1.00  0.00     0.157 A 
ATOM      5  C   UNL     1     -32.757  13.577  54.555  1.00  0.00     0.051 A 
ATOM      6  C   UNL     1     -31.430  13.534  54.115  1.00  0.00     0.157 A 
ENDROOT
BRANCH   1   7
ATOM      7  C   UNL     1     -34.403  15.861  52.043  1.00  0.00     0.010 C 
ATOM      8  C   UNL     1     -34.679  15.742  50.737  1.00  0.00     0.025 C 
BRANCH   8   9
ATOM      9  C   UNL     1     -35.722  16.548  50.086  1.00  0.00     0.064 C 
ATOM     10  O   UNL     1     -35.433  17.238  49.074  1.00  0.00    -0.545 OA
ATOM     11  O   UNL     1     -37.027  16.559  50.568  1.00  0.00    -0.545 OA
ENDBRANCH   8   9
ENDBRANCH   1   7
BRANCH   4  12
ATOM     12  O   UNL     1     -29.758  14.254  52.451  1.00  0.00    -0.504 OA
ATOM     13  H   UNL     1     -29.207  13.418  52.321  1.00  0.00     0.293 HD
ENDBRANCH   4  12
BRANCH   6  14
ATOM     14  O   UNL     1     -30.524  12.762  54.846  1.00  0.00    -0.504 OA
ATOM     15  H   UNL     1     -30.701  12.415  55.776  1.00  0.00     0.293 HD
ENDBRANCH   6  14
TORSDOF 4
ENDMDL
