MODEL 1
REMARK VINA RESULT:    -6.416      0.000      0.000
REMARK INTER + INTRA:         -18.769
REMARK INTER:                 -16.168
REMARK INTRA:                  -2.601
REMARK UNBOUND:                -2.601
REMARK SMILES CCCCCCCCCCCCCCCCCCCCCCCCCCCC(=O)[O-]
REMARK SMILES IDX 15 1 16 2 17 3 18 4 19 5 20 6 21 7 22 8 23 9 24 10 25 11
REMARK SMILES IDX 26 12 27 13 28 14 29 15 30 16 14 17 13 18 12 19 11 20 10 21
REMARK SMILES IDX 9 22 8 23 7 24 6 25 5 26 4 27 3 28 2 29 1 30
REMARK H PARENT
REMARK Flexibility Score: inf
ROOT
ATOM      1  C   UNL     1     -11.877  10.568   6.039  1.00  0.00     0.000 C 
ENDROOT
BRANCH   1   2
ATOM      2  C   UNL     1     -11.773  10.871   7.542  1.00  0.00     0.000 C 
BRANCH   2   3
ATOM      3  C   UNL     1     -10.958  12.151   7.785  1.00  0.00     0.000 C 
BRANCH   3   4
ATOM      4  C   UNL     1     -11.214  12.757   9.174  1.00  0.00     0.000 C 
BRANCH   4   5
ATOM      5  C   UNL     1     -10.435  14.063   9.404  1.00  0.00     0.000 C 
BRANCH   5   6
ATOM      6  C   UNL     1      -9.186  14.179   8.513  1.00  0.00     0.000 C 
BRANCH   6   7
ATOM      7  C   UNL     1      -7.937  14.674   9.272  1.00  0.00     0.000 C 
BRANCH   7   8
ATOM      8  C   UNL     1      -8.297  15.369  10.598  1.00  0.00     0.000 C 
BRANCH   8   9
ATOM      9  C   UNL     1      -7.598  14.730  11.808  1.00  0.00     0.000 C 
BRANCH   9  10
ATOM     10  C   UNL     1      -7.380  13.220  11.635  1.00  0.00     0.000 C 
BRANCH  10  11
ATOM     11  C   UNL     1      -8.629  12.437  12.072  1.00  0.00     0.000 C 
BRANCH  11  12
ATOM     12  C   UNL     1      -8.312  11.340  13.101  1.00  0.00     0.006 C 
BRANCH  12  13
ATOM     13  C   UNL     1      -6.818  10.995  13.159  1.00  0.00     0.053 C 
BRANCH  13  14
ATOM     14  C   UNL     1      -6.508   9.801  12.308  1.00  0.00     0.041 C 
ATOM     15  O   UNL     1      -7.130   8.720  12.486  1.00  0.00    -0.550 OA
ATOM     16  O   UNL     1      -5.564   9.893  11.290  1.00  0.00    -0.550 OA
ENDBRANCH  13  14
ENDBRANCH  12  13
ENDBRANCH  11  12
ENDBRANCH  10  11
ENDBRANCH   9  10
ENDBRANCH   8   9
ENDBRANCH   7   8
ENDBRANCH   6   7
ENDBRANCH   5   6
ENDBRANCH   4   5
ENDBRANCH   3   4
ENDBRANCH   2   3
ENDBRANCH   1   2
BRANCH   1  17
ATOM     17  C   UNL     1     -11.241  11.660   5.160  1.00  0.00     0.000 C 
BRANCH  17  18
ATOM     18  C   UNL     1     -10.678  11.168   3.814  1.00  0.00     0.000 C 
BRANCH  18  19
ATOM     19  C   UNL     1      -9.834  12.231   3.091  1.00  0.00     0.000 C 
BRANCH  19  20
ATOM     20  C   UNL     1      -8.963  13.047   4.071  1.00  0.00     0.000 C 
BRANCH  20  21
ATOM     21  C   UNL     1      -7.462  13.020   3.736  1.00  0.00     0.000 C 
BRANCH  21  22
ATOM     22  C   UNL     1      -7.108  11.960   2.678  1.00  0.00    -0.000 C 
BRANCH  22  23
ATOM     23  C   UNL     1      -6.454  10.703   3.291  1.00  0.00    -0.000 C 
BRANCH  23  24
ATOM     24  C   UNL     1      -5.073  10.959   3.925  1.00  0.00    -0.000 C 
BRANCH  24  25
ATOM     25  C   UNL     1      -4.525   9.815   4.795  1.00  0.00    -0.000 C 
BRANCH  25  26
ATOM     26  C   UNL     1      -4.059  10.289   6.182  1.00  0.00    -0.000 C 
BRANCH  26  27
ATOM     27  C   UNL     1      -3.737   9.127   7.140  1.00  0.00    -0.000 C 
BRANCH  27  28
ATOM     28  C   UNL     1      -4.962   8.427   7.766  1.00  0.00    -0.000 C 
BRANCH  28  29
ATOM     29  C   UNL     1      -4.956   6.891   7.673  1.00  0.00    -0.003 C 
ATOM     30  C   UNL     1      -6.111   6.340   6.840  1.00  0.00     0.004 C 
ENDBRANCH  28  29
ENDBRANCH  27  28
ENDBRANCH  26  27
ENDBRANCH  25  26
ENDBRANCH  24  25
ENDBRANCH  23  24
ENDBRANCH  22  23
ENDBRANCH  21  22
ENDBRANCH  20  21
ENDBRANCH  19  20
ENDBRANCH  18  19
ENDBRANCH  17  18
ENDBRANCH   1  17
TORSDOF 26
ENDMDL
MODEL 2
REMARK VINA RESULT:    -6.221      1.507      2.357
REMARK INTER + INTRA:         -18.279
REMARK INTER:                 -15.725
REMARK INTRA:                  -2.554
REMARK UNBOUND:                -2.601
REMARK SMILES CCCCCCCCCCCCCCCCCCCCCCCCCCCC(=O)[O-]
REMARK SMILES IDX 15 1 16 2 17 3 18 4 19 5 20 6 21 7 22 8 23 9 24 10 25 11
REMARK SMILES IDX 26 12 27 13 28 14 29 15 30 16 14 17 13 18 12 19 11 20 10 21
REMARK SMILES IDX 9 22 8 23 7 24 6 25 5 26 4 27 3 28 2 29 1 30
REMARK H PARENT
REMARK Flexibility Score: inf
ROOT
ATOM      1  C   UNL     1     -10.948  11.159   4.270  1.00  0.00     0.000 C 
ENDROOT
BRANCH   1   2
ATOM      2  C   UNL     1     -11.073  11.542   5.753  1.00  0.00     0.000 C 
BRANCH   2   3
ATOM      3  C   UNL     1     -12.513  11.340   6.250  1.00  0.00     0.000 C 
BRANCH   3   4
ATOM      4  C   UNL     1     -12.666  11.639   7.749  1.00  0.00     0.000 C 
BRANCH   4   5
ATOM      5  C   UNL     1     -11.314  11.742   8.474  1.00  0.00     0.000 C 
BRANCH   5   6
ATOM      6  C   UNL     1     -11.124  13.088   9.196  1.00  0.00     0.000 C 
BRANCH   6   7
ATOM      7  C   UNL     1      -9.861  13.851   8.747  1.00  0.00     0.000 C 
BRANCH   7   8
ATOM      8  C   UNL     1      -9.661  15.162   9.531  1.00  0.00     0.000 C 
BRANCH   8   9
ATOM      9  C   UNL     1      -8.224  15.325  10.050  1.00  0.00     0.000 C 
BRANCH   9  10
ATOM     10  C   UNL     1      -7.651  14.022  10.626  1.00  0.00     0.000 C 
BRANCH  10  11
ATOM     11  C   UNL     1      -7.612  14.077  12.161  1.00  0.00     0.000 C 
BRANCH  11  12
ATOM     12  C   UNL     1      -7.890  12.713  12.812  1.00  0.00     0.006 C 
BRANCH  12  13
ATOM     13  C   UNL     1      -9.060  11.969  12.153  1.00  0.00     0.053 C 
BRANCH  13  14
ATOM     14  C   UNL     1      -9.335  10.672  12.851  1.00  0.00     0.041 C 
ATOM     15  O   UNL     1      -9.051  10.539  14.072  1.00  0.00    -0.550 OA
ATOM     16  O   UNL     1      -9.943   9.623  12.168  1.00  0.00    -0.550 OA
ENDBRANCH  13  14
ENDBRANCH  12  13
ENDBRANCH  11  12
ENDBRANCH  10  11
ENDBRANCH   9  10
ENDBRANCH   8   9
ENDBRANCH   7   8
ENDBRANCH   6   7
ENDBRANCH   5   6
ENDBRANCH   4   5
ENDBRANCH   3   4
ENDBRANCH   2   3
ENDBRANCH   1   2
BRANCH   1  17
ATOM     17  C   UNL     1     -10.092  12.152   3.463  1.00  0.00     0.000 C 
BRANCH  17  18
ATOM     18  C   UNL     1      -9.442  13.276   4.291  1.00  0.00     0.000 C 
BRANCH  18  19
ATOM     19  C   UNL     1      -7.915  13.343   4.119  1.00  0.00     0.000 C 
BRANCH  19  20
ATOM     20  C   UNL     1      -7.507  13.665   2.665  1.00  0.00     0.000 C 
BRANCH  20  21
ATOM     21  C   UNL     1      -6.526  12.649   2.057  1.00  0.00     0.000 C 
BRANCH  21  22
ATOM     22  C   UNL     1      -6.183  11.501   3.023  1.00  0.00    -0.000 C 
BRANCH  22  23
ATOM     23  C   UNL     1      -6.564  10.116   2.458  1.00  0.00    -0.000 C 
BRANCH  23  24
ATOM     24  C   UNL     1      -5.998   8.931   3.265  1.00  0.00    -0.000 C 
BRANCH  24  25
ATOM     25  C   UNL     1      -4.980   9.304   4.356  1.00  0.00    -0.000 C 
BRANCH  25  26
ATOM     26  C   UNL     1      -4.400   8.075   5.077  1.00  0.00    -0.000 C 
BRANCH  26  27
ATOM     27  C   UNL     1      -5.387   7.439   6.072  1.00  0.00    -0.000 C 
BRANCH  27  28
ATOM     28  C   UNL     1      -5.125   7.758   7.559  1.00  0.00    -0.000 C 
BRANCH  28  29
ATOM     29  C   UNL     1      -3.866   8.599   7.836  1.00  0.00    -0.003 C 
ATOM     30  C   UNL     1      -4.127   9.771   8.778  1.00  0.00     0.004 C 
ENDBRANCH  28  29
ENDBRANCH  27  28
ENDBRANCH  26  27
ENDBRANCH  25  26
ENDBRANCH  24  25
ENDBRANCH  23  24
ENDBRANCH  22  23
ENDBRANCH  21  22
ENDBRANCH  20  21
ENDBRANCH  19  20
ENDBRANCH  18  19
ENDBRANCH  17  18
ENDBRANCH   1  17
TORSDOF 26
ENDMDL
MODEL 3
REMARK VINA RESULT:    -6.132      1.570      6.983
REMARK INTER + INTRA:         -18.053
REMARK INTER:                 -15.531
REMARK INTRA:                  -2.522
REMARK UNBOUND:                -2.601
REMARK SMILES CCCCCCCCCCCCCCCCCCCCCCCCCCCC(=O)[O-]
REMARK SMILES IDX 15 1 16 2 17 3 18 4 19 5 20 6 21 7 22 8 23 9 24 10 25 11
REMARK SMILES IDX 26 12 27 13 28 14 29 15 30 16 14 17 13 18 12 19 11 20 10 21
REMARK SMILES IDX 9 22 8 23 7 24 6 25 5 26 4 27 3 28 2 29 1 30
REMARK H PARENT
REMARK Flexibility Score: inf
ROOT
ATOM      1  C   UNL     1     -11.824  10.855   7.453  1.00  0.00     0.000 C 
ENDROOT
BRANCH   1   2
ATOM      2  C   UNL     1     -11.877  10.582   5.942  1.00  0.00     0.000 C 
BRANCH   2   3
ATOM      3  C   UNL     1     -11.095  11.652   5.166  1.00  0.00     0.000 C 
BRANCH   3   4
ATOM      4  C   UNL     1     -10.737  11.203   3.740  1.00  0.00     0.000 C 
BRANCH   4   5
ATOM      5  C   UNL     1      -9.954  12.272   2.960  1.00  0.00     0.000 C 
BRANCH   5   6
ATOM      6  C   UNL     1      -9.210  13.258   3.878  1.00  0.00     0.000 C 
BRANCH   6   7
ATOM      7  C   UNL     1      -7.676  13.108   3.822  1.00  0.00     0.000 C 
BRANCH   7   8
ATOM      8  C   UNL     1      -7.229  12.073   2.772  1.00  0.00     0.000 C 
BRANCH   8   9
ATOM      9  C   UNL     1      -5.708  11.851   2.773  1.00  0.00     0.000 C 
BRANCH   9  10
ATOM     10  C   UNL     1      -5.226  11.060   3.998  1.00  0.00     0.000 C 
BRANCH  10  11
ATOM     11  C   UNL     1      -5.186   9.555   3.691  1.00  0.00     0.000 C 
BRANCH  11  12
ATOM     12  C   UNL     1      -4.371   8.760   4.723  1.00  0.00     0.006 C 
BRANCH  12  13
ATOM     13  C   UNL     1      -5.250   7.883   5.625  1.00  0.00     0.053 C 
BRANCH  13  14
ATOM     14  C   UNL     1      -5.055   8.232   7.070  1.00  0.00     0.041 C 
ATOM     15  O   UNL     1      -4.367   9.238   7.389  1.00  0.00    -0.550 OA
ATOM     16  O   UNL     1      -5.668   7.474   8.062  1.00  0.00    -0.550 OA
ENDBRANCH  13  14
ENDBRANCH  12  13
ENDBRANCH  11  12
ENDBRANCH  10  11
ENDBRANCH   9  10
ENDBRANCH   8   9
ENDBRANCH   7   8
ENDBRANCH   6   7
ENDBRANCH   5   6
ENDBRANCH   4   5
ENDBRANCH   3   4
ENDBRANCH   2   3
ENDBRANCH   1   2
BRANCH   1  17
ATOM     17  C   UNL     1     -10.977  12.091   7.811  1.00  0.00     0.000 C 
BRANCH  17  18
ATOM     18  C   UNL     1     -11.332  12.757   9.153  1.00  0.00     0.000 C 
BRANCH  18  19
ATOM     19  C   UNL     1     -10.439  13.967   9.477  1.00  0.00     0.000 C 
BRANCH  19  20
ATOM     20  C   UNL     1      -9.255  14.095   8.496  1.00  0.00     0.000 C 
BRANCH  20  21
ATOM     21  C   UNL     1      -7.979  14.668   9.136  1.00  0.00     0.000 C 
BRANCH  21  22
ATOM     22  C   UNL     1      -8.278  15.651  10.281  1.00  0.00    -0.000 C 
BRANCH  22  23
ATOM     23  C   UNL     1      -7.460  15.346  11.555  1.00  0.00    -0.000 C 
BRANCH  23  24
ATOM     24  C   UNL     1      -7.246  13.842  11.820  1.00  0.00    -0.000 C 
BRANCH  24  25
ATOM     25  C   UNL     1      -8.316  13.169  12.696  1.00  0.00    -0.000 C 
BRANCH  25  26
ATOM     26  C   UNL     1      -8.912  11.907  12.048  1.00  0.00    -0.000 C 
BRANCH  26  27
ATOM     27  C   UNL     1      -9.282  10.821  13.073  1.00  0.00    -0.000 C 
BRANCH  27  28
ATOM     28  C   UNL     1      -9.565   9.423  12.482  1.00  0.00    -0.000 C 
BRANCH  28  29
ATOM     29  C   UNL     1      -8.687   8.288  13.038  1.00  0.00    -0.003 C 
ATOM     30  C   UNL     1      -8.855   8.088  14.542  1.00  0.00     0.004 C 
ENDBRANCH  28  29
ENDBRANCH  27  28
ENDBRANCH  26  27
ENDBRANCH  25  26
ENDBRANCH  24  25
ENDBRANCH  23  24
ENDBRANCH  22  23
ENDBRANCH  21  22
ENDBRANCH  20  21
ENDBRANCH  19  20
ENDBRANCH  18  19
ENDBRANCH  17  18
ENDBRANCH   1  17
TORSDOF 26
ENDMDL
MODEL 4
REMARK VINA RESULT:    -6.080      2.199      5.840
REMARK INTER + INTRA:         -17.922
REMARK INTER:                 -14.711
REMARK INTRA:                  -3.211
REMARK UNBOUND:                -2.601
REMARK SMILES CCCCCCCCCCCCCCCCCCCCCCCCCCCC(=O)[O-]
REMARK SMILES IDX 15 1 16 2 17 3 18 4 19 5 20 6 21 7 22 8 23 9 24 10 25 11
REMARK SMILES IDX 26 12 27 13 28 14 29 15 30 16 14 17 13 18 12 19 11 20 10 21
REMARK SMILES IDX 9 22 8 23 7 24 6 25 5 26 4 27 3 28 2 29 1 30
REMARK H PARENT
REMARK Flexibility Score: inf
ROOT
ATOM      1  C   UNL     1      -7.071  10.039   2.571  1.00  0.00     0.000 C 
ENDROOT
BRANCH   1   2
ATOM      2  C   UNL     1      -6.219  11.229   3.038  1.00  0.00     0.000 C 
BRANCH   2   3
ATOM      3  C   UNL     1      -6.766  12.548   2.471  1.00  0.00     0.000 C 
BRANCH   3   4
ATOM      4  C   UNL     1      -7.630  13.312   3.486  1.00  0.00     0.000 C 
BRANCH   4   5
ATOM      5  C   UNL     1      -9.136  13.162   3.214  1.00  0.00     0.000 C 
BRANCH   5   6
ATOM      6  C   UNL     1      -9.905  12.575   4.410  1.00  0.00     0.000 C 
BRANCH   6   7
ATOM      7  C   UNL     1     -10.824  11.396   4.029  1.00  0.00     0.000 C 
BRANCH   7   8
ATOM      8  C   UNL     1     -11.602  10.846   5.240  1.00  0.00     0.000 C 
BRANCH   8   9
ATOM      9  C   UNL     1     -11.121  11.445   6.570  1.00  0.00     0.000 C 
BRANCH   9  10
ATOM     10  C   UNL     1     -12.181  11.354   7.678  1.00  0.00     0.000 C 
BRANCH  10  11
ATOM     11  C   UNL     1     -11.898  12.380   8.786  1.00  0.00     0.000 C 
BRANCH  11  12
ATOM     12  C   UNL     1     -10.490  12.988   8.689  1.00  0.00     0.006 C 
BRANCH  12  13
ATOM     13  C   UNL     1     -10.271  14.138   9.680  1.00  0.00     0.053 C 
BRANCH  13  14
ATOM     14  C   UNL     1      -8.854  14.165  10.169  1.00  0.00     0.041 C 
ATOM     15  O   UNL     1      -7.990  14.852   9.561  1.00  0.00    -0.550 OA
ATOM     16  O   UNL     1      -8.496  13.468  11.318  1.00  0.00    -0.550 OA
ENDBRANCH  13  14
ENDBRANCH  12  13
ENDBRANCH  11  12
ENDBRANCH  10  11
ENDBRANCH   9  10
ENDBRANCH   8   9
ENDBRANCH   7   8
ENDBRANCH   6   7
ENDBRANCH   5   6
ENDBRANCH   4   5
ENDBRANCH   3   4
ENDBRANCH   2   3
ENDBRANCH   1   2
BRANCH   1  17
ATOM     17  C   UNL     1      -6.366   8.683   2.763  1.00  0.00     0.000 C 
BRANCH  17  18
ATOM     18  C   UNL     1      -5.629   8.515   4.104  1.00  0.00     0.000 C 
BRANCH  18  19
ATOM     19  C   UNL     1      -4.110   8.346   3.937  1.00  0.00     0.000 C 
BRANCH  19  20
ATOM     20  C   UNL     1      -3.327   8.898   5.148  1.00  0.00     0.000 C 
BRANCH  20  21
ATOM     21  C   UNL     1      -4.017  10.084   5.843  1.00  0.00     0.000 C 
BRANCH  21  22
ATOM     22  C   UNL     1      -3.814  10.080   7.368  1.00  0.00    -0.000 C 
BRANCH  22  23
ATOM     23  C   UNL     1      -3.868   8.659   7.970  1.00  0.00    -0.000 C 
BRANCH  23  24
ATOM     24  C   UNL     1      -5.294   8.157   8.270  1.00  0.00    -0.000 C 
BRANCH  24  25
ATOM     25  C   UNL     1      -5.690   6.844   7.572  1.00  0.00    -0.000 C 
BRANCH  25  26
ATOM     26  C   UNL     1      -4.479   6.069   7.026  1.00  0.00    -0.000 C 
BRANCH  26  27
ATOM     27  C   UNL     1      -4.719   4.550   6.952  1.00  0.00    -0.000 C 
BRANCH  27  28
ATOM     28  C   UNL     1      -5.447   4.056   5.684  1.00  0.00    -0.000 C 
BRANCH  28  29
ATOM     29  C   UNL     1      -5.197   4.896   4.418  1.00  0.00    -0.003 C 
ATOM     30  C   UNL     1      -3.865   4.576   3.745  1.00  0.00     0.004 C 
ENDBRANCH  28  29
ENDBRANCH  27  28
ENDBRANCH  26  27
ENDBRANCH  25  26
ENDBRANCH  24  25
ENDBRANCH  23  24
ENDBRANCH  22  23
ENDBRANCH  21  22
ENDBRANCH  20  21
ENDBRANCH  19  20
ENDBRANCH  18  19
ENDBRANCH  17  18
ENDBRANCH   1  17
TORSDOF 26
ENDMDL
MODEL 5
REMARK VINA RESULT:    -6.067      1.548      7.063
REMARK INTER + INTRA:         -17.890
REMARK INTER:                 -15.337
REMARK INTRA:                  -2.553
REMARK UNBOUND:                -2.601
REMARK SMILES CCCCCCCCCCCCCCCCCCCCCCCCCCCC(=O)[O-]
REMARK SMILES IDX 15 1 16 2 17 3 18 4 19 5 20 6 21 7 22 8 23 9 24 10 25 11
REMARK SMILES IDX 26 12 27 13 28 14 29 15 30 16 14 17 13 18 12 19 11 20 10 21
REMARK SMILES IDX 9 22 8 23 7 24 6 25 5 26 4 27 3 28 2 29 1 30
REMARK H PARENT
REMARK Flexibility Score: inf
ROOT
ATOM      1  C   UNL     1     -11.134  11.814   5.784  1.00  0.00     0.000 C 
ENDROOT
BRANCH   1   2
ATOM      2  C   UNL     1     -10.868  11.116   4.442  1.00  0.00     0.000 C 
BRANCH   2   3
ATOM      3  C   UNL     1      -9.903  11.943   3.578  1.00  0.00     0.000 C 
BRANCH   3   4
ATOM      4  C   UNL     1      -9.289  13.124   4.346  1.00  0.00     0.000 C 
BRANCH   4   5
ATOM      5  C   UNL     1      -7.806  13.346   4.005  1.00  0.00     0.000 C 
BRANCH   5   6
ATOM      6  C   UNL     1      -7.451  12.917   2.570  1.00  0.00     0.000 C 
BRANCH   6   7
ATOM      7  C   UNL     1      -6.094  12.192   2.466  1.00  0.00     0.000 C 
BRANCH   7   8
ATOM      8  C   UNL     1      -5.866  11.208   3.630  1.00  0.00     0.000 C 
BRANCH   8   9
ATOM      9  C   UNL     1      -5.635   9.768   3.148  1.00  0.00     0.000 C 
BRANCH   9  10
ATOM     10  C   UNL     1      -4.273   9.209   3.584  1.00  0.00     0.000 C 
BRANCH  10  11
ATOM     11  C   UNL     1      -4.453   7.948   4.443  1.00  0.00     0.000 C 
BRANCH  11  12
ATOM     12  C   UNL     1      -4.937   8.263   5.867  1.00  0.00     0.006 C 
BRANCH  12  13
ATOM     13  C   UNL     1      -3.781   8.458   6.857  1.00  0.00     0.053 C 
BRANCH  13  14
ATOM     14  C   UNL     1      -3.820   9.825   7.469  1.00  0.00     0.041 C 
ATOM     15  O   UNL     1      -3.828  10.847   6.731  1.00  0.00    -0.550 OA
ATOM     16  O   UNL     1      -3.891   9.974   8.850  1.00  0.00    -0.550 OA
ENDBRANCH  13  14
ENDBRANCH  12  13
ENDBRANCH  11  12
ENDBRANCH  10  11
ENDBRANCH   9  10
ENDBRANCH   8   9
ENDBRANCH   7   8
ENDBRANCH   6   7
ENDBRANCH   5   6
ENDBRANCH   4   5
ENDBRANCH   3   4
ENDBRANCH   2   3
ENDBRANCH   1   2
BRANCH   1  17
ATOM     17  C   UNL     1     -11.982  10.963   6.747  1.00  0.00     0.000 C 
BRANCH  17  18
ATOM     18  C   UNL     1     -11.629  11.119   8.238  1.00  0.00     0.000 C 
BRANCH  18  19
ATOM     19  C   UNL     1     -11.695  12.578   8.721  1.00  0.00     0.000 C 
BRANCH  19  20
ATOM     20  C   UNL     1     -10.409  13.004   9.461  1.00  0.00     0.000 C 
BRANCH  20  21
ATOM     21  C   UNL     1      -9.644  14.145   8.767  1.00  0.00     0.000 C 
BRANCH  21  22
ATOM     22  C   UNL     1      -8.323  14.491   9.474  1.00  0.00    -0.000 C 
BRANCH  22  23
ATOM     23  C   UNL     1      -8.441  15.736  10.380  1.00  0.00    -0.000 C 
BRANCH  23  24
ATOM     24  C   UNL     1      -7.793  15.567  11.768  1.00  0.00    -0.000 C 
BRANCH  24  25
ATOM     25  C   UNL     1      -7.069  14.230  11.999  1.00  0.00    -0.000 C 
BRANCH  25  26
ATOM     26  C   UNL     1      -7.105  13.777  13.469  1.00  0.00    -0.000 C 
BRANCH  26  27
ATOM     27  C   UNL     1      -7.953  12.511  13.689  1.00  0.00    -0.000 C 
BRANCH  27  28
ATOM     28  C   UNL     1      -8.685  11.979  12.438  1.00  0.00    -0.000 C 
BRANCH  28  29
ATOM     29  C   UNL     1      -9.463  10.667  12.645  1.00  0.00    -0.003 C 
ATOM     30  C   UNL     1      -8.556   9.440  12.700  1.00  0.00     0.004 C 
ENDBRANCH  28  29
ENDBRANCH  27  28
ENDBRANCH  26  27
ENDBRANCH  25  26
ENDBRANCH  24  25
ENDBRANCH  23  24
ENDBRANCH  22  23
ENDBRANCH  21  22
ENDBRANCH  20  21
ENDBRANCH  19  20
ENDBRANCH  18  19
ENDBRANCH  17  18
ENDBRANCH   1  17
TORSDOF 26
ENDMDL
MODEL 6
REMARK VINA RESULT:    -6.009      1.634      7.067
REMARK INTER + INTRA:         -17.744
REMARK INTER:                 -15.293
REMARK INTRA:                  -2.451
REMARK UNBOUND:                -2.601
REMARK SMILES CCCCCCCCCCCCCCCCCCCCCCCCCCCC(=O)[O-]
REMARK SMILES IDX 15 1 16 2 17 3 18 4 19 5 20 6 21 7 22 8 23 9 24 10 25 11
REMARK SMILES IDX 26 12 27 13 28 14 29 15 30 16 14 17 13 18 12 19 11 20 10 21
REMARK SMILES IDX 9 22 8 23 7 24 6 25 5 26 4 27 3 28 2 29 1 30
REMARK H PARENT
REMARK Flexibility Score: inf
ROOT
ATOM      1  C   UNL     1     -11.146  11.233   4.270  1.00  0.00     0.000 C 
ENDROOT
BRANCH   1   2
ATOM      2  C   UNL     1      -9.794  11.663   3.682  1.00  0.00     0.000 C 
BRANCH   2   3
ATOM      3  C   UNL     1      -9.558  13.166   3.896  1.00  0.00     0.000 C 
BRANCH   3   4
ATOM      4  C   UNL     1      -9.705  13.976   2.599  1.00  0.00     0.000 C 
BRANCH   4   5
ATOM      5  C   UNL     1      -8.592  13.674   1.582  1.00  0.00     0.000 C 
BRANCH   5   6
ATOM      6  C   UNL     1      -7.195  14.078   2.086  1.00  0.00     0.000 C 
BRANCH   6   7
ATOM      7  C   UNL     1      -6.073  13.137   1.603  1.00  0.00     0.000 C 
BRANCH   7   8
ATOM      8  C   UNL     1      -6.412  11.653   1.842  1.00  0.00     0.000 C 
BRANCH   8   9
ATOM      9  C   UNL     1      -6.077  11.196   3.271  1.00  0.00     0.000 C 
BRANCH   9  10
ATOM     10  C   UNL     1      -5.317   9.862   3.302  1.00  0.00     0.000 C 
BRANCH  10  11
ATOM     11  C   UNL     1      -4.561   9.698   4.630  1.00  0.00     0.000 C 
BRANCH  11  12
ATOM     12  C   UNL     1      -4.989   8.443   5.407  1.00  0.00     0.006 C 
BRANCH  12  13
ATOM     13  C   UNL     1      -4.305   8.330   6.776  1.00  0.00     0.053 C 
BRANCH  13  14
ATOM     14  C   UNL     1      -4.789   7.125   7.522  1.00  0.00     0.041 C 
ATOM     15  O   UNL     1      -4.135   6.049   7.475  1.00  0.00    -0.550 OA
ATOM     16  O   UNL     1      -5.937   7.200   8.304  1.00  0.00    -0.550 OA
ENDBRANCH  13  14
ENDBRANCH  12  13
ENDBRANCH  11  12
ENDBRANCH  10  11
ENDBRANCH   9  10
ENDBRANCH   8   9
ENDBRANCH   7   8
ENDBRANCH   6   7
ENDBRANCH   5   6
ENDBRANCH   4   5
ENDBRANCH   3   4
ENDBRANCH   2   3
ENDBRANCH   1   2
BRANCH   1  17
ATOM     17  C   UNL     1     -11.243  11.465   5.790  1.00  0.00     0.000 C 
BRANCH  17  18
ATOM     18  C   UNL     1     -12.009  10.380   6.568  1.00  0.00     0.000 C 
BRANCH  18  19
ATOM     19  C   UNL     1     -12.034  10.634   8.085  1.00  0.00     0.000 C 
BRANCH  19  20
ATOM     20  C   UNL     1     -11.874  12.131   8.427  1.00  0.00     0.000 C 
BRANCH  20  21
ATOM     21  C   UNL     1     -10.705  12.426   9.383  1.00  0.00     0.000 C 
BRANCH  21  22
ATOM     22  C   UNL     1     -10.418  13.931   9.524  1.00  0.00    -0.000 C 
BRANCH  22  23
ATOM     23  C   UNL     1      -9.226  14.392   8.658  1.00  0.00    -0.000 C 
BRANCH  23  24
ATOM     24  C   UNL     1      -7.908  14.560   9.440  1.00  0.00    -0.000 C 
BRANCH  24  25
ATOM     25  C   UNL     1      -7.829  15.809  10.335  1.00  0.00    -0.000 C 
BRANCH  25  26
ATOM     26  C   UNL     1      -7.750  15.466  11.833  1.00  0.00    -0.000 C 
BRANCH  26  27
ATOM     27  C   UNL     1      -7.247  14.036  12.098  1.00  0.00    -0.000 C 
BRANCH  27  28
ATOM     28  C   UNL     1      -8.223  13.124  12.870  1.00  0.00    -0.000 C 
BRANCH  28  29
ATOM     29  C   UNL     1      -8.456  11.737  12.244  1.00  0.00    -0.003 C 
ATOM     30  C   UNL     1      -8.102  10.591  13.189  1.00  0.00     0.004 C 
ENDBRANCH  28  29
ENDBRANCH  27  28
ENDBRANCH  26  27
ENDBRANCH  25  26
ENDBRANCH  24  25
ENDBRANCH  23  24
ENDBRANCH  22  23
ENDBRANCH  21  22
ENDBRANCH  20  21
ENDBRANCH  19  20
ENDBRANCH  18  19
ENDBRANCH  17  18
ENDBRANCH   1  17
TORSDOF 26
ENDMDL
MODEL 7
REMARK VINA RESULT:    -5.950      2.049      2.782
REMARK INTER + INTRA:         -17.594
REMARK INTER:                 -15.382
REMARK INTRA:                  -2.212
REMARK UNBOUND:                -2.601
REMARK SMILES CCCCCCCCCCCCCCCCCCCCCCCCCCCC(=O)[O-]
REMARK SMILES IDX 15 1 16 2 17 3 18 4 19 5 20 6 21 7 22 8 23 9 24 10 25 11
REMARK SMILES IDX 26 12 27 13 28 14 29 15 30 16 14 17 13 18 12 19 11 20 10 21
REMARK SMILES IDX 9 22 8 23 7 24 6 25 5 26 4 27 3 28 2 29 1 30
REMARK H PARENT
REMARK Flexibility Score: inf
ROOT
ATOM      1  C   UNL     1     -10.865  11.439   4.366  1.00  0.00     0.000 C 
ENDROOT
BRANCH   1   2
ATOM      2  C   UNL     1     -11.876  10.689   5.247  1.00  0.00     0.000 C 
BRANCH   2   3
ATOM      3  C   UNL     1     -11.613  10.964   6.736  1.00  0.00     0.000 C 
BRANCH   3   4
ATOM      4  C   UNL     1     -12.854  11.502   7.464  1.00  0.00     0.000 C 
BRANCH   4   5
ATOM      5  C   UNL     1     -12.500  12.469   8.605  1.00  0.00     0.000 C 
BRANCH   5   6
ATOM      6  C   UNL     1     -10.992  12.508   8.910  1.00  0.00     0.000 C 
BRANCH   6   7
ATOM      7  C   UNL     1     -10.484  13.909   9.310  1.00  0.00     0.000 C 
BRANCH   7   8
ATOM      8  C   UNL     1      -9.241  14.331   8.503  1.00  0.00     0.000 C 
BRANCH   8   9
ATOM      9  C   UNL     1      -7.988  14.468   9.381  1.00  0.00     0.000 C 
BRANCH   9  10
ATOM     10  C   UNL     1      -8.177  13.868  10.781  1.00  0.00     0.000 C 
BRANCH  10  11
ATOM     11  C   UNL     1      -7.467  14.726  11.841  1.00  0.00     0.000 C 
BRANCH  11  12
ATOM     12  C   UNL     1      -6.939  13.896  13.021  1.00  0.00     0.006 C 
BRANCH  12  13
ATOM     13  C   UNL     1      -7.448  14.402  14.377  1.00  0.00     0.053 C 
BRANCH  13  14
ATOM     14  C   UNL     1      -6.862  13.607  15.504  1.00  0.00     0.041 C 
ATOM     15  O   UNL     1      -7.171  12.393  15.647  1.00  0.00    -0.550 OA
ATOM     16  O   UNL     1      -5.944  14.190  16.371  1.00  0.00    -0.550 OA
ENDBRANCH  13  14
ENDBRANCH  12  13
ENDBRANCH  11  12
ENDBRANCH  10  11
ENDBRANCH   9  10
ENDBRANCH   8   9
ENDBRANCH   7   8
ENDBRANCH   6   7
ENDBRANCH   5   6
ENDBRANCH   4   5
ENDBRANCH   3   4
ENDBRANCH   2   3
ENDBRANCH   1   2
BRANCH   1  17
ATOM     17  C   UNL     1     -10.097  12.534   5.131  1.00  0.00     0.000 C 
BRANCH  17  18
ATOM     18  C   UNL     1      -9.113  13.355   4.278  1.00  0.00     0.000 C 
BRANCH  18  19
ATOM     19  C   UNL     1      -9.553  13.486   2.811  1.00  0.00     0.000 C 
BRANCH  19  20
ATOM     20  C   UNL     1      -8.571  14.341   1.982  1.00  0.00     0.000 C 
BRANCH  20  21
ATOM     21  C   UNL     1      -7.757  13.531   0.958  1.00  0.00     0.000 C 
BRANCH  21  22
ATOM     22  C   UNL     1      -6.387  13.091   1.501  1.00  0.00    -0.000 C 
BRANCH  22  23
ATOM     23  C   UNL     1      -6.383  11.625   1.985  1.00  0.00    -0.000 C 
BRANCH  23  24
ATOM     24  C   UNL     1      -5.843  11.437   3.417  1.00  0.00    -0.000 C 
BRANCH  24  25
ATOM     25  C   UNL     1      -4.878  10.255   3.608  1.00  0.00    -0.000 C 
BRANCH  25  26
ATOM     26  C   UNL     1      -5.599   8.948   3.981  1.00  0.00    -0.000 C 
BRANCH  26  27
ATOM     27  C   UNL     1      -4.885   8.163   5.095  1.00  0.00    -0.000 C 
BRANCH  27  28
ATOM     28  C   UNL     1      -4.456   8.996   6.321  1.00  0.00    -0.000 C 
BRANCH  28  29
ATOM     29  C   UNL     1      -4.866   8.412   7.685  1.00  0.00    -0.003 C 
ATOM     30  C   UNL     1      -5.619   7.090   7.564  1.00  0.00     0.004 C 
ENDBRANCH  28  29
ENDBRANCH  27  28
ENDBRANCH  26  27
ENDBRANCH  25  26
ENDBRANCH  24  25
ENDBRANCH  23  24
ENDBRANCH  22  23
ENDBRANCH  21  22
ENDBRANCH  20  21
ENDBRANCH  19  20
ENDBRANCH  18  19
ENDBRANCH  17  18
ENDBRANCH   1  17
TORSDOF 26
ENDMDL
MODEL 8
REMARK VINA RESULT:    -5.914      1.972      4.196
REMARK INTER + INTRA:         -17.505
REMARK INTER:                 -15.153
REMARK INTRA:                  -2.352
REMARK UNBOUND:                -2.601
REMARK SMILES CCCCCCCCCCCCCCCCCCCCCCCCCCCC(=O)[O-]
REMARK SMILES IDX 15 1 16 2 17 3 18 4 19 5 20 6 21 7 22 8 23 9 24 10 25 11
REMARK SMILES IDX 26 12 27 13 28 14 29 15 30 16 14 17 13 18 12 19 11 20 10 21
REMARK SMILES IDX 9 22 8 23 7 24 6 25 5 26 4 27 3 28 2 29 1 30
REMARK H PARENT
REMARK Flexibility Score: inf
ROOT
ATOM      1  C   UNL     1      -9.754  14.411   2.469  1.00  0.00     0.000 C 
ENDROOT
BRANCH   1   2
ATOM      2  C   UNL     1      -9.501  13.257   3.450  1.00  0.00     0.000 C 
BRANCH   2   3
ATOM      3  C   UNL     1      -9.875  11.908   2.815  1.00  0.00     0.000 C 
BRANCH   3   4
ATOM      4  C   UNL     1     -10.883  11.117   3.662  1.00  0.00     0.000 C 
BRANCH   4   5
ATOM      5  C   UNL     1     -10.888  11.551   5.137  1.00  0.00     0.000 C 
BRANCH   5   6
ATOM      6  C   UNL     1     -11.841  10.710   6.005  1.00  0.00     0.000 C 
BRANCH   6   7
ATOM      7  C   UNL     1     -12.046  11.285   7.422  1.00  0.00     0.000 C 
BRANCH   7   8
ATOM      8  C   UNL     1     -10.878  12.189   7.860  1.00  0.00     0.000 C 
BRANCH   8   9
ATOM      9  C   UNL     1     -11.139  12.877   9.209  1.00  0.00     0.000 C 
BRANCH   9  10
ATOM     10  C   UNL     1     -10.585  14.308   9.261  1.00  0.00     0.000 C 
BRANCH  10  11
ATOM     11  C   UNL     1      -9.058  14.306   9.090  1.00  0.00     0.000 C 
BRANCH  11  12
ATOM     12  C   UNL     1      -8.311  14.505  10.418  1.00  0.00     0.006 C 
BRANCH  12  13
ATOM     13  C   UNL     1      -8.411  13.285  11.343  1.00  0.00     0.053 C 
BRANCH  13  14
ATOM     14  C   UNL     1      -7.898  13.605  12.714  1.00  0.00     0.041 C 
ATOM     15  O   UNL     1      -7.551  12.676  13.491  1.00  0.00    -0.550 OA
ATOM     16  O   UNL     1      -7.761  14.929  13.120  1.00  0.00    -0.550 OA
ENDBRANCH  13  14
ENDBRANCH  12  13
ENDBRANCH  11  12
ENDBRANCH  10  11
ENDBRANCH   9  10
ENDBRANCH   8   9
ENDBRANCH   7   8
ENDBRANCH   6   7
ENDBRANCH   5   6
ENDBRANCH   4   5
ENDBRANCH   3   4
ENDBRANCH   2   3
ENDBRANCH   1   2
BRANCH   1  17
ATOM     17  C   UNL     1      -8.459  15.119   2.028  1.00  0.00     0.000 C 
BRANCH  17  18
ATOM     18  C   UNL     1      -7.853  14.606   0.709  1.00  0.00     0.000 C 
BRANCH  18  19
ATOM     19  C   UNL     1      -6.450  14.001   0.888  1.00  0.00     0.000 C 
BRANCH  19  20
ATOM     20  C   UNL     1      -6.507  12.508   1.278  1.00  0.00     0.000 C 
BRANCH  20  21
ATOM     21  C   UNL     1      -5.937  12.211   2.676  1.00  0.00     0.000 C 
BRANCH  21  22
ATOM     22  C   UNL     1      -6.495  10.912   3.281  1.00  0.00    -0.000 C 
BRANCH  22  23
ATOM     23  C   UNL     1      -6.521   9.747   2.268  1.00  0.00    -0.000 C 
BRANCH  23  24
ATOM     24  C   UNL     1      -5.480   8.645   2.550  1.00  0.00    -0.000 C 
BRANCH  24  25
ATOM     25  C   UNL     1      -5.832   7.687   3.701  1.00  0.00    -0.000 C 
BRANCH  25  26
ATOM     26  C   UNL     1      -4.973   7.920   4.956  1.00  0.00    -0.000 C 
BRANCH  26  27
ATOM     27  C   UNL     1      -5.486   7.155   6.189  1.00  0.00    -0.000 C 
BRANCH  27  28
ATOM     28  C   UNL     1      -5.234   7.843   7.547  1.00  0.00    -0.000 C 
BRANCH  28  29
ATOM     29  C   UNL     1      -4.058   8.836   7.568  1.00  0.00    -0.003 C 
ATOM     30  C   UNL     1      -4.110   9.794   8.755  1.00  0.00     0.004 C 
ENDBRANCH  28  29
ENDBRANCH  27  28
ENDBRANCH  26  27
ENDBRANCH  25  26
ENDBRANCH  24  25
ENDBRANCH  23  24
ENDBRANCH  22  23
ENDBRANCH  21  22
ENDBRANCH  20  21
ENDBRANCH  19  20
ENDBRANCH  18  19
ENDBRANCH  17  18
ENDBRANCH   1  17
TORSDOF 26
ENDMDL
MODEL 9
REMARK VINA RESULT:    -5.894      1.387      2.073
REMARK INTER + INTRA:         -17.453
REMARK INTER:                 -15.043
REMARK INTRA:                  -2.410
REMARK UNBOUND:                -2.601
REMARK SMILES CCCCCCCCCCCCCCCCCCCCCCCCCCCC(=O)[O-]
REMARK SMILES IDX 15 1 16 2 17 3 18 4 19 5 20 6 21 7 22 8 23 9 24 10 25 11
REMARK SMILES IDX 26 12 27 13 28 14 29 15 30 16 14 17 13 18 12 19 11 20 10 21
REMARK SMILES IDX 9 22 8 23 7 24 6 25 5 26 4 27 3 28 2 29 1 30
REMARK H PARENT
REMARK Flexibility Score: inf
ROOT
ATOM      1  C   UNL     1     -10.851  11.883   7.123  1.00  0.00     0.000 C 
ENDROOT
BRANCH   1   2
ATOM      2  C   UNL     1     -11.446  12.088   8.525  1.00  0.00     0.000 C 
BRANCH   2   3
ATOM      3  C   UNL     1     -10.694  13.194   9.281  1.00  0.00     0.000 C 
BRANCH   3   4
ATOM      4  C   UNL     1      -9.659  13.912   8.400  1.00  0.00     0.000 C 
BRANCH   4   5
ATOM      5  C   UNL     1      -8.505  14.517   9.215  1.00  0.00     0.000 C 
BRANCH   5   6
ATOM      6  C   UNL     1      -8.981  15.551  10.250  1.00  0.00     0.000 C 
BRANCH   6   7
ATOM      7  C   UNL     1      -7.825  16.265  10.980  1.00  0.00     0.000 C 
BRANCH   7   8
ATOM      8  C   UNL     1      -7.945  16.156  12.512  1.00  0.00     0.000 C 
BRANCH   8   9
ATOM      9  C   UNL     1      -8.004  14.699  12.997  1.00  0.00     0.000 C 
BRANCH   9  10
ATOM     10  C   UNL     1      -6.777  13.882  12.565  1.00  0.00     0.000 C 
BRANCH  10  11
ATOM     11  C   UNL     1      -7.208  12.556  11.918  1.00  0.00     0.000 C 
BRANCH  11  12
ATOM     12  C   UNL     1      -8.596  12.090  12.385  1.00  0.00     0.006 C 
BRANCH  12  13
ATOM     13  C   UNL     1      -8.551  10.749  13.130  1.00  0.00     0.053 C 
BRANCH  13  14
ATOM     14  C   UNL     1      -7.939  10.908  14.489  1.00  0.00     0.041 C 
ATOM     15  O   UNL     1      -7.068  10.090  14.888  1.00  0.00    -0.550 OA
ATOM     16  O   UNL     1      -8.298  11.982  15.297  1.00  0.00    -0.550 OA
ENDBRANCH  13  14
ENDBRANCH  12  13
ENDBRANCH  11  12
ENDBRANCH  10  11
ENDBRANCH   9  10
ENDBRANCH   8   9
ENDBRANCH   7   8
ENDBRANCH   6   7
ENDBRANCH   5   6
ENDBRANCH   4   5
ENDBRANCH   3   4
ENDBRANCH   2   3
ENDBRANCH   1   2
BRANCH   1  17
ATOM     17  C   UNL     1     -11.740  11.015   6.214  1.00  0.00     0.000 C 
BRANCH  17  18
ATOM     18  C   UNL     1     -11.509  11.204   4.703  1.00  0.00     0.000 C 
BRANCH  18  19
ATOM     19  C   UNL     1     -10.078  11.656   4.367  1.00  0.00     0.000 C 
BRANCH  19  20
ATOM     20  C   UNL     1     -10.058  12.979   3.573  1.00  0.00     0.000 C 
BRANCH  20  21
ATOM     21  C   UNL     1      -8.706  13.278   2.901  1.00  0.00     0.000 C 
BRANCH  21  22
ATOM     22  C   UNL     1      -7.513  12.705   3.684  1.00  0.00    -0.000 C 
BRANCH  22  23
ATOM     23  C   UNL     1      -6.678  11.709   2.851  1.00  0.00    -0.000 C 
BRANCH  23  24
ATOM     24  C   UNL     1      -5.310  11.363   3.472  1.00  0.00    -0.000 C 
BRANCH  24  25
ATOM     25  C   UNL     1      -5.071   9.868   3.746  1.00  0.00    -0.000 C 
BRANCH  25  26
ATOM     26  C   UNL     1      -4.530   9.599   5.162  1.00  0.00    -0.000 C 
BRANCH  26  27
ATOM     27  C   UNL     1      -4.347   8.101   5.462  1.00  0.00    -0.000 C 
BRANCH  27  28
ATOM     28  C   UNL     1      -4.044   7.754   6.935  1.00  0.00    -0.000 C 
BRANCH  28  29
ATOM     29  C   UNL     1      -4.889   8.515   7.973  1.00  0.00    -0.003 C 
ATOM     30  C   UNL     1      -4.126   9.658   8.639  1.00  0.00     0.004 C 
ENDBRANCH  28  29
ENDBRANCH  27  28
ENDBRANCH  26  27
ENDBRANCH  25  26
ENDBRANCH  24  25
ENDBRANCH  23  24
ENDBRANCH  22  23
ENDBRANCH  21  22
ENDBRANCH  20  21
ENDBRANCH  19  20
ENDBRANCH  18  19
ENDBRANCH  17  18
ENDBRANCH   1  17
TORSDOF 26
ENDMDL
