MODEL 1
REMARK VINA RESULT:    -4.513      0.000      0.000
REMARK INTER + INTRA:          -4.924
REMARK INTER:                  -4.777
REMARK INTRA:                  -0.147
REMARK UNBOUND:                -0.147
REMARK SMILES CC1=CC[C@@H](C(C)C)C=C1
REMARK SMILES IDX 1 1 2 2 3 3 4 4 5 5 9 6 10 7 6 8 7 9 8 10
REMARK H PARENT
REMARK Flexibility Score: inf
ROOT
ATOM      1  C   UNL     1     176.974 175.070 179.798  1.00  0.00     0.044 C 
ATOM      2  C   UNL     1     176.233 174.318 178.734  1.00  0.00    -0.055 C 
ATOM      3  C   UNL     1     176.901 173.577 177.838  1.00  0.00    -0.023 C 
ATOM      4  C   UNL     1     176.160 172.769 176.804  1.00  0.00     0.035 C 
ATOM      5  C   UNL     1     174.885 173.509 176.323  1.00  0.00     0.018 C 
ATOM      6  C   UNL     1     174.118 174.015 177.535  1.00  0.00    -0.023 C 
ATOM      7  C   UNL     1     174.763 174.445 178.625  1.00  0.00    -0.001 C 
ENDROOT
BRANCH   5   8
ATOM      8  C   UNL     1     173.981 172.631 175.402  1.00  0.00    -0.010 C 
ATOM      9  C   UNL     1     172.557 172.503 175.977  1.00  0.00     0.008 C 
ATOM     10  C   UNL     1     173.881 173.187 173.969  1.00  0.00     0.008 C 
ENDBRANCH   5   8
TORSDOF 1
ENDMDL
MODEL 2
REMARK VINA RESULT:    -4.499      5.627      6.345
REMARK INTER + INTRA:          -4.908
REMARK INTER:                  -4.763
REMARK INTRA:                  -0.146
REMARK UNBOUND:                -0.147
REMARK SMILES CC1=CC[C@@H](C(C)C)C=C1
REMARK SMILES IDX 1 1 2 2 3 3 4 4 5 5 9 6 10 7 6 8 7 9 8 10
REMARK H PARENT
REMARK Flexibility Score: inf
ROOT
ATOM      1  C   UNL     1     175.028 177.361 179.767  1.00  0.00     0.044 C 
ATOM      2  C   UNL     1     174.278 178.118 178.712  1.00  0.00    -0.055 C 
ATOM      3  C   UNL     1     173.538 177.464 177.806  1.00  0.00    -0.023 C 
ATOM      4  C   UNL     1     172.732 178.220 176.782  1.00  0.00     0.035 C 
ATOM      5  C   UNL     1     173.474 179.501 176.320  1.00  0.00     0.018 C 
ATOM      6  C   UNL     1     173.979 180.251 177.543  1.00  0.00    -0.023 C 
ATOM      7  C   UNL     1     174.407 179.589 178.624  1.00  0.00    -0.001 C 
ENDROOT
BRANCH   5   8
ATOM      8  C   UNL     1     172.598 180.419 175.410  1.00  0.00    -0.010 C 
ATOM      9  C   UNL     1     172.506 181.847 175.984  1.00  0.00     0.008 C 
ATOM     10  C   UNL     1     173.132 180.505 173.969  1.00  0.00     0.008 C 
ENDBRANCH   5   8
TORSDOF 1
ENDMDL
MODEL 3
REMARK VINA RESULT:    -4.493      7.303      9.071
REMARK INTER + INTRA:          -4.902
REMARK INTER:                  -4.755
REMARK INTRA:                  -0.147
REMARK UNBOUND:                -0.147
REMARK SMILES CC1=CC[C@@H](C(C)C)C=C1
REMARK SMILES IDX 1 1 2 2 3 3 4 4 5 5 9 6 10 7 6 8 7 9 8 10
REMARK H PARENT
REMARK Flexibility Score: inf
ROOT
ATOM      1  C   UNL     1     177.246 179.618 179.734  1.00  0.00     0.044 C 
ATOM      2  C   UNL     1     178.041 180.312 178.669  1.00  0.00    -0.055 C 
ATOM      3  C   UNL     1     177.426 181.069 177.749  1.00  0.00    -0.023 C 
ATOM      4  C   UNL     1     178.223 181.820 176.715  1.00  0.00     0.035 C 
ATOM      5  C   UNL     1     179.466 181.008 176.268  1.00  0.00     0.018 C 
ATOM      6  C   UNL     1     180.187 180.485 177.501  1.00  0.00    -0.023 C 
ATOM      7  C   UNL     1     179.504 180.109 178.587  1.00  0.00    -0.001 C 
ENDROOT
BRANCH   5   8
ATOM      8  C   UNL     1     180.429 181.822 175.347  1.00  0.00    -0.010 C 
ATOM      9  C   UNL     1     181.838 181.920 175.962  1.00  0.00     0.008 C 
ATOM     10  C   UNL     1     180.551 181.215 173.937  1.00  0.00     0.008 C 
ENDBRANCH   5   8
TORSDOF 1
ENDMDL
MODEL 4
REMARK VINA RESULT:    -4.472      7.878      9.106
REMARK INTER + INTRA:          -4.880
REMARK INTER:                  -4.685
REMARK INTRA:                  -0.195
REMARK UNBOUND:                -0.147
REMARK SMILES CC1=CC[C@@H](C(C)C)C=C1
REMARK SMILES IDX 1 1 2 2 3 3 4 4 5 5 9 6 10 7 6 8 7 9 8 10
REMARK H PARENT
REMARK Flexibility Score: inf
ROOT
ATOM      1  C   UNL     1     177.543 180.323 179.432  1.00  0.00     0.044 C 
ATOM      2  C   UNL     1     178.499 180.465 178.285  1.00  0.00    -0.055 C 
ATOM      3  C   UNL     1     179.717 179.907 178.346  1.00  0.00    -0.023 C 
ATOM      4  C   UNL     1     180.659 179.992 177.173  1.00  0.00     0.035 C 
ATOM      5  C   UNL     1     180.523 181.352 176.442  1.00  0.00     0.018 C 
ATOM      6  C   UNL     1     179.049 181.646 176.211  1.00  0.00    -0.023 C 
ATOM      7  C   UNL     1     178.127 181.280 177.108  1.00  0.00    -0.001 C 
ENDROOT
BRANCH   5   8
ATOM      8  C   UNL     1     181.333 181.413 175.108  1.00  0.00    -0.010 C 
ATOM      9  C   UNL     1     182.463 180.366 175.095  1.00  0.00     0.008 C 
ATOM     10  C   UNL     1     180.447 181.192 173.869  1.00  0.00     0.008 C 
ENDBRANCH   5   8
TORSDOF 1
ENDMDL
MODEL 5
REMARK VINA RESULT:    -4.432      8.135      9.554
REMARK INTER + INTRA:          -4.838
REMARK INTER:                  -4.705
REMARK INTRA:                  -0.133
REMARK UNBOUND:                -0.147
REMARK SMILES CC1=CC[C@@H](C(C)C)C=C1
REMARK SMILES IDX 1 1 2 2 3 3 4 4 5 5 9 6 10 7 6 8 7 9 8 10
REMARK H PARENT
REMARK Flexibility Score: inf
ROOT
ATOM      1  C   UNL     1     183.809 180.363 174.878  1.00  0.00     0.044 C 
ATOM      2  C   UNL     1     182.401 180.508 175.374  1.00  0.00    -0.055 C 
ATOM      3  C   UNL     1     181.870 181.725 175.558  1.00  0.00    -0.023 C 
ATOM      4  C   UNL     1     180.437 181.879 175.996  1.00  0.00     0.035 C 
ATOM      5  C   UNL     1     180.030 180.757 176.986  1.00  0.00     0.018 C 
ATOM      6  C   UNL     1     180.477 179.415 176.426  1.00  0.00    -0.023 C 
ATOM      7  C   UNL     1     181.615 179.307 175.731  1.00  0.00    -0.001 C 
ENDROOT
BRANCH   5   8
ATOM      8  C   UNL     1     178.504 180.756 177.315  1.00  0.00    -0.010 C 
ATOM      9  C   UNL     1     178.262 180.853 178.834  1.00  0.00     0.008 C 
ATOM     10  C   UNL     1     177.750 181.909 176.626  1.00  0.00     0.008 C 
ENDBRANCH   5   8
TORSDOF 1
ENDMDL
MODEL 6
REMARK VINA RESULT:    -4.430      5.088      6.117
REMARK INTER + INTRA:          -4.835
REMARK INTER:                  -4.644
REMARK INTRA:                  -0.191
REMARK UNBOUND:                -0.147
REMARK SMILES CC1=CC[C@@H](C(C)C)C=C1
REMARK SMILES IDX 1 1 2 2 3 3 4 4 5 5 9 6 10 7 6 8 7 9 8 10
REMARK H PARENT
REMARK Flexibility Score: inf
ROOT
ATOM      1  C   UNL     1     180.086 176.983 179.484  1.00  0.00     0.044 C 
ATOM      2  C   UNL     1     180.278 176.050 178.326  1.00  0.00    -0.055 C 
ATOM      3  C   UNL     1     179.579 174.908 178.253  1.00  0.00    -0.023 C 
ATOM      4  C   UNL     1     179.720 173.996 177.063  1.00  0.00     0.035 C 
ATOM      5  C   UNL     1     181.178 173.985 176.535  1.00  0.00     0.018 C 
ATOM      6  C   UNL     1     181.673 175.418 176.414  1.00  0.00    -0.023 C 
ATOM      7  C   UNL     1     181.292 176.352 177.292  1.00  0.00    -0.001 C 
ENDROOT
BRANCH   5   8
ATOM      8  C   UNL     1     181.335 173.212 175.188  1.00  0.00    -0.010 C 
ATOM      9  C   UNL     1     180.309 172.066 175.081  1.00  0.00     0.008 C 
ATOM     10  C   UNL     1     181.176 174.126 173.960  1.00  0.00     0.008 C 
ENDBRANCH   5   8
TORSDOF 1
ENDMDL
MODEL 7
REMARK VINA RESULT:    -4.416      6.257      7.190
REMARK INTER + INTRA:          -4.821
REMARK INTER:                  -4.622
REMARK INTRA:                  -0.199
REMARK UNBOUND:                -0.147
REMARK SMILES CC1=CC[C@@H](C(C)C)C=C1
REMARK SMILES IDX 1 1 2 2 3 3 4 4 5 5 9 6 10 7 6 8 7 9 8 10
REMARK H PARENT
REMARK Flexibility Score: inf
ROOT
ATOM      1  C   UNL     1     174.407 183.052 174.978  1.00  0.00     0.044 C 
ATOM      2  C   UNL     1     174.092 181.680 175.494  1.00  0.00    -0.055 C 
ATOM      3  C   UNL     1     172.880 181.143 175.296  1.00  0.00    -0.023 C 
ATOM      4  C   UNL     1     172.576 179.741 175.757  1.00  0.00     0.035 C 
ATOM      5  C   UNL     1     173.298 179.421 177.092  1.00  0.00     0.018 C 
ATOM      6  C   UNL     1     174.753 179.850 176.984  1.00  0.00    -0.023 C 
ATOM      7  C   UNL     1     175.098 180.938 176.287  1.00  0.00    -0.001 C 
ENDROOT
BRANCH   5   8
ATOM      8  C   UNL     1     173.175 177.922 177.509  1.00  0.00    -0.010 C 
ATOM      9  C   UNL     1     173.046 177.009 176.274  1.00  0.00     0.008 C 
ATOM     10  C   UNL     1     174.373 177.442 178.348  1.00  0.00     0.008 C 
ENDBRANCH   5   8
TORSDOF 1
ENDMDL
MODEL 8
REMARK VINA RESULT:    -4.332      4.822      6.977
REMARK INTER + INTRA:          -4.732
REMARK INTER:                  -4.534
REMARK INTRA:                  -0.198
REMARK UNBOUND:                -0.147
REMARK SMILES CC1=CC[C@@H](C(C)C)C=C1
REMARK SMILES IDX 1 1 2 2 3 3 4 4 5 5 9 6 10 7 6 8 7 9 8 10
REMARK H PARENT
REMARK Flexibility Score: inf
ROOT
ATOM      1  C   UNL     1     179.998 171.467 174.875  1.00  0.00     0.044 C 
ATOM      2  C   UNL     1     180.323 172.782 175.517  1.00  0.00    -0.055 C 
ATOM      3  C   UNL     1     181.554 173.304 175.408  1.00  0.00    -0.023 C 
ATOM      4  C   UNL     1     181.870 174.653 175.997  1.00  0.00     0.035 C 
ATOM      5  C   UNL     1     181.107 174.877 177.328  1.00  0.00     0.018 C 
ATOM      6  C   UNL     1     179.647 174.495 177.134  1.00  0.00    -0.023 C 
ATOM      7  C   UNL     1     179.306 173.478 176.334  1.00  0.00    -0.001 C 
ENDROOT
BRANCH   5   8
ATOM      8  C   UNL     1     181.247 176.332 177.876  1.00  0.00    -0.010 C 
ATOM      9  C   UNL     1     181.129 177.368 176.741  1.00  0.00     0.008 C 
ATOM     10  C   UNL     1     180.195 176.663 178.951  1.00  0.00     0.008 C 
ENDBRANCH   5   8
TORSDOF 1
ENDMDL
MODEL 9
REMARK VINA RESULT:    -4.308      5.411      7.083
REMARK INTER + INTRA:          -4.706
REMARK INTER:                  -4.506
REMARK INTRA:                  -0.200
REMARK UNBOUND:                -0.147
REMARK SMILES CC1=CC[C@@H](C(C)C)C=C1
REMARK SMILES IDX 1 1 2 2 3 3 4 4 5 5 9 6 10 7 6 8 7 9 8 10
REMARK H PARENT
REMARK Flexibility Score: inf
ROOT
ATOM      1  C   UNL     1     181.863 173.397 175.295  1.00  0.00     0.044 C 
ATOM      2  C   UNL     1     181.331 174.390 176.285  1.00  0.00    -0.055 C 
ATOM      3  C   UNL     1     181.859 175.621 176.360  1.00  0.00    -0.023 C 
ATOM      4  C   UNL     1     181.290 176.644 177.307  1.00  0.00     0.035 C 
ATOM      5  C   UNL     1     180.811 175.982 178.625  1.00  0.00     0.018 C 
ATOM      6  C   UNL     1     179.972 174.758 178.290  1.00  0.00    -0.023 C 
ATOM      7  C   UNL     1     180.266 173.995 177.231  1.00  0.00    -0.001 C 
ENDROOT
BRANCH   5   8
ATOM      8  C   UNL     1     180.035 176.966 179.557  1.00  0.00    -0.010 C 
ATOM      9  C   UNL     1     179.636 178.249 178.802  1.00  0.00     0.008 C 
ATOM     10  C   UNL     1     178.765 176.336 180.156  1.00  0.00     0.008 C 
ENDBRANCH   5   8
TORSDOF 1
ENDMDL
