MODEL 1
REMARK VINA RESULT:   109.257      0.000      0.000
REMARK INTER + INTRA:         112.450
REMARK INTER:                 112.450
REMARK INTRA:                   0.000
REMARK UNBOUND:                 0.000
REMARK SMILES CC1(C)CC[C@]2(C)CC[C@]3(C)C(=CC[C@@H]4[C@@]5(C)CC[C@H](O)C(C)(C)[C@H]5CC[C@]43C)[C@@H]2C1
REMARK SMILES IDX 1 1 2 2 4 3 5 4 6 5 8 6 9 7 10 8 12 9 13 10 14 11 15 12
REMARK SMILES IDX 28 13 27 14 26 15 25 16 16 17 18 18 19 19 20 20 22 21 23 22
REMARK SMILES IDX 24 23 17 24 29 25 30 26 31 27 11 28 7 29 3 30 21 31
REMARK H PARENT 21 32
REMARK Flexibility Score: inf
ROOT
ATOM      1  C   UNL     1     -27.897  26.245   5.630  1.00  0.00     0.011 C 
ATOM      2  C   UNL     1     -28.843  26.853   6.693  1.00  0.00    -0.035 C 
ATOM      3  C   UNL     1     -29.163  28.335   6.396  1.00  0.00     0.007 C 
ATOM      4  C   UNL     1     -29.977  28.516   5.111  1.00  0.00     0.008 C 
ATOM      5  C   UNL     1     -31.313  27.707   5.085  1.00  0.00    -0.026 C 
ATOM      6  C   UNL     1     -32.423  28.431   5.934  1.00  0.00     0.008 C 
ATOM      7  C   UNL     1     -33.106  27.621   7.067  1.00  0.00     0.012 C 
ATOM      8  C   UNL     1     -33.417  26.094   6.797  1.00  0.00    -0.006 C 
ATOM      9  C   UNL     1     -32.432  25.544   5.756  1.00  0.00    -0.064 C 
ATOM     10  C   UNL     1     -32.718  24.427   5.049  1.00  0.00    -0.027 C 
ATOM     11  C   UNL     1     -34.094  23.821   4.942  1.00  0.00     0.032 C 
ATOM     12  C   UNL     1     -35.111  24.309   6.013  1.00  0.00     0.006 C 
ATOM     13  C   UNL     1     -34.937  25.850   6.317  1.00  0.00    -0.020 C 
ATOM     14  C   UNL     1     -35.955  26.319   7.424  1.00  0.00     0.008 C 
ATOM     15  C   UNL     1     -36.982  25.261   7.844  1.00  0.00     0.005 C 
ATOM     16  C   UNL     1     -37.675  24.637   6.602  1.00  0.00     0.003 C 
ATOM     17  C   UNL     1     -36.608  23.753   5.812  1.00  0.00    -0.025 C 
ATOM     18  C   UNL     1     -36.616  22.288   6.362  1.00  0.00     0.010 C 
ATOM     19  C   UNL     1     -38.000  21.661   6.462  1.00  0.00     0.033 C 
ATOM     20  C   UNL     1     -38.888  22.469   7.409  1.00  0.00     0.120 C 
ATOM     21  C   UNL     1     -39.086  23.937   6.927  1.00  0.00    -0.006 C 
ATOM     22  C   UNL     1     -40.038  23.977   5.687  1.00  0.00     0.014 C 
ATOM     23  C   UNL     1     -39.856  24.700   8.047  1.00  0.00     0.014 C 
ATOM     24  C   UNL     1     -36.963  23.705   4.296  1.00  0.00     0.012 C 
ATOM     25  C   UNL     1     -35.254  26.672   5.035  1.00  0.00     0.012 C 
ATOM     26  C   UNL     1     -31.084  26.229   5.536  1.00  0.00     0.022 C 
ATOM     27  C   UNL     1     -30.170  26.068   6.778  1.00  0.00     0.015 C 
ATOM     28  C   UNL     1     -33.136  25.285   8.125  1.00  0.00     0.017 C 
ATOM     29  C   UNL     1     -31.768  27.697   3.600  1.00  0.00     0.012 C 
ATOM     30  C   UNL     1     -28.128  26.771   8.060  1.00  0.00     0.011 C 
ENDROOT
BRANCH  20  31
ATOM     31  O   UNL     1     -40.125  21.807   7.529  1.00  0.00    -0.393 OA
ATOM     32  H   UNL     1     -40.343  21.758   8.497  1.00  0.00     0.210 HD
ENDBRANCH  20  31
TORSDOF 1
ENDMDL
