MODEL 1
REMARK VINA RESULT:    -4.813      0.000      0.000
REMARK INTER + INTRA:         -15.279
REMARK INTER:                 -12.690
REMARK INTRA:                  -2.588
REMARK UNBOUND:                -2.588
REMARK SMILES CCCCCCCCCCCCCCCCCCCCCCCCCCCCCC(=O)[O-]
REMARK SMILES IDX 16 1 17 2 18 3 19 4 20 5 21 6 22 7 23 8 24 9 25 10 26 11
REMARK SMILES IDX 27 12 28 13 29 14 30 15 31 16 32 17 15 18 14 19 13 20 12 21
REMARK SMILES IDX 11 22 10 23 9 24 8 25 7 26 6 27 5 28 4 29 3 30 2 31 1 32
REMARK H PARENT
REMARK Flexibility Score: inf
ROOT
ATOM      1  C   UNL     1      49.332  58.928  95.230  1.00  0.00     0.000 C 
ENDROOT
BRANCH   1   2
ATOM      2  C   UNL     1      50.385  58.010  94.570  1.00  0.00     0.000 C 
BRANCH   2   3
ATOM      3  C   UNL     1      51.326  57.280  95.553  1.00  0.00     0.000 C 
BRANCH   3   4
ATOM      4  C   UNL     1      52.632  56.738  94.941  1.00  0.00     0.000 C 
BRANCH   4   5
ATOM      5  C   UNL     1      52.748  55.209  95.025  1.00  0.00     0.000 C 
BRANCH   5   6
ATOM      6  C   UNL     1      53.042  54.608  93.641  1.00  0.00     0.000 C 
BRANCH   6   7
ATOM      7  C   UNL     1      51.789  54.029  92.960  1.00  0.00     0.000 C 
BRANCH   7   8
ATOM      8  C   UNL     1      51.926  53.787  91.444  1.00  0.00     0.000 C 
BRANCH   8   9
ATOM      9  C   UNL     1      52.557  54.949  90.651  1.00  0.00     0.000 C 
BRANCH   9  10
ATOM     10  C   UNL     1      51.650  56.183  90.468  1.00  0.00     0.000 C 
BRANCH  10  11
ATOM     11  C   UNL     1      51.766  57.240  91.580  1.00  0.00     0.000 C 
BRANCH  11  12
ATOM     12  C   UNL     1      53.022  58.115  91.440  1.00  0.00     0.000 C 
BRANCH  12  13
ATOM     13  C   UNL     1      53.201  59.105  92.606  1.00  0.00     0.006 C 
BRANCH  13  14
ATOM     14  C   UNL     1      52.274  60.331  92.529  1.00  0.00     0.053 C 
BRANCH  14  15
ATOM     15  C   UNL     1      53.029  61.615  92.366  1.00  0.00     0.041 C 
ATOM     16  O   UNL     1      53.077  62.449  93.309  1.00  0.00    -0.550 OA
ATOM     17  O   UNL     1      53.705  61.879  91.180  1.00  0.00    -0.550 OA
ENDBRANCH  14  15
ENDBRANCH  13  14
ENDBRANCH  12  13
ENDBRANCH  11  12
ENDBRANCH  10  11
ENDBRANCH   9  10
ENDBRANCH   8   9
ENDBRANCH   7   8
ENDBRANCH   6   7
ENDBRANCH   5   6
ENDBRANCH   4   5
ENDBRANCH   3   4
ENDBRANCH   2   3
ENDBRANCH   1   2
BRANCH   1  18
ATOM     18  C   UNL     1      49.726  60.419  95.272  1.00  0.00     0.000 C 
BRANCH  18  19
ATOM     19  C   UNL     1      49.849  61.115  93.902  1.00  0.00     0.000 C 
BRANCH  19  20
ATOM     20  C   UNL     1      48.539  61.192  93.093  1.00  0.00     0.000 C 
BRANCH  20  21
ATOM     21  C   UNL     1      48.223  62.617  92.604  1.00  0.00     0.000 C 
BRANCH  21  22
ATOM     22  C   UNL     1      49.028  63.696  93.354  1.00  0.00     0.000 C 
BRANCH  22  23
ATOM     23  C   UNL     1      48.624  65.150  93.023  1.00  0.00     0.000 C 
BRANCH  23  24
ATOM     24  C   UNL     1      47.336  65.275  92.187  1.00  0.00    -0.000 C 
BRANCH  24  25
ATOM     25  C   UNL     1      47.032  66.711  91.718  1.00  0.00    -0.000 C 
BRANCH  25  26
ATOM     26  C   UNL     1      48.276  67.614  91.764  1.00  0.00    -0.000 C 
BRANCH  26  27
ATOM     27  C   UNL     1      49.057  67.619  90.440  1.00  0.00    -0.000 C 
BRANCH  27  28
ATOM     28  C   UNL     1      50.539  67.249  90.627  1.00  0.00    -0.000 C 
BRANCH  28  29
ATOM     29  C   UNL     1      51.183  67.954  91.833  1.00  0.00    -0.000 C 
BRANCH  29  30
ATOM     30  C   UNL     1      51.839  67.012  92.861  1.00  0.00    -0.000 C 
BRANCH  30  31
ATOM     31  C   UNL     1      52.550  67.748  94.016  1.00  0.00    -0.003 C 
ATOM     32  C   UNL     1      54.031  67.382  94.115  1.00  0.00     0.004 C 
ENDBRANCH  30  31
ENDBRANCH  29  30
ENDBRANCH  28  29
ENDBRANCH  27  28
ENDBRANCH  26  27
ENDBRANCH  25  26
ENDBRANCH  24  25
ENDBRANCH  23  24
ENDBRANCH  22  23
ENDBRANCH  21  22
ENDBRANCH  20  21
ENDBRANCH  19  20
ENDBRANCH  18  19
ENDBRANCH   1  18
TORSDOF 28
ENDMDL
MODEL 2
REMARK VINA RESULT:    -4.780      2.471      9.323
REMARK INTER + INTRA:         -15.194
REMARK INTER:                 -11.366
REMARK INTRA:                  -3.827
REMARK UNBOUND:                -2.588
REMARK SMILES CCCCCCCCCCCCCCCCCCCCCCCCCCCCCC(=O)[O-]
REMARK SMILES IDX 16 1 17 2 18 3 19 4 20 5 21 6 22 7 23 8 24 9 25 10 26 11
REMARK SMILES IDX 27 12 28 13 29 14 30 15 31 16 32 17 15 18 14 19 13 20 12 21
REMARK SMILES IDX 11 22 10 23 9 24 8 25 7 26 6 27 5 28 4 29 3 30 2 31 1 32
REMARK H PARENT
REMARK Flexibility Score: inf
ROOT
ATOM      1  C   UNL     1      49.355  60.145  94.816  1.00  0.00     0.000 C 
ENDROOT
BRANCH   1   2
ATOM      2  C   UNL     1      49.453  61.625  94.383  1.00  0.00     0.000 C 
BRANCH   2   3
ATOM      3  C   UNL     1      48.874  61.938  92.987  1.00  0.00     0.000 C 
BRANCH   3   4
ATOM      4  C   UNL     1      48.380  63.384  92.784  1.00  0.00     0.000 C 
BRANCH   4   5
ATOM      5  C   UNL     1      49.380  64.438  93.284  1.00  0.00     0.000 C 
BRANCH   5   6
ATOM      6  C   UNL     1      48.643  65.655  93.865  1.00  0.00     0.000 C 
BRANCH   6   7
ATOM      7  C   UNL     1      49.502  66.932  93.866  1.00  0.00     0.000 C 
BRANCH   7   8
ATOM      8  C   UNL     1      50.903  66.775  93.241  1.00  0.00     0.000 C 
BRANCH   8   9
ATOM      9  C   UNL     1      50.985  67.096  91.735  1.00  0.00     0.000 C 
BRANCH   9  10
ATOM     10  C   UNL     1      49.952  68.124  91.230  1.00  0.00     0.000 C 
BRANCH  10  11
ATOM     11  C   UNL     1      49.135  67.671  90.007  1.00  0.00     0.000 C 
BRANCH  11  12
ATOM     12  C   UNL     1      48.119  66.568  90.347  1.00  0.00     0.000 C 
BRANCH  12  13
ATOM     13  C   UNL     1      46.942  67.075  91.202  1.00  0.00     0.006 C 
BRANCH  13  14
ATOM     14  C   UNL     1      45.658  66.242  91.049  1.00  0.00     0.053 C 
BRANCH  14  15
ATOM     15  C   UNL     1      45.228  65.603  92.334  1.00  0.00     0.041 C 
ATOM     16  O   UNL     1      45.107  66.294  93.379  1.00  0.00    -0.550 OA
ATOM     17  O   UNL     1      44.933  64.244  92.370  1.00  0.00    -0.550 OA
ENDBRANCH  14  15
ENDBRANCH  13  14
ENDBRANCH  12  13
ENDBRANCH  11  12
ENDBRANCH  10  11
ENDBRANCH   9  10
ENDBRANCH   8   9
ENDBRANCH   7   8
ENDBRANCH   6   7
ENDBRANCH   5   6
ENDBRANCH   4   5
ENDBRANCH   3   4
ENDBRANCH   2   3
ENDBRANCH   1   2
BRANCH   1  18
ATOM     18  C   UNL     1      49.818  59.137  93.743  1.00  0.00     0.000 C 
BRANCH  18  19
ATOM     19  C   UNL     1      50.141  57.719  94.255  1.00  0.00     0.000 C 
BRANCH  19  20
ATOM     20  C   UNL     1      51.072  57.668  95.482  1.00  0.00     0.000 C 
BRANCH  20  21
ATOM     21  C   UNL     1      52.476  57.134  95.144  1.00  0.00     0.000 C 
BRANCH  21  22
ATOM     22  C   UNL     1      52.557  55.596  95.200  1.00  0.00     0.000 C 
BRANCH  22  23
ATOM     23  C   UNL     1      53.224  54.939  93.971  1.00  0.00     0.000 C 
BRANCH  23  24
ATOM     24  C   UNL     1      52.245  54.201  93.038  1.00  0.00    -0.000 C 
BRANCH  24  25
ATOM     25  C   UNL     1      52.099  54.847  91.646  1.00  0.00    -0.000 C 
BRANCH  25  26
ATOM     26  C   UNL     1      51.506  56.265  91.722  1.00  0.00    -0.000 C 
BRANCH  26  27
ATOM     27  C   UNL     1      52.377  57.314  91.015  1.00  0.00    -0.000 C 
BRANCH  27  28
ATOM     28  C   UNL     1      52.894  58.398  91.976  1.00  0.00    -0.000 C 
BRANCH  28  29
ATOM     29  C   UNL     1      53.505  59.605  91.242  1.00  0.00    -0.000 C 
BRANCH  29  30
ATOM     30  C   UNL     1      52.806  60.951  91.515  1.00  0.00    -0.000 C 
BRANCH  30  31
ATOM     31  C   UNL     1      52.567  61.237  93.012  1.00  0.00    -0.003 C 
ATOM     32  C   UNL     1      52.983  62.655  93.408  1.00  0.00     0.004 C 
ENDBRANCH  30  31
ENDBRANCH  29  30
ENDBRANCH  28  29
ENDBRANCH  27  28
ENDBRANCH  26  27
ENDBRANCH  25  26
ENDBRANCH  24  25
ENDBRANCH  23  24
ENDBRANCH  22  23
ENDBRANCH  21  22
ENDBRANCH  20  21
ENDBRANCH  19  20
ENDBRANCH  18  19
ENDBRANCH   1  18
TORSDOF 28
ENDMDL
MODEL 3
REMARK VINA RESULT:    -4.706      1.798      8.898
REMARK INTER + INTRA:         -14.996
REMARK INTER:                 -11.428
REMARK INTRA:                  -3.568
REMARK UNBOUND:                -2.588
REMARK SMILES CCCCCCCCCCCCCCCCCCCCCCCCCCCCCC(=O)[O-]
REMARK SMILES IDX 16 1 17 2 18 3 19 4 20 5 21 6 22 7 23 8 24 9 25 10 26 11
REMARK SMILES IDX 27 12 28 13 29 14 30 15 31 16 32 17 15 18 14 19 13 20 12 21
REMARK SMILES IDX 11 22 10 23 9 24 8 25 7 26 6 27 5 28 4 29 3 30 2 31 1 32
REMARK H PARENT
REMARK Flexibility Score: inf
ROOT
ATOM      1  C   UNL     1      49.196  59.228  94.927  1.00  0.00     0.000 C 
ENDROOT
BRANCH   1   2
ATOM      2  C   UNL     1      49.834  60.603  95.227  1.00  0.00     0.000 C 
BRANCH   2   3
ATOM      3  C   UNL     1      49.375  61.753  94.305  1.00  0.00     0.000 C 
BRANCH   3   4
ATOM      4  C   UNL     1      48.664  61.316  93.008  1.00  0.00     0.000 C 
BRANCH   4   5
ATOM      5  C   UNL     1      47.881  62.455  92.338  1.00  0.00     0.000 C 
BRANCH   5   6
ATOM      6  C   UNL     1      48.518  63.817  92.657  1.00  0.00     0.000 C 
BRANCH   6   7
ATOM      7  C   UNL     1      47.580  65.001  92.364  1.00  0.00     0.000 C 
BRANCH   7   8
ATOM      8  C   UNL     1      48.270  66.247  91.775  1.00  0.00     0.000 C 
BRANCH   8   9
ATOM      9  C   UNL     1      47.999  67.563  92.533  1.00  0.00     0.000 C 
BRANCH   9  10
ATOM     10  C   UNL     1      47.995  67.441  94.070  1.00  0.00     0.000 C 
BRANCH  10  11
ATOM     11  C   UNL     1      49.388  67.463  94.724  1.00  0.00     0.000 C 
BRANCH  11  12
ATOM     12  C   UNL     1      50.456  68.105  93.824  1.00  0.00     0.000 C 
BRANCH  12  13
ATOM     13  C   UNL     1      51.796  67.348  93.844  1.00  0.00     0.006 C 
BRANCH  13  14
ATOM     14  C   UNL     1      52.773  67.842  94.926  1.00  0.00     0.053 C 
BRANCH  14  15
ATOM     15  C   UNL     1      54.202  67.797  94.477  1.00  0.00     0.041 C 
ATOM     16  O   UNL     1      55.134  67.755  95.324  1.00  0.00    -0.550 OA
ATOM     17  O   UNL     1      54.505  67.772  93.120  1.00  0.00    -0.550 OA
ENDBRANCH  14  15
ENDBRANCH  13  14
ENDBRANCH  12  13
ENDBRANCH  11  12
ENDBRANCH  10  11
ENDBRANCH   9  10
ENDBRANCH   8   9
ENDBRANCH   7   8
ENDBRANCH   6   7
ENDBRANCH   5   6
ENDBRANCH   4   5
ENDBRANCH   3   4
ENDBRANCH   2   3
ENDBRANCH   1   2
BRANCH   1  18
ATOM     18  C   UNL     1      50.123  58.248  94.178  1.00  0.00     0.000 C 
BRANCH  18  19
ATOM     19  C   UNL     1      50.984  57.331  95.070  1.00  0.00     0.000 C 
BRANCH  19  20
ATOM     20  C   UNL     1      52.485  57.679  95.102  1.00  0.00     0.000 C 
BRANCH  20  21
ATOM     21  C   UNL     1      53.361  56.606  94.429  1.00  0.00     0.000 C 
BRANCH  21  22
ATOM     22  C   UNL     1      52.859  55.174  94.698  1.00  0.00     0.000 C 
BRANCH  22  23
ATOM     23  C   UNL     1      52.558  54.347  93.429  1.00  0.00     0.000 C 
BRANCH  23  24
ATOM     24  C   UNL     1      51.611  55.040  92.430  1.00  0.00    -0.000 C 
BRANCH  24  25
ATOM     25  C   UNL     1      52.160  55.108  90.992  1.00  0.00    -0.000 C 
BRANCH  25  26
ATOM     26  C   UNL     1      51.996  56.507  90.372  1.00  0.00    -0.000 C 
BRANCH  26  27
ATOM     27  C   UNL     1      51.987  57.627  91.424  1.00  0.00    -0.000 C 
BRANCH  27  28
ATOM     28  C   UNL     1      53.327  58.378  91.500  1.00  0.00    -0.000 C 
BRANCH  28  29
ATOM     29  C   UNL     1      53.174  59.895  91.292  1.00  0.00    -0.000 C 
BRANCH  29  30
ATOM     30  C   UNL     1      52.182  60.585  92.249  1.00  0.00    -0.000 C 
BRANCH  30  31
ATOM     31  C   UNL     1      52.840  61.152  93.525  1.00  0.00    -0.003 C 
ATOM     32  C   UNL     1      53.186  62.636  93.389  1.00  0.00     0.004 C 
ENDBRANCH  30  31
ENDBRANCH  29  30
ENDBRANCH  28  29
ENDBRANCH  27  28
ENDBRANCH  26  27
ENDBRANCH  25  26
ENDBRANCH  24  25
ENDBRANCH  23  24
ENDBRANCH  22  23
ENDBRANCH  21  22
ENDBRANCH  20  21
ENDBRANCH  19  20
ENDBRANCH  18  19
ENDBRANCH   1  18
TORSDOF 28
ENDMDL
MODEL 4
REMARK VINA RESULT:    -4.586      4.350      5.872
REMARK INTER + INTRA:         -14.680
REMARK INTER:                 -12.966
REMARK INTRA:                  -1.714
REMARK UNBOUND:                -2.588
REMARK SMILES CCCCCCCCCCCCCCCCCCCCCCCCCCCCCC(=O)[O-]
REMARK SMILES IDX 16 1 17 2 18 3 19 4 20 5 21 6 22 7 23 8 24 9 25 10 26 11
REMARK SMILES IDX 27 12 28 13 29 14 30 15 31 16 32 17 15 18 14 19 13 20 12 21
REMARK SMILES IDX 11 22 10 23 9 24 8 25 7 26 6 27 5 28 4 29 3 30 2 31 1 32
REMARK H PARENT
REMARK Flexibility Score: inf
ROOT
ATOM      1  C   UNL     1      49.728  58.987  94.860  1.00  0.00     0.000 C 
ENDROOT
BRANCH   1   2
ATOM      2  C   UNL     1      50.778  58.256  93.994  1.00  0.00     0.000 C 
BRANCH   2   3
ATOM      3  C   UNL     1      51.937  57.607  94.781  1.00  0.00     0.000 C 
BRANCH   3   4
ATOM      4  C   UNL     1      52.926  56.777  93.938  1.00  0.00     0.000 C 
BRANCH   4   5
ATOM      5  C   UNL     1      52.475  55.323  93.737  1.00  0.00     0.000 C 
BRANCH   5   6
ATOM      6  C   UNL     1      51.871  55.128  92.337  1.00  0.00     0.000 C 
BRANCH   6   7
ATOM      7  C   UNL     1      52.216  53.760  91.721  1.00  0.00     0.000 C 
BRANCH   7   8
ATOM      8  C   UNL     1      51.416  52.570  92.289  1.00  0.00     0.000 C 
BRANCH   8   9
ATOM      9  C   UNL     1      52.185  51.235  92.346  1.00  0.00     0.000 C 
BRANCH   9  10
ATOM     10  C   UNL     1      51.308  49.986  92.566  1.00  0.00     0.000 C 
BRANCH  10  11
ATOM     11  C   UNL     1      52.087  48.699  92.892  1.00  0.00     0.000 C 
BRANCH  11  12
ATOM     12  C   UNL     1      53.365  48.968  93.703  1.00  0.00     0.000 C 
BRANCH  12  13
ATOM     13  C   UNL     1      54.465  47.919  93.461  1.00  0.00     0.006 C 
BRANCH  13  14
ATOM     14  C   UNL     1      55.655  48.029  94.430  1.00  0.00     0.053 C 
BRANCH  14  15
ATOM     15  C   UNL     1      56.838  48.715  93.816  1.00  0.00     0.041 C 
ATOM     16  O   UNL     1      56.936  48.815  92.564  1.00  0.00    -0.550 OA
ATOM     17  O   UNL     1      57.819  49.271  94.629  1.00  0.00    -0.550 OA
ENDBRANCH  14  15
ENDBRANCH  13  14
ENDBRANCH  12  13
ENDBRANCH  11  12
ENDBRANCH  10  11
ENDBRANCH   9  10
ENDBRANCH   8   9
ENDBRANCH   7   8
ENDBRANCH   6   7
ENDBRANCH   5   6
ENDBRANCH   4   5
ENDBRANCH   3   4
ENDBRANCH   2   3
ENDBRANCH   1   2
BRANCH   1  18
ATOM     18  C   UNL     1      49.892  60.521  94.897  1.00  0.00     0.000 C 
BRANCH  18  19
ATOM     19  C   UNL     1      50.031  61.210  93.525  1.00  0.00     0.000 C 
BRANCH  19  20
ATOM     20  C   UNL     1      48.738  61.256  92.687  1.00  0.00     0.000 C 
BRANCH  20  21
ATOM     21  C   UNL     1      48.138  62.670  92.593  1.00  0.00     0.000 C 
BRANCH  21  22
ATOM     22  C   UNL     1      48.925  63.706  93.419  1.00  0.00     0.000 C 
BRANCH  22  23
ATOM     23  C   UNL     1      48.607  65.179  93.079  1.00  0.00     0.000 C 
BRANCH  23  24
ATOM     24  C   UNL     1      47.410  65.366  92.126  1.00  0.00    -0.000 C 
BRANCH  24  25
ATOM     25  C   UNL     1      46.979  66.834  91.943  1.00  0.00    -0.000 C 
BRANCH  25  26
ATOM     26  C   UNL     1      48.167  67.751  91.604  1.00  0.00    -0.000 C 
BRANCH  26  27
ATOM     27  C   UNL     1      48.960  67.271  90.379  1.00  0.00    -0.000 C 
BRANCH  27  28
ATOM     28  C   UNL     1      50.440  67.687  90.432  1.00  0.00    -0.000 C 
BRANCH  28  29
ATOM     29  C   UNL     1      50.901  68.073  91.848  1.00  0.00    -0.000 C 
BRANCH  29  30
ATOM     30  C   UNL     1      51.569  66.936  92.645  1.00  0.00    -0.000 C 
BRANCH  30  31
ATOM     31  C   UNL     1      52.280  67.411  93.930  1.00  0.00    -0.003 C 
ATOM     32  C   UNL     1      53.792  67.545  93.743  1.00  0.00     0.004 C 
ENDBRANCH  30  31
ENDBRANCH  29  30
ENDBRANCH  28  29
ENDBRANCH  27  28
ENDBRANCH  26  27
ENDBRANCH  25  26
ENDBRANCH  24  25
ENDBRANCH  23  24
ENDBRANCH  22  23
ENDBRANCH  21  22
ENDBRANCH  20  21
ENDBRANCH  19  20
ENDBRANCH  18  19
ENDBRANCH   1  18
TORSDOF 28
ENDMDL
MODEL 5
REMARK VINA RESULT:    -4.485      4.548      6.174
REMARK INTER + INTRA:         -14.415
REMARK INTER:                 -12.333
REMARK INTRA:                  -2.082
REMARK UNBOUND:                -2.588
REMARK SMILES CCCCCCCCCCCCCCCCCCCCCCCCCCCCCC(=O)[O-]
REMARK SMILES IDX 16 1 17 2 18 3 19 4 20 5 21 6 22 7 23 8 24 9 25 10 26 11
REMARK SMILES IDX 27 12 28 13 29 14 30 15 31 16 32 17 15 18 14 19 13 20 12 21
REMARK SMILES IDX 11 22 10 23 9 24 8 25 7 26 6 27 5 28 4 29 3 30 2 31 1 32
REMARK H PARENT
REMARK Flexibility Score: inf
ROOT
ATOM      1  C   UNL     1      52.249  58.189  94.050  1.00  0.00     0.000 C 
ENDROOT
BRANCH   1   2
ATOM      2  C   UNL     1      51.190  57.215  93.487  1.00  0.00     0.000 C 
BRANCH   2   3
ATOM      3  C   UNL     1      51.170  57.087  91.949  1.00  0.00     0.000 C 
BRANCH   3   4
ATOM      4  C   UNL     1      51.759  55.779  91.387  1.00  0.00     0.000 C 
BRANCH   4   5
ATOM      5  C   UNL     1      51.790  54.639  92.416  1.00  0.00     0.000 C 
BRANCH   5   6
ATOM      6  C   UNL     1      52.174  53.310  91.747  1.00  0.00     0.000 C 
BRANCH   6   7
ATOM      7  C   UNL     1      51.316  52.126  92.228  1.00  0.00     0.000 C 
BRANCH   7   8
ATOM      8  C   UNL     1      52.075  50.794  92.387  1.00  0.00     0.000 C 
BRANCH   8   9
ATOM      9  C   UNL     1      51.182  49.554  92.595  1.00  0.00     0.000 C 
BRANCH   9  10
ATOM     10  C   UNL     1      51.897  48.330  93.202  1.00  0.00     0.000 C 
BRANCH  10  11
ATOM     11  C   UNL     1      53.433  48.375  93.124  1.00  0.00     0.000 C 
BRANCH  11  12
ATOM     12  C   UNL     1      54.095  48.468  94.508  1.00  0.00     0.000 C 
BRANCH  12  13
ATOM     13  C   UNL     1      55.403  49.281  94.496  1.00  0.00     0.006 C 
BRANCH  13  14
ATOM     14  C   UNL     1      56.384  48.899  95.619  1.00  0.00     0.053 C 
BRANCH  14  15
ATOM     15  C   UNL     1      57.685  49.636  95.525  1.00  0.00     0.041 C 
ATOM     16  O   UNL     1      57.934  50.589  96.308  1.00  0.00    -0.550 OA
ATOM     17  O   UNL     1      58.637  49.249  94.588  1.00  0.00    -0.550 OA
ENDBRANCH  14  15
ENDBRANCH  13  14
ENDBRANCH  12  13
ENDBRANCH  11  12
ENDBRANCH  10  11
ENDBRANCH   9  10
ENDBRANCH   8   9
ENDBRANCH   7   8
ENDBRANCH   6   7
ENDBRANCH   5   6
ENDBRANCH   4   5
ENDBRANCH   3   4
ENDBRANCH   2   3
ENDBRANCH   1   2
BRANCH   1  18
ATOM     18  C   UNL     1      52.741  59.246  93.039  1.00  0.00     0.000 C 
BRANCH  18  19
ATOM     19  C   UNL     1      52.176  60.668  93.232  1.00  0.00     0.000 C 
BRANCH  19  20
ATOM     20  C   UNL     1      50.652  60.793  93.039  1.00  0.00     0.000 C 
BRANCH  20  21
ATOM     21  C   UNL     1      50.043  61.958  93.840  1.00  0.00     0.000 C 
BRANCH  21  22
ATOM     22  C   UNL     1      48.882  62.647  93.097  1.00  0.00     0.000 C 
BRANCH  22  23
ATOM     23  C   UNL     1      48.751  64.162  93.368  1.00  0.00     0.000 C 
BRANCH  23  24
ATOM     24  C   UNL     1      47.920  64.925  92.318  1.00  0.00    -0.000 C 
BRANCH  24  25
ATOM     25  C   UNL     1      47.396  66.290  92.805  1.00  0.00    -0.000 C 
BRANCH  25  26
ATOM     26  C   UNL     1      47.719  67.423  91.816  1.00  0.00    -0.000 C 
BRANCH  26  27
ATOM     27  C   UNL     1      48.743  67.008  90.748  1.00  0.00    -0.000 C 
BRANCH  27  28
ATOM     28  C   UNL     1      50.102  67.705  90.931  1.00  0.00    -0.000 C 
BRANCH  28  29
ATOM     29  C   UNL     1      51.029  66.959  91.906  1.00  0.00    -0.000 C 
BRANCH  29  30
ATOM     30  C   UNL     1      51.989  67.860  92.707  1.00  0.00    -0.000 C 
BRANCH  30  31
ATOM     31  C   UNL     1      51.764  67.808  94.233  1.00  0.00    -0.003 C 
ATOM     32  C   UNL     1      50.280  67.816  94.603  1.00  0.00     0.004 C 
ENDBRANCH  30  31
ENDBRANCH  29  30
ENDBRANCH  28  29
ENDBRANCH  27  28
ENDBRANCH  26  27
ENDBRANCH  25  26
ENDBRANCH  24  25
ENDBRANCH  23  24
ENDBRANCH  22  23
ENDBRANCH  21  22
ENDBRANCH  20  21
ENDBRANCH  19  20
ENDBRANCH  18  19
ENDBRANCH   1  18
TORSDOF 28
ENDMDL
MODEL 6
REMARK VINA RESULT:    -4.476      4.812      6.585
REMARK INTER + INTRA:         -14.391
REMARK INTER:                 -12.691
REMARK INTRA:                  -1.701
REMARK UNBOUND:                -2.588
REMARK SMILES CCCCCCCCCCCCCCCCCCCCCCCCCCCCCC(=O)[O-]
REMARK SMILES IDX 16 1 17 2 18 3 19 4 20 5 21 6 22 7 23 8 24 9 25 10 26 11
REMARK SMILES IDX 27 12 28 13 29 14 30 15 31 16 32 17 15 18 14 19 13 20 12 21
REMARK SMILES IDX 11 22 10 23 9 24 8 25 7 26 6 27 5 28 4 29 3 30 2 31 1 32
REMARK H PARENT
REMARK Flexibility Score: inf
ROOT
ATOM      1  C   UNL     1      52.535  58.014  92.044  1.00  0.00     0.000 C 
ENDROOT
BRANCH   1   2
ATOM      2  C   UNL     1      51.453  57.043  91.519  1.00  0.00     0.000 C 
BRANCH   2   3
ATOM      3  C   UNL     1      51.993  55.735  90.901  1.00  0.00     0.000 C 
BRANCH   3   4
ATOM      4  C   UNL     1      52.235  54.583  91.897  1.00  0.00     0.000 C 
BRANCH   4   5
ATOM      5  C   UNL     1      51.989  53.196  91.286  1.00  0.00     0.000 C 
BRANCH   5   6
ATOM      6  C   UNL     1      51.188  52.309  92.252  1.00  0.00     0.000 C 
BRANCH   6   7
ATOM      7  C   UNL     1      51.921  51.004  92.615  1.00  0.00     0.000 C 
BRANCH   7   8
ATOM      8  C   UNL     1      51.094  49.718  92.420  1.00  0.00     0.000 C 
BRANCH   8   9
ATOM      9  C   UNL     1      51.852  48.405  92.705  1.00  0.00     0.000 C 
BRANCH   9  10
ATOM     10  C   UNL     1      51.731  47.883  94.151  1.00  0.00     0.000 C 
BRANCH  10  11
ATOM     11  C   UNL     1      52.976  48.111  95.025  1.00  0.00     0.000 C 
BRANCH  11  12
ATOM     12  C   UNL     1      54.264  48.257  94.199  1.00  0.00     0.000 C 
BRANCH  12  13
ATOM     13  C   UNL     1      55.317  49.153  94.876  1.00  0.00     0.006 C 
BRANCH  13  14
ATOM     14  C   UNL     1      56.744  48.954  94.336  1.00  0.00     0.053 C 
BRANCH  14  15
ATOM     15  C   UNL     1      57.797  49.370  95.318  1.00  0.00     0.041 C 
ATOM     16  O   UNL     1      57.473  49.740  96.478  1.00  0.00    -0.550 OA
ATOM     17  O   UNL     1      59.139  49.320  94.962  1.00  0.00    -0.550 OA
ENDBRANCH  14  15
ENDBRANCH  13  14
ENDBRANCH  12  13
ENDBRANCH  11  12
ENDBRANCH  10  11
ENDBRANCH   9  10
ENDBRANCH   8   9
ENDBRANCH   7   8
ENDBRANCH   6   7
ENDBRANCH   5   6
ENDBRANCH   4   5
ENDBRANCH   3   4
ENDBRANCH   2   3
ENDBRANCH   1   2
BRANCH   1  18
ATOM     18  C   UNL     1      52.000  59.107  92.993  1.00  0.00     0.000 C 
BRANCH  18  19
ATOM     19  C   UNL     1      50.762  58.720  93.827  1.00  0.00     0.000 C 
BRANCH  19  20
ATOM     20  C   UNL     1      49.891  59.905  94.286  1.00  0.00     0.000 C 
BRANCH  20  21
ATOM     21  C   UNL     1      50.316  61.240  93.647  1.00  0.00     0.000 C 
BRANCH  21  22
ATOM     22  C   UNL     1      49.388  62.407  94.037  1.00  0.00     0.000 C 
BRANCH  22  23
ATOM     23  C   UNL     1      48.858  63.236  92.847  1.00  0.00     0.000 C 
BRANCH  23  24
ATOM     24  C   UNL     1      48.724  64.744  93.134  1.00  0.00    -0.000 C 
BRANCH  24  25
ATOM     25  C   UNL     1      47.626  65.444  92.308  1.00  0.00    -0.000 C 
BRANCH  25  26
ATOM     26  C   UNL     1      46.992  66.624  93.064  1.00  0.00    -0.000 C 
BRANCH  26  27
ATOM     27  C   UNL     1      47.956  67.808  93.236  1.00  0.00    -0.000 C 
BRANCH  27  28
ATOM     28  C   UNL     1      48.519  67.909  94.664  1.00  0.00    -0.000 C 
BRANCH  28  29
ATOM     29  C   UNL     1      50.054  67.810  94.709  1.00  0.00    -0.000 C 
BRANCH  29  30
ATOM     30  C   UNL     1      50.758  68.018  93.355  1.00  0.00    -0.000 C 
BRANCH  30  31
ATOM     31  C   UNL     1      51.858  66.977  93.058  1.00  0.00    -0.003 C 
ATOM     32  C   UNL     1      53.191  67.337  93.715  1.00  0.00     0.004 C 
ENDBRANCH  30  31
ENDBRANCH  29  30
ENDBRANCH  28  29
ENDBRANCH  27  28
ENDBRANCH  26  27
ENDBRANCH  25  26
ENDBRANCH  24  25
ENDBRANCH  23  24
ENDBRANCH  22  23
ENDBRANCH  21  22
ENDBRANCH  20  21
ENDBRANCH  19  20
ENDBRANCH  18  19
ENDBRANCH   1  18
TORSDOF 28
ENDMDL
MODEL 7
REMARK VINA RESULT:    -4.439      1.030      2.087
REMARK INTER + INTRA:         -14.295
REMARK INTER:                 -11.103
REMARK INTRA:                  -3.191
REMARK UNBOUND:                -2.588
REMARK SMILES CCCCCCCCCCCCCCCCCCCCCCCCCCCCCC(=O)[O-]
REMARK SMILES IDX 16 1 17 2 18 3 19 4 20 5 21 6 22 7 23 8 24 9 25 10 26 11
REMARK SMILES IDX 27 12 28 13 29 14 30 15 31 16 32 17 15 18 14 19 13 20 12 21
REMARK SMILES IDX 11 22 10 23 9 24 8 25 7 26 6 27 5 28 4 29 3 30 2 31 1 32
REMARK H PARENT
REMARK Flexibility Score: inf
ROOT
ATOM      1  C   UNL     1      49.067  59.003  95.069  1.00  0.00     0.000 C 
ENDROOT
BRANCH   1   2
ATOM      2  C   UNL     1      49.593  57.665  94.501  1.00  0.00     0.000 C 
BRANCH   2   3
ATOM      3  C   UNL     1      50.154  57.739  93.065  1.00  0.00     0.000 C 
BRANCH   3   4
ATOM      4  C   UNL     1      50.203  56.400  92.304  1.00  0.00     0.000 C 
BRANCH   4   5
ATOM      5  C   UNL     1      51.629  55.973  91.925  1.00  0.00     0.000 C 
BRANCH   5   6
ATOM      6  C   UNL     1      51.993  54.637  92.593  1.00  0.00     0.000 C 
BRANCH   6   7
ATOM      7  C   UNL     1      53.007  54.797  93.740  1.00  0.00     0.000 C 
BRANCH   7   8
ATOM      8  C   UNL     1      52.425  55.368  95.048  1.00  0.00     0.000 C 
BRANCH   8   9
ATOM      9  C   UNL     1      52.790  56.838  95.338  1.00  0.00     0.000 C 
BRANCH   9  10
ATOM     10  C   UNL     1      53.725  57.495  94.302  1.00  0.00     0.000 C 
BRANCH  10  11
ATOM     11  C   UNL     1      53.200  58.810  93.700  1.00  0.00     0.000 C 
BRANCH  11  12
ATOM     12  C   UNL     1      53.466  58.919  92.190  1.00  0.00     0.000 C 
BRANCH  12  13
ATOM     13  C   UNL     1      52.713  60.088  91.528  1.00  0.00     0.006 C 
BRANCH  13  14
ATOM     14  C   UNL     1      53.420  61.447  91.674  1.00  0.00     0.053 C 
BRANCH  14  15
ATOM     15  C   UNL     1      53.007  62.183  92.912  1.00  0.00     0.041 C 
ATOM     16  O   UNL     1      51.809  62.538  93.070  1.00  0.00    -0.550 OA
ATOM     17  O   UNL     1      53.941  62.453  93.905  1.00  0.00    -0.550 OA
ENDBRANCH  14  15
ENDBRANCH  13  14
ENDBRANCH  12  13
ENDBRANCH  11  12
ENDBRANCH  10  11
ENDBRANCH   9  10
ENDBRANCH   8   9
ENDBRANCH   7   8
ENDBRANCH   6   7
ENDBRANCH   5   6
ENDBRANCH   4   5
ENDBRANCH   3   4
ENDBRANCH   2   3
ENDBRANCH   1   2
BRANCH   1  18
ATOM     18  C   UNL     1      50.019  60.199  94.859  1.00  0.00     0.000 C 
BRANCH  18  19
ATOM     19  C   UNL     1      49.356  61.501  94.368  1.00  0.00     0.000 C 
BRANCH  19  20
ATOM     20  C   UNL     1      48.665  61.400  92.994  1.00  0.00     0.000 C 
BRANCH  20  21
ATOM     21  C   UNL     1      47.867  62.666  92.632  1.00  0.00     0.000 C 
BRANCH  21  22
ATOM     22  C   UNL     1      48.739  63.936  92.623  1.00  0.00     0.000 C 
BRANCH  22  23
ATOM     23  C   UNL     1      48.038  65.205  93.158  1.00  0.00     0.000 C 
BRANCH  23  24
ATOM     24  C   UNL     1      46.886  65.714  92.270  1.00  0.00    -0.000 C 
BRANCH  24  25
ATOM     25  C   UNL     1      47.207  67.019  91.516  1.00  0.00    -0.000 C 
BRANCH  25  26
ATOM     26  C   UNL     1      48.245  66.806  90.401  1.00  0.00    -0.000 C 
BRANCH  26  27
ATOM     27  C   UNL     1      49.364  67.858  90.419  1.00  0.00    -0.000 C 
BRANCH  27  28
ATOM     28  C   UNL     1      50.748  67.244  90.694  1.00  0.00    -0.000 C 
BRANCH  28  29
ATOM     29  C   UNL     1      51.052  67.106  92.196  1.00  0.00    -0.000 C 
BRANCH  29  30
ATOM     30  C   UNL     1      52.228  67.964  92.702  1.00  0.00    -0.000 C 
BRANCH  30  31
ATOM     31  C   UNL     1      52.825  67.476  94.039  1.00  0.00    -0.003 C 
ATOM     32  C   UNL     1      52.042  67.993  95.247  1.00  0.00     0.004 C 
ENDBRANCH  30  31
ENDBRANCH  29  30
ENDBRANCH  28  29
ENDBRANCH  27  28
ENDBRANCH  26  27
ENDBRANCH  25  26
ENDBRANCH  24  25
ENDBRANCH  23  24
ENDBRANCH  22  23
ENDBRANCH  21  22
ENDBRANCH  20  21
ENDBRANCH  19  20
ENDBRANCH  18  19
ENDBRANCH   1  18
TORSDOF 28
ENDMDL
MODEL 8
REMARK VINA RESULT:    -4.402      3.646     12.369
REMARK INTER + INTRA:         -14.197
REMARK INTER:                 -12.813
REMARK INTRA:                  -1.383
REMARK UNBOUND:                -2.588
REMARK SMILES CCCCCCCCCCCCCCCCCCCCCCCCCCCCCC(=O)[O-]
REMARK SMILES IDX 16 1 17 2 18 3 19 4 20 5 21 6 22 7 23 8 24 9 25 10 26 11
REMARK SMILES IDX 27 12 28 13 29 14 30 15 31 16 32 17 15 18 14 19 13 20 12 21
REMARK SMILES IDX 11 22 10 23 9 24 8 25 7 26 6 27 5 28 4 29 3 30 2 31 1 32
REMARK H PARENT
REMARK Flexibility Score: inf
ROOT
ATOM      1  C   UNL     1      52.822  57.312  94.260  1.00  0.00     0.000 C 
ENDROOT
BRANCH   1   2
ATOM      2  C   UNL     1      51.426  57.971  94.188  1.00  0.00     0.000 C 
BRANCH   2   3
ATOM      3  C   UNL     1      51.370  59.302  93.409  1.00  0.00     0.000 C 
BRANCH   3   4
ATOM      4  C   UNL     1      50.013  60.032  93.443  1.00  0.00     0.000 C 
BRANCH   4   5
ATOM      5  C   UNL     1      50.148  61.547  93.657  1.00  0.00     0.000 C 
BRANCH   5   6
ATOM      6  C   UNL     1      48.982  62.298  92.995  1.00  0.00     0.000 C 
BRANCH   6   7
ATOM      7  C   UNL     1      48.988  63.806  93.301  1.00  0.00     0.000 C 
BRANCH   7   8
ATOM      8  C   UNL     1      47.968  64.637  92.497  1.00  0.00     0.000 C 
BRANCH   8   9
ATOM      9  C   UNL     1      47.809  66.100  92.960  1.00  0.00     0.000 C 
BRANCH   9  10
ATOM     10  C   UNL     1      48.178  67.162  91.904  1.00  0.00     0.000 C 
BRANCH  10  11
ATOM     11  C   UNL     1      49.478  66.879  91.131  1.00  0.00     0.000 C 
BRANCH  11  12
ATOM     12  C   UNL     1      50.367  68.125  90.989  1.00  0.00     0.000 C 
BRANCH  12  13
ATOM     13  C   UNL     1      51.732  67.974  91.685  1.00  0.00     0.006 C 
BRANCH  13  14
ATOM     14  C   UNL     1      51.700  67.068  92.929  1.00  0.00     0.053 C 
BRANCH  14  15
ATOM     15  C   UNL     1      52.688  67.489  93.975  1.00  0.00     0.041 C 
ATOM     16  O   UNL     1      52.292  67.849  95.114  1.00  0.00    -0.550 OA
ATOM     17  O   UNL     1      54.050  67.454  93.699  1.00  0.00    -0.550 OA
ENDBRANCH  14  15
ENDBRANCH  13  14
ENDBRANCH  12  13
ENDBRANCH  11  12
ENDBRANCH  10  11
ENDBRANCH   9  10
ENDBRANCH   8   9
ENDBRANCH   7   8
ENDBRANCH   6   7
ENDBRANCH   5   6
ENDBRANCH   4   5
ENDBRANCH   3   4
ENDBRANCH   2   3
ENDBRANCH   1   2
BRANCH   1  18
ATOM     18  C   UNL     1      52.833  55.919  94.925  1.00  0.00     0.000 C 
BRANCH  18  19
ATOM     19  C   UNL     1      52.413  54.745  94.019  1.00  0.00     0.000 C 
BRANCH  19  20
ATOM     20  C   UNL     1      52.026  55.140  92.581  1.00  0.00     0.000 C 
BRANCH  20  21
ATOM     21  C   UNL     1      52.232  53.996  91.571  1.00  0.00     0.000 C 
BRANCH  21  22
ATOM     22  C   UNL     1      51.406  52.742  91.918  1.00  0.00     0.000 C 
BRANCH  22  23
ATOM     23  C   UNL     1      52.244  51.494  92.270  1.00  0.00     0.000 C 
BRANCH  23  24
ATOM     24  C   UNL     1      51.409  50.236  92.582  1.00  0.00    -0.000 C 
BRANCH  24  25
ATOM     25  C   UNL     1      52.231  48.933  92.618  1.00  0.00    -0.000 C 
BRANCH  25  26
ATOM     26  C   UNL     1      51.879  48.058  93.833  1.00  0.00    -0.000 C 
BRANCH  26  27
ATOM     27  C   UNL     1      53.000  48.020  94.885  1.00  0.00    -0.000 C 
BRANCH  27  28
ATOM     28  C   UNL     1      53.974  49.203  94.753  1.00  0.00    -0.000 C 
BRANCH  28  29
ATOM     29  C   UNL     1      55.432  48.757  94.548  1.00  0.00    -0.000 C 
BRANCH  29  30
ATOM     30  C   UNL     1      56.490  49.831  94.864  1.00  0.00    -0.000 C 
BRANCH  30  31
ATOM     31  C   UNL     1      57.686  49.304  95.685  1.00  0.00    -0.003 C 
ATOM     32  C   UNL     1      57.249  48.661  97.002  1.00  0.00     0.004 C 
ENDBRANCH  30  31
ENDBRANCH  29  30
ENDBRANCH  28  29
ENDBRANCH  27  28
ENDBRANCH  26  27
ENDBRANCH  25  26
ENDBRANCH  24  25
ENDBRANCH  23  24
ENDBRANCH  22  23
ENDBRANCH  21  22
ENDBRANCH  20  21
ENDBRANCH  19  20
ENDBRANCH  18  19
ENDBRANCH   1  18
TORSDOF 28
ENDMDL
MODEL 9
REMARK VINA RESULT:    -4.348      2.422      4.295
REMARK INTER + INTRA:         -14.055
REMARK INTER:                 -11.660
REMARK INTRA:                  -2.395
REMARK UNBOUND:                -2.588
REMARK SMILES CCCCCCCCCCCCCCCCCCCCCCCCCCCCCC(=O)[O-]
REMARK SMILES IDX 16 1 17 2 18 3 19 4 20 5 21 6 22 7 23 8 24 9 25 10 26 11
REMARK SMILES IDX 27 12 28 13 29 14 30 15 31 16 32 17 15 18 14 19 13 20 12 21
REMARK SMILES IDX 11 22 10 23 9 24 8 25 7 26 6 27 5 28 4 29 3 30 2 31 1 32
REMARK H PARENT
REMARK Flexibility Score: inf
ROOT
ATOM      1  C   UNL     1      49.724  59.337  94.704  1.00  0.00     0.000 C 
ENDROOT
BRANCH   1   2
ATOM      2  C   UNL     1      49.502  58.843  93.256  1.00  0.00     0.000 C 
BRANCH   2   3
ATOM      3  C   UNL     1      50.090  57.451  92.942  1.00  0.00     0.000 C 
BRANCH   3   4
ATOM      4  C   UNL     1      50.849  57.340  91.605  1.00  0.00     0.000 C 
BRANCH   4   5
ATOM      5  C   UNL     1      52.371  57.473  91.763  1.00  0.00     0.000 C 
BRANCH   5   6
ATOM      6  C   UNL     1      52.817  58.927  91.541  1.00  0.00     0.000 C 
BRANCH   6   7
ATOM      7  C   UNL     1      52.802  59.762  92.833  1.00  0.00     0.000 C 
BRANCH   7   8
ATOM      8  C   UNL     1      53.573  59.144  94.016  1.00  0.00     0.000 C 
BRANCH   8   9
ATOM      9  C   UNL     1      53.384  57.624  94.197  1.00  0.00     0.000 C 
BRANCH   9  10
ATOM     10  C   UNL     1      52.646  57.207  95.485  1.00  0.00     0.000 C 
BRANCH  10  11
ATOM     11  C   UNL     1      52.347  55.702  95.600  1.00  0.00     0.000 C 
BRANCH  11  12
ATOM     12  C   UNL     1      53.535  54.826  95.169  1.00  0.00     0.000 C 
BRANCH  12  13
ATOM     13  C   UNL     1      53.182  53.845  94.037  1.00  0.00     0.006 C 
BRANCH  13  14
ATOM     14  C   UNL     1      52.106  54.370  93.070  1.00  0.00     0.053 C 
BRANCH  14  15
ATOM     15  C   UNL     1      52.033  53.577  91.801  1.00  0.00     0.041 C 
ATOM     16  O   UNL     1      52.388  54.092  90.708  1.00  0.00    -0.550 OA
ATOM     17  O   UNL     1      51.598  52.256  91.830  1.00  0.00    -0.550 OA
ENDBRANCH  14  15
ENDBRANCH  13  14
ENDBRANCH  12  13
ENDBRANCH  11  12
ENDBRANCH  10  11
ENDBRANCH   9  10
ENDBRANCH   8   9
ENDBRANCH   7   8
ENDBRANCH   6   7
ENDBRANCH   5   6
ENDBRANCH   4   5
ENDBRANCH   3   4
ENDBRANCH   2   3
ENDBRANCH   1   2
BRANCH   1  18
ATOM     18  C   UNL     1      49.737  60.872  94.857  1.00  0.00     0.000 C 
BRANCH  18  19
ATOM     19  C   UNL     1      49.850  61.672  93.544  1.00  0.00     0.000 C 
BRANCH  19  20
ATOM     20  C   UNL     1      48.846  62.832  93.401  1.00  0.00     0.000 C 
BRANCH  20  21
ATOM     21  C   UNL     1      49.519  64.159  93.004  1.00  0.00     0.000 C 
BRANCH  21  22
ATOM     22  C   UNL     1      48.625  65.384  93.278  1.00  0.00     0.000 C 
BRANCH  22  23
ATOM     23  C   UNL     1      47.503  65.609  92.241  1.00  0.00     0.000 C 
BRANCH  23  24
ATOM     24  C   UNL     1      47.911  66.495  91.048  1.00  0.00    -0.000 C 
BRANCH  24  25
ATOM     25  C   UNL     1      48.773  67.712  91.437  1.00  0.00    -0.000 C 
BRANCH  25  26
ATOM     26  C   UNL     1      50.152  67.689  90.757  1.00  0.00    -0.000 C 
BRANCH  26  27
ATOM     27  C   UNL     1      51.313  67.688  91.764  1.00  0.00    -0.000 C 
BRANCH  27  28
ATOM     28  C   UNL     1      50.874  68.123  93.172  1.00  0.00    -0.000 C 
BRANCH  28  29
ATOM     29  C   UNL     1      52.032  68.122  94.185  1.00  0.00    -0.000 C 
BRANCH  29  30
ATOM     30  C   UNL     1      53.139  67.088  93.905  1.00  0.00    -0.000 C 
BRANCH  30  31
ATOM     31  C   UNL     1      54.559  67.692  93.861  1.00  0.00    -0.003 C 
ATOM     32  C   UNL     1      55.192  67.790  95.249  1.00  0.00     0.004 C 
ENDBRANCH  30  31
ENDBRANCH  29  30
ENDBRANCH  28  29
ENDBRANCH  27  28
ENDBRANCH  26  27
ENDBRANCH  25  26
ENDBRANCH  24  25
ENDBRANCH  23  24
ENDBRANCH  22  23
ENDBRANCH  21  22
ENDBRANCH  20  21
ENDBRANCH  19  20
ENDBRANCH  18  19
ENDBRANCH   1  18
TORSDOF 28
ENDMDL
