MODEL 1
REMARK VINA RESULT:    -6.178      0.000      0.000
REMARK INTER + INTRA:          -9.704
REMARK INTER:                  -8.164
REMARK INTRA:                  -1.539
REMARK UNBOUND:                -1.539
REMARK SMILES CC[C@@H](C=C[C@@H](C)[C@@H]1CC[C@H]2C3=CC[C@H]4C[C@H](O)CC[C@@]4(C)[C@H]3CC[C@]21C)C(C)C
REMARK SMILES IDX 6 1 7 2 5 3 4 4 3 5 2 6 1 7 28 8 29 9 30 10 8 11 9 12 26 13
REMARK SMILES IDX 10 14 11 15 25 16 27 17 12 18 24 19 23 20 13 21 21 22 14 23
REMARK SMILES IDX 15 24 20 25 22 26 16 27 19 28 17 29 18 30
REMARK H PARENT 18 31
REMARK Flexibility Score: inf
ROOT
ATOM      1  C   UNL     1     146.613 134.785 150.894  1.00  0.00     0.012 C 
ATOM      2  C   UNL     1     145.433 134.937 151.863  1.00  0.00     0.012 C 
ENDROOT
BRANCH   1   3
ATOM      3  C   UNL     1     147.918 134.788 151.663  1.00  0.00    -0.028 C 
ATOM      4  C   UNL     1     149.102 134.983 151.062  1.00  0.00    -0.027 C 
BRANCH   4   5
ATOM      5  C   UNL     1     150.406 134.921 151.834  1.00  0.00     0.014 C 
BRANCH   5   6
ATOM      6  C   UNL     1     151.183 136.250 151.681  1.00  0.00     0.004 C 
ATOM      7  C   UNL     1     150.595 137.143 150.586  1.00  0.00     0.004 C 
ENDBRANCH   5   6
BRANCH   5   8
ATOM      8  C   UNL     1     151.267 133.693 151.417  1.00  0.00    -0.011 C 
ATOM      9  C   UNL     1     152.631 133.628 152.125  1.00  0.00     0.008 C 
ATOM     10  C   UNL     1     151.463 133.644 149.892  1.00  0.00     0.008 C 
ENDBRANCH   5   8
ENDBRANCH   4   5
ENDBRANCH   1   3
BRANCH   1  11
ATOM     11  C   UNL     1     146.532 135.782 149.684  1.00  0.00     0.002 C 
ATOM     12  C   UNL     1     145.411 136.803 149.841  1.00  0.00     0.005 C 
ATOM     13  C   UNL     1     146.432 135.279 148.196  1.00  0.00    -0.023 C 
ATOM     14  C   UNL     1     145.350 137.501 148.503  1.00  0.00     0.009 C 
ATOM     15  C   UNL     1     145.613 136.410 147.462  1.00  0.00     0.021 C 
ATOM     16  C   UNL     1     147.850 135.053 147.588  1.00  0.00     0.008 C 
ATOM     17  C   UNL     1     145.647 133.951 148.064  1.00  0.00     0.012 C 
ATOM     18  C   UNL     1     146.214 137.021 146.197  1.00  0.00    -0.067 C 
ATOM     19  C   UNL     1     148.475 136.327 147.026  1.00  0.00     0.009 C 
ATOM     20  C   UNL     1     147.665 136.810 145.809  1.00  0.00     0.021 C 
ATOM     21  C   UNL     1     145.404 137.749 145.403  1.00  0.00    -0.027 C 
ATOM     22  C   UNL     1     148.281 138.064 145.087  1.00  0.00    -0.023 C 
ATOM     23  C   UNL     1     145.866 138.521 144.199  1.00  0.00     0.031 C 
ATOM     24  C   UNL     1     147.376 138.398 143.856  1.00  0.00     0.002 C 
ATOM     25  C   UNL     1     148.393 139.291 146.059  1.00  0.00     0.010 C 
ATOM     26  C   UNL     1     149.697 137.676 144.565  1.00  0.00     0.012 C 
ATOM     27  C   UNL     1     147.854 139.656 143.078  1.00  0.00     0.036 C 
ATOM     28  C   UNL     1     148.049 140.662 145.443  1.00  0.00     0.032 C 
ATOM     29  C   UNL     1     148.437 140.791 143.962  1.00  0.00     0.114 C 
BRANCH  29  30
ATOM     30  O   UNL     1     149.836 140.830 143.833  1.00  0.00    -0.393 OA
ATOM     31  H   UNL     1     150.143 141.695 144.216  1.00  0.00     0.210 HD
ENDBRANCH  29  30
ENDBRANCH   1  11
TORSDOF 6
ENDMDL
MODEL 2
REMARK VINA RESULT:    -6.082      7.760     12.113
REMARK INTER + INTRA:          -9.576
REMARK INTER:                  -8.125
REMARK INTRA:                  -1.452
REMARK UNBOUND:                -1.539
REMARK SMILES CC[C@@H](C=C[C@@H](C)[C@@H]1CC[C@H]2C3=CC[C@H]4C[C@H](O)CC[C@@]4(C)[C@H]3CC[C@]21C)C(C)C
REMARK SMILES IDX 6 1 7 2 5 3 4 4 3 5 2 6 1 7 28 8 29 9 30 10 8 11 9 12 26 13
REMARK SMILES IDX 10 14 11 15 25 16 27 17 12 18 24 19 23 20 13 21 21 22 14 23
REMARK SMILES IDX 15 24 20 25 22 26 16 27 19 28 17 29 18 30
REMARK H PARENT 18 31
REMARK Flexibility Score: inf
ROOT
ATOM      1  C   UNL     1     137.973 142.882 146.362  1.00  0.00     0.012 C 
ATOM      2  C   UNL     1     137.201 142.810 147.686  1.00  0.00     0.012 C 
ENDROOT
BRANCH   1   3
ATOM      3  C   UNL     1     137.038 143.286 145.240  1.00  0.00    -0.028 C 
ATOM      4  C   UNL     1     137.485 143.606 144.017  1.00  0.00    -0.027 C 
BRANCH   4   5
ATOM      5  C   UNL     1     136.545 144.069 142.920  1.00  0.00     0.014 C 
BRANCH   5   6
ATOM      6  C   UNL     1     135.318 144.784 143.532  1.00  0.00     0.004 C 
ATOM      7  C   UNL     1     135.231 146.253 143.108  1.00  0.00     0.004 C 
ENDBRANCH   5   6
BRANCH   5   8
ATOM      8  C   UNL     1     136.127 142.897 141.984  1.00  0.00    -0.011 C 
ATOM      9  C   UNL     1     137.135 141.735 141.966  1.00  0.00     0.008 C 
ATOM     10  C   UNL     1     135.871 143.394 140.552  1.00  0.00     0.008 C 
ENDBRANCH   5   8
ENDBRANCH   4   5
ENDBRANCH   1   3
BRANCH   1  11
ATOM     11  C   UNL     1     138.841 141.601 146.098  1.00  0.00     0.002 C 
ATOM     12  C   UNL     1     138.892 140.670 147.305  1.00  0.00     0.005 C 
ATOM     13  C   UNL     1     140.324 141.693 145.580  1.00  0.00    -0.023 C 
ATOM     14  C   UNL     1     139.938 139.644 146.941  1.00  0.00     0.009 C 
ATOM     15  C   UNL     1     141.024 140.417 146.189  1.00  0.00     0.021 C 
ATOM     16  C   UNL     1     140.368 141.735 144.022  1.00  0.00     0.008 C 
ATOM     17  C   UNL     1     141.065 142.947 146.106  1.00  0.00     0.012 C 
ATOM     18  C   UNL     1     141.769 139.487 145.233  1.00  0.00    -0.067 C 
ATOM     19  C   UNL     1     140.320 140.351 143.381  1.00  0.00     0.009 C 
ATOM     20  C   UNL     1     141.602 139.572 143.728  1.00  0.00     0.021 C 
ATOM     21  C   UNL     1     142.615 138.583 145.766  1.00  0.00    -0.027 C 
ATOM     22  C   UNL     1     141.704 138.165 143.033  1.00  0.00    -0.023 C 
ATOM     23  C   UNL     1     143.321 137.514 144.980  1.00  0.00     0.031 C 
ATOM     24  C   UNL     1     143.069 137.526 143.447  1.00  0.00     0.002 C 
ATOM     25  C   UNL     1     140.501 137.238 143.430  1.00  0.00     0.010 C 
ATOM     26  C   UNL     1     141.710 138.386 141.490  1.00  0.00     0.012 C 
ATOM     27  C   UNL     1     143.274 136.102 142.858  1.00  0.00     0.036 C 
ATOM     28  C   UNL     1     140.853 135.756 143.671  1.00  0.00     0.032 C 
ATOM     29  C   UNL     1     141.988 135.235 142.778  1.00  0.00     0.114 C 
BRANCH  29  30
ATOM     30  O   UNL     1     141.550 135.148 141.444  1.00  0.00    -0.393 OA
ATOM     31  H   UNL     1     141.302 134.200 141.277  1.00  0.00     0.210 HD
ENDBRANCH  29  30
ENDBRANCH   1  11
TORSDOF 6
ENDMDL
MODEL 3
REMARK VINA RESULT:    -6.053      2.676      8.276
REMARK INTER + INTRA:          -9.539
REMARK INTER:                  -8.144
REMARK INTRA:                  -1.395
REMARK UNBOUND:                -1.539
REMARK SMILES CC[C@@H](C=C[C@@H](C)[C@@H]1CC[C@H]2C3=CC[C@H]4C[C@H](O)CC[C@@]4(C)[C@H]3CC[C@]21C)C(C)C
REMARK SMILES IDX 6 1 7 2 5 3 4 4 3 5 2 6 1 7 28 8 29 9 30 10 8 11 9 12 26 13
REMARK SMILES IDX 10 14 11 15 25 16 27 17 12 18 24 19 23 20 13 21 21 22 14 23
REMARK SMILES IDX 15 24 20 25 22 26 16 27 19 28 17 29 18 30
REMARK H PARENT 18 31
REMARK Flexibility Score: inf
ROOT
ATOM      1  C   UNL     1     143.684 138.381 142.327  1.00  0.00     0.012 C 
ATOM      2  C   UNL     1     142.700 137.503 141.543  1.00  0.00     0.012 C 
ENDROOT
BRANCH   1   3
ATOM      3  C   UNL     1     144.800 138.848 141.415  1.00  0.00    -0.028 C 
ATOM      4  C   UNL     1     145.801 139.627 141.851  1.00  0.00    -0.027 C 
BRANCH   4   5
ATOM      5  C   UNL     1     146.878 140.139 140.913  1.00  0.00     0.014 C 
BRANCH   5   6
ATOM      6  C   UNL     1     148.247 140.165 141.631  1.00  0.00     0.004 C 
ATOM      7  C   UNL     1     148.418 138.989 142.596  1.00  0.00     0.004 C 
ENDBRANCH   5   6
BRANCH   5   8
ATOM      8  C   UNL     1     146.509 141.528 140.313  1.00  0.00    -0.011 C 
ATOM      9  C   UNL     1     146.953 141.704 138.851  1.00  0.00     0.008 C 
ATOM     10  C   UNL     1     147.070 142.672 141.175  1.00  0.00     0.008 C 
ENDBRANCH   5   8
ENDBRANCH   4   5
ENDBRANCH   1   3
BRANCH   1  11
ATOM     11  C   UNL     1     144.139 137.722 143.678  1.00  0.00     0.002 C 
ATOM     12  C   UNL     1     143.350 136.459 144.007  1.00  0.00     0.005 C 
ATOM     13  C   UNL     1     144.200 138.537 145.022  1.00  0.00    -0.023 C 
ATOM     14  C   UNL     1     143.763 136.118 145.419  1.00  0.00     0.009 C 
ATOM     15  C   UNL     1     143.906 137.462 146.138  1.00  0.00     0.021 C 
ATOM     16  C   UNL     1     145.586 139.232 145.188  1.00  0.00     0.008 C 
ATOM     17  C   UNL     1     143.110 139.633 145.109  1.00  0.00     0.012 C 
ATOM     18  C   UNL     1     144.898 137.339 147.293  1.00  0.00    -0.067 C 
ATOM     19  C   UNL     1     146.650 138.320 145.792  1.00  0.00     0.009 C 
ATOM     20  C   UNL     1     146.275 137.975 147.245  1.00  0.00     0.021 C 
ATOM     21  C   UNL     1     144.509 136.659 148.389  1.00  0.00    -0.027 C 
ATOM     22  C   UNL     1     147.357 137.118 147.999  1.00  0.00    -0.023 C 
ATOM     23  C   UNL     1     145.406 136.337 149.551  1.00  0.00     0.031 C 
ATOM     24  C   UNL     1     146.854 136.893 149.462  1.00  0.00     0.002 C 
ATOM     25  C   UNL     1     147.619 135.752 147.272  1.00  0.00     0.010 C 
ATOM     26  C   UNL     1     148.677 137.944 148.054  1.00  0.00     0.012 C 
ATOM     27  C   UNL     1     147.820 136.014 150.305  1.00  0.00     0.036 C 
ATOM     28  C   UNL     1     147.815 134.532 148.196  1.00  0.00     0.032 C 
ATOM     29  C   UNL     1     148.513 134.866 149.523  1.00  0.00     0.114 C 
BRANCH  29  30
ATOM     30  O   UNL     1     149.861 135.191 149.288  1.00  0.00    -0.393 OA
ATOM     31  H   UNL     1     149.984 136.143 149.548  1.00  0.00     0.210 HD
ENDBRANCH  29  30
ENDBRANCH   1  11
TORSDOF 6
ENDMDL
MODEL 4
REMARK VINA RESULT:    -6.050      3.042      8.000
REMARK INTER + INTRA:          -9.535
REMARK INTER:                  -7.856
REMARK INTRA:                  -1.679
REMARK UNBOUND:                -1.539
REMARK SMILES CC[C@@H](C=C[C@@H](C)[C@@H]1CC[C@H]2C3=CC[C@H]4C[C@H](O)CC[C@@]4(C)[C@H]3CC[C@]21C)C(C)C
REMARK SMILES IDX 6 1 7 2 5 3 4 4 3 5 2 6 1 7 28 8 29 9 30 10 8 11 9 12 26 13
REMARK SMILES IDX 10 14 11 15 25 16 27 17 12 18 24 19 23 20 13 21 21 22 14 23
REMARK SMILES IDX 15 24 20 25 22 26 16 27 19 28 17 29 18 30
REMARK H PARENT 18 31
REMARK Flexibility Score: inf
ROOT
ATOM      1  C   UNL     1     144.066 138.236 142.458  1.00  0.00     0.012 C 
ATOM      2  C   UNL     1     143.528 137.330 141.342  1.00  0.00     0.012 C 
ENDROOT
BRANCH   1   3
ATOM      3  C   UNL     1     145.348 138.907 142.007  1.00  0.00    -0.028 C 
ATOM      4  C   UNL     1     146.553 138.519 142.450  1.00  0.00    -0.027 C 
BRANCH   4   5
ATOM      5  C   UNL     1     147.822 139.240 142.039  1.00  0.00     0.014 C 
BRANCH   5   6
ATOM      6  C   UNL     1     148.808 139.311 143.228  1.00  0.00     0.004 C 
ATOM      7  C   UNL     1     148.703 138.088 144.143  1.00  0.00     0.004 C 
ENDBRANCH   5   6
BRANCH   5   8
ATOM      8  C   UNL     1     147.522 140.648 141.448  1.00  0.00    -0.011 C 
ATOM      9  C   UNL     1     148.264 140.934 140.131  1.00  0.00     0.008 C 
ATOM     10  C   UNL     1     147.822 141.757 142.471  1.00  0.00     0.008 C 
ENDBRANCH   5   8
ENDBRANCH   4   5
ENDBRANCH   1   3
BRANCH   1  11
ATOM     11  C   UNL     1     144.131 137.509 143.848  1.00  0.00     0.002 C 
ATOM     12  C   UNL     1     143.262 136.257 143.894  1.00  0.00     0.005 C 
ATOM     13  C   UNL     1     143.842 138.266 145.197  1.00  0.00    -0.023 C 
ATOM     14  C   UNL     1     143.275 135.846 145.347  1.00  0.00     0.009 C 
ATOM     15  C   UNL     1     143.242 137.154 146.141  1.00  0.00     0.021 C 
ATOM     16  C   UNL     1     145.143 138.915 145.761  1.00  0.00     0.008 C 
ATOM     17  C   UNL     1     142.786 139.388 145.041  1.00  0.00     0.012 C 
ATOM     18  C   UNL     1     143.885 136.957 147.513  1.00  0.00    -0.067 C 
ATOM     19  C   UNL     1     145.991 137.949 146.584  1.00  0.00     0.009 C 
ATOM     20  C   UNL     1     145.234 137.555 147.865  1.00  0.00     0.021 C 
ATOM     21  C   UNL     1     143.205 136.243 148.431  1.00  0.00    -0.027 C 
ATOM     22  C   UNL     1     146.060 136.637 148.840  1.00  0.00    -0.023 C 
ATOM     23  C   UNL     1     143.751 135.849 149.775  1.00  0.00     0.031 C 
ATOM     24  C   UNL     1     145.179 136.366 150.102  1.00  0.00     0.002 C 
ATOM     25  C   UNL     1     146.485 135.295 148.146  1.00  0.00     0.010 C 
ATOM     26  C   UNL     1     147.330 137.424 149.285  1.00  0.00     0.012 C 
ATOM     27  C   UNL     1     145.869 135.427 151.131  1.00  0.00     0.036 C 
ATOM     28  C   UNL     1     146.406 134.034 149.030  1.00  0.00     0.032 C 
ATOM     29  C   UNL     1     146.728 134.293 150.509  1.00  0.00     0.114 C 
BRANCH  29  30
ATOM     30  O   UNL     1     148.094 134.589 150.660  1.00  0.00    -0.393 OA
ATOM     31  H   UNL     1     148.343 135.213 149.927  1.00  0.00     0.210 HD
ENDBRANCH  29  30
ENDBRANCH   1  11
TORSDOF 6
ENDMDL
MODEL 5
REMARK VINA RESULT:    -6.003      5.874      9.947
REMARK INTER + INTRA:          -9.472
REMARK INTER:                  -8.011
REMARK INTRA:                  -1.461
REMARK UNBOUND:                -1.539
REMARK SMILES CC[C@@H](C=C[C@@H](C)[C@@H]1CC[C@H]2C3=CC[C@H]4C[C@H](O)CC[C@@]4(C)[C@H]3CC[C@]21C)C(C)C
REMARK SMILES IDX 6 1 7 2 5 3 4 4 3 5 2 6 1 7 28 8 29 9 30 10 8 11 9 12 26 13
REMARK SMILES IDX 10 14 11 15 25 16 27 17 12 18 24 19 23 20 13 21 21 22 14 23
REMARK SMILES IDX 15 24 20 25 22 26 16 27 19 28 17 29 18 30
REMARK H PARENT 18 31
REMARK Flexibility Score: inf
ROOT
ATOM      1  C   UNL     1     138.480 140.593 143.852  1.00  0.00     0.012 C 
ATOM      2  C   UNL     1     138.312 140.916 142.361  1.00  0.00     0.012 C 
ENDROOT
BRANCH   1   3
ATOM      3  C   UNL     1     138.414 141.867 144.668  1.00  0.00    -0.028 C 
ATOM      4  C   UNL     1     138.897 141.943 145.918  1.00  0.00    -0.027 C 
BRANCH   4   5
ATOM      5  C   UNL     1     138.767 143.206 146.747  1.00  0.00     0.014 C 
BRANCH   5   6
ATOM      6  C   UNL     1     140.076 144.027 146.682  1.00  0.00     0.004 C 
ATOM      7  C   UNL     1     141.265 143.187 146.207  1.00  0.00     0.004 C 
ENDBRANCH   5   6
BRANCH   5   8
ATOM      8  C   UNL     1     138.349 142.894 148.213  1.00  0.00    -0.011 C 
ATOM      9  C   UNL     1     138.883 141.549 148.734  1.00  0.00     0.008 C 
ATOM     10  C   UNL     1     136.821 142.953 148.380  1.00  0.00     0.008 C 
ENDBRANCH   5   8
ENDBRANCH   4   5
ENDBRANCH   1   3
BRANCH   1  11
ATOM     11  C   UNL     1     139.717 139.667 144.133  1.00  0.00     0.002 C 
ATOM     12  C   UNL     1     140.339 139.119 142.854  1.00  0.00     0.005 C 
ATOM     13  C   UNL     1     139.632 138.440 145.115  1.00  0.00    -0.023 C 
ATOM     14  C   UNL     1     141.338 138.092 143.334  1.00  0.00     0.009 C 
ATOM     15  C   UNL     1     140.676 137.410 144.535  1.00  0.00     0.021 C 
ATOM     16  C   UNL     1     139.945 138.876 146.578  1.00  0.00     0.008 C 
ATOM     17  C   UNL     1     138.237 137.767 145.112  1.00  0.00     0.012 C 
ATOM     18  C   UNL     1     141.740 136.861 145.483  1.00  0.00    -0.067 C 
ATOM     19  C   UNL     1     141.438 138.912 146.890  1.00  0.00     0.009 C 
ATOM     20  C   UNL     1     142.016 137.486 146.837  1.00  0.00     0.021 C 
ATOM     21  C   UNL     1     142.430 135.771 145.092  1.00  0.00    -0.027 C 
ATOM     22  C   UNL     1     143.532 137.394 147.243  1.00  0.00    -0.023 C 
ATOM     23  C   UNL     1     143.593 135.187 145.845  1.00  0.00     0.031 C 
ATOM     24  C   UNL     1     143.952 135.889 147.183  1.00  0.00     0.002 C 
ATOM     25  C   UNL     1     144.434 138.272 146.304  1.00  0.00     0.010 C 
ATOM     26  C   UNL     1     143.671 137.886 148.715  1.00  0.00     0.012 C 
ATOM     27  C   UNL     1     145.453 135.666 147.521  1.00  0.00     0.036 C 
ATOM     28  C   UNL     1     145.789 137.650 145.911  1.00  0.00     0.032 C 
ATOM     29  C   UNL     1     146.412 136.774 147.008  1.00  0.00     0.114 C 
BRANCH  29  30
ATOM     30  O   UNL     1     146.835 137.577 148.082  1.00  0.00    -0.393 OA
ATOM     31  H   UNL     1     146.142 137.510 148.792  1.00  0.00     0.210 HD
ENDBRANCH  29  30
ENDBRANCH   1  11
TORSDOF 6
ENDMDL
MODEL 6
REMARK VINA RESULT:    -5.848      8.057     11.935
REMARK INTER + INTRA:          -9.267
REMARK INTER:                  -7.892
REMARK INTRA:                  -1.375
REMARK UNBOUND:                -1.539
REMARK SMILES CC[C@@H](C=C[C@@H](C)[C@@H]1CC[C@H]2C3=CC[C@H]4C[C@H](O)CC[C@@]4(C)[C@H]3CC[C@]21C)C(C)C
REMARK SMILES IDX 6 1 7 2 5 3 4 4 3 5 2 6 1 7 28 8 29 9 30 10 8 11 9 12 26 13
REMARK SMILES IDX 10 14 11 15 25 16 27 17 12 18 24 19 23 20 13 21 21 22 14 23
REMARK SMILES IDX 15 24 20 25 22 26 16 27 19 28 17 29 18 30
REMARK H PARENT 18 31
REMARK Flexibility Score: inf
ROOT
ATOM      1  C   UNL     1     141.808 139.642 144.564  1.00  0.00     0.012 C 
ATOM      2  C   UNL     1     143.280 139.548 144.985  1.00  0.00     0.012 C 
ENDROOT
BRANCH   1   3
ATOM      3  C   UNL     1     141.201 140.928 145.089  1.00  0.00    -0.028 C 
ATOM      4  C   UNL     1     140.390 140.951 146.157  1.00  0.00    -0.027 C 
BRANCH   4   5
ATOM      5  C   UNL     1     139.740 142.236 146.635  1.00  0.00     0.014 C 
BRANCH   5   6
ATOM      6  C   UNL     1     140.030 142.458 148.138  1.00  0.00     0.004 C 
ATOM      7  C   UNL     1     140.805 143.754 148.393  1.00  0.00     0.004 C 
ENDBRANCH   5   6
BRANCH   5   8
ATOM      8  C   UNL     1     138.213 142.259 146.329  1.00  0.00    -0.011 C 
ATOM      9  C   UNL     1     137.856 143.017 145.039  1.00  0.00     0.008 C 
ATOM     10  C   UNL     1     137.417 142.832 147.513  1.00  0.00     0.008 C 
ENDBRANCH   5   8
ENDBRANCH   4   5
ENDBRANCH   1   3
BRANCH   1  11
ATOM     11  C   UNL     1     141.004 138.331 144.879  1.00  0.00     0.002 C 
ATOM     12  C   UNL     1     141.893 137.093 144.905  1.00  0.00     0.005 C 
ATOM     13  C   UNL     1     139.734 137.914 144.048  1.00  0.00    -0.023 C 
ATOM     14  C   UNL     1     140.923 135.938 144.987  1.00  0.00     0.009 C 
ATOM     15  C   UNL     1     139.738 136.338 144.104  1.00  0.00     0.021 C 
ATOM     16  C   UNL     1     138.443 138.548 144.650  1.00  0.00     0.008 C 
ATOM     17  C   UNL     1     139.821 138.345 142.563  1.00  0.00     0.012 C 
ATOM     18  C   UNL     1     138.466 135.636 144.578  1.00  0.00    -0.067 C 
ATOM     19  C   UNL     1     137.852 137.737 145.800  1.00  0.00     0.009 C 
ATOM     20  C   UNL     1     137.343 136.383 145.273  1.00  0.00     0.021 C 
ATOM     21  C   UNL     1     138.349 134.315 144.341  1.00  0.00    -0.027 C 
ATOM     22  C   UNL     1     136.621 135.504 146.359  1.00  0.00    -0.023 C 
ATOM     23  C   UNL     1     137.228 133.456 144.854  1.00  0.00     0.031 C 
ATOM     24  C   UNL     1     136.126 134.195 145.662  1.00  0.00     0.002 C 
ATOM     25  C   UNL     1     137.573 135.180 147.564  1.00  0.00     0.010 C 
ATOM     26  C   UNL     1     135.376 136.290 146.870  1.00  0.00     0.012 C 
ATOM     27  C   UNL     1     135.430 133.212 146.645  1.00  0.00     0.036 C 
ATOM     28  C   UNL     1     137.464 133.751 148.134  1.00  0.00     0.032 C 
ATOM     29  C   UNL     1     136.046 133.164 148.069  1.00  0.00     0.114 C 
BRANCH  29  30
ATOM     30  O   UNL     1     135.207 133.834 148.978  1.00  0.00    -0.393 OA
ATOM     31  H   UNL     1     135.312 134.808 148.813  1.00  0.00     0.210 HD
ENDBRANCH  29  30
ENDBRANCH   1  11
TORSDOF 6
ENDMDL
MODEL 7
REMARK VINA RESULT:    -5.844      4.756      9.142
REMARK INTER + INTRA:          -9.262
REMARK INTER:                  -8.179
REMARK INTRA:                  -1.083
REMARK UNBOUND:                -1.539
REMARK SMILES CC[C@@H](C=C[C@@H](C)[C@@H]1CC[C@H]2C3=CC[C@H]4C[C@H](O)CC[C@@]4(C)[C@H]3CC[C@]21C)C(C)C
REMARK SMILES IDX 6 1 7 2 5 3 4 4 3 5 2 6 1 7 28 8 29 9 30 10 8 11 9 12 26 13
REMARK SMILES IDX 10 14 11 15 25 16 27 17 12 18 24 19 23 20 13 21 21 22 14 23
REMARK SMILES IDX 15 24 20 25 22 26 16 27 19 28 17 29 18 30
REMARK H PARENT 18 31
REMARK Flexibility Score: inf
ROOT
ATOM      1  C   UNL     1     140.781 138.980 144.107  1.00  0.00     0.012 C 
ATOM      2  C   UNL     1     141.042 139.280 142.625  1.00  0.00     0.012 C 
ENDROOT
BRANCH   1   3
ATOM      3  C   UNL     1     140.573 140.274 144.868  1.00  0.00    -0.028 C 
ATOM      4  C   UNL     1     139.445 140.532 145.545  1.00  0.00    -0.027 C 
BRANCH   4   5
ATOM      5  C   UNL     1     139.225 141.856 146.251  1.00  0.00     0.014 C 
BRANCH   5   6
ATOM      6  C   UNL     1     140.567 142.609 146.411  1.00  0.00     0.004 C 
ATOM      7  C   UNL     1     140.375 144.125 146.499  1.00  0.00     0.004 C 
ENDBRANCH   5   6
BRANCH   5   8
ATOM      8  C   UNL     1     138.496 141.671 147.614  1.00  0.00    -0.011 C 
ATOM      9  C   UNL     1     137.577 142.847 147.986  1.00  0.00     0.008 C 
ATOM     10  C   UNL     1     139.499 141.408 148.750  1.00  0.00     0.008 C 
ENDBRANCH   5   8
ENDBRANCH   4   5
ENDBRANCH   1   3
BRANCH   1  11
ATOM     11  C   UNL     1     141.836 137.991 144.719  1.00  0.00     0.002 C 
ATOM     12  C   UNL     1     142.171 136.839 143.778  1.00  0.00     0.005 C 
ATOM     13  C   UNL     1     141.634 137.330 146.132  1.00  0.00    -0.023 C 
ATOM     14  C   UNL     1     143.000 135.898 144.620  1.00  0.00     0.009 C 
ATOM     15  C   UNL     1     142.373 135.941 146.016  1.00  0.00     0.021 C 
ATOM     16  C   UNL     1     142.209 138.240 147.260  1.00  0.00     0.008 C 
ATOM     17  C   UNL     1     140.145 137.058 146.460  1.00  0.00     0.012 C 
ATOM     18  C   UNL     1     143.419 135.597 147.075  1.00  0.00    -0.067 C 
ATOM     19  C   UNL     1     143.708 138.053 147.480  1.00  0.00     0.009 C 
ATOM     20  C   UNL     1     143.981 136.638 148.024  1.00  0.00     0.021 C 
ATOM     21  C   UNL     1     143.825 134.315 147.166  1.00  0.00    -0.027 C 
ATOM     22  C   UNL     1     145.488 136.371 148.383  1.00  0.00    -0.023 C 
ATOM     23  C   UNL     1     144.935 133.838 148.061  1.00  0.00     0.031 C 
ATOM     24  C   UNL     1     145.592 134.921 148.959  1.00  0.00     0.002 C 
ATOM     25  C   UNL     1     146.420 136.552 147.133  1.00  0.00     0.010 C 
ATOM     26  C   UNL     1     145.906 137.375 149.499  1.00  0.00     0.012 C 
ATOM     27  C   UNL     1     147.050 134.514 149.314  1.00  0.00     0.036 C 
ATOM     28  C   UNL     1     147.565 135.528 147.001  1.00  0.00     0.032 C 
ATOM     29  C   UNL     1     148.136 135.059 148.348  1.00  0.00     0.114 C 
BRANCH  29  30
ATOM     30  O   UNL     1     148.841 136.109 148.963  1.00  0.00    -0.393 OA
ATOM     31  H   UNL     1     148.287 136.431 149.723  1.00  0.00     0.210 HD
ENDBRANCH  29  30
ENDBRANCH   1  11
TORSDOF 6
ENDMDL
MODEL 8
REMARK VINA RESULT:    -5.825      3.215      7.014
REMARK INTER + INTRA:          -9.238
REMARK INTER:                  -7.655
REMARK INTRA:                  -1.583
REMARK UNBOUND:                -1.539
REMARK SMILES CC[C@@H](C=C[C@@H](C)[C@@H]1CC[C@H]2C3=CC[C@H]4C[C@H](O)CC[C@@]4(C)[C@H]3CC[C@]21C)C(C)C
REMARK SMILES IDX 6 1 7 2 5 3 4 4 3 5 2 6 1 7 28 8 29 9 30 10 8 11 9 12 26 13
REMARK SMILES IDX 10 14 11 15 25 16 27 17 12 18 24 19 23 20 13 21 21 22 14 23
REMARK SMILES IDX 15 24 20 25 22 26 16 27 19 28 17 29 18 30
REMARK H PARENT 18 31
REMARK Flexibility Score: inf
ROOT
ATOM      1  C   UNL     1     142.982 135.311 146.434  1.00  0.00     0.012 C 
ATOM      2  C   UNL     1     142.792 134.000 147.208  1.00  0.00     0.012 C 
ENDROOT
BRANCH   1   3
ATOM      3  C   UNL     1     142.424 135.170 145.033  1.00  0.00    -0.028 C 
ATOM      4  C   UNL     1     142.912 135.866 143.995  1.00  0.00    -0.027 C 
BRANCH   4   5
ATOM      5  C   UNL     1     142.303 135.763 142.610  1.00  0.00     0.014 C 
BRANCH   5   6
ATOM      6  C   UNL     1     142.213 134.282 142.173  1.00  0.00     0.004 C 
ATOM      7  C   UNL     1     142.581 134.089 140.699  1.00  0.00     0.004 C 
ENDBRANCH   5   6
BRANCH   5   8
ATOM      8  C   UNL     1     143.077 136.629 141.573  1.00  0.00    -0.011 C 
ATOM      9  C   UNL     1     144.506 136.987 142.013  1.00  0.00     0.008 C 
ATOM     10  C   UNL     1     142.297 137.909 141.225  1.00  0.00     0.008 C 
ENDBRANCH   5   8
ENDBRANCH   4   5
ENDBRANCH   1   3
BRANCH   1  11
ATOM     11  C   UNL     1     144.449 135.863 146.531  1.00  0.00     0.002 C 
ATOM     12  C   UNL     1     145.382 134.915 147.278  1.00  0.00     0.005 C 
ATOM     13  C   UNL     1     144.763 137.294 147.104  1.00  0.00    -0.023 C 
ATOM     14  C   UNL     1     146.652 135.711 147.465  1.00  0.00     0.009 C 
ATOM     15  C   UNL     1     146.196 137.145 147.747  1.00  0.00     0.021 C 
ATOM     16  C   UNL     1     144.703 138.370 145.977  1.00  0.00     0.008 C 
ATOM     17  C   UNL     1     143.777 137.724 148.218  1.00  0.00     0.012 C 
ATOM     18  C   UNL     1     147.278 138.137 147.320  1.00  0.00    -0.067 C 
ATOM     19  C   UNL     1     146.005 138.492 145.190  1.00  0.00     0.009 C 
ATOM     20  C   UNL     1     147.118 139.033 146.107  1.00  0.00     0.021 C 
ATOM     21  C   UNL     1     148.392 138.216 148.073  1.00  0.00    -0.027 C 
ATOM     22  C   UNL     1     148.483 139.294 145.371  1.00  0.00    -0.023 C 
ATOM     23  C   UNL     1     149.599 139.039 147.720  1.00  0.00     0.031 C 
ATOM     24  C   UNL     1     149.485 139.879 146.418  1.00  0.00     0.002 C 
ATOM     25  C   UNL     1     149.045 137.983 144.718  1.00  0.00     0.010 C 
ATOM     26  C   UNL     1     148.241 140.369 144.268  1.00  0.00     0.012 C 
ATOM     27  C   UNL     1     150.897 140.141 145.823  1.00  0.00     0.036 C 
ATOM     28  C   UNL     1     150.572 137.787 144.824  1.00  0.00     0.032 C 
ATOM     29  C   UNL     1     151.370 139.099 144.774  1.00  0.00     0.114 C 
BRANCH  29  30
ATOM     30  O   UNL     1     151.303 139.652 143.483  1.00  0.00    -0.393 OA
ATOM     31  H   UNL     1     152.161 140.129 143.322  1.00  0.00     0.210 HD
ENDBRANCH  29  30
ENDBRANCH   1  11
TORSDOF 6
ENDMDL
MODEL 9
REMARK VINA RESULT:    -5.711      3.014      6.447
REMARK INTER + INTRA:          -9.086
REMARK INTER:                  -7.395
REMARK INTRA:                  -1.692
REMARK UNBOUND:                -1.539
REMARK SMILES CC[C@@H](C=C[C@@H](C)[C@@H]1CC[C@H]2C3=CC[C@H]4C[C@H](O)CC[C@@]4(C)[C@H]3CC[C@]21C)C(C)C
REMARK SMILES IDX 6 1 7 2 5 3 4 4 3 5 2 6 1 7 28 8 29 9 30 10 8 11 9 12 26 13
REMARK SMILES IDX 10 14 11 15 25 16 27 17 12 18 24 19 23 20 13 21 21 22 14 23
REMARK SMILES IDX 15 24 20 25 22 26 16 27 19 28 17 29 18 30
REMARK H PARENT 18 31
REMARK Flexibility Score: inf
ROOT
ATOM      1  C   UNL     1     143.936 134.428 147.974  1.00  0.00     0.012 C 
ATOM      2  C   UNL     1     144.081 132.929 147.681  1.00  0.00     0.012 C 
ENDROOT
BRANCH   1   3
ATOM      3  C   UNL     1     142.577 134.916 147.515  1.00  0.00    -0.028 C 
ATOM      4  C   UNL     1     142.324 135.229 146.235  1.00  0.00    -0.027 C 
BRANCH   4   5
ATOM      5  C   UNL     1     140.977 135.776 145.801  1.00  0.00     0.014 C 
BRANCH   5   6
ATOM      6  C   UNL     1     141.073 136.369 144.375  1.00  0.00     0.004 C 
ATOM      7  C   UNL     1     142.475 136.217 143.778  1.00  0.00     0.004 C 
ENDBRANCH   5   6
BRANCH   5   8
ATOM      8  C   UNL     1     140.414 136.807 146.822  1.00  0.00    -0.011 C 
ATOM      9  C   UNL     1     138.878 136.825 146.896  1.00  0.00     0.008 C 
ATOM     10  C   UNL     1     140.944 138.221 146.533  1.00  0.00     0.008 C 
ENDBRANCH   5   8
ENDBRANCH   4   5
ENDBRANCH   1   3
BRANCH   1  11
ATOM     11  C   UNL     1     145.166 135.265 147.469  1.00  0.00     0.002 C 
ATOM     12  C   UNL     1     146.493 134.553 147.706  1.00  0.00     0.005 C 
ATOM     13  C   UNL     1     145.403 136.752 147.925  1.00  0.00    -0.023 C 
ATOM     14  C   UNL     1     147.538 135.593 147.378  1.00  0.00     0.009 C 
ATOM     15  C   UNL     1     146.972 136.917 147.895  1.00  0.00     0.021 C 
ATOM     16  C   UNL     1     144.662 137.748 146.982  1.00  0.00     0.008 C 
ATOM     17  C   UNL     1     144.917 137.021 149.370  1.00  0.00     0.012 C 
ATOM     18  C   UNL     1     147.552 138.086 147.101  1.00  0.00    -0.067 C 
ATOM     19  C   UNL     1     145.456 138.095 145.727  1.00  0.00     0.009 C 
ATOM     20  C   UNL     1     146.721 138.883 146.113  1.00  0.00     0.021 C 
ATOM     21  C   UNL     1     148.841 138.416 147.316  1.00  0.00    -0.027 C 
ATOM     22  C   UNL     1     147.566 139.381 144.884  1.00  0.00    -0.023 C 
ATOM     23  C   UNL     1     149.596 139.449 146.527  1.00  0.00     0.031 C 
ATOM     24  C   UNL     1     148.780 140.196 145.437  1.00  0.00     0.002 C 
ATOM     25  C   UNL     1     148.046 138.183 143.991  1.00  0.00     0.010 C 
ATOM     26  C   UNL     1     146.673 140.340 144.039  1.00  0.00     0.012 C 
ATOM     27  C   UNL     1     149.726 140.709 144.315  1.00  0.00     0.036 C 
ATOM     28  C   UNL     1     149.480 138.299 143.434  1.00  0.00     0.032 C 
ATOM     29  C   UNL     1     149.906 139.740 143.115  1.00  0.00     0.114 C 
BRANCH  29  30
ATOM     30  O   UNL     1     149.192 140.217 142.002  1.00  0.00    -0.393 OA
ATOM     31  H   UNL     1     149.544 139.744 141.201  1.00  0.00     0.210 HD
ENDBRANCH  29  30
ENDBRANCH   1  11
TORSDOF 6
ENDMDL
