MODEL 1
REMARK VINA RESULT:    -1.797      0.000      0.000
REMARK INTER + INTRA:          -3.893
REMARK INTER:                  -4.528
REMARK INTRA:                   0.635
REMARK UNBOUND:                 0.635
REMARK SMILES CCCCCCCCCCCCCCCCCCCCCCCCCCCC(=O)[O-]
REMARK SMILES IDX 15 1 16 2 17 3 18 4 19 5 20 6 21 7 22 8 23 9 24 10 25 11
REMARK SMILES IDX 26 12 27 13 28 14 29 15 30 16 14 17 13 18 12 19 11 20 10 21
REMARK SMILES IDX 9 22 8 23 7 24 6 25 5 26 4 27 3 28 2 29 1 30
REMARK H PARENT
REMARK Flexibility Score: inf
ROOT
ATOM      1  C   UNL     1      40.831  64.232  55.037  1.00  0.00     0.000 C 
ENDROOT
BRANCH   1   2
ATOM      2  C   UNL     1      41.487  64.669  56.361  1.00  0.00     0.000 C 
BRANCH   2   3
ATOM      3  C   UNL     1      40.511  64.916  57.527  1.00  0.00     0.000 C 
BRANCH   3   4
ATOM      4  C   UNL     1      39.057  65.111  57.062  1.00  0.00     0.000 C 
BRANCH   4   5
ATOM      5  C   UNL     1      38.059  64.276  57.881  1.00  0.00     0.000 C 
BRANCH   5   6
ATOM      6  C   UNL     1      36.951  65.125  58.523  1.00  0.00     0.000 C 
BRANCH   6   7
ATOM      7  C   UNL     1      36.153  64.296  59.541  1.00  0.00     0.000 C 
BRANCH   7   8
ATOM      8  C   UNL     1      36.997  63.877  60.756  1.00  0.00     0.000 C 
BRANCH   8   9
ATOM      9  C   UNL     1      38.173  64.830  61.018  1.00  0.00     0.000 C 
BRANCH   9  10
ATOM     10  C   UNL     1      39.492  64.054  61.124  1.00  0.00     0.000 C 
BRANCH  10  11
ATOM     11  C   UNL     1      39.265  62.550  60.931  1.00  0.00     0.000 C 
BRANCH  11  12
ATOM     12  C   UNL     1      39.506  62.142  59.470  1.00  0.00     0.006 C 
BRANCH  12  13
ATOM     13  C   UNL     1      38.689  60.908  59.070  1.00  0.00     0.053 C 
BRANCH  13  14
ATOM     14  C   UNL     1      38.449  60.000  60.237  1.00  0.00     0.041 C 
ATOM     15  O   UNL     1      39.229  59.039  60.464  1.00  0.00    -0.550 OA
ATOM     16  O   UNL     1      37.374  60.231  61.088  1.00  0.00    -0.550 OA
ENDBRANCH  13  14
ENDBRANCH  12  13
ENDBRANCH  11  12
ENDBRANCH  10  11
ENDBRANCH   9  10
ENDBRANCH   8   9
ENDBRANCH   7   8
ENDBRANCH   6   7
ENDBRANCH   5   6
ENDBRANCH   4   5
ENDBRANCH   3   4
ENDBRANCH   2   3
ENDBRANCH   1   2
BRANCH   1  17
ATOM     17  C   UNL     1      41.744  64.285  53.797  1.00  0.00     0.000 C 
BRANCH  17  18
ATOM     18  C   UNL     1      43.073  65.036  54.026  1.00  0.00     0.000 C 
BRANCH  18  19
ATOM     19  C   UNL     1      43.531  64.996  55.495  1.00  0.00     0.000 C 
BRANCH  19  20
ATOM     20  C   UNL     1      44.179  63.654  55.871  1.00  0.00     0.000 C 
BRANCH  20  21
ATOM     21  C   UNL     1      45.087  63.769  57.108  1.00  0.00     0.000 C 
BRANCH  21  22
ATOM     22  C   UNL     1      44.647  64.884  58.074  1.00  0.00    -0.000 C 
BRANCH  22  23
ATOM     23  C   UNL     1      44.237  64.408  59.483  1.00  0.00    -0.000 C 
BRANCH  23  24
ATOM     24  C   UNL     1      45.399  63.947  60.380  1.00  0.00    -0.000 C 
BRANCH  24  25
ATOM     25  C   UNL     1      46.198  65.117  60.972  1.00  0.00    -0.000 C 
BRANCH  25  26
ATOM     26  C   UNL     1      47.693  64.975  60.651  1.00  0.00    -0.000 C 
BRANCH  26  27
ATOM     27  C   UNL     1      48.066  63.562  60.176  1.00  0.00    -0.000 C 
BRANCH  27  28
ATOM     28  C   UNL     1      49.584  63.315  60.191  1.00  0.00    -0.000 C 
BRANCH  28  29
ATOM     29  C   UNL     1      50.374  64.467  59.550  1.00  0.00    -0.003 C 
ATOM     30  C   UNL     1      51.841  64.112  59.305  1.00  0.00     0.004 C 
ENDBRANCH  28  29
ENDBRANCH  27  28
ENDBRANCH  26  27
ENDBRANCH  25  26
ENDBRANCH  24  25
ENDBRANCH  23  24
ENDBRANCH  22  23
ENDBRANCH  21  22
ENDBRANCH  20  21
ENDBRANCH  19  20
ENDBRANCH  18  19
ENDBRANCH  17  18
ENDBRANCH   1  17
TORSDOF 26
ENDMDL
MODEL 2
REMARK VINA RESULT:    -0.908      3.658      8.976
REMARK INTER + INTRA:          -1.655
REMARK INTER:                  -1.274
REMARK INTRA:                  -0.381
REMARK UNBOUND:                 0.635
REMARK SMILES CCCCCCCCCCCCCCCCCCCCCCCCCCCC(=O)[O-]
REMARK SMILES IDX 15 1 16 2 17 3 18 4 19 5 20 6 21 7 22 8 23 9 24 10 25 11
REMARK SMILES IDX 26 12 27 13 28 14 29 15 30 16 14 17 13 18 12 19 11 20 10 21
REMARK SMILES IDX 9 22 8 23 7 24 6 25 5 26 4 27 3 28 2 29 1 30
REMARK H PARENT
REMARK Flexibility Score: inf
ROOT
ATOM      1  C   UNL     1      42.716  61.700  56.213  1.00  0.00     0.000 C 
ENDROOT
BRANCH   1   2
ATOM      2  C   UNL     1      43.986  62.082  55.429  1.00  0.00     0.000 C 
BRANCH   2   3
ATOM      3  C   UNL     1      44.954  63.028  56.165  1.00  0.00     0.000 C 
BRANCH   3   4
ATOM      4  C   UNL     1      44.370  64.436  56.379  1.00  0.00     0.000 C 
BRANCH   4   5
ATOM      5  C   UNL     1      44.629  64.972  57.796  1.00  0.00     0.000 C 
BRANCH   5   6
ATOM      6  C   UNL     1      43.480  64.671  58.771  1.00  0.00     0.000 C 
BRANCH   6   7
ATOM      7  C   UNL     1      43.968  64.750  60.226  1.00  0.00     0.000 C 
BRANCH   7   8
ATOM      8  C   UNL     1      45.481  64.997  60.332  1.00  0.00     0.000 C 
BRANCH   8   9
ATOM      9  C   UNL     1      46.284  63.697  60.496  1.00  0.00     0.000 C 
BRANCH   9  10
ATOM     10  C   UNL     1      47.430  63.631  59.480  1.00  0.00     0.000 C 
BRANCH  10  11
ATOM     11  C   UNL     1      48.787  63.516  60.184  1.00  0.00     0.000 C 
BRANCH  11  12
ATOM     12  C   UNL     1      49.238  64.879  60.731  1.00  0.00     0.006 C 
BRANCH  12  13
ATOM     13  C   UNL     1      50.736  65.125  60.511  1.00  0.00     0.053 C 
BRANCH  13  14
ATOM     14  C   UNL     1      51.274  64.296  59.385  1.00  0.00     0.041 C 
ATOM     15  O   UNL     1      52.002  64.822  58.503  1.00  0.00    -0.550 OA
ATOM     16  O   UNL     1      50.989  62.938  59.323  1.00  0.00    -0.550 OA
ENDBRANCH  13  14
ENDBRANCH  12  13
ENDBRANCH  11  12
ENDBRANCH  10  11
ENDBRANCH   9  10
ENDBRANCH   8   9
ENDBRANCH   7   8
ENDBRANCH   6   7
ENDBRANCH   5   6
ENDBRANCH   4   5
ENDBRANCH   3   4
ENDBRANCH   2   3
ENDBRANCH   1   2
BRANCH   1  17
ATOM     17  C   UNL     1      41.456  62.517  55.870  1.00  0.00     0.000 C 
BRANCH  17  18
ATOM     18  C   UNL     1      41.584  64.027  56.167  1.00  0.00     0.000 C 
BRANCH  18  19
ATOM     19  C   UNL     1      40.233  64.760  56.103  1.00  0.00     0.000 C 
BRANCH  19  20
ATOM     20  C   UNL     1      39.697  65.125  57.497  1.00  0.00     0.000 C 
BRANCH  20  21
ATOM     21  C   UNL     1      40.342  64.283  58.612  1.00  0.00     0.000 C 
BRANCH  21  22
ATOM     22  C   UNL     1      39.847  64.670  60.017  1.00  0.00    -0.000 C 
BRANCH  22  23
ATOM     23  C   UNL     1      38.369  65.104  60.097  1.00  0.00    -0.000 C 
BRANCH  23  24
ATOM     24  C   UNL     1      37.512  64.317  61.104  1.00  0.00    -0.000 C 
BRANCH  24  25
ATOM     25  C   UNL     1      36.217  63.768  60.488  1.00  0.00    -0.000 C 
BRANCH  25  26
ATOM     26  C   UNL     1      35.924  62.351  61.003  1.00  0.00    -0.000 C 
BRANCH  26  27
ATOM     27  C   UNL     1      37.072  61.370  60.722  1.00  0.00    -0.000 C 
BRANCH  27  28
ATOM     28  C   UNL     1      37.701  61.580  59.334  1.00  0.00    -0.000 C 
BRANCH  28  29
ATOM     29  C   UNL     1      38.771  60.526  59.008  1.00  0.00    -0.003 C 
ATOM     30  C   UNL     1      39.444  59.962  60.260  1.00  0.00     0.004 C 
ENDBRANCH  28  29
ENDBRANCH  27  28
ENDBRANCH  26  27
ENDBRANCH  25  26
ENDBRANCH  24  25
ENDBRANCH  23  24
ENDBRANCH  22  23
ENDBRANCH  21  22
ENDBRANCH  20  21
ENDBRANCH  19  20
ENDBRANCH  18  19
ENDBRANCH  17  18
ENDBRANCH   1  17
TORSDOF 26
ENDMDL
MODEL 3
REMARK VINA RESULT:    -0.352      1.446      2.361
REMARK INTER + INTRA:          -0.251
REMARK INTER:                  -2.351
REMARK INTRA:                   2.100
REMARK UNBOUND:                 0.635
REMARK SMILES CCCCCCCCCCCCCCCCCCCCCCCCCCCC(=O)[O-]
REMARK SMILES IDX 15 1 16 2 17 3 18 4 19 5 20 6 21 7 22 8 23 9 24 10 25 11
REMARK SMILES IDX 26 12 27 13 28 14 29 15 30 16 14 17 13 18 12 19 11 20 10 21
REMARK SMILES IDX 9 22 8 23 7 24 6 25 5 26 4 27 3 28 2 29 1 30
REMARK H PARENT
REMARK Flexibility Score: inf
ROOT
ATOM      1  C   UNL     1      43.135  62.838  55.543  1.00  0.00     0.000 C 
ENDROOT
BRANCH   1   2
ATOM      2  C   UNL     1      42.035  62.054  56.285  1.00  0.00     0.000 C 
BRANCH   2   3
ATOM      3  C   UNL     1      40.934  62.917  56.930  1.00  0.00     0.000 C 
BRANCH   3   4
ATOM      4  C   UNL     1      40.412  64.020  55.993  1.00  0.00     0.000 C 
BRANCH   4   5
ATOM      5  C   UNL     1      39.586  65.083  56.737  1.00  0.00     0.000 C 
BRANCH   5   6
ATOM      6  C   UNL     1      39.720  64.986  58.264  1.00  0.00     0.000 C 
BRANCH   6   7
ATOM      7  C   UNL     1      38.347  65.121  58.940  1.00  0.00     0.000 C 
BRANCH   7   8
ATOM      8  C   UNL     1      37.451  63.893  58.712  1.00  0.00     0.000 C 
BRANCH   8   9
ATOM      9  C   UNL     1      36.044  64.069  59.304  1.00  0.00     0.000 C 
BRANCH   9  10
ATOM     10  C   UNL     1      35.575  62.780  59.990  1.00  0.00     0.000 C 
BRANCH  10  11
ATOM     11  C   UNL     1      36.578  62.326  61.057  1.00  0.00     0.000 C 
BRANCH  11  12
ATOM     12  C   UNL     1      36.923  60.839  60.888  1.00  0.00     0.006 C 
BRANCH  12  13
ATOM     13  C   UNL     1      38.040  60.616  59.860  1.00  0.00     0.053 C 
BRANCH  13  14
ATOM     14  C   UNL     1      39.395  60.653  60.498  1.00  0.00     0.041 C 
ATOM     15  O   UNL     1      40.146  59.645  60.450  1.00  0.00    -0.550 OA
ATOM     16  O   UNL     1      39.836  61.812  61.125  1.00  0.00    -0.550 OA
ENDBRANCH  13  14
ENDBRANCH  12  13
ENDBRANCH  11  12
ENDBRANCH  10  11
ENDBRANCH   9  10
ENDBRANCH   8   9
ENDBRANCH   7   8
ENDBRANCH   6   7
ENDBRANCH   5   6
ENDBRANCH   4   5
ENDBRANCH   3   4
ENDBRANCH   2   3
ENDBRANCH   1   2
BRANCH   1  17
ATOM     17  C   UNL     1      42.966  64.369  55.537  1.00  0.00     0.000 C 
BRANCH  17  18
ATOM     18  C   UNL     1      42.976  65.010  56.941  1.00  0.00     0.000 C 
BRANCH  18  19
ATOM     19  C   UNL     1      44.385  65.066  57.557  1.00  0.00     0.000 C 
BRANCH  19  20
ATOM     20  C   UNL     1      45.313  63.973  57.002  1.00  0.00     0.000 C 
BRANCH  20  21
ATOM     21  C   UNL     1      46.261  63.409  58.074  1.00  0.00     0.000 C 
BRANCH  21  22
ATOM     22  C   UNL     1      46.796  64.491  59.030  1.00  0.00    -0.000 C 
BRANCH  22  23
ATOM     23  C   UNL     1      46.361  64.338  60.503  1.00  0.00    -0.000 C 
BRANCH  23  24
ATOM     24  C   UNL     1      46.624  62.954  61.120  1.00  0.00    -0.000 C 
BRANCH  24  25
ATOM     25  C   UNL     1      47.958  62.341  60.667  1.00  0.00    -0.000 C 
BRANCH  25  26
ATOM     26  C   UNL     1      49.140  63.210  61.121  1.00  0.00    -0.000 C 
BRANCH  26  27
ATOM     27  C   UNL     1      49.477  64.323  60.117  1.00  0.00    -0.000 C 
BRANCH  27  28
ATOM     28  C   UNL     1      50.922  64.831  60.261  1.00  0.00    -0.000 C 
BRANCH  28  29
ATOM     29  C   UNL     1      51.883  64.162  59.266  1.00  0.00    -0.003 C 
ATOM     30  C   UNL     1      52.054  64.969  57.978  1.00  0.00     0.004 C 
ENDBRANCH  28  29
ENDBRANCH  27  28
ENDBRANCH  26  27
ENDBRANCH  25  26
ENDBRANCH  24  25
ENDBRANCH  23  24
ENDBRANCH  22  23
ENDBRANCH  21  22
ENDBRANCH  20  21
ENDBRANCH  19  20
ENDBRANCH  18  19
ENDBRANCH  17  18
ENDBRANCH   1  17
TORSDOF 26
ENDMDL
MODEL 4
REMARK VINA RESULT:     0.708     20.898     23.347
REMARK INTER + INTRA:           2.419
REMARK INTER:                   1.975
REMARK INTRA:                   0.444
REMARK UNBOUND:                 0.635
REMARK SMILES CCCCCCCCCCCCCCCCCCCCCCCCCCCC(=O)[O-]
REMARK SMILES IDX 15 1 16 2 17 3 18 4 19 5 20 6 21 7 22 8 23 9 24 10 25 11
REMARK SMILES IDX 26 12 27 13 28 14 29 15 30 16 14 17 13 18 12 19 11 20 10 21
REMARK SMILES IDX 9 22 8 23 7 24 6 25 5 26 4 27 3 28 2 29 1 30
REMARK H PARENT
REMARK Flexibility Score: inf
ROOT
ATOM      1  C   UNL     1      45.871  49.279  48.454  1.00  0.00     0.000 C 
ENDROOT
BRANCH   1   2
ATOM      2  C   UNL     1      46.042  49.721  46.988  1.00  0.00     0.000 C 
BRANCH   2   3
ATOM      3  C   UNL     1      44.807  50.390  46.356  1.00  0.00     0.000 C 
BRANCH   3   4
ATOM      4  C   UNL     1      44.961  50.626  44.843  1.00  0.00     0.000 C 
BRANCH   4   5
ATOM      5  C   UNL     1      43.915  49.858  44.017  1.00  0.00     0.000 C 
BRANCH   5   6
ATOM      6  C   UNL     1      43.923  50.244  42.530  1.00  0.00     0.000 C 
BRANCH   6   7
ATOM      7  C   UNL     1      43.681  49.010  41.648  1.00  0.00     0.000 C 
BRANCH   7   8
ATOM      8  C   UNL     1      42.483  48.169  42.119  1.00  0.00     0.000 C 
BRANCH   8   9
ATOM      9  C   UNL     1      42.222  46.954  41.218  1.00  0.00     0.000 C 
BRANCH   9  10
ATOM     10  C   UNL     1      43.533  46.235  40.876  1.00  0.00     0.000 C 
BRANCH  10  11
ATOM     11  C   UNL     1      44.737  46.957  41.492  1.00  0.00     0.000 C 
BRANCH  11  12
ATOM     12  C   UNL     1      46.055  46.336  41.008  1.00  0.00     0.006 C 
BRANCH  12  13
ATOM     13  C   UNL     1      47.279  47.128  41.486  1.00  0.00     0.053 C 
BRANCH  13  14
ATOM     14  C   UNL     1      47.936  46.474  42.663  1.00  0.00     0.041 C 
ATOM     15  O   UNL     1      48.270  47.160  43.663  1.00  0.00    -0.550 OA
ATOM     16  O   UNL     1      48.158  45.102  42.662  1.00  0.00    -0.550 OA
ENDBRANCH  13  14
ENDBRANCH  12  13
ENDBRANCH  11  12
ENDBRANCH  10  11
ENDBRANCH   9  10
ENDBRANCH   8   9
ENDBRANCH   7   8
ENDBRANCH   6   7
ENDBRANCH   5   6
ENDBRANCH   4   5
ENDBRANCH   3   4
ENDBRANCH   2   3
ENDBRANCH   1   2
BRANCH   1  17
ATOM     17  C   UNL     1      47.180  49.001  49.219  1.00  0.00     0.000 C 
BRANCH  17  18
ATOM     18  C   UNL     1      47.858  47.667  48.842  1.00  0.00     0.000 C 
BRANCH  18  19
ATOM     19  C   UNL     1      48.039  47.501  47.323  1.00  0.00     0.000 C 
BRANCH  19  20
ATOM     20  C   UNL     1      49.250  46.623  46.969  1.00  0.00     0.000 C 
BRANCH  20  21
ATOM     21  C   UNL     1      50.442  47.450  46.454  1.00  0.00     0.000 C 
BRANCH  21  22
ATOM     22  C   UNL     1      51.684  46.590  46.159  1.00  0.00    -0.000 C 
BRANCH  22  23
ATOM     23  C   UNL     1      51.393  45.198  45.559  1.00  0.00    -0.000 C 
BRANCH  23  24
ATOM     24  C   UNL     1      52.126  44.889  44.243  1.00  0.00    -0.000 C 
BRANCH  24  25
ATOM     25  C   UNL     1      53.221  45.914  43.913  1.00  0.00    -0.000 C 
BRANCH  25  26
ATOM     26  C   UNL     1      54.320  45.279  43.048  1.00  0.00    -0.000 C 
BRANCH  26  27
ATOM     27  C   UNL     1      54.103  45.517  41.546  1.00  0.00    -0.000 C 
BRANCH  27  28
ATOM     28  C   UNL     1      53.313  46.805  41.260  1.00  0.00    -0.000 C 
BRANCH  28  29
ATOM     29  C   UNL     1      51.793  46.580  41.283  1.00  0.00    -0.003 C 
ATOM     30  C   UNL     1      51.008  47.877  41.485  1.00  0.00     0.004 C 
ENDBRANCH  28  29
ENDBRANCH  27  28
ENDBRANCH  26  27
ENDBRANCH  25  26
ENDBRANCH  24  25
ENDBRANCH  23  24
ENDBRANCH  22  23
ENDBRANCH  21  22
ENDBRANCH  20  21
ENDBRANCH  19  20
ENDBRANCH  18  19
ENDBRANCH  17  18
ENDBRANCH   1  17
TORSDOF 26
ENDMDL
MODEL 5
REMARK VINA RESULT:     0.986     21.235     24.526
REMARK INTER + INTRA:           3.119
REMARK INTER:                   5.146
REMARK INTRA:                  -2.027
REMARK UNBOUND:                 0.635
REMARK SMILES CCCCCCCCCCCCCCCCCCCCCCCCCCCC(=O)[O-]
REMARK SMILES IDX 15 1 16 2 17 3 18 4 19 5 20 6 21 7 22 8 23 9 24 10 25 11
REMARK SMILES IDX 26 12 27 13 28 14 29 15 30 16 14 17 13 18 12 19 11 20 10 21
REMARK SMILES IDX 9 22 8 23 7 24 6 25 5 26 4 27 3 28 2 29 1 30
REMARK H PARENT
REMARK Flexibility Score: inf
ROOT
ATOM      1  C   UNL     1      45.638  49.049  47.437  1.00  0.00     0.000 C 
ENDROOT
BRANCH   1   2
ATOM      2  C   UNL     1      46.454  49.374  48.703  1.00  0.00     0.000 C 
BRANCH   2   3
ATOM      3  C   UNL     1      47.893  48.827  48.716  1.00  0.00     0.000 C 
BRANCH   3   4
ATOM      4  C   UNL     1      48.039  47.505  47.940  1.00  0.00     0.000 C 
BRANCH   4   5
ATOM      5  C   UNL     1      49.430  47.347  47.302  1.00  0.00     0.000 C 
BRANCH   5   6
ATOM      6  C   UNL     1      49.387  46.641  45.939  1.00  0.00     0.000 C 
BRANCH   6   7
ATOM      7  C   UNL     1      50.729  46.794  45.206  1.00  0.00     0.000 C 
BRANCH   7   8
ATOM      8  C   UNL     1      51.197  45.487  44.547  1.00  0.00     0.000 C 
BRANCH   8   9
ATOM      9  C   UNL     1      52.714  45.274  44.663  1.00  0.00     0.000 C 
BRANCH   9  10
ATOM     10  C   UNL     1      53.448  45.914  43.478  1.00  0.00     0.000 C 
BRANCH  10  11
ATOM     11  C   UNL     1      53.422  44.994  42.251  1.00  0.00     0.000 C 
BRANCH  11  12
ATOM     12  C   UNL     1      53.141  45.796  40.971  1.00  0.00     0.006 C 
BRANCH  12  13
ATOM     13  C   UNL     1      51.677  46.240  40.875  1.00  0.00     0.053 C 
BRANCH  13  14
ATOM     14  C   UNL     1      51.538  47.726  41.007  1.00  0.00     0.041 C 
ATOM     15  O   UNL     1      52.563  48.454  41.074  1.00  0.00    -0.550 OA
ATOM     16  O   UNL     1      50.276  48.308  41.031  1.00  0.00    -0.550 OA
ENDBRANCH  13  14
ENDBRANCH  12  13
ENDBRANCH  11  12
ENDBRANCH  10  11
ENDBRANCH   9  10
ENDBRANCH   8   9
ENDBRANCH   7   8
ENDBRANCH   6   7
ENDBRANCH   5   6
ENDBRANCH   4   5
ENDBRANCH   3   4
ENDBRANCH   2   3
ENDBRANCH   1   2
BRANCH   1  17
ATOM     17  C   UNL     1      45.418  50.228  46.470  1.00  0.00     0.000 C 
BRANCH  17  18
ATOM     18  C   UNL     1      44.121  50.126  45.639  1.00  0.00     0.000 C 
BRANCH  18  19
ATOM     19  C   UNL     1      44.279  50.704  44.221  1.00  0.00     0.000 C 
BRANCH  19  20
ATOM     20  C   UNL     1      44.587  49.619  43.176  1.00  0.00     0.000 C 
BRANCH  20  21
ATOM     21  C   UNL     1      44.290  50.086  41.741  1.00  0.00     0.000 C 
BRANCH  21  22
ATOM     22  C   UNL     1      43.644  48.989  40.875  1.00  0.00    -0.000 C 
BRANCH  22  23
ATOM     23  C   UNL     1      42.484  48.222  41.545  1.00  0.00    -0.000 C 
BRANCH  23  24
ATOM     24  C   UNL     1      42.882  46.897  42.217  1.00  0.00    -0.000 C 
BRANCH  24  25
ATOM     25  C   UNL     1      42.624  45.673  41.327  1.00  0.00    -0.000 C 
BRANCH  25  26
ATOM     26  C   UNL     1      43.947  45.037  40.875  1.00  0.00    -0.000 C 
BRANCH  26  27
ATOM     27  C   UNL     1      45.122  46.027  40.909  1.00  0.00    -0.000 C 
BRANCH  27  28
ATOM     28  C   UNL     1      46.486  45.323  41.006  1.00  0.00    -0.000 C 
BRANCH  28  29
ATOM     29  C   UNL     1      47.452  46.040  41.961  1.00  0.00    -0.003 C 
ATOM     30  C   UNL     1      48.314  45.068  42.768  1.00  0.00     0.004 C 
ENDBRANCH  28  29
ENDBRANCH  27  28
ENDBRANCH  26  27
ENDBRANCH  25  26
ENDBRANCH  24  25
ENDBRANCH  23  24
ENDBRANCH  22  23
ENDBRANCH  21  22
ENDBRANCH  20  21
ENDBRANCH  19  20
ENDBRANCH  18  19
ENDBRANCH  17  18
ENDBRANCH   1  17
TORSDOF 26
ENDMDL
MODEL 6
REMARK VINA RESULT:     1.059      3.654      8.632
REMARK INTER + INTRA:           3.304
REMARK INTER:                   5.906
REMARK INTRA:                  -2.601
REMARK UNBOUND:                 0.635
REMARK SMILES CCCCCCCCCCCCCCCCCCCCCCCCCCCC(=O)[O-]
REMARK SMILES IDX 15 1 16 2 17 3 18 4 19 5 20 6 21 7 22 8 23 9 24 10 25 11
REMARK SMILES IDX 26 12 27 13 28 14 29 15 30 16 14 17 13 18 12 19 11 20 10 21
REMARK SMILES IDX 9 22 8 23 7 24 6 25 5 26 4 27 3 28 2 29 1 30
REMARK H PARENT
REMARK Flexibility Score: inf
ROOT
ATOM      1  C   UNL     1      44.145  60.103  55.882  1.00  0.00     0.000 C 
ENDROOT
BRANCH   1   2
ATOM      2  C   UNL     1      45.415  60.626  55.183  1.00  0.00     0.000 C 
BRANCH   2   3
ATOM      3  C   UNL     1      45.210  61.869  54.296  1.00  0.00     0.000 C 
BRANCH   3   4
ATOM      4  C   UNL     1      45.464  63.189  55.044  1.00  0.00     0.000 C 
BRANCH   4   5
ATOM      5  C   UNL     1      44.718  64.377  54.412  1.00  0.00     0.000 C 
BRANCH   5   6
ATOM      6  C   UNL     1      43.823  65.124  55.413  1.00  0.00     0.000 C 
BRANCH   6   7
ATOM      7  C   UNL     1      43.683  64.325  56.718  1.00  0.00     0.000 C 
BRANCH   7   8
ATOM      8  C   UNL     1      44.127  65.125  57.953  1.00  0.00     0.000 C 
BRANCH   8   9
ATOM      9  C   UNL     1      44.863  64.259  58.986  1.00  0.00     0.000 C 
BRANCH   9  10
ATOM     10  C   UNL     1      46.350  64.629  59.050  1.00  0.00     0.000 C 
BRANCH  10  11
ATOM     11  C   UNL     1      46.933  64.339  60.438  1.00  0.00     0.000 C 
BRANCH  11  12
ATOM     12  C   UNL     1      47.764  63.047  60.424  1.00  0.00     0.006 C 
BRANCH  12  13
ATOM     13  C   UNL     1      49.124  63.226  61.110  1.00  0.00     0.053 C 
BRANCH  13  14
ATOM     14  C   UNL     1      50.009  64.165  60.350  1.00  0.00     0.041 C 
ATOM     15  O   UNL     1      50.571  65.124  60.940  1.00  0.00    -0.550 OA
ATOM     16  O   UNL     1      50.230  63.968  58.992  1.00  0.00    -0.550 OA
ENDBRANCH  13  14
ENDBRANCH  12  13
ENDBRANCH  11  12
ENDBRANCH  10  11
ENDBRANCH   9  10
ENDBRANCH   8   9
ENDBRANCH   7   8
ENDBRANCH   6   7
ENDBRANCH   5   6
ENDBRANCH   4   5
ENDBRANCH   3   4
ENDBRANCH   2   3
ENDBRANCH   1   2
BRANCH   1  17
ATOM     17  C   UNL     1      42.865  60.924  55.632  1.00  0.00     0.000 C 
BRANCH  17  18
ATOM     18  C   UNL     1      42.378  61.720  56.862  1.00  0.00     0.000 C 
BRANCH  18  19
ATOM     19  C   UNL     1      40.931  62.221  56.709  1.00  0.00     0.000 C 
BRANCH  19  20
ATOM     20  C   UNL     1      40.646  63.462  57.569  1.00  0.00     0.000 C 
BRANCH  20  21
ATOM     21  C   UNL     1      39.460  64.285  57.036  1.00  0.00     0.000 C 
BRANCH  21  22
ATOM     22  C   UNL     1      38.756  65.104  58.133  1.00  0.00    -0.000 C 
BRANCH  22  23
ATOM     23  C   UNL     1      39.256  64.842  59.570  1.00  0.00    -0.000 C 
BRANCH  23  24
ATOM     24  C   UNL     1      38.153  64.528  60.596  1.00  0.00    -0.000 C 
BRANCH  24  25
ATOM     25  C   UNL     1      36.791  64.251  59.945  1.00  0.00    -0.000 C 
BRANCH  25  26
ATOM     26  C   UNL     1      36.413  62.768  60.078  1.00  0.00    -0.000 C 
BRANCH  26  27
ATOM     27  C   UNL     1      37.312  61.850  59.235  1.00  0.00    -0.000 C 
BRANCH  27  28
ATOM     28  C   UNL     1      37.857  60.657  60.038  1.00  0.00    -0.000 C 
BRANCH  28  29
ATOM     29  C   UNL     1      39.342  60.385  59.754  1.00  0.00    -0.003 C 
ATOM     30  C   UNL     1      40.142  60.094  61.025  1.00  0.00     0.004 C 
ENDBRANCH  28  29
ENDBRANCH  27  28
ENDBRANCH  26  27
ENDBRANCH  25  26
ENDBRANCH  24  25
ENDBRANCH  23  24
ENDBRANCH  22  23
ENDBRANCH  21  22
ENDBRANCH  20  21
ENDBRANCH  19  20
ENDBRANCH  18  19
ENDBRANCH  17  18
ENDBRANCH   1  17
TORSDOF 26
ENDMDL
