MODEL 1
REMARK VINA RESULT:    -5.931      0.000      0.000
REMARK INTER + INTRA:          -6.666
REMARK INTER:                  -6.451
REMARK INTRA:                  -0.215
REMARK UNBOUND:                -0.215
REMARK SMILES CC1(C)CC[C@]2(C(=O)[O-])CC[C@]3(C)C(=CC[C@H]4[C@@]5(C)CC[C@@H](O)C(C)(C)[C@H]5CC[C@@]43C)[C@@H]2C1
REMARK SMILES IDX 6 1 5 2 10 3 32 4 4 5 11 6 14 7 33 8 2 9 12 10 15 11 1 12
REMARK SMILES IDX 3 13 13 14 30 15 16 16 17 17 29 18 31 19 18 20 28 21 27 22
REMARK SMILES IDX 20 23 19 24 24 25 21 26 22 27 25 28 26 29 7 30 8 31 9 32
REMARK SMILES IDX 23 33
REMARK H PARENT 23 34
REMARK Flexibility Score: inf
ROOT
ATOM      1  C   UNL     1      20.628 -12.943  16.098  1.00  0.00     0.017 C 
ATOM      2  C   UNL     1      21.062 -14.183  15.240  1.00  0.00     0.014 C 
ATOM      3  C   UNL     1      21.818 -12.547  17.020  1.00  0.00     0.014 C 
ATOM      4  C   UNL     1      19.366 -13.285  16.964  1.00  0.00     0.028 C 
ATOM      5  C   UNL     1      19.905 -15.162  14.970  1.00  0.00     0.007 C 
ATOM      6  C   UNL     1      21.482 -11.446  18.051  1.00  0.00     0.013 C 
ATOM      7  C   UNL     1      19.108 -12.225  18.045  1.00  0.00    -0.064 C 
ATOM      8  C   UNL     1      19.398 -14.740  17.474  1.00  0.00     0.015 C 
ATOM      9  C   UNL     1      19.310 -15.759  16.289  1.00  0.00    -0.035 C 
ATOM     10  C   UNL     1      20.259 -11.763  18.980  1.00  0.00    -0.006 C 
ATOM     11  C   UNL     1      17.939 -11.537  17.939  1.00  0.00    -0.027 C 
ATOM     12  C   UNL     1      17.833 -16.141  16.042  1.00  0.00     0.011 C 
ATOM     13  C   UNL     1      20.080 -17.045  16.667  1.00  0.00     0.011 C 
ATOM     14  C   UNL     1      20.675 -12.938  19.924  1.00  0.00     0.017 C 
ATOM     15  C   UNL     1      19.812 -10.486  19.883  1.00  0.00    -0.020 C 
ATOM     16  C   UNL     1      17.660 -10.215  18.592  1.00  0.00     0.032 C 
ATOM     17  C   UNL     1      18.969  -9.497  18.992  1.00  0.00     0.006 C 
ATOM     18  C   UNL     1      21.040  -9.716  20.424  1.00  0.00     0.008 C 
ATOM     19  C   UNL     1      18.979 -10.996  21.115  1.00  0.00     0.012 C 
ATOM     20  C   UNL     1      18.766  -7.964  19.444  1.00  0.00    -0.025 C 
ATOM     21  C   UNL     1      20.652  -8.448  21.173  1.00  0.00     0.005 C 
ATOM     22  C   UNL     1      20.033  -7.387  20.228  1.00  0.00     0.003 C 
ATOM     23  C   UNL     1      17.463  -7.784  20.289  1.00  0.00     0.010 C 
ATOM     24  C   UNL     1      18.587  -7.158  18.111  1.00  0.00     0.012 C 
ATOM     25  C   UNL     1      19.808  -5.981  20.960  1.00  0.00    -0.006 C 
ATOM     26  C   UNL     1      17.268  -6.385  20.887  1.00  0.00     0.033 C 
ATOM     27  C   UNL     1      18.463  -5.956  21.749  1.00  0.00     0.120 C 
ATOM     28  C   UNL     1      20.961  -5.656  21.959  1.00  0.00     0.014 C 
ATOM     29  C   UNL     1      19.846  -4.806  19.938  1.00  0.00     0.014 C 
ENDROOT
BRANCH   1  30
ATOM     30  C   UNL     1      20.319 -11.788  15.146  1.00  0.00     0.048 C 
ATOM     31  O   UNL     1      19.200 -11.706  14.571  1.00  0.00    -0.550 OA
ATOM     32  O   UNL     1      21.304 -10.865  14.812  1.00  0.00    -0.550 OA
ENDBRANCH   1  30
BRANCH  27  33
ATOM     33  O   UNL     1      18.540  -6.786  22.883  1.00  0.00    -0.393 OA
ATOM     34  H   UNL     1      19.188  -7.508  22.674  1.00  0.00     0.210 HD
ENDBRANCH  27  33
TORSDOF 2
ENDMDL
MODEL 2
REMARK VINA RESULT:    -5.866      1.627      8.036
REMARK INTER + INTRA:          -6.595
REMARK INTER:                  -6.373
REMARK INTRA:                  -0.222
REMARK UNBOUND:                -0.215
REMARK SMILES CC1(C)CC[C@]2(C(=O)[O-])CC[C@]3(C)C(=CC[C@H]4[C@@]5(C)CC[C@@H](O)C(C)(C)[C@H]5CC[C@@]43C)[C@@H]2C1
REMARK SMILES IDX 6 1 5 2 10 3 32 4 4 5 11 6 14 7 33 8 2 9 12 10 15 11 1 12
REMARK SMILES IDX 3 13 13 14 30 15 16 16 17 17 29 18 31 19 18 20 28 21 27 22
REMARK SMILES IDX 20 23 19 24 24 25 21 26 22 27 25 28 26 29 7 30 8 31 9 32
REMARK SMILES IDX 23 33
REMARK H PARENT 23 34
REMARK Flexibility Score: inf
ROOT
ATOM      1  C   UNL     1      20.592  -8.055  21.086  1.00  0.00     0.017 C 
ATOM      2  C   UNL     1      21.024  -6.827  21.961  1.00  0.00     0.014 C 
ATOM      3  C   UNL     1      21.783  -8.438  20.160  1.00  0.00     0.014 C 
ATOM      4  C   UNL     1      19.330  -7.702  20.224  1.00  0.00     0.028 C 
ATOM      5  C   UNL     1      19.866  -5.853  22.243  1.00  0.00     0.007 C 
ATOM      6  C   UNL     1      21.449  -9.525  19.113  1.00  0.00     0.013 C 
ATOM      7  C   UNL     1      19.075  -8.748  19.128  1.00  0.00    -0.064 C 
ATOM      8  C   UNL     1      19.363  -6.241  19.733  1.00  0.00     0.015 C 
ATOM      9  C   UNL     1      19.273  -5.237  20.932  1.00  0.00    -0.035 C 
ATOM     10  C   UNL     1      20.227  -9.196  18.188  1.00  0.00    -0.006 C 
ATOM     11  C   UNL     1      17.906  -9.437  19.223  1.00  0.00    -0.027 C 
ATOM     12  C   UNL     1      17.795  -4.859  21.183  1.00  0.00     0.011 C 
ATOM     13  C   UNL     1      20.042  -3.946  20.573  1.00  0.00     0.011 C 
ATOM     14  C   UNL     1      20.643  -8.008  17.260  1.00  0.00     0.017 C 
ATOM     15  C   UNL     1      19.781 -10.461  17.267  1.00  0.00    -0.020 C 
ATOM     16  C   UNL     1      17.628 -10.750  18.552  1.00  0.00     0.032 C 
ATOM     17  C   UNL     1      18.937 -11.462  18.143  1.00  0.00     0.006 C 
ATOM     18  C   UNL     1      21.010 -11.223  16.717  1.00  0.00     0.008 C 
ATOM     19  C   UNL     1      18.950  -9.934  16.041  1.00  0.00     0.012 C 
ATOM     20  C   UNL     1      18.736 -12.989  17.670  1.00  0.00    -0.025 C 
ATOM     21  C   UNL     1      20.624 -12.480  15.950  1.00  0.00     0.005 C 
ATOM     22  C   UNL     1      20.004 -13.554  16.880  1.00  0.00     0.003 C 
ATOM     23  C   UNL     1      17.434 -13.158  16.821  1.00  0.00     0.010 C 
ATOM     24  C   UNL     1      18.556 -13.814  18.992  1.00  0.00     0.012 C 
ATOM     25  C   UNL     1      19.781 -14.951  16.128  1.00  0.00    -0.006 C 
ATOM     26  C   UNL     1      17.241 -14.549  16.203  1.00  0.00     0.033 C 
ATOM     27  C   UNL     1      18.436 -14.965  15.337  1.00  0.00     0.120 C 
ATOM     28  C   UNL     1      20.935 -15.261  15.126  1.00  0.00     0.014 C 
ATOM     29  C   UNL     1      19.818 -16.140  17.134  1.00  0.00     0.014 C 
ENDROOT
BRANCH   1  30
ATOM     30  C   UNL     1      20.282  -9.224  22.022  1.00  0.00     0.048 C 
ATOM     31  O   UNL     1      19.152  -9.330  22.571  1.00  0.00    -0.550 OA
ATOM     32  O   UNL     1      21.275 -10.132  22.370  1.00  0.00    -0.550 OA
ENDBRANCH   1  30
BRANCH  27  33
ATOM     33  O   UNL     1      18.515 -14.121  14.215  1.00  0.00    -0.393 OA
ATOM     34  H   UNL     1      19.353 -13.597  14.300  1.00  0.00     0.210 HD
ENDBRANCH  27  33
TORSDOF 2
ENDMDL
MODEL 3
REMARK VINA RESULT:    -4.797      1.920      2.942
REMARK INTER + INTRA:          -5.433
REMARK INTER:                  -5.719
REMARK INTRA:                   0.286
REMARK UNBOUND:                -0.215
REMARK SMILES CC1(C)CC[C@]2(C(=O)[O-])CC[C@]3(C)C(=CC[C@H]4[C@@]5(C)CC[C@@H](O)C(C)(C)[C@H]5CC[C@@]43C)[C@@H]2C1
REMARK SMILES IDX 6 1 5 2 10 3 32 4 4 5 11 6 14 7 33 8 2 9 12 10 15 11 1 12
REMARK SMILES IDX 3 13 13 14 30 15 16 16 17 17 29 18 31 19 18 20 28 21 27 22
REMARK SMILES IDX 20 23 19 24 24 25 21 26 22 27 25 28 26 29 7 30 8 31 9 32
REMARK SMILES IDX 23 33
REMARK H PARENT 23 34
REMARK Flexibility Score: inf
ROOT
ATOM      1  C   UNL     1      18.343 -12.752  16.928  1.00  0.00     0.017 C 
ATOM      2  C   UNL     1      18.077 -14.003  16.019  1.00  0.00     0.014 C 
ATOM      3  C   UNL     1      18.636 -11.532  16.006  1.00  0.00     0.014 C 
ATOM      4  C   UNL     1      19.561 -13.012  17.881  1.00  0.00     0.028 C 
ATOM      5  C   UNL     1      18.598 -15.314  16.633  1.00  0.00     0.007 C 
ATOM      6  C   UNL     1      19.088 -10.261  16.760  1.00  0.00     0.013 C 
ATOM      7  C   UNL     1      20.055 -11.718  18.545  1.00  0.00    -0.064 C 
ATOM      8  C   UNL     1      20.658 -13.849  17.194  1.00  0.00     0.015 C 
ATOM      9  C   UNL     1      20.147 -15.291  16.861  1.00  0.00    -0.035 C 
ATOM     10  C   UNL     1      20.338 -10.455  17.687  1.00  0.00    -0.006 C 
ATOM     11  C   UNL     1      19.948 -11.665  19.901  1.00  0.00    -0.027 C 
ATOM     12  C   UNL     1      20.494 -16.247  18.025  1.00  0.00     0.011 C 
ATOM     13  C   UNL     1      20.863 -15.804  15.591  1.00  0.00     0.011 C 
ATOM     14  C   UNL     1      21.575 -10.710  16.765  1.00  0.00     0.017 C 
ATOM     15  C   UNL     1      20.629  -9.156  18.623  1.00  0.00    -0.020 C 
ATOM     16  C   UNL     1      19.964 -10.404  20.713  1.00  0.00     0.032 C 
ATOM     17  C   UNL     1      19.634  -9.169  19.844  1.00  0.00     0.006 C 
ATOM     18  C   UNL     1      20.416  -7.837  17.844  1.00  0.00     0.008 C 
ATOM     19  C   UNL     1      22.125  -9.197  19.104  1.00  0.00     0.012 C 
ATOM     20  C   UNL     1      19.361  -7.824  20.687  1.00  0.00    -0.025 C 
ATOM     21  C   UNL     1      20.566  -6.605  18.727  1.00  0.00     0.005 C 
ATOM     22  C   UNL     1      19.433  -6.511  19.781  1.00  0.00     0.003 C 
ATOM     23  C   UNL     1      20.331  -7.708  21.909  1.00  0.00     0.010 C 
ATOM     24  C   UNL     1      17.903  -7.973  21.247  1.00  0.00     0.012 C 
ATOM     25  C   UNL     1      19.462  -5.123  20.580  1.00  0.00    -0.006 C 
ATOM     26  C   UNL     1      20.242  -6.386  22.682  1.00  0.00     0.033 C 
ATOM     27  C   UNL     1      20.467  -5.171  21.772  1.00  0.00     0.120 C 
ATOM     28  C   UNL     1      19.862  -3.931  19.658  1.00  0.00     0.014 C 
ATOM     29  C   UNL     1      18.042  -4.746  21.098  1.00  0.00     0.014 C 
ENDROOT
BRANCH   1  30
ATOM     30  C   UNL     1      17.081 -12.477  17.746  1.00  0.00     0.048 C 
ATOM     31  O   UNL     1      16.188 -13.358  17.872  1.00  0.00    -0.550 OA
ATOM     32  O   UNL     1      16.844 -11.214  18.276  1.00  0.00    -0.550 OA
ENDBRANCH   1  30
BRANCH  27  33
ATOM     33  O   UNL     1      21.792  -5.182  21.300  1.00  0.00    -0.393 OA
ATOM     34  H   UNL     1      22.267  -4.432  21.743  1.00  0.00     0.210 HD
ENDBRANCH  27  33
TORSDOF 2
ENDMDL
MODEL 4
REMARK VINA RESULT:    -4.677      1.749      7.993
REMARK INTER + INTRA:          -5.302
REMARK INTER:                  -5.645
REMARK INTRA:                   0.343
REMARK UNBOUND:                -0.215
REMARK SMILES CC1(C)CC[C@]2(C(=O)[O-])CC[C@]3(C)C(=CC[C@H]4[C@@]5(C)CC[C@@H](O)C(C)(C)[C@H]5CC[C@@]43C)[C@@H]2C1
REMARK SMILES IDX 6 1 5 2 10 3 32 4 4 5 11 6 14 7 33 8 2 9 12 10 15 11 1 12
REMARK SMILES IDX 3 13 13 14 30 15 16 16 17 17 29 18 31 19 18 20 28 21 27 22
REMARK SMILES IDX 20 23 19 24 24 25 21 26 22 27 25 28 26 29 7 30 8 31 9 32
REMARK SMILES IDX 23 33
REMARK H PARENT 23 34
REMARK Flexibility Score: inf
ROOT
ATOM      1  C   UNL     1      18.366  -8.146  20.333  1.00  0.00     0.017 C 
ATOM      2  C   UNL     1      18.111  -6.902  21.253  1.00  0.00     0.014 C 
ATOM      3  C   UNL     1      18.682  -9.370  21.242  1.00  0.00     0.014 C 
ATOM      4  C   UNL     1      19.566  -7.876  19.359  1.00  0.00     0.028 C 
ATOM      5  C   UNL     1      18.615  -5.585  20.638  1.00  0.00     0.007 C 
ATOM      6  C   UNL     1      19.126 -10.635  20.472  1.00  0.00     0.013 C 
ATOM      7  C   UNL     1      20.053  -9.163  18.678  1.00  0.00    -0.064 C 
ATOM      8  C   UNL     1      20.671  -7.037  20.031  1.00  0.00     0.015 C 
ATOM      9  C   UNL     1      20.159  -5.599  20.382  1.00  0.00    -0.035 C 
ATOM     10  C   UNL     1      20.358 -10.430  19.524  1.00  0.00    -0.006 C 
ATOM     11  C   UNL     1      19.923  -9.208  17.325  1.00  0.00    -0.027 C 
ATOM     12  C   UNL     1      20.482  -4.635  19.218  1.00  0.00     0.011 C 
ATOM     13  C   UNL     1      20.896  -5.091  21.642  1.00  0.00     0.011 C 
ATOM     14  C   UNL     1      21.611 -10.174  20.425  1.00  0.00     0.017 C 
ATOM     15  C   UNL     1      20.638 -11.721  18.575  1.00  0.00    -0.020 C 
ATOM     16  C   UNL     1      19.929 -10.465  16.505  1.00  0.00     0.032 C 
ATOM     17  C   UNL     1      19.621 -11.706  17.372  1.00  0.00     0.006 C 
ATOM     18  C   UNL     1      20.445 -13.047  19.350  1.00  0.00     0.008 C 
ATOM     19  C   UNL     1      22.125 -11.670  18.067  1.00  0.00     0.012 C 
ATOM     20  C   UNL     1      19.339 -13.047  16.526  1.00  0.00    -0.025 C 
ATOM     21  C   UNL     1      20.584 -14.272  18.457  1.00  0.00     0.005 C 
ATOM     22  C   UNL     1      19.433 -14.365  17.423  1.00  0.00     0.003 C 
ATOM     23  C   UNL     1      20.287 -13.152  15.287  1.00  0.00     0.010 C 
ATOM     24  C   UNL     1      17.870 -12.902  15.994  1.00  0.00     0.012 C 
ATOM     25  C   UNL     1      19.454 -15.748  16.615  1.00  0.00    -0.006 C 
ATOM     26  C   UNL     1      20.190 -14.470  14.508  1.00  0.00     0.033 C 
ATOM     27  C   UNL     1      20.437 -15.689  15.406  1.00  0.00     0.120 C 
ATOM     28  C   UNL     1      19.876 -16.944  17.523  1.00  0.00     0.014 C 
ATOM     29  C   UNL     1      18.026 -16.129  16.121  1.00  0.00     0.014 C 
ENDROOT
BRANCH   1  30
ATOM     30  C   UNL     1      17.091  -8.422  19.536  1.00  0.00     0.048 C 
ATOM     31  O   UNL     1      16.915  -9.531  18.963  1.00  0.00    -0.550 OA
ATOM     32  O   UNL     1      16.151  -7.417  19.337  1.00  0.00    -0.550 OA
ENDBRANCH   1  30
BRANCH  27  33
ATOM     33  O   UNL     1      21.771 -15.674  15.853  1.00  0.00    -0.393 OA
ATOM     34  H   UNL     1      22.145 -16.578  15.688  1.00  0.00     0.210 HD
ENDBRANCH  27  33
TORSDOF 2
ENDMDL
MODEL 5
REMARK VINA RESULT:    -3.815      1.941      3.602
REMARK INTER + INTRA:          -4.364
REMARK INTER:                  -4.201
REMARK INTRA:                  -0.163
REMARK UNBOUND:                -0.215
REMARK SMILES CC1(C)CC[C@]2(C(=O)[O-])CC[C@]3(C)C(=CC[C@H]4[C@@]5(C)CC[C@@H](O)C(C)(C)[C@H]5CC[C@@]43C)[C@@H]2C1
REMARK SMILES IDX 6 1 5 2 10 3 32 4 4 5 11 6 14 7 33 8 2 9 12 10 15 11 1 12
REMARK SMILES IDX 3 13 13 14 30 15 16 16 17 17 29 18 31 19 18 20 28 21 27 22
REMARK SMILES IDX 20 23 19 24 24 25 21 26 22 27 25 28 26 29 7 30 8 31 9 32
REMARK SMILES IDX 23 33
REMARK H PARENT 23 34
REMARK Flexibility Score: inf
ROOT
ATOM      1  C   UNL     1      19.796 -13.530  16.241  1.00  0.00     0.017 C 
ATOM      2  C   UNL     1      19.609 -14.750  15.274  1.00  0.00     0.014 C 
ATOM      3  C   UNL     1      18.426 -13.225  16.915  1.00  0.00     0.014 C 
ATOM      4  C   UNL     1      20.300 -12.271  15.452  1.00  0.00     0.028 C 
ATOM      5  C   UNL     1      20.477 -14.652  14.007  1.00  0.00     0.007 C 
ATOM      6  C   UNL     1      18.411 -11.936  17.768  1.00  0.00     0.013 C 
ATOM      7  C   UNL     1      20.185 -10.987  16.287  1.00  0.00    -0.064 C 
ATOM      8  C   UNL     1      19.675 -12.190  14.045  1.00  0.00     0.015 C 
ATOM      9  C   UNL     1      20.137 -13.388  13.148  1.00  0.00    -0.035 C 
ATOM     10  C   UNL     1      18.856 -10.638  17.009  1.00  0.00    -0.006 C 
ATOM     11  C   UNL     1      21.357 -10.360  16.579  1.00  0.00    -0.027 C 
ATOM     12  C   UNL     1      21.392 -12.980  12.343  1.00  0.00     0.011 C 
ATOM     13  C   UNL     1      19.016 -13.733  12.143  1.00  0.00     0.011 C 
ATOM     14  C   UNL     1      17.751 -10.308  15.951  1.00  0.00     0.017 C 
ATOM     15  C   UNL     1      19.039  -9.364  18.004  1.00  0.00    -0.020 C 
ATOM     16  C   UNL     1      21.543  -9.368  17.689  1.00  0.00     0.032 C 
ATOM     17  C   UNL     1      20.423  -9.487  18.747  1.00  0.00     0.006 C 
ATOM     18  C   UNL     1      17.923  -9.314  19.074  1.00  0.00     0.008 C 
ATOM     19  C   UNL     1      18.960  -8.040  17.160  1.00  0.00     0.012 C 
ATOM     20  C   UNL     1      20.700  -8.654  20.097  1.00  0.00    -0.025 C 
ATOM     21  C   UNL     1      18.136  -8.201  20.091  1.00  0.00     0.005 C 
ATOM     22  C   UNL     1      19.382  -8.462  20.977  1.00  0.00     0.003 C 
ATOM     23  C   UNL     1      21.368  -7.273  19.790  1.00  0.00     0.010 C 
ATOM     24  C   UNL     1      21.730  -9.512  20.912  1.00  0.00     0.012 C 
ATOM     25  C   UNL     1      19.501  -7.408  22.177  1.00  0.00    -0.006 C 
ATOM     26  C   UNL     1      21.531  -6.350  21.004  1.00  0.00     0.033 C 
ATOM     27  C   UNL     1      20.197  -6.091  21.715  1.00  0.00     0.120 C 
ATOM     28  C   UNL     1      18.106  -7.038  22.765  1.00  0.00     0.014 C 
ATOM     29  C   UNL     1      20.274  -8.021  23.384  1.00  0.00     0.014 C 
ENDROOT
BRANCH   1  30
ATOM     30  C   UNL     1      20.812 -13.921  17.315  1.00  0.00     0.048 C 
ATOM     31  O   UNL     1      22.019 -13.569  17.221  1.00  0.00    -0.550 OA
ATOM     32  O   UNL     1      20.447 -14.765  18.358  1.00  0.00    -0.550 OA
ENDBRANCH   1  30
BRANCH  27  33
ATOM     33  O   UNL     1      19.350  -5.359  20.863  1.00  0.00    -0.393 OA
ATOM     34  H   UNL     1      19.251  -4.453  21.256  1.00  0.00     0.210 HD
ENDBRANCH  27  33
TORSDOF 2
ENDMDL
MODEL 6
REMARK VINA RESULT:    -3.762      2.077      7.911
REMARK INTER + INTRA:          -4.306
REMARK INTER:                  -4.569
REMARK INTRA:                   0.263
REMARK UNBOUND:                -0.215
REMARK SMILES CC1(C)CC[C@]2(C(=O)[O-])CC[C@]3(C)C(=CC[C@H]4[C@@]5(C)CC[C@@H](O)C(C)(C)[C@H]5CC[C@@]43C)[C@@H]2C1
REMARK SMILES IDX 6 1 5 2 10 3 32 4 4 5 11 6 14 7 33 8 2 9 12 10 15 11 1 12
REMARK SMILES IDX 3 13 13 14 30 15 16 16 17 17 29 18 31 19 18 20 28 21 27 22
REMARK SMILES IDX 20 23 19 24 24 25 21 26 22 27 25 28 26 29 7 30 8 31 9 32
REMARK SMILES IDX 23 33
REMARK H PARENT 23 34
REMARK Flexibility Score: inf
ROOT
ATOM      1  C   UNL     1      20.060  -7.374  20.876  1.00  0.00     0.017 C 
ATOM      2  C   UNL     1      19.920  -6.127  21.818  1.00  0.00     0.014 C 
ATOM      3  C   UNL     1      18.739  -7.524  20.065  1.00  0.00     0.014 C 
ATOM      4  C   UNL     1      20.328  -8.672  21.714  1.00  0.00     0.028 C 
ATOM      5  C   UNL     1      20.637  -6.311  23.167  1.00  0.00     0.007 C 
ATOM      6  C   UNL     1      18.659  -8.813  19.216  1.00  0.00     0.013 C 
ATOM      7  C   UNL     1      20.147  -9.945  20.873  1.00  0.00    -0.064 C 
ATOM      8  C   UNL     1      19.557  -8.661  23.050  1.00  0.00     0.015 C 
ATOM      9  C   UNL     1      20.064  -7.514  23.988  1.00  0.00    -0.035 C 
ATOM     10  C   UNL     1      18.867 -10.145  20.018  1.00  0.00    -0.006 C 
ATOM     11  C   UNL     1      21.260 -10.710  20.704  1.00  0.00    -0.027 C 
ATOM     12  C   UNL     1      21.173  -8.057  24.918  1.00  0.00     0.011 C 
ATOM     13  C   UNL     1      18.894  -7.027  24.872  1.00  0.00     0.011 C 
ATOM     14  C   UNL     1      17.628 -10.329  20.957  1.00  0.00     0.017 C 
ATOM     15  C   UNL     1      18.998 -11.444  19.049  1.00  0.00    -0.020 C 
ATOM     16  C   UNL     1      21.440 -11.732  19.620  1.00  0.00     0.032 C 
ATOM     17  C   UNL     1      20.455 -11.494  18.452  1.00  0.00     0.006 C 
ATOM     18  C   UNL     1      17.999 -11.376  17.870  1.00  0.00     0.008 C 
ATOM     19  C   UNL     1      18.677 -12.738  19.881  1.00  0.00     0.012 C 
ATOM     20  C   UNL     1      20.768 -12.373  17.139  1.00  0.00    -0.025 C 
ATOM     21  C   UNL     1      18.181 -12.520  16.881  1.00  0.00     0.005 C 
ATOM     22  C   UNL     1      19.533 -12.420  16.128  1.00  0.00     0.003 C 
ATOM     23  C   UNL     1      21.232 -13.818  17.514  1.00  0.00     0.010 C 
ATOM     24  C   UNL     1      21.970 -11.652  16.434  1.00  0.00     0.012 C 
ATOM     25  C   UNL     1      19.649 -13.495  14.947  1.00  0.00    -0.006 C 
ATOM     26  C   UNL     1      21.409 -14.770  16.324  1.00  0.00     0.033 C 
ATOM     27  C   UNL     1      20.133 -14.879  15.480  1.00  0.00     0.120 C 
ATOM     28  C   UNL     1      18.287 -13.706  14.219  1.00  0.00     0.014 C 
ATOM     29  C   UNL     1      20.608 -12.993  13.826  1.00  0.00     0.014 C 
ENDROOT
BRANCH   1  30
ATOM     30  C   UNL     1      21.219  -7.119  19.913  1.00  0.00     0.048 C 
ATOM     31  O   UNL     1      22.125  -7.980  19.749  1.00  0.00    -0.550 OA
ATOM     32  O   UNL     1      21.355  -5.887  19.281  1.00  0.00    -0.550 OA
ENDBRANCH   1  30
BRANCH  27  33
ATOM     33  O   UNL     1      19.123 -15.495  16.241  1.00  0.00    -0.393 OA
ATOM     34  H   UNL     1      18.706 -14.790  16.801  1.00  0.00     0.210 HD
ENDBRANCH  27  33
TORSDOF 2
ENDMDL
