MODEL 1
REMARK VINA RESULT:    -5.292      0.000      0.000
REMARK INTER + INTRA:          -6.713
REMARK INTER:                  -6.374
REMARK INTRA:                  -0.339
REMARK UNBOUND:                -0.339
REMARK SMILES Oc1cc(O)c2cc(O)c(-c3ccc(O)c(O)c3)[o+]c2c1
REMARK SMILES IDX 10 1 19 2 20 3 21 4 2 5 3 6 4 7 6 8 7 9 8 10 11 11 12 12
REMARK SMILES IDX 13 13 14 14 18 15 16 16 15 17 17 19 9 21 1 23 5 25
REMARK H PARENT 15 18 17 20 9 22 1 24 5 26
REMARK Flexibility Score: inf
ROOT
ATOM      1  C   UNL     1      -1.673   9.107 -10.514  1.00  0.00     0.402 A 
ATOM      2  O   UNL     1      -0.640   9.668 -11.139  1.00  0.00    -0.202 OA
ATOM      3  C   UNL     1       0.625   9.336 -10.895  1.00  0.00     0.368 A 
ATOM      4  C   UNL     1       1.653   9.970 -11.599  1.00  0.00     0.162 A 
ATOM      5  C   UNL     1       2.990   9.628 -11.355  1.00  0.00     0.128 A 
ATOM      6  C   UNL     1       3.295   8.647 -10.404  1.00  0.00     0.093 A 
ATOM      7  C   UNL     1       2.274   8.004  -9.690  1.00  0.00     0.136 A 
ATOM      8  C   UNL     1       0.932   8.348  -9.935  1.00  0.00     0.125 A 
ATOM      9  C   UNL     1      -0.128   7.745  -9.247  1.00  0.00     0.078 A 
ATOM     10  C   UNL     1      -1.443   8.129  -9.524  1.00  0.00     0.223 A 
ENDROOT
BRANCH   1  11
ATOM     11  C   UNL     1      -3.038   9.553 -10.877  1.00  0.00     0.087 A 
ATOM     12  C   UNL     1      -3.794   8.794 -11.783  1.00  0.00     0.022 A 
ATOM     13  C   UNL     1      -5.091   9.185 -12.125  1.00  0.00     0.051 A 
ATOM     14  C   UNL     1      -5.657  10.333 -11.554  1.00  0.00     0.157 A 
ATOM     15  C   UNL     1      -3.616  10.694 -10.291  1.00  0.00     0.068 A 
ATOM     16  C   UNL     1      -4.916  11.088 -10.630  1.00  0.00     0.158 A 
BRANCH  14  17
ATOM     17  O   UNL     1      -6.950  10.722 -11.899  1.00  0.00    -0.504 OA
ATOM     18  H   UNL     1      -7.495  10.209 -12.582  1.00  0.00     0.293 HD
ENDBRANCH  14  17
BRANCH  16  19
ATOM     19  O   UNL     1      -5.455  12.227 -10.033  1.00  0.00    -0.504 OA
ATOM     20  H   UNL     1      -5.551  12.314  -9.029  1.00  0.00     0.293 HD
ENDBRANCH  16  19
ENDBRANCH   1  11
BRANCH  10  21
ATOM     21  O   UNL     1      -2.501   7.568  -8.807  1.00  0.00    -0.500 OA
ATOM     22  H   UNL     1      -2.374   7.210  -7.868  1.00  0.00     0.294 HD
ENDBRANCH  10  21
BRANCH   5  23
ATOM     23  O   UNL     1       4.021  10.254 -12.051  1.00  0.00    -0.507 OA
ATOM     24  H   UNL     1       3.976  11.236 -12.294  1.00  0.00     0.293 HD
ENDBRANCH   5  23
BRANCH   7  25
ATOM     25  O   UNL     1       2.593   7.030  -8.743  1.00  0.00    -0.507 OA
ATOM     26  H   UNL     1       1.986   6.236  -8.572  1.00  0.00     0.293 HD
ENDBRANCH   7  25
TORSDOF 6
ENDMDL
MODEL 2
REMARK VINA RESULT:    -5.236      2.577      6.627
REMARK INTER + INTRA:          -6.646
REMARK INTER:                  -6.412
REMARK INTRA:                  -0.234
REMARK UNBOUND:                -0.339
REMARK SMILES Oc1cc(O)c2cc(O)c(-c3ccc(O)c(O)c3)[o+]c2c1
REMARK SMILES IDX 10 1 19 2 20 3 21 4 2 5 3 6 4 7 6 8 7 9 8 10 11 11 12 12
REMARK SMILES IDX 13 13 14 14 18 15 16 16 15 17 17 19 9 21 1 23 5 25
REMARK H PARENT 15 18 17 20 9 22 1 24 5 26
REMARK Flexibility Score: inf
ROOT
ATOM      1  C   UNL     1       1.016   9.356 -10.564  1.00  0.00     0.402 A 
ATOM      2  O   UNL     1      -0.301   9.543 -10.552  1.00  0.00    -0.202 OA
ATOM      3  C   UNL     1      -1.173   8.603 -10.907  1.00  0.00     0.368 A 
ATOM      4  C   UNL     1      -2.544   8.879 -10.861  1.00  0.00     0.162 A 
ATOM      5  C   UNL     1      -3.472   7.896 -11.229  1.00  0.00     0.128 A 
ATOM      6  C   UNL     1      -3.027   6.635 -11.642  1.00  0.00     0.093 A 
ATOM      7  C   UNL     1      -1.655   6.346 -11.693  1.00  0.00     0.136 A 
ATOM      8  C   UNL     1      -0.722   7.332 -11.324  1.00  0.00     0.125 A 
ATOM      9  C   UNL     1       0.657   7.102 -11.363  1.00  0.00     0.078 A 
ATOM     10  C   UNL     1       1.542   8.119 -10.992  1.00  0.00     0.223 A 
ENDROOT
BRANCH   1  11
ATOM     11  C   UNL     1       1.887  10.476 -10.138  1.00  0.00     0.087 A 
ATOM     12  C   UNL     1       1.937  10.833  -8.782  1.00  0.00     0.022 A 
ATOM     13  C   UNL     1       2.766  11.873  -8.355  1.00  0.00     0.051 A 
ATOM     14  C   UNL     1       3.569  12.562  -9.275  1.00  0.00     0.157 A 
ATOM     15  C   UNL     1       2.708  11.156 -11.057  1.00  0.00     0.068 A 
ATOM     16  C   UNL     1       3.541  12.197 -10.631  1.00  0.00     0.158 A 
BRANCH  14  17
ATOM     17  O   UNL     1       4.392  13.601  -8.846  1.00  0.00    -0.504 OA
ATOM     18  H   UNL     1       4.025  14.391  -8.329  1.00  0.00     0.293 HD
ENDBRANCH  14  17
BRANCH  16  19
ATOM     19  O   UNL     1       4.338  12.852 -11.569  1.00  0.00    -0.504 OA
ATOM     20  H   UNL     1       4.052  12.962 -12.535  1.00  0.00     0.293 HD
ENDBRANCH  16  19
ENDBRANCH   1  11
BRANCH  10  21
ATOM     21  O   UNL     1       2.920   7.913 -11.077  1.00  0.00    -0.500 OA
ATOM     22  H   UNL     1       3.306   7.048 -11.436  1.00  0.00     0.294 HD
ENDBRANCH  10  21
BRANCH   5  23
ATOM     23  O   UNL     1      -4.839   8.161 -11.187  1.00  0.00    -0.507 OA
ATOM     24  H   UNL     1      -5.295   8.706 -11.909  1.00  0.00     0.293 HD
ENDBRANCH   5  23
BRANCH   7  25
ATOM     25  O   UNL     1      -1.225   5.085 -12.109  1.00  0.00    -0.507 OA
ATOM     26  H   UNL     1      -0.442   4.618 -11.665  1.00  0.00     0.293 HD
ENDBRANCH   7  25
TORSDOF 6
ENDMDL
MODEL 3
REMARK VINA RESULT:    -5.143     11.316     12.742
REMARK INTER + INTRA:          -6.534
REMARK INTER:                  -6.194
REMARK INTRA:                  -0.340
REMARK UNBOUND:                -0.339
REMARK SMILES Oc1cc(O)c2cc(O)c(-c3ccc(O)c(O)c3)[o+]c2c1
REMARK SMILES IDX 10 1 19 2 20 3 21 4 2 5 3 6 4 7 6 8 7 9 8 10 11 11 12 12
REMARK SMILES IDX 13 13 14 14 18 15 16 16 15 17 17 19 9 21 1 23 5 25
REMARK H PARENT 15 18 17 20 9 22 1 24 5 26
REMARK Flexibility Score: inf
ROOT
ATOM      1  C   UNL     1      10.352  10.244  -6.334  1.00  0.00     0.402 A 
ATOM      2  O   UNL     1      10.430  10.478  -7.642  1.00  0.00    -0.202 OA
ATOM      3  C   UNL     1      11.031   9.653  -8.494  1.00  0.00     0.368 A 
ATOM      4  C   UNL     1      11.065   9.970  -9.856  1.00  0.00     0.162 A 
ATOM      5  C   UNL     1      11.692   9.107 -10.765  1.00  0.00     0.128 A 
ATOM      6  C   UNL     1      12.285   7.924 -10.309  1.00  0.00     0.093 A 
ATOM      7  C   UNL     1      12.259   7.595  -8.945  1.00  0.00     0.136 A 
ATOM      8  C   UNL     1      11.630   8.461  -8.033  1.00  0.00     0.125 A 
ATOM      9  C   UNL     1      11.580   8.187  -6.661  1.00  0.00     0.078 A 
ATOM     10  C   UNL     1      10.948   9.084  -5.796  1.00  0.00     0.223 A 
ENDROOT
BRANCH   1  11
ATOM     11  C   UNL     1       9.649  11.233  -5.486  1.00  0.00     0.087 A 
ATOM     12  C   UNL     1      10.385  12.248  -4.856  1.00  0.00     0.022 A 
ATOM     13  C   UNL     1       9.741  13.205  -4.067  1.00  0.00     0.051 A 
ATOM     14  C   UNL     1       8.349  13.171  -3.910  1.00  0.00     0.157 A 
ATOM     15  C   UNL     1       8.249  11.213  -5.342  1.00  0.00     0.068 A 
ATOM     16  C   UNL     1       7.600  12.172  -4.555  1.00  0.00     0.158 A 
BRANCH  14  17
ATOM     17  O   UNL     1       7.709  14.124  -3.121  1.00  0.00    -0.504 OA
ATOM     18  H   UNL     1       7.287  14.952  -3.526  1.00  0.00     0.293 HD
ENDBRANCH  14  17
BRANCH  16  19
ATOM     19  O   UNL     1       6.213  12.118  -4.430  1.00  0.00    -0.504 OA
ATOM     20  H   UNL     1       5.649  11.473  -4.970  1.00  0.00     0.293 HD
ENDBRANCH  16  19
ENDBRANCH   1  11
BRANCH  10  21
ATOM     21  O   UNL     1      10.939   8.843  -4.421  1.00  0.00    -0.500 OA
ATOM     22  H   UNL     1      10.216   9.221  -3.821  1.00  0.00     0.294 HD
ENDBRANCH  10  21
BRANCH   5  23
ATOM     23  O   UNL     1      11.731   9.415 -12.123  1.00  0.00    -0.507 OA
ATOM     24  H   UNL     1      12.205  10.241 -12.465  1.00  0.00     0.293 HD
ENDBRANCH   5  23
BRANCH   7  25
ATOM     25  O   UNL     1      12.856   6.413  -8.503  1.00  0.00    -0.507 OA
ATOM     26  H   UNL     1      13.679   6.422  -7.913  1.00  0.00     0.293 HD
ENDBRANCH   7  25
TORSDOF 6
ENDMDL
MODEL 4
REMARK VINA RESULT:    -5.011      1.882      6.788
REMARK INTER + INTRA:          -6.376
REMARK INTER:                  -6.107
REMARK INTRA:                  -0.268
REMARK UNBOUND:                -0.339
REMARK SMILES Oc1cc(O)c2cc(O)c(-c3ccc(O)c(O)c3)[o+]c2c1
REMARK SMILES IDX 10 1 19 2 20 3 21 4 2 5 3 6 4 7 6 8 7 9 8 10 11 11 12 12
REMARK SMILES IDX 13 13 14 14 18 15 16 16 15 17 17 19 9 21 1 23 5 25
REMARK H PARENT 15 18 17 20 9 22 1 24 5 26
REMARK Flexibility Score: inf
ROOT
ATOM      1  C   UNL     1       1.427   9.532 -10.647  1.00  0.00     0.402 A 
ATOM      2  O   UNL     1       0.267  10.031 -11.066  1.00  0.00    -0.202 OA
ATOM      3  C   UNL     1      -0.896   9.404 -10.907  1.00  0.00     0.368 A 
ATOM      4  C   UNL     1      -2.072  10.001 -11.372  1.00  0.00     0.162 A 
ATOM      5  C   UNL     1      -3.303   9.352 -11.208  1.00  0.00     0.128 A 
ATOM      6  C   UNL     1      -3.355   8.104 -10.577  1.00  0.00     0.093 A 
ATOM      7  C   UNL     1      -2.183   7.494 -10.108  1.00  0.00     0.136 A 
ATOM      8  C   UNL     1      -0.946   8.145 -10.272  1.00  0.00     0.125 A 
ATOM      9  C   UNL     1       0.255   7.580  -9.830  1.00  0.00     0.078 A 
ATOM     10  C   UNL     1       1.458   8.266 -10.024  1.00  0.00     0.223 A 
ENDROOT
BRANCH   1  11
ATOM     11  C   UNL     1       2.655  10.328 -10.873  1.00  0.00     0.087 A 
ATOM     12  C   UNL     1       3.551   9.943 -11.881  1.00  0.00     0.022 A 
ATOM     13  C   UNL     1       4.706  10.690 -12.125  1.00  0.00     0.051 A 
ATOM     14  C   UNL     1       4.974  11.844 -11.376  1.00  0.00     0.157 A 
ATOM     15  C   UNL     1       2.916  11.497 -10.135  1.00  0.00     0.068 A 
ATOM     16  C   UNL     1       4.071  12.250 -10.379  1.00  0.00     0.158 A 
BRANCH  14  17
ATOM     17  O   UNL     1       6.128  12.586 -11.620  1.00  0.00    -0.504 OA
ATOM     18  H   UNL     1       6.439  12.789 -12.562  1.00  0.00     0.293 HD
ENDBRANCH  14  17
BRANCH  16  19
ATOM     19  O   UNL     1       4.301  13.400  -9.625  1.00  0.00    -0.504 OA
ATOM     20  H   UNL     1       4.261  13.396  -8.613  1.00  0.00     0.293 HD
ENDBRANCH  16  19
ENDBRANCH   1  11
BRANCH  10  21
ATOM     21  O   UNL     1       2.665   7.687  -9.632  1.00  0.00    -0.500 OA
ATOM     22  H   UNL     1       2.828   7.397  -8.675  1.00  0.00     0.294 HD
ENDBRANCH  10  21
BRANCH   5  23
ATOM     23  O   UNL     1      -4.480   9.938 -11.668  1.00  0.00    -0.507 OA
ATOM     24  H   UNL     1      -4.546  10.336 -12.597  1.00  0.00     0.293 HD
ENDBRANCH   5  23
BRANCH   7  25
ATOM     25  O   UNL     1      -2.249   6.248  -9.482  1.00  0.00    -0.507 OA
ATOM     26  H   UNL     1      -2.899   6.067  -8.725  1.00  0.00     0.293 HD
ENDBRANCH   7  25
TORSDOF 6
ENDMDL
MODEL 5
REMARK VINA RESULT:    -4.934     16.372     18.926
REMARK INTER + INTRA:          -6.283
REMARK INTER:                  -5.933
REMARK INTRA:                  -0.349
REMARK UNBOUND:                -0.339
REMARK SMILES Oc1cc(O)c2cc(O)c(-c3ccc(O)c(O)c3)[o+]c2c1
REMARK SMILES IDX 10 1 19 2 20 3 21 4 2 5 3 6 4 7 6 8 7 9 8 10 11 11 12 12
REMARK SMILES IDX 13 13 14 14 18 15 16 16 15 17 17 19 9 21 1 23 5 25
REMARK H PARENT 15 18 17 20 9 22 1 24 5 26
REMARK Flexibility Score: inf
ROOT
ATOM      1  C   UNL     1       2.913  12.438   6.080  1.00  0.00     0.402 A 
ATOM      2  O   UNL     1       1.929  11.774   6.682  1.00  0.00    -0.202 OA
ATOM      3  C   UNL     1       0.648  11.917   6.353  1.00  0.00     0.368 A 
ATOM      4  C   UNL     1      -0.327  11.178   7.032  1.00  0.00     0.162 A 
ATOM      5  C   UNL     1      -1.679  11.316   6.692  1.00  0.00     0.128 A 
ATOM      6  C   UNL     1      -2.055  12.196   5.671  1.00  0.00     0.093 A 
ATOM      7  C   UNL     1      -1.089  12.944   4.983  1.00  0.00     0.136 A 
ATOM      8  C   UNL     1       0.269  12.805   5.324  1.00  0.00     0.125 A 
ATOM      9  C   UNL     1       1.275  13.532   4.677  1.00  0.00     0.078 A 
ATOM     10  C   UNL     1       2.610  13.362   5.058  1.00  0.00     0.223 A 
ENDROOT
BRANCH   1  11
ATOM     11  C   UNL     1       4.302  12.189   6.528  1.00  0.00     0.087 A 
ATOM     12  C   UNL     1       4.788  12.847   7.668  1.00  0.00     0.022 A 
ATOM     13  C   UNL     1       6.089  12.612   8.121  1.00  0.00     0.051 A 
ATOM     14  C   UNL     1       6.918  11.703   7.451  1.00  0.00     0.157 A 
ATOM     15  C   UNL     1       5.130  11.262   5.869  1.00  0.00     0.068 A 
ATOM     16  C   UNL     1       6.433  11.022   6.322  1.00  0.00     0.158 A 
BRANCH  14  17
ATOM     17  O   UNL     1       8.215  11.472   7.903  1.00  0.00    -0.504 OA
ATOM     18  H   UNL     1       8.952  12.157   7.776  1.00  0.00     0.293 HD
ENDBRANCH  14  17
BRANCH  16  19
ATOM     19  O   UNL     1       7.227  10.101   5.640  1.00  0.00    -0.504 OA
ATOM     20  H   UNL     1       6.886   9.182   5.384  1.00  0.00     0.293 HD
ENDBRANCH  16  19
ENDBRANCH   1  11
BRANCH  10  21
ATOM     21  O   UNL     1       3.613  14.120   4.453  1.00  0.00    -0.500 OA
ATOM     22  H   UNL     1       4.039  13.834   3.580  1.00  0.00     0.294 HD
ENDBRANCH  10  21
BRANCH   5  23
ATOM     23  O   UNL     1      -2.656  10.584   7.363  1.00  0.00    -0.507 OA
ATOM     24  H   UNL     1      -3.136  10.958   8.172  1.00  0.00     0.293 HD
ENDBRANCH   5  23
BRANCH   7  25
ATOM     25  O   UNL     1      -1.478  13.819   3.968  1.00  0.00    -0.507 OA
ATOM     26  H   UNL     1      -1.997  14.667   4.168  1.00  0.00     0.293 HD
ENDBRANCH   7  25
TORSDOF 6
ENDMDL
MODEL 6
REMARK VINA RESULT:    -4.873      1.715      6.743
REMARK INTER + INTRA:          -6.209
REMARK INTER:                  -6.306
REMARK INTRA:                   0.097
REMARK UNBOUND:                -0.339
REMARK SMILES Oc1cc(O)c2cc(O)c(-c3ccc(O)c(O)c3)[o+]c2c1
REMARK SMILES IDX 10 1 19 2 20 3 21 4 2 5 3 6 4 7 6 8 7 9 8 10 11 11 12 12
REMARK SMILES IDX 13 13 14 14 18 15 16 16 15 17 17 19 9 21 1 23 5 25
REMARK H PARENT 15 18 17 20 9 22 1 24 5 26
REMARK Flexibility Score: inf
ROOT
ATOM      1  C   UNL     1      -0.635   9.167 -11.116  1.00  0.00     0.402 A 
ATOM      2  O   UNL     1      -1.107  10.376 -11.412  1.00  0.00    -0.202 OA
ATOM      3  C   UNL     1      -2.386  10.712 -11.272  1.00  0.00     0.368 A 
ATOM      4  C   UNL     1      -2.800  12.007 -11.601  1.00  0.00     0.162 A 
ATOM      5  C   UNL     1      -4.145  12.375 -11.455  1.00  0.00     0.128 A 
ATOM      6  C   UNL     1      -5.074  11.444 -10.978  1.00  0.00     0.093 A 
ATOM      7  C   UNL     1      -4.673  10.142 -10.645  1.00  0.00     0.136 A 
ATOM      8  C   UNL     1      -3.323   9.772 -10.792  1.00  0.00     0.125 A 
ATOM      9  C   UNL     1      -2.867   8.485 -10.484  1.00  0.00     0.078 A 
ATOM     10  C   UNL     1      -1.517   8.168 -10.654  1.00  0.00     0.223 A 
ENDROOT
BRANCH   1  11
ATOM     11  C   UNL     1       0.811   8.914 -11.305  1.00  0.00     0.087 A 
ATOM     12  C   UNL     1       1.229   7.722 -11.917  1.00  0.00     0.022 A 
ATOM     13  C   UNL     1       2.588   7.471 -12.123  1.00  0.00     0.051 A 
ATOM     14  C   UNL     1       3.549   8.415 -11.737  1.00  0.00     0.157 A 
ATOM     15  C   UNL     1       1.777   9.869 -10.936  1.00  0.00     0.068 A 
ATOM     16  C   UNL     1       3.139   9.621 -11.144  1.00  0.00     0.158 A 
BRANCH  14  17
ATOM     17  O   UNL     1       4.903   8.161 -11.943  1.00  0.00    -0.504 OA
ATOM     18  H   UNL     1       5.452   7.634 -11.273  1.00  0.00     0.293 HD
ENDBRANCH  14  17
BRANCH  16  19
ATOM     19  O   UNL     1       4.068  10.587 -10.761  1.00  0.00    -0.504 OA
ATOM     20  H   UNL     1       5.047  10.366 -10.619  1.00  0.00     0.293 HD
ENDBRANCH  16  19
ENDBRANCH   1  11
BRANCH  10  21
ATOM     21  O   UNL     1      -1.065   6.873 -10.396  1.00  0.00    -0.500 OA
ATOM     22  H   UNL     1      -1.710   6.110 -10.226  1.00  0.00     0.294 HD
ENDBRANCH  10  21
BRANCH   5  23
ATOM     23  O   UNL     1      -4.566  13.662 -11.780  1.00  0.00    -0.507 OA
ATOM     24  H   UNL     1      -5.250  14.153 -11.217  1.00  0.00     0.293 HD
ENDBRANCH   5  23
BRANCH   7  25
ATOM     25  O   UNL     1      -5.611   9.223 -10.173  1.00  0.00    -0.507 OA
ATOM     26  H   UNL     1      -5.476   8.224 -10.278  1.00  0.00     0.293 HD
ENDBRANCH   7  25
TORSDOF 6
ENDMDL
MODEL 7
REMARK VINA RESULT:    -4.772     11.117     12.703
REMARK INTER + INTRA:          -6.087
REMARK INTER:                  -5.747
REMARK INTRA:                  -0.340
REMARK UNBOUND:                -0.339
REMARK SMILES Oc1cc(O)c2cc(O)c(-c3ccc(O)c(O)c3)[o+]c2c1
REMARK SMILES IDX 10 1 19 2 20 3 21 4 2 5 3 6 4 7 6 8 7 9 8 10 11 11 12 12
REMARK SMILES IDX 13 13 14 14 18 15 16 16 15 17 17 19 9 21 1 23 5 25
REMARK H PARENT 15 18 17 20 9 22 1 24 5 26
REMARK Flexibility Score: inf
ROOT
ATOM      1  C   UNL     1      10.081  11.085  -7.440  1.00  0.00     0.402 A 
ATOM      2  O   UNL     1      10.608   9.873  -7.278  1.00  0.00    -0.202 OA
ATOM      3  C   UNL     1      11.155   9.179  -8.272  1.00  0.00     0.368 A 
ATOM      4  C   UNL     1      11.692   7.913  -8.018  1.00  0.00     0.162 A 
ATOM      5  C   UNL     1      12.274   7.173  -9.056  1.00  0.00     0.128 A 
ATOM      6  C   UNL     1      12.318   7.703 -10.350  1.00  0.00     0.093 A 
ATOM      7  C   UNL     1      11.782   8.971 -10.619  1.00  0.00     0.136 A 
ATOM      8  C   UNL     1      11.198   9.714  -9.577  1.00  0.00     0.125 A 
ATOM      9  C   UNL     1      10.641  10.980  -9.790  1.00  0.00     0.078 A 
ATOM     10  C   UNL     1      10.066  11.674  -8.721  1.00  0.00     0.223 A 
ENDROOT
BRANCH   1  11
ATOM     11  C   UNL     1       9.508  11.763  -6.254  1.00  0.00     0.087 A 
ATOM     12  C   UNL     1      10.341  12.539  -5.434  1.00  0.00     0.022 A 
ATOM     13  C   UNL     1       9.819  13.204  -4.322  1.00  0.00     0.051 A 
ATOM     14  C   UNL     1       8.453  13.116  -4.022  1.00  0.00     0.157 A 
ATOM     15  C   UNL     1       8.134  11.692  -5.962  1.00  0.00     0.068 A 
ATOM     16  C   UNL     1       7.607  12.359  -4.849  1.00  0.00     0.158 A 
BRANCH  14  17
ATOM     17  O   UNL     1       7.936  13.778  -2.911  1.00  0.00    -0.504 OA
ATOM     18  H   UNL     1       8.452  14.515  -2.443  1.00  0.00     0.293 HD
ENDBRANCH  14  17
BRANCH  16  19
ATOM     19  O   UNL     1       6.242  12.262  -4.587  1.00  0.00    -0.504 OA
ATOM     20  H   UNL     1       5.654  13.080  -4.484  1.00  0.00     0.293 HD
ENDBRANCH  16  19
ENDBRANCH   1  11
BRANCH  10  21
ATOM     21  O   UNL     1       9.464  12.915  -8.935  1.00  0.00    -0.500 OA
ATOM     22  H   UNL     1       9.347  13.294  -9.867  1.00  0.00     0.294 HD
ENDBRANCH  10  21
BRANCH   5  23
ATOM     23  O   UNL     1      12.811   5.911  -8.812  1.00  0.00    -0.507 OA
ATOM     24  H   UNL     1      13.806   5.737  -8.879  1.00  0.00     0.293 HD
ENDBRANCH   5  23
BRANCH   7  25
ATOM     25  O   UNL     1      11.832   9.487 -11.915  1.00  0.00    -0.507 OA
ATOM     26  H   UNL     1      11.792   8.884 -12.729  1.00  0.00     0.293 HD
ENDBRANCH   7  25
TORSDOF 6
ENDMDL
MODEL 8
REMARK VINA RESULT:    -4.635     16.045     17.857
REMARK INTER + INTRA:          -5.923
REMARK INTER:                  -5.962
REMARK INTRA:                   0.039
REMARK UNBOUND:                -0.339
REMARK SMILES Oc1cc(O)c2cc(O)c(-c3ccc(O)c(O)c3)[o+]c2c1
REMARK SMILES IDX 10 1 19 2 20 3 21 4 2 5 3 6 4 7 6 8 7 9 8 10 11 11 12 12
REMARK SMILES IDX 13 13 14 14 18 15 16 16 15 17 17 19 9 21 1 23 5 25
REMARK H PARENT 15 18 17 20 9 22 1 24 5 26
REMARK Flexibility Score: inf
ROOT
ATOM      1  C   UNL     1      -1.415  11.387   5.643  1.00  0.00     0.402 A 
ATOM      2  O   UNL     1      -1.506  10.131   6.072  1.00  0.00    -0.202 OA
ATOM      3  C   UNL     1      -2.654   9.460   6.121  1.00  0.00     0.368 A 
ATOM      4  C   UNL     1      -2.664   8.139   6.581  1.00  0.00     0.162 A 
ATOM      5  C   UNL     1      -3.866   7.421   6.634  1.00  0.00     0.128 A 
ATOM      6  C   UNL     1      -5.059   8.028   6.226  1.00  0.00     0.093 A 
ATOM      7  C   UNL     1      -5.064   9.352   5.765  1.00  0.00     0.136 A 
ATOM      8  C   UNL     1      -3.857  10.074   5.711  1.00  0.00     0.125 A 
ATOM      9  C   UNL     1      -3.803  11.400   5.267  1.00  0.00     0.078 A 
ATOM     10  C   UNL     1      -2.579  12.074   5.239  1.00  0.00     0.223 A 
ENDROOT
BRANCH   1  11
ATOM     11  C   UNL     1      -0.079  12.026   5.626  1.00  0.00     0.087 A 
ATOM     12  C   UNL     1       0.314  12.775   4.506  1.00  0.00     0.022 A 
ATOM     13  C   UNL     1       1.562  13.402   4.476  1.00  0.00     0.051 A 
ATOM     14  C   UNL     1       2.430  13.304   5.572  1.00  0.00     0.157 A 
ATOM     15  C   UNL     1       0.787  11.945   6.733  1.00  0.00     0.068 A 
ATOM     16  C   UNL     1       2.037  12.575   6.707  1.00  0.00     0.158 A 
BRANCH  14  17
ATOM     17  O   UNL     1       3.675  13.929   5.538  1.00  0.00    -0.504 OA
ATOM     18  H   UNL     1       3.819  14.848   5.941  1.00  0.00     0.293 HD
ENDBRANCH  14  17
BRANCH  16  19
ATOM     19  O   UNL     1       2.871  12.469   7.819  1.00  0.00    -0.504 OA
ATOM     20  H   UNL     1       2.611  12.843   8.724  1.00  0.00     0.293 HD
ENDBRANCH  16  19
ENDBRANCH   1  11
BRANCH  10  21
ATOM     21  O   UNL     1      -2.525  13.412   4.846  1.00  0.00    -0.500 OA
ATOM     22  H   UNL     1      -1.770  13.765   4.271  1.00  0.00     0.294 HD
ENDBRANCH  10  21
BRANCH   5  23
ATOM     23  O   UNL     1      -3.886   6.105   7.090  1.00  0.00    -0.507 OA
ATOM     24  H   UNL     1      -3.031   5.598   7.279  1.00  0.00     0.293 HD
ENDBRANCH   5  23
BRANCH   7  25
ATOM     25  O   UNL     1      -6.261   9.946   5.363  1.00  0.00    -0.507 OA
ATOM     26  H   UNL     1      -6.616   9.842   4.419  1.00  0.00     0.293 HD
ENDBRANCH   7  25
TORSDOF 6
ENDMDL
