MODEL 1
REMARK VINA RESULT:    -4.218      0.000      0.000
REMARK INTER + INTRA:          -8.403
REMARK INTER:                  -7.670
REMARK INTRA:                  -0.733
REMARK UNBOUND:                -0.733
REMARK SMILES CCCCCCCCCCCCCCCC(=O)[O-]
REMARK SMILES IDX 9 1 10 2 11 3 12 4 13 5 14 6 15 7 16 8 17 9 18 10 8 11 7 12
REMARK SMILES IDX 6 13 5 14 4 15 3 16 2 17 1 18
REMARK H PARENT
REMARK Flexibility Score: inf
ROOT
ATOM      1  C   UNL     1      10.361   6.642   8.586  1.00  0.00     0.000 C 
ENDROOT
BRANCH   1   2
ATOM      2  C   UNL     1      10.216   5.379   9.451  1.00  0.00     0.000 C 
BRANCH   2   3
ATOM      3  C   UNL     1       8.769   5.207   9.937  1.00  0.00     0.000 C 
BRANCH   3   4
ATOM      4  C   UNL     1       8.305   3.741   9.904  1.00  0.00     0.000 C 
BRANCH   4   5
ATOM      5  C   UNL     1       6.820   3.597   9.537  1.00  0.00     0.000 C 
BRANCH   5   6
ATOM      6  C   UNL     1       6.571   2.298   8.760  1.00  0.00     0.006 C 
BRANCH   6   7
ATOM      7  C   UNL     1       5.083   1.936   8.759  1.00  0.00     0.053 C 
BRANCH   7   8
ATOM      8  C   UNL     1       4.664   1.447   7.409  1.00  0.00     0.041 C 
ATOM      9  O   UNL     1       5.303   0.521   6.845  1.00  0.00    -0.550 OA
ATOM     10  O   UNL     1       3.598   2.049   6.751  1.00  0.00    -0.550 OA
ENDBRANCH   7   8
ENDBRANCH   6   7
ENDBRANCH   5   6
ENDBRANCH   4   5
ENDBRANCH   3   4
ENDBRANCH   2   3
ENDBRANCH   1   2
BRANCH   1  11
ATOM     11  C   UNL     1       8.998   7.220   8.174  1.00  0.00     0.000 C 
BRANCH  11  12
ATOM     12  C   UNL     1       8.954   8.758   8.263  1.00  0.00    -0.000 C 
BRANCH  12  13
ATOM     13  C   UNL     1       8.530   9.244   9.665  1.00  0.00    -0.000 C 
BRANCH  13  14
ATOM     14  C   UNL     1       7.057   9.696   9.743  1.00  0.00    -0.000 C 
BRANCH  14  15
ATOM     15  C   UNL     1       6.806  11.166   9.355  1.00  0.00    -0.000 C 
BRANCH  15  16
ATOM     16  C   UNL     1       6.350  11.327   7.895  1.00  0.00    -0.000 C 
BRANCH  16  17
ATOM     17  C   UNL     1       4.994  12.043   7.782  1.00  0.00    -0.003 C 
ATOM     18  C   UNL     1       4.137  11.517   6.631  1.00  0.00     0.004 C 
ENDBRANCH  16  17
ENDBRANCH  15  16
ENDBRANCH  14  15
ENDBRANCH  13  14
ENDBRANCH  12  13
ENDBRANCH  11  12
ENDBRANCH   1  11
TORSDOF 14
ENDMDL
MODEL 2
REMARK VINA RESULT:    -3.710      3.497      7.695
REMARK INTER + INTRA:          -7.480
REMARK INTER:                  -6.763
REMARK INTRA:                  -0.717
REMARK UNBOUND:                -0.733
REMARK SMILES CCCCCCCCCCCCCCCC(=O)[O-]
REMARK SMILES IDX 9 1 10 2 11 3 12 4 13 5 14 6 15 7 16 8 17 9 18 10 8 11 7 12
REMARK SMILES IDX 6 13 5 14 4 15 3 16 2 17 1 18
REMARK H PARENT
REMARK Flexibility Score: inf
ROOT
ATOM      1  C   UNL     1       9.009   7.025   8.086  1.00  0.00     0.000 C 
ENDROOT
BRANCH   1   2
ATOM      2  C   UNL     1       8.875   8.546   8.272  1.00  0.00     0.000 C 
BRANCH   2   3
ATOM      3  C   UNL     1       7.861   8.879   9.376  1.00  0.00     0.000 C 
BRANCH   3   4
ATOM      4  C   UNL     1       7.409  10.348   9.340  1.00  0.00     0.000 C 
BRANCH   4   5
ATOM      5  C   UNL     1       6.831  10.758   7.976  1.00  0.00     0.000 C 
BRANCH   5   6
ATOM      6  C   UNL     1       6.094  12.100   8.073  1.00  0.00     0.006 C 
BRANCH   6   7
ATOM      7  C   UNL     1       4.577  11.892   8.084  1.00  0.00     0.053 C 
BRANCH   7   8
ATOM      8  C   UNL     1       4.011  12.090   6.714  1.00  0.00     0.041 C 
ATOM      9  O   UNL     1       4.032  11.148   5.879  1.00  0.00    -0.550 OA
ATOM     10  O   UNL     1       3.507  13.330   6.341  1.00  0.00    -0.550 OA
ENDBRANCH   7   8
ENDBRANCH   6   7
ENDBRANCH   5   6
ENDBRANCH   4   5
ENDBRANCH   3   4
ENDBRANCH   2   3
ENDBRANCH   1   2
BRANCH   1  11
ATOM     11  C   UNL     1      10.289   6.474   8.736  1.00  0.00     0.000 C 
BRANCH  11  12
ATOM     12  C   UNL     1      10.005   5.332   9.730  1.00  0.00    -0.000 C 
BRANCH  12  13
ATOM     13  C   UNL     1       8.495   5.167  10.006  1.00  0.00    -0.000 C 
BRANCH  13  14
ATOM     14  C   UNL     1       7.963   3.749   9.709  1.00  0.00    -0.000 C 
BRANCH  14  15
ATOM     15  C   UNL     1       6.430   3.608   9.754  1.00  0.00    -0.000 C 
BRANCH  15  16
ATOM     16  C   UNL     1       5.884   2.693   8.644  1.00  0.00    -0.000 C 
BRANCH  16  17
ATOM     17  C   UNL     1       4.414   2.995   8.309  1.00  0.00    -0.003 C 
ATOM     18  C   UNL     1       3.469   1.857   8.696  1.00  0.00     0.004 C 
ENDBRANCH  16  17
ENDBRANCH  15  16
ENDBRANCH  14  15
ENDBRANCH  13  14
ENDBRANCH  12  13
ENDBRANCH  11  12
ENDBRANCH   1  11
TORSDOF 14
ENDMDL
MODEL 3
REMARK VINA RESULT:    -3.692      4.320      6.877
REMARK INTER + INTRA:          -7.448
REMARK INTER:                  -6.677
REMARK INTRA:                  -0.771
REMARK UNBOUND:                -0.733
REMARK SMILES CCCCCCCCCCCCCCCC(=O)[O-]
REMARK SMILES IDX 9 1 10 2 11 3 12 4 13 5 14 6 15 7 16 8 17 9 18 10 8 11 7 12
REMARK SMILES IDX 6 13 5 14 4 15 3 16 2 17 1 18
REMARK H PARENT
REMARK Flexibility Score: inf
ROOT
ATOM      1  C   UNL     1       5.396   2.968   8.595  1.00  0.00     0.000 C 
ENDROOT
BRANCH   1   2
ATOM      2  C   UNL     1       3.945   2.894   9.098  1.00  0.00     0.000 C 
BRANCH   2   3
ATOM      3  C   UNL     1       3.484   4.250   9.655  1.00  0.00     0.000 C 
BRANCH   3   4
ATOM      4  C   UNL     1       1.955   4.406   9.640  1.00  0.00     0.000 C 
BRANCH   4   5
ATOM      5  C   UNL     1       1.219   3.061   9.748  1.00  0.00     0.000 C 
BRANCH   5   6
ATOM      6  C   UNL     1      -0.299   3.269   9.803  1.00  0.00     0.006 C 
BRANCH   6   7
ATOM      7  C   UNL     1      -0.648   4.760   9.830  1.00  0.00     0.053 C 
BRANCH   7   8
ATOM      8  C   UNL     1      -1.788   5.048   8.906  1.00  0.00     0.041 C 
ATOM      9  O   UNL     1      -2.033   6.231   8.551  1.00  0.00    -0.550 OA
ATOM     10  O   UNL     1      -2.613   4.015   8.477  1.00  0.00    -0.550 OA
ENDBRANCH   7   8
ENDBRANCH   6   7
ENDBRANCH   5   6
ENDBRANCH   4   5
ENDBRANCH   3   4
ENDBRANCH   2   3
ENDBRANCH   1   2
BRANCH   1  11
ATOM     11  C   UNL     1       6.341   2.082   9.423  1.00  0.00     0.000 C 
BRANCH  11  12
ATOM     12  C   UNL     1       7.650   2.800   9.799  1.00  0.00    -0.000 C 
BRANCH  12  13
ATOM     13  C   UNL     1       7.549   4.328   9.605  1.00  0.00    -0.000 C 
BRANCH  13  14
ATOM     14  C   UNL     1       8.915   5.044   9.606  1.00  0.00    -0.000 C 
BRANCH  14  15
ATOM     15  C   UNL     1       9.014   6.258   8.662  1.00  0.00    -0.000 C 
BRANCH  15  16
ATOM     16  C   UNL     1      10.425   6.871   8.626  1.00  0.00    -0.000 C 
BRANCH  16  17
ATOM     17  C   UNL     1      11.528   5.808   8.761  1.00  0.00    -0.003 C 
ATOM     18  C   UNL     1      12.807   6.355   9.393  1.00  0.00     0.004 C 
ENDBRANCH  16  17
ENDBRANCH  15  16
ENDBRANCH  14  15
ENDBRANCH  13  14
ENDBRANCH  12  13
ENDBRANCH  11  12
ENDBRANCH   1  11
TORSDOF 14
ENDMDL
MODEL 4
REMARK VINA RESULT:    -3.603      4.628      7.745
REMARK INTER + INTRA:          -7.285
REMARK INTER:                  -6.404
REMARK INTRA:                  -0.881
REMARK UNBOUND:                -0.733
REMARK SMILES CCCCCCCCCCCCCCCC(=O)[O-]
REMARK SMILES IDX 9 1 10 2 11 3 12 4 13 5 14 6 15 7 16 8 17 9 18 10 8 11 7 12
REMARK SMILES IDX 6 13 5 14 4 15 3 16 2 17 1 18
REMARK H PARENT
REMARK Flexibility Score: inf
ROOT
ATOM      1  C   UNL     1       4.495   2.013   7.976  1.00  0.00     0.000 C 
ENDROOT
BRANCH   1   2
ATOM      2  C   UNL     1       5.983   2.304   8.235  1.00  0.00     0.000 C 
BRANCH   2   3
ATOM      3  C   UNL     1       6.201   2.833   9.660  1.00  0.00     0.000 C 
BRANCH   3   4
ATOM      4  C   UNL     1       7.115   4.069   9.698  1.00  0.00     0.000 C 
BRANCH   4   5
ATOM      5  C   UNL     1       8.593   3.708   9.918  1.00  0.00     0.000 C 
BRANCH   5   6
ATOM      6  C   UNL     1       9.495   4.926   9.686  1.00  0.00     0.006 C 
BRANCH   6   7
ATOM      7  C   UNL     1       8.788   5.977   8.825  1.00  0.00     0.053 C 
BRANCH   7   8
ATOM      8  C   UNL     1       9.786   6.884   8.180  1.00  0.00     0.041 C 
ATOM      9  O   UNL     1       9.405   7.780   7.382  1.00  0.00    -0.550 OA
ATOM     10  O   UNL     1      11.144   6.709   8.422  1.00  0.00    -0.550 OA
ENDBRANCH   7   8
ENDBRANCH   6   7
ENDBRANCH   5   6
ENDBRANCH   4   5
ENDBRANCH   3   4
ENDBRANCH   2   3
ENDBRANCH   1   2
BRANCH   1  11
ATOM     11  C   UNL     1       3.862   1.188   9.108  1.00  0.00     0.000 C 
BRANCH  11  12
ATOM     12  C   UNL     1       2.506   1.756   9.569  1.00  0.00    -0.000 C 
BRANCH  12  13
ATOM     13  C   UNL     1       2.413   3.281   9.348  1.00  0.00    -0.000 C 
BRANCH  13  14
ATOM     14  C   UNL     1       1.011   3.861   9.627  1.00  0.00    -0.000 C 
BRANCH  14  15
ATOM     15  C   UNL     1      -0.130   2.826   9.649  1.00  0.00    -0.000 C 
BRANCH  15  16
ATOM     16  C   UNL     1      -1.469   3.405   9.161  1.00  0.00    -0.000 C 
BRANCH  16  17
ATOM     17  C   UNL     1      -1.741   4.808   9.728  1.00  0.00    -0.003 C 
ATOM     18  C   UNL     1      -2.325   5.767   8.691  1.00  0.00     0.004 C 
ENDBRANCH  16  17
ENDBRANCH  15  16
ENDBRANCH  14  15
ENDBRANCH  13  14
ENDBRANCH  12  13
ENDBRANCH  11  12
ENDBRANCH   1  11
TORSDOF 14
ENDMDL
MODEL 5
REMARK VINA RESULT:    -3.512      3.319      5.490
REMARK INTER + INTRA:          -7.119
REMARK INTER:                  -6.320
REMARK INTRA:                  -0.799
REMARK UNBOUND:                -0.733
REMARK SMILES CCCCCCCCCCCCCCCC(=O)[O-]
REMARK SMILES IDX 9 1 10 2 11 3 12 4 13 5 14 6 15 7 16 8 17 9 18 10 8 11 7 12
REMARK SMILES IDX 6 13 5 14 4 15 3 16 2 17 1 18
REMARK H PARENT
REMARK Flexibility Score: inf
ROOT
ATOM      1  C   UNL     1       6.467   2.403   9.862  1.00  0.00     0.000 C 
ENDROOT
BRANCH   1   2
ATOM      2  C   UNL     1       4.932   2.294   9.849  1.00  0.00     0.000 C 
BRANCH   2   3
ATOM      3  C   UNL     1       4.328   3.153   8.728  1.00  0.00     0.000 C 
BRANCH   3   4
ATOM      4  C   UNL     1       2.850   3.495   8.977  1.00  0.00     0.000 C 
BRANCH   4   5
ATOM      5  C   UNL     1       2.177   2.534   9.970  1.00  0.00     0.000 C 
BRANCH   5   6
ATOM      6  C   UNL     1       0.651   2.573   9.823  1.00  0.00     0.006 C 
BRANCH   6   7
ATOM      7  C   UNL     1       0.176   3.967   9.404  1.00  0.00     0.053 C 
BRANCH   7   8
ATOM      8  C   UNL     1      -1.217   3.905   8.863  1.00  0.00     0.041 C 
ATOM      9  O   UNL     1      -1.923   2.879   9.048  1.00  0.00    -0.550 OA
ATOM     10  O   UNL     1      -1.719   4.960   8.111  1.00  0.00    -0.550 OA
ENDBRANCH   7   8
ENDBRANCH   6   7
ENDBRANCH   5   6
ENDBRANCH   4   5
ENDBRANCH   3   4
ENDBRANCH   2   3
ENDBRANCH   1   2
BRANCH   1  11
ATOM     11  C   UNL     1       6.963   3.669   9.145  1.00  0.00     0.000 C 
BRANCH  11  12
ATOM     12  C   UNL     1       7.570   4.700  10.115  1.00  0.00    -0.000 C 
BRANCH  12  13
ATOM     13  C   UNL     1       9.107   4.767   9.999  1.00  0.00    -0.000 C 
BRANCH  13  14
ATOM     14  C   UNL     1       9.610   5.909   9.091  1.00  0.00    -0.000 C 
BRANCH  14  15
ATOM     15  C   UNL     1      10.245   7.100   9.833  1.00  0.00    -0.000 C 
BRANCH  15  16
ATOM     16  C   UNL     1      10.064   8.433   9.086  1.00  0.00    -0.000 C 
BRANCH  16  17
ATOM     17  C   UNL     1       8.787   8.454   8.230  1.00  0.00    -0.003 C 
ATOM     18  C   UNL     1       7.812   9.557   8.643  1.00  0.00     0.004 C 
ENDBRANCH  16  17
ENDBRANCH  15  16
ENDBRANCH  14  15
ENDBRANCH  13  14
ENDBRANCH  12  13
ENDBRANCH  11  12
ENDBRANCH   1  11
TORSDOF 14
ENDMDL
MODEL 6
REMARK VINA RESULT:    -3.442      4.486      8.280
REMARK INTER + INTRA:          -6.993
REMARK INTER:                  -6.283
REMARK INTRA:                  -0.710
REMARK UNBOUND:                -0.733
REMARK SMILES CCCCCCCCCCCCCCCC(=O)[O-]
REMARK SMILES IDX 9 1 10 2 11 3 12 4 13 5 14 6 15 7 16 8 17 9 18 10 8 11 7 12
REMARK SMILES IDX 6 13 5 14 4 15 3 16 2 17 1 18
REMARK H PARENT
REMARK Flexibility Score: inf
ROOT
ATOM      1  C   UNL     1       5.270  11.680   8.495  1.00  0.00     0.000 C 
ENDROOT
BRANCH   1   2
ATOM      2  C   UNL     1       5.105  12.887   7.556  1.00  0.00     0.000 C 
BRANCH   2   3
ATOM      3  C   UNL     1       3.755  12.837   6.824  1.00  0.00     0.000 C 
BRANCH   3   4
ATOM      4  C   UNL     1       2.716  13.791   7.435  1.00  0.00     0.000 C 
BRANCH   4   5
ATOM      5  C   UNL     1       2.419  13.481   8.911  1.00  0.00     0.000 C 
BRANCH   5   6
ATOM      6  C   UNL     1       1.296  12.444   9.038  1.00  0.00     0.006 C 
BRANCH   6   7
ATOM      7  C   UNL     1       1.806  11.163   9.704  1.00  0.00     0.053 C 
BRANCH   7   8
ATOM      8  C   UNL     1       1.186   9.960   9.068  1.00  0.00     0.041 C 
ATOM      9  O   UNL     1       1.505   9.628   7.896  1.00  0.00    -0.550 OA
ATOM     10  O   UNL     1       0.218   9.233   9.750  1.00  0.00    -0.550 OA
ENDBRANCH   7   8
ENDBRANCH   6   7
ENDBRANCH   5   6
ENDBRANCH   4   5
ENDBRANCH   3   4
ENDBRANCH   2   3
ENDBRANCH   1   2
BRANCH   1  11
ATOM     11  C   UNL     1       6.704  11.129   8.482  1.00  0.00     0.000 C 
BRANCH  11  12
ATOM     12  C   UNL     1       7.128  10.546   9.843  1.00  0.00    -0.000 C 
BRANCH  12  13
ATOM     13  C   UNL     1       7.736   9.134   9.704  1.00  0.00    -0.000 C 
BRANCH  13  14
ATOM     14  C   UNL     1       8.444   8.895   8.354  1.00  0.00    -0.000 C 
BRANCH  14  15
ATOM     15  C   UNL     1       9.149   7.532   8.222  1.00  0.00    -0.000 C 
BRANCH  15  16
ATOM     16  C   UNL     1      10.489   7.479   8.977  1.00  0.00    -0.000 C 
BRANCH  16  17
ATOM     17  C   UNL     1      11.649   7.022   8.077  1.00  0.00    -0.003 C 
ATOM     18  C   UNL     1      12.395   5.811   8.637  1.00  0.00     0.004 C 
ENDBRANCH  16  17
ENDBRANCH  15  16
ENDBRANCH  14  15
ENDBRANCH  13  14
ENDBRANCH  12  13
ENDBRANCH  11  12
ENDBRANCH   1  11
TORSDOF 14
ENDMDL
MODEL 7
REMARK VINA RESULT:    -3.362      4.751      7.002
REMARK INTER + INTRA:          -6.847
REMARK INTER:                  -5.999
REMARK INTRA:                  -0.849
REMARK UNBOUND:                -0.733
REMARK SMILES CCCCCCCCCCCCCCCC(=O)[O-]
REMARK SMILES IDX 9 1 10 2 11 3 12 4 13 5 14 6 15 7 16 8 17 9 18 10 8 11 7 12
REMARK SMILES IDX 6 13 5 14 4 15 3 16 2 17 1 18
REMARK H PARENT
REMARK Flexibility Score: inf
ROOT
ATOM      1  C   UNL     1      -1.854   4.895   9.035  1.00  0.00     0.000 C 
ENDROOT
BRANCH   1   2
ATOM      2  C   UNL     1      -0.991   3.647   8.781  1.00  0.00     0.000 C 
BRANCH   2   3
ATOM      3  C   UNL     1      -0.323   3.166  10.078  1.00  0.00     0.000 C 
BRANCH   3   4
ATOM      4  C   UNL     1       1.129   2.709   9.860  1.00  0.00     0.000 C 
BRANCH   4   5
ATOM      5  C   UNL     1       2.068   3.869   9.492  1.00  0.00     0.000 C 
BRANCH   5   6
ATOM      6  C   UNL     1       3.192   3.393   8.565  1.00  0.00     0.006 C 
BRANCH   6   7
ATOM      7  C   UNL     1       3.317   1.867   8.593  1.00  0.00     0.053 C 
BRANCH   7   8
ATOM      8  C   UNL     1       4.587   1.433   7.935  1.00  0.00     0.041 C 
ATOM      9  O   UNL     1       4.586   1.082   6.725  1.00  0.00    -0.550 OA
ATOM     10  O   UNL     1       5.765   1.367   8.669  1.00  0.00    -0.550 OA
ENDBRANCH   7   8
ENDBRANCH   6   7
ENDBRANCH   5   6
ENDBRANCH   4   5
ENDBRANCH   3   4
ENDBRANCH   2   3
ENDBRANCH   1   2
BRANCH   1  11
ATOM     11  C   UNL     1      -1.111   5.953   9.866  1.00  0.00     0.000 C 
BRANCH  11  12
ATOM     12  C   UNL     1      -1.433   7.391   9.419  1.00  0.00    -0.000 C 
BRANCH  12  13
ATOM     13  C   UNL     1      -0.537   8.431  10.125  1.00  0.00    -0.000 C 
BRANCH  13  14
ATOM     14  C   UNL     1       0.969   8.232   9.859  1.00  0.00    -0.000 C 
BRANCH  14  15
ATOM     15  C   UNL     1       1.593   9.234   8.869  1.00  0.00    -0.000 C 
BRANCH  15  16
ATOM     16  C   UNL     1       1.407  10.698   9.306  1.00  0.00    -0.000 C 
BRANCH  16  17
ATOM     17  C   UNL     1       2.709  11.509   9.201  1.00  0.00    -0.003 C 
ATOM     18  C   UNL     1       2.525  12.837   8.467  1.00  0.00     0.004 C 
ENDBRANCH  16  17
ENDBRANCH  15  16
ENDBRANCH  14  15
ENDBRANCH  13  14
ENDBRANCH  12  13
ENDBRANCH  11  12
ENDBRANCH   1  11
TORSDOF 14
ENDMDL
MODEL 8
REMARK VINA RESULT:    -2.888      4.518      7.825
REMARK INTER + INTRA:          -5.985
REMARK INTER:                  -5.432
REMARK INTRA:                  -0.553
REMARK UNBOUND:                -0.733
REMARK SMILES CCCCCCCCCCCCCCCC(=O)[O-]
REMARK SMILES IDX 9 1 10 2 11 3 12 4 13 5 14 6 15 7 16 8 17 9 18 10 8 11 7 12
REMARK SMILES IDX 6 13 5 14 4 15 3 16 2 17 1 18
REMARK H PARENT
REMARK Flexibility Score: inf
ROOT
ATOM      1  C   UNL     1       3.448   3.202   7.781  1.00  0.00     0.000 C 
ENDROOT
BRANCH   1   2
ATOM      2  C   UNL     1       3.819   4.094   8.978  1.00  0.00     0.000 C 
BRANCH   2   3
ATOM      3  C   UNL     1       2.808   3.927  10.123  1.00  0.00     0.000 C 
BRANCH   3   4
ATOM      4  C   UNL     1       1.417   4.477   9.768  1.00  0.00     0.000 C 
BRANCH   4   5
ATOM      5  C   UNL     1       0.410   3.368   9.424  1.00  0.00     0.000 C 
BRANCH   5   6
ATOM      6  C   UNL     1      -0.968   3.672  10.026  1.00  0.00     0.006 C 
BRANCH   6   7
ATOM      7  C   UNL     1      -1.900   4.286   8.978  1.00  0.00     0.053 C 
BRANCH   7   8
ATOM      8  C   UNL     1      -2.218   5.705   9.327  1.00  0.00     0.041 C 
ATOM      9  O   UNL     1      -1.338   6.598   9.212  1.00  0.00    -0.550 OA
ATOM     10  O   UNL     1      -3.472   6.034   9.830  1.00  0.00    -0.550 OA
ENDBRANCH   7   8
ENDBRANCH   6   7
ENDBRANCH   5   6
ENDBRANCH   4   5
ENDBRANCH   3   4
ENDBRANCH   2   3
ENDBRANCH   1   2
BRANCH   1  11
ATOM     11  C   UNL     1       4.419   2.022   7.617  1.00  0.00     0.000 C 
BRANCH  11  12
ATOM     12  C   UNL     1       4.503   1.143   8.879  1.00  0.00    -0.000 C 
BRANCH  12  13
ATOM     13  C   UNL     1       5.566   1.658   9.872  1.00  0.00    -0.000 C 
BRANCH  13  14
ATOM     14  C   UNL     1       6.870   2.128   9.195  1.00  0.00    -0.000 C 
BRANCH  14  15
ATOM     15  C   UNL     1       8.096   2.202  10.125  1.00  0.00    -0.000 C 
BRANCH  15  16
ATOM     16  C   UNL     1       8.811   3.564  10.062  1.00  0.00    -0.000 C 
BRANCH  16  17
ATOM     17  C   UNL     1       7.857   4.706   9.676  1.00  0.00    -0.003 C 
ATOM     18  C   UNL     1       8.575   5.884   9.018  1.00  0.00     0.004 C 
ENDBRANCH  16  17
ENDBRANCH  15  16
ENDBRANCH  14  15
ENDBRANCH  13  14
ENDBRANCH  12  13
ENDBRANCH  11  12
ENDBRANCH   1  11
TORSDOF 14
ENDMDL
MODEL 9
REMARK VINA RESULT:    -2.865      2.072      3.449
REMARK INTER + INTRA:          -5.942
REMARK INTER:                  -5.173
REMARK INTRA:                  -0.769
REMARK UNBOUND:                -0.733
REMARK SMILES CCCCCCCCCCCCCCCC(=O)[O-]
REMARK SMILES IDX 9 1 10 2 11 3 12 4 13 5 14 6 15 7 16 8 17 9 18 10 8 11 7 12
REMARK SMILES IDX 6 13 5 14 4 15 3 16 2 17 1 18
REMARK H PARENT
REMARK Flexibility Score: inf
ROOT
ATOM      1  C   UNL     1       7.647   4.410   8.829  1.00  0.00     0.000 C 
ENDROOT
BRANCH   1   2
ATOM      2  C   UNL     1       7.343   2.965   9.257  1.00  0.00     0.000 C 
BRANCH   2   3
ATOM      3  C   UNL     1       6.077   2.900  10.124  1.00  0.00     0.000 C 
BRANCH   3   4
ATOM      4  C   UNL     1       5.387   1.528  10.062  1.00  0.00     0.000 C 
BRANCH   4   5
ATOM      5  C   UNL     1       4.747   1.247   8.693  1.00  0.00     0.000 C 
BRANCH   5   6
ATOM      6  C   UNL     1       3.661   2.280   8.372  1.00  0.00     0.006 C 
BRANCH   6   7
ATOM      7  C   UNL     1       2.789   2.559   9.599  1.00  0.00     0.053 C 
BRANCH   7   8
ATOM      8  C   UNL     1       1.921   3.755   9.365  1.00  0.00     0.041 C 
ATOM      9  O   UNL     1       2.359   4.911   9.602  1.00  0.00    -0.550 OA
ATOM     10  O   UNL     1       0.611   3.589   8.933  1.00  0.00    -0.550 OA
ENDBRANCH   7   8
ENDBRANCH   6   7
ENDBRANCH   5   6
ENDBRANCH   4   5
ENDBRANCH   3   4
ENDBRANCH   2   3
ENDBRANCH   1   2
BRANCH   1  11
ATOM     11  C   UNL     1       7.974   5.312  10.031  1.00  0.00     0.000 C 
BRANCH  11  12
ATOM     12  C   UNL     1       9.177   6.237   9.768  1.00  0.00    -0.000 C 
BRANCH  12  13
ATOM     13  C   UNL     1       9.235   6.708   8.299  1.00  0.00    -0.000 C 
BRANCH  13  14
ATOM     14  C   UNL     1       9.233   8.242   8.141  1.00  0.00    -0.000 C 
BRANCH  14  15
ATOM     15  C   UNL     1       8.926   9.029   9.429  1.00  0.00    -0.000 C 
BRANCH  15  16
ATOM     16  C   UNL     1       7.470   9.522   9.493  1.00  0.00    -0.000 C 
BRANCH  16  17
ATOM     17  C   UNL     1       7.191  10.652   8.488  1.00  0.00    -0.003 C 
ATOM     18  C   UNL     1       6.105  11.617   8.963  1.00  0.00     0.004 C 
ENDBRANCH  16  17
ENDBRANCH  15  16
ENDBRANCH  14  15
ENDBRANCH  13  14
ENDBRANCH  12  13
ENDBRANCH  11  12
ENDBRANCH   1  11
TORSDOF 14
ENDMDL
