MODEL 1
REMARK VINA RESULT:    -6.831      0.000      0.000
REMARK INTER + INTRA:         -10.782
REMARK INTER:                  -9.027
REMARK INTRA:                  -1.755
REMARK UNBOUND:                -1.755
REMARK SMILES CC[C@@H](C=C[C@H](C)[C@H]1CC[C@H]2C3=CC[C@H]4C[C@@H](O)CC[C@@]4(C)[C@H]3CC[C@@]12C)C(C)C
REMARK SMILES IDX 6 1 7 2 5 3 4 4 3 5 2 6 1 7 28 8 29 9 30 10 8 11 9 12 26 13
REMARK SMILES IDX 10 14 11 15 25 16 27 17 12 18 24 19 23 20 13 21 21 22 14 23
REMARK SMILES IDX 15 24 20 25 22 26 16 27 19 28 17 29 18 30
REMARK H PARENT 18 31
REMARK Flexibility Score: inf
ROOT
ATOM      1  C   UNL     1     124.462 117.531 113.478  1.00  0.00     0.012 C 
ATOM      2  C   UNL     1     124.116 116.065 113.157  1.00  0.00     0.012 C 
ENDROOT
BRANCH   1   3
ATOM      3  C   UNL     1     125.366 118.044 112.382  1.00  0.00    -0.028 C 
ATOM      4  C   UNL     1     125.983 119.253 112.308  1.00  0.00    -0.027 C 
BRANCH   4   5
ATOM      5  C   UNL     1     125.949 120.463 113.254  1.00  0.00     0.014 C 
BRANCH   5   6
ATOM      6  C   UNL     1     125.496 121.794 112.597  1.00  0.00     0.004 C 
ATOM      7  C   UNL     1     124.043 121.739 112.123  1.00  0.00     0.004 C 
ENDBRANCH   5   6
BRANCH   5   8
ATOM      8  C   UNL     1     127.188 120.568 114.204  1.00  0.00    -0.011 C 
ATOM      9  C   UNL     1     127.286 119.383 115.182  1.00  0.00     0.008 C 
ATOM     10  C   UNL     1     127.290 121.877 114.987  1.00  0.00     0.008 C 
ENDBRANCH   5   8
ENDBRANCH   4   5
ENDBRANCH   1   3
BRANCH   1  11
ATOM     11  C   UNL     1     123.120 118.338 113.712  1.00  0.00     0.002 C 
ATOM     12  C   UNL     1     121.902 117.532 113.253  1.00  0.00     0.005 C 
ATOM     13  C   UNL     1     122.703 118.931 115.099  1.00  0.00    -0.023 C 
ATOM     14  C   UNL     1     120.688 118.185 113.902  1.00  0.00     0.009 C 
ATOM     15  C   UNL     1     121.201 119.249 114.882  1.00  0.00     0.021 C 
ATOM     16  C   UNL     1     122.810 117.921 116.264  1.00  0.00     0.008 C 
ATOM     17  C   UNL     1     123.475 120.243 115.407  1.00  0.00     0.012 C 
ATOM     18  C   UNL     1     120.348 119.305 116.149  1.00  0.00    -0.067 C 
ATOM     19  C   UNL     1     122.357 118.524 117.592  1.00  0.00     0.009 C 
ATOM     20  C   UNL     1     120.953 119.210 117.551  1.00  0.00     0.021 C 
ATOM     21  C   UNL     1     119.029 119.559 115.991  1.00  0.00    -0.027 C 
ATOM     22  C   UNL     1     119.956 118.624 118.614  1.00  0.00    -0.023 C 
ATOM     23  C   UNL     1     118.007 119.432 117.079  1.00  0.00     0.031 C 
ATOM     24  C   UNL     1     118.592 119.391 118.505  1.00  0.00     0.002 C 
ATOM     25  C   UNL     1     119.745 117.083 118.391  1.00  0.00     0.010 C 
ATOM     26  C   UNL     1     120.537 118.888 120.044  1.00  0.00     0.012 C 
ATOM     27  C   UNL     1     117.543 118.866 119.520  1.00  0.00     0.036 C 
ATOM     28  C   UNL     1     118.329 116.555 118.697  1.00  0.00     0.032 C 
ATOM     29  C   UNL     1     117.606 117.346 119.799  1.00  0.00     0.114 C 
BRANCH  29  30
ATOM     30  O   UNL     1     116.298 116.840 119.921  1.00  0.00    -0.393 OA
ATOM     31  H   UNL     1     115.900 116.821 119.011  1.00  0.00     0.210 HD
ENDBRANCH  29  30
ENDBRANCH   1  11
TORSDOF 6
ENDMDL
MODEL 2
REMARK VINA RESULT:    -6.564      8.792     12.155
REMARK INTER + INTRA:         -10.429
REMARK INTER:                  -8.446
REMARK INTRA:                  -1.982
REMARK UNBOUND:                -1.755
REMARK SMILES CC[C@@H](C=C[C@H](C)[C@H]1CC[C@H]2C3=CC[C@H]4C[C@@H](O)CC[C@@]4(C)[C@H]3CC[C@@]12C)C(C)C
REMARK SMILES IDX 6 1 7 2 5 3 4 4 3 5 2 6 1 7 28 8 29 9 30 10 8 11 9 12 26 13
REMARK SMILES IDX 10 14 11 15 25 16 27 17 12 18 24 19 23 20 13 21 21 22 14 23
REMARK SMILES IDX 15 24 20 25 22 26 16 27 19 28 17 29 18 30
REMARK H PARENT 18 31
REMARK Flexibility Score: inf
ROOT
ATOM      1  C   UNL     1     112.938 121.027 121.578  1.00  0.00     0.012 C 
ATOM      2  C   UNL     1     111.942 120.181 120.761  1.00  0.00     0.012 C 
ENDROOT
BRANCH   1   3
ATOM      3  C   UNL     1     112.764 122.471 121.169  1.00  0.00    -0.028 C 
ATOM      4  C   UNL     1     113.711 123.444 121.124  1.00  0.00    -0.027 C 
BRANCH   4   5
ATOM      5  C   UNL     1     115.204 123.417 121.483  1.00  0.00     0.014 C 
BRANCH   5   6
ATOM      6  C   UNL     1     115.730 124.692 122.194  1.00  0.00     0.004 C 
ATOM      7  C   UNL     1     116.766 124.368 123.272  1.00  0.00     0.004 C 
ENDBRANCH   5   6
BRANCH   5   8
ATOM      8  C   UNL     1     116.124 122.848 120.353  1.00  0.00    -0.011 C 
ATOM      9  C   UNL     1     116.899 121.593 120.795  1.00  0.00     0.008 C 
ATOM     10  C   UNL     1     117.102 123.857 119.750  1.00  0.00     0.008 C 
ENDBRANCH   5   8
ENDBRANCH   4   5
ENDBRANCH   1   3
BRANCH   1  11
ATOM     11  C   UNL     1     112.746 120.708 123.117  1.00  0.00     0.002 C 
ATOM     12  C   UNL     1     112.361 119.241 123.334  1.00  0.00     0.005 C 
ATOM     13  C   UNL     1     113.839 120.994 124.199  1.00  0.00    -0.023 C 
ATOM     14  C   UNL     1     112.624 118.943 124.805  1.00  0.00     0.009 C 
ATOM     15  C   UNL     1     113.331 120.166 125.407  1.00  0.00     0.021 C 
ATOM     16  C   UNL     1     115.243 120.468 123.819  1.00  0.00     0.008 C 
ATOM     17  C   UNL     1     113.877 122.500 124.578  1.00  0.00     0.012 C 
ATOM     18  C   UNL     1     114.398 119.754 126.421  1.00  0.00    -0.067 C 
ATOM     19  C   UNL     1     116.272 120.731 124.916  1.00  0.00     0.009 C 
ATOM     20  C   UNL     1     115.843 120.253 126.340  1.00  0.00     0.021 C 
ATOM     21  C   UNL     1     113.991 119.011 127.475  1.00  0.00    -0.027 C 
ATOM     22  C   UNL     1     116.874 119.260 126.987  1.00  0.00    -0.023 C 
ATOM     23  C   UNL     1     114.915 118.333 128.440  1.00  0.00     0.031 C 
ATOM     24  C   UNL     1     116.364 118.859 128.416  1.00  0.00     0.002 C 
ATOM     25  C   UNL     1     117.061 117.985 126.088  1.00  0.00     0.010 C 
ATOM     26  C   UNL     1     118.242 120.003 127.162  1.00  0.00     0.012 C 
ATOM     27  C   UNL     1     117.325 117.870 129.125  1.00  0.00     0.036 C 
ATOM     28  C   UNL     1     117.297 116.664 126.848  1.00  0.00     0.032 C 
ATOM     29  C   UNL     1     118.022 116.853 128.191  1.00  0.00     0.114 C 
BRANCH  29  30
ATOM     30  O   UNL     1     118.093 115.602 128.833  1.00  0.00    -0.393 OA
ATOM     31  H   UNL     1     119.052 115.418 129.021  1.00  0.00     0.210 HD
ENDBRANCH  29  30
ENDBRANCH   1  11
TORSDOF 6
ENDMDL
MODEL 3
REMARK VINA RESULT:    -6.465      4.397      6.971
REMARK INTER + INTRA:         -10.299
REMARK INTER:                  -8.665
REMARK INTRA:                  -1.634
REMARK UNBOUND:                -1.755
REMARK SMILES CC[C@@H](C=C[C@H](C)[C@H]1CC[C@H]2C3=CC[C@H]4C[C@@H](O)CC[C@@]4(C)[C@H]3CC[C@@]12C)C(C)C
REMARK SMILES IDX 6 1 7 2 5 3 4 4 3 5 2 6 1 7 28 8 29 9 30 10 8 11 9 12 26 13
REMARK SMILES IDX 10 14 11 15 25 16 27 17 12 18 24 19 23 20 13 21 21 22 14 23
REMARK SMILES IDX 15 24 20 25 22 26 16 27 19 28 17 29 18 30
REMARK H PARENT 18 31
REMARK Flexibility Score: inf
ROOT
ATOM      1  C   UNL     1     125.920 121.413 114.852  1.00  0.00     0.012 C 
ATOM      2  C   UNL     1     127.325 122.003 115.078  1.00  0.00     0.012 C 
ENDROOT
BRANCH   1   3
ATOM      3  C   UNL     1     125.360 122.022 113.588  1.00  0.00    -0.028 C 
ATOM      4  C   UNL     1     124.699 121.391 112.581  1.00  0.00    -0.027 C 
BRANCH   4   5
ATOM      5  C   UNL     1     124.339 119.911 112.382  1.00  0.00     0.014 C 
BRANCH   5   6
ATOM      6  C   UNL     1     125.401 119.077 111.617  1.00  0.00     0.004 C 
ATOM      7  C   UNL     1     125.359 117.597 112.001  1.00  0.00     0.004 C 
ENDBRANCH   5   6
BRANCH   5   8
ATOM      8  C   UNL     1     122.854 119.665 111.956  1.00  0.00    -0.011 C 
ATOM      9  C   UNL     1     122.148 120.954 111.496  1.00  0.00     0.008 C 
ATOM     10  C   UNL     1     121.990 118.964 113.004  1.00  0.00     0.008 C 
ENDBRANCH   5   8
ENDBRANCH   4   5
ENDBRANCH   1   3
BRANCH   1  11
ATOM     11  C   UNL     1     126.012 119.833 114.886  1.00  0.00     0.002 C 
ATOM     12  C   UNL     1     127.451 119.358 114.663  1.00  0.00     0.005 C 
ATOM     13  C   UNL     1     125.490 118.966 116.080  1.00  0.00    -0.023 C 
ATOM     14  C   UNL     1     127.501 117.910 115.136  1.00  0.00     0.009 C 
ATOM     15  C   UNL     1     126.156 117.593 115.804  1.00  0.00     0.021 C 
ATOM     16  C   UNL     1     125.972 119.458 117.464  1.00  0.00     0.008 C 
ATOM     17  C   UNL     1     123.945 118.814 116.033  1.00  0.00     0.012 C 
ATOM     18  C   UNL     1     126.335 116.689 117.024  1.00  0.00    -0.067 C 
ATOM     19  C   UNL     1     125.475 118.564 118.598  1.00  0.00     0.009 C 
ATOM     20  C   UNL     1     125.758 117.040 118.397  1.00  0.00     0.021 C 
ATOM     21  C   UNL     1     126.933 115.493 116.821  1.00  0.00    -0.027 C 
ATOM     22  C   UNL     1     126.568 116.408 119.585  1.00  0.00    -0.023 C 
ATOM     23  C   UNL     1     127.391 114.580 117.916  1.00  0.00     0.031 C 
ATOM     24  C   UNL     1     126.778 114.880 119.298  1.00  0.00     0.002 C 
ATOM     25  C   UNL     1     127.950 117.133 119.766  1.00  0.00     0.010 C 
ATOM     26  C   UNL     1     125.717 116.533 120.894  1.00  0.00     0.012 C 
ATOM     27  C   UNL     1     127.581 114.178 120.425  1.00  0.00     0.036 C 
ATOM     28  C   UNL     1     129.120 116.233 120.213  1.00  0.00     0.032 C 
ATOM     29  C   UNL     1     128.679 115.045 121.084  1.00  0.00     0.114 C 
BRANCH  29  30
ATOM     30  O   UNL     1     129.809 114.246 121.345  1.00  0.00    -0.393 OA
ATOM     31  H   UNL     1     130.481 114.821 121.799  1.00  0.00     0.210 HD
ENDBRANCH  29  30
ENDBRANCH   1  11
TORSDOF 6
ENDMDL
MODEL 4
REMARK VINA RESULT:    -6.278      4.501     11.032
REMARK INTER + INTRA:         -10.051
REMARK INTER:                  -8.225
REMARK INTRA:                  -1.826
REMARK UNBOUND:                -1.755
REMARK SMILES CC[C@@H](C=C[C@H](C)[C@H]1CC[C@H]2C3=CC[C@H]4C[C@@H](O)CC[C@@]4(C)[C@H]3CC[C@@]12C)C(C)C
REMARK SMILES IDX 6 1 7 2 5 3 4 4 3 5 2 6 1 7 28 8 29 9 30 10 8 11 9 12 26 13
REMARK SMILES IDX 10 14 11 15 25 16 27 17 12 18 24 19 23 20 13 21 21 22 14 23
REMARK SMILES IDX 15 24 20 25 22 26 16 27 19 28 17 29 18 30
REMARK H PARENT 18 31
REMARK Flexibility Score: inf
ROOT
ATOM      1  C   UNL     1     114.706 122.261 122.288  1.00  0.00     0.012 C 
ATOM      2  C   UNL     1     113.514 122.165 121.317  1.00  0.00     0.012 C 
ENDROOT
BRANCH   1   3
ATOM      3  C   UNL     1     114.174 122.702 123.632  1.00  0.00    -0.028 C 
ATOM      4  C   UNL     1     113.566 121.939 124.578  1.00  0.00    -0.027 C 
BRANCH   4   5
ATOM      5  C   UNL     1     113.206 120.446 124.592  1.00  0.00     0.014 C 
BRANCH   5   6
ATOM      6  C   UNL     1     111.742 120.123 124.190  1.00  0.00     0.004 C 
ATOM      7  C   UNL     1     111.657 119.421 122.834  1.00  0.00     0.004 C 
ENDBRANCH   5   6
BRANCH   5   8
ATOM      8  C   UNL     1     113.750 119.667 125.835  1.00  0.00    -0.011 C 
ATOM      9  C   UNL     1     115.261 119.386 125.742  1.00  0.00     0.008 C 
ATOM     10  C   UNL     1     113.015 118.365 126.152  1.00  0.00     0.008 C 
ENDBRANCH   5   8
ENDBRANCH   4   5
ENDBRANCH   1   3
BRANCH   1  11
ATOM     11  C   UNL     1     115.503 120.894 122.266  1.00  0.00     0.002 C 
ATOM     12  C   UNL     1     114.872 119.903 121.283  1.00  0.00     0.005 C 
ATOM     13  C   UNL     1     117.040 120.797 121.993  1.00  0.00    -0.023 C 
ATOM     14  C   UNL     1     115.925 118.832 121.020  1.00  0.00     0.009 C 
ATOM     15  C   UNL     1     117.227 119.287 121.694  1.00  0.00     0.021 C 
ATOM     16  C   UNL     1     117.502 121.588 120.747  1.00  0.00     0.008 C 
ATOM     17  C   UNL     1     117.862 121.185 123.253  1.00  0.00     0.012 C 
ATOM     18  C   UNL     1     118.450 118.927 120.852  1.00  0.00    -0.067 C 
ATOM     19  C   UNL     1     119.000 121.437 120.492  1.00  0.00     0.009 C 
ATOM     20  C   UNL     1     119.509 119.960 120.458  1.00  0.00     0.021 C 
ATOM     21  C   UNL     1     118.629 117.620 120.555  1.00  0.00    -0.027 C 
ATOM     22  C   UNL     1     120.253 119.601 119.123  1.00  0.00    -0.023 C 
ATOM     23  C   UNL     1     119.632 117.106 119.567  1.00  0.00     0.031 C 
ATOM     24  C   UNL     1     120.741 118.111 119.199  1.00  0.00     0.002 C 
ATOM     25  C   UNL     1     119.309 119.812 117.884  1.00  0.00     0.010 C 
ATOM     26  C   UNL     1     121.522 120.510 118.996  1.00  0.00     0.012 C 
ATOM     27  C   UNL     1     121.483 117.671 117.909  1.00  0.00     0.036 C 
ATOM     28  C   UNL     1     119.498 118.811 116.726  1.00  0.00     0.032 C 
ATOM     29  C   UNL     1     120.938 118.287 116.599  1.00  0.00     0.114 C 
BRANCH  29  30
ATOM     30  O   UNL     1     120.966 117.315 115.581  1.00  0.00    -0.393 OA
ATOM     31  H   UNL     1     121.548 117.663 114.854  1.00  0.00     0.210 HD
ENDBRANCH  29  30
ENDBRANCH   1  11
TORSDOF 6
ENDMDL
MODEL 5
REMARK VINA RESULT:    -6.236      4.762     11.097
REMARK INTER + INTRA:          -9.995
REMARK INTER:                  -8.207
REMARK INTRA:                  -1.789
REMARK UNBOUND:                -1.755
REMARK SMILES CC[C@@H](C=C[C@H](C)[C@H]1CC[C@H]2C3=CC[C@H]4C[C@@H](O)CC[C@@]4(C)[C@H]3CC[C@@]12C)C(C)C
REMARK SMILES IDX 6 1 7 2 5 3 4 4 3 5 2 6 1 7 28 8 29 9 30 10 8 11 9 12 26 13
REMARK SMILES IDX 10 14 11 15 25 16 27 17 12 18 24 19 23 20 13 21 21 22 14 23
REMARK SMILES IDX 15 24 20 25 22 26 16 27 19 28 17 29 18 30
REMARK H PARENT 18 31
REMARK Flexibility Score: inf
ROOT
ATOM      1  C   UNL     1     115.661 122.165 123.769  1.00  0.00     0.012 C 
ATOM      2  C   UNL     1     116.462 123.423 124.156  1.00  0.00     0.012 C 
ENDROOT
BRANCH   1   3
ATOM      3  C   UNL     1     114.228 122.378 124.198  1.00  0.00    -0.028 C 
ATOM      4  C   UNL     1     113.340 121.445 124.633  1.00  0.00    -0.027 C 
BRANCH   4   5
ATOM      5  C   UNL     1     113.477 119.925 124.802  1.00  0.00     0.014 C 
BRANCH   5   6
ATOM      6  C   UNL     1     112.206 119.110 124.440  1.00  0.00     0.004 C 
ATOM      7  C   UNL     1     111.688 119.439 123.039  1.00  0.00     0.004 C 
ENDBRANCH   5   6
BRANCH   5   8
ATOM      8  C   UNL     1     114.205 119.488 126.116  1.00  0.00    -0.011 C 
ATOM      9  C   UNL     1     115.704 119.214 125.900  1.00  0.00     0.008 C 
ATOM     10  C   UNL     1     113.573 118.298 126.838  1.00  0.00     0.008 C 
ENDBRANCH   5   8
ENDBRANCH   4   5
ENDBRANCH   1   3
BRANCH   1  11
ATOM     11  C   UNL     1     115.893 121.856 122.234  1.00  0.00     0.002 C 
ATOM     12  C   UNL     1     116.912 122.823 121.623  1.00  0.00     0.005 C 
ATOM     13  C   UNL     1     116.309 120.449 121.692  1.00  0.00    -0.023 C 
ATOM     14  C   UNL     1     117.374 122.189 120.317  1.00  0.00     0.009 C 
ATOM     15  C   UNL     1     116.775 120.777 120.250  1.00  0.00     0.021 C 
ATOM     16  C   UNL     1     117.504 119.820 122.445  1.00  0.00     0.008 C 
ATOM     17  C   UNL     1     115.094 119.483 121.640  1.00  0.00     0.012 C 
ATOM     18  C   UNL     1     117.755 119.781 119.630  1.00  0.00    -0.067 C 
ATOM     19  C   UNL     1     117.905 118.467 121.862  1.00  0.00     0.009 C 
ATOM     20  C   UNL     1     118.134 118.467 120.316  1.00  0.00     0.021 C 
ATOM     21  C   UNL     1     118.198 120.050 118.381  1.00  0.00    -0.027 C 
ATOM     22  C   UNL     1     119.560 117.948 119.910  1.00  0.00    -0.023 C 
ATOM     23  C   UNL     1     119.318 119.321 117.704  1.00  0.00     0.031 C 
ATOM     24  C   UNL     1     119.679 117.966 118.346  1.00  0.00     0.002 C 
ATOM     25  C   UNL     1     120.682 118.835 120.561  1.00  0.00     0.010 C 
ATOM     26  C   UNL     1     119.705 116.462 120.381  1.00  0.00     0.012 C 
ATOM     27  C   UNL     1     121.067 117.474 117.858  1.00  0.00     0.036 C 
ATOM     28  C   UNL     1     121.948 119.040 119.705  1.00  0.00     0.032 C 
ATOM     29  C   UNL     1     122.254 117.856 118.773  1.00  0.00     0.114 C 
BRANCH  29  30
ATOM     30  O   UNL     1     123.365 118.196 117.978  1.00  0.00    -0.393 OA
ATOM     31  H   UNL     1     124.151 117.708 118.340  1.00  0.00     0.210 HD
ENDBRANCH  29  30
ENDBRANCH   1  11
TORSDOF 6
ENDMDL
MODEL 6
REMARK VINA RESULT:    -6.135      6.544     11.695
REMARK INTER + INTRA:          -9.862
REMARK INTER:                  -8.807
REMARK INTRA:                  -1.055
REMARK UNBOUND:                -1.755
REMARK SMILES CC[C@@H](C=C[C@H](C)[C@H]1CC[C@H]2C3=CC[C@H]4C[C@@H](O)CC[C@@]4(C)[C@H]3CC[C@@]12C)C(C)C
REMARK SMILES IDX 6 1 7 2 5 3 4 4 3 5 2 6 1 7 28 8 29 9 30 10 8 11 9 12 26 13
REMARK SMILES IDX 10 14 11 15 25 16 27 17 12 18 24 19 23 20 13 21 21 22 14 23
REMARK SMILES IDX 15 24 20 25 22 26 16 27 19 28 17 29 18 30
REMARK H PARENT 18 31
REMARK Flexibility Score: inf
ROOT
ATOM      1  C   UNL     1     114.717 124.202 123.064  1.00  0.00     0.012 C 
ATOM      2  C   UNL     1     114.278 123.581 124.404  1.00  0.00     0.012 C 
ENDROOT
BRANCH   1   3
ATOM      3  C   UNL     1     114.189 125.616 123.014  1.00  0.00    -0.028 C 
ATOM      4  C   UNL     1     114.115 126.514 124.032  1.00  0.00    -0.027 C 
BRANCH   4   5
ATOM      5  C   UNL     1     114.500 126.394 125.514  1.00  0.00     0.014 C 
BRANCH   5   6
ATOM      6  C   UNL     1     113.423 126.898 126.512  1.00  0.00     0.004 C 
ATOM      7  C   UNL     1     112.354 127.751 125.827  1.00  0.00     0.004 C 
ENDBRANCH   5   6
BRANCH   5   8
ATOM      8  C   UNL     1     115.969 126.827 125.832  1.00  0.00    -0.011 C 
ATOM      9  C   UNL     1     116.112 127.454 127.231  1.00  0.00     0.008 C 
ATOM     10  C   UNL     1     116.606 127.754 124.797  1.00  0.00     0.008 C 
ENDBRANCH   5   8
ENDBRANCH   4   5
ENDBRANCH   1   3
BRANCH   1  11
ATOM     11  C   UNL     1     116.283 124.034 122.905  1.00  0.00     0.002 C 
ATOM     12  C   UNL     1     116.861 123.160 124.022  1.00  0.00     0.005 C 
ATOM     13  C   UNL     1     116.965 123.509 121.599  1.00  0.00    -0.023 C 
ATOM     14  C   UNL     1     118.240 122.716 123.547  1.00  0.00     0.009 C 
ATOM     15  C   UNL     1     118.396 123.168 122.089  1.00  0.00     0.021 C 
ATOM     16  C   UNL     1     116.332 122.212 121.045  1.00  0.00     0.008 C 
ATOM     17  C   UNL     1     117.035 124.619 120.514  1.00  0.00     0.012 C 
ATOM     18  C   UNL     1     119.149 122.131 121.257  1.00  0.00    -0.067 C 
ATOM     19  C   UNL     1     117.048 121.710 119.794  1.00  0.00     0.009 C 
ATOM     20  C   UNL     1     118.599 121.578 119.940  1.00  0.00     0.021 C 
ATOM     21  C   UNL     1     120.392 121.796 121.671  1.00  0.00    -0.027 C 
ATOM     22  C   UNL     1     119.122 120.134 119.613  1.00  0.00    -0.023 C 
ATOM     23  C   UNL     1     121.187 120.650 121.122  1.00  0.00     0.031 C 
ATOM     24  C   UNL     1     120.684 120.113 119.768  1.00  0.00     0.002 C 
ATOM     25  C   UNL     1     118.458 119.071 120.561  1.00  0.00     0.010 C 
ATOM     26  C   UNL     1     118.789 119.807 118.118  1.00  0.00     0.012 C 
ATOM     27  C   UNL     1     121.284 118.714 119.468  1.00  0.00     0.036 C 
ATOM     28  C   UNL     1     119.359 117.888 120.969  1.00  0.00     0.032 C 
ATOM     29  C   UNL     1     120.404 117.519 119.902  1.00  0.00     0.114 C 
BRANCH  29  30
ATOM     30  O   UNL     1     121.224 116.500 120.422  1.00  0.00    -0.393 OA
ATOM     31  H   UNL     1     121.509 115.929 119.661  1.00  0.00     0.210 HD
ENDBRANCH  29  30
ENDBRANCH   1  11
TORSDOF 6
ENDMDL
MODEL 7
REMARK VINA RESULT:    -6.048      1.246      1.796
REMARK INTER + INTRA:          -9.747
REMARK INTER:                  -8.088
REMARK INTRA:                  -1.659
REMARK UNBOUND:                -1.755
REMARK SMILES CC[C@@H](C=C[C@H](C)[C@H]1CC[C@H]2C3=CC[C@H]4C[C@@H](O)CC[C@@]4(C)[C@H]3CC[C@@]12C)C(C)C
REMARK SMILES IDX 6 1 7 2 5 3 4 4 3 5 2 6 1 7 28 8 29 9 30 10 8 11 9 12 26 13
REMARK SMILES IDX 10 14 11 15 25 16 27 17 12 18 24 19 23 20 13 21 21 22 14 23
REMARK SMILES IDX 15 24 20 25 22 26 16 27 19 28 17 29 18 30
REMARK H PARENT 18 31
REMARK Flexibility Score: inf
ROOT
ATOM      1  C   UNL     1     123.281 117.135 113.316  1.00  0.00     0.012 C 
ATOM      2  C   UNL     1     122.249 116.714 112.252  1.00  0.00     0.012 C 
ENDROOT
BRANCH   1   3
ATOM      3  C   UNL     1     124.525 117.597 112.596  1.00  0.00    -0.028 C 
ATOM      4  C   UNL     1     125.025 118.859 112.521  1.00  0.00    -0.027 C 
BRANCH   4   5
ATOM      5  C   UNL     1     124.503 120.186 113.093  1.00  0.00     0.014 C 
BRANCH   5   6
ATOM      6  C   UNL     1     123.889 121.153 112.046  1.00  0.00     0.004 C 
ATOM      7  C   UNL     1     122.526 120.671 111.544  1.00  0.00     0.004 C 
ENDBRANCH   5   6
BRANCH   5   8
ATOM      8  C   UNL     1     125.454 120.848 114.144  1.00  0.00    -0.011 C 
ATOM      9  C   UNL     1     125.646 122.356 113.902  1.00  0.00     0.008 C 
ATOM     10  C   UNL     1     126.823 120.182 114.286  1.00  0.00     0.008 C 
ENDBRANCH   5   8
ENDBRANCH   4   5
ENDBRANCH   1   3
BRANCH   1  11
ATOM     11  C   UNL     1     122.612 118.180 114.299  1.00  0.00     0.002 C 
ATOM     12  C   UNL     1     121.150 118.436 113.923  1.00  0.00     0.005 C 
ATOM     13  C   UNL     1     122.597 118.011 115.855  1.00  0.00    -0.023 C 
ATOM     14  C   UNL     1     120.503 119.086 115.141  1.00  0.00     0.009 C 
ATOM     15  C   UNL     1     121.524 119.043 116.287  1.00  0.00     0.021 C 
ATOM     16  C   UNL     1     122.130 116.614 116.324  1.00  0.00     0.008 C 
ATOM     17  C   UNL     1     123.968 118.394 116.477  1.00  0.00     0.012 C 
ATOM     18  C   UNL     1     120.847 118.769 117.630  1.00  0.00    -0.067 C 
ATOM     19  C   UNL     1     122.090 116.502 117.846  1.00  0.00     0.009 C 
ATOM     20  C   UNL     1     121.302 117.645 118.564  1.00  0.00     0.021 C 
ATOM     21  C   UNL     1     119.890 119.639 118.025  1.00  0.00    -0.027 C 
ATOM     22  C   UNL     1     120.150 117.107 119.486  1.00  0.00    -0.023 C 
ATOM     23  C   UNL     1     118.972 119.415 119.188  1.00  0.00     0.031 C 
ATOM     24  C   UNL     1     119.440 118.326 120.173  1.00  0.00     0.002 C 
ATOM     25  C   UNL     1     119.120 116.261 118.655  1.00  0.00     0.010 C 
ATOM     26  C   UNL     1     120.784 116.227 120.617  1.00  0.00     0.012 C 
ATOM     27  C   UNL     1     118.278 117.880 121.100  1.00  0.00     0.036 C 
ATOM     28  C   UNL     1     117.649 116.376 119.105  1.00  0.00     0.032 C 
ATOM     29  C   UNL     1     117.489 116.643 120.611  1.00  0.00     0.114 C 
BRANCH  29  30
ATOM     30  O   UNL     1     116.120 116.826 120.884  1.00  0.00    -0.393 OA
ATOM     31  H   UNL     1     115.927 116.377 121.749  1.00  0.00     0.210 HD
ENDBRANCH  29  30
ENDBRANCH   1  11
TORSDOF 6
ENDMDL
MODEL 8
REMARK VINA RESULT:    -6.010      5.082     10.831
REMARK INTER + INTRA:          -9.697
REMARK INTER:                  -8.149
REMARK INTRA:                  -1.548
REMARK UNBOUND:                -1.755
REMARK SMILES CC[C@@H](C=C[C@H](C)[C@H]1CC[C@H]2C3=CC[C@H]4C[C@@H](O)CC[C@@]4(C)[C@H]3CC[C@@]12C)C(C)C
REMARK SMILES IDX 6 1 7 2 5 3 4 4 3 5 2 6 1 7 28 8 29 9 30 10 8 11 9 12 26 13
REMARK SMILES IDX 10 14 11 15 25 16 27 17 12 18 24 19 23 20 13 21 21 22 14 23
REMARK SMILES IDX 15 24 20 25 22 26 16 27 19 28 17 29 18 30
REMARK H PARENT 18 31
REMARK Flexibility Score: inf
ROOT
ATOM      1  C   UNL     1     114.874 123.610 122.851  1.00  0.00     0.012 C 
ATOM      2  C   UNL     1     114.595 124.643 123.959  1.00  0.00     0.012 C 
ENDROOT
BRANCH   1   3
ATOM      3  C   UNL     1     113.794 123.751 121.804  1.00  0.00    -0.028 C 
ATOM      4  C   UNL     1     113.036 122.768 121.251  1.00  0.00    -0.027 C 
BRANCH   4   5
ATOM      5  C   UNL     1     113.038 121.247 121.471  1.00  0.00     0.014 C 
BRANCH   5   6
ATOM      6  C   UNL     1     112.125 120.446 120.505  1.00  0.00     0.004 C 
ATOM      7  C   UNL     1     111.466 121.342 119.455  1.00  0.00     0.004 C 
ENDBRANCH   5   6
BRANCH   5   8
ATOM      8  C   UNL     1     112.970 120.818 122.974  1.00  0.00    -0.011 C 
ATOM      9  C   UNL     1     114.216 120.032 123.422  1.00  0.00     0.008 C 
ATOM     10  C   UNL     1     111.715 120.038 123.365  1.00  0.00     0.008 C 
ENDBRANCH   5   8
ENDBRANCH   4   5
ENDBRANCH   1   3
BRANCH   1  11
ATOM     11  C   UNL     1     116.364 123.783 122.346  1.00  0.00     0.002 C 
ATOM     12  C   UNL     1     117.366 123.461 123.459  1.00  0.00     0.005 C 
ATOM     13  C   UNL     1     116.934 123.062 121.080  1.00  0.00    -0.023 C 
ATOM     14  C   UNL     1     118.709 123.239 122.774  1.00  0.00     0.009 C 
ATOM     15  C   UNL     1     118.464 123.244 121.259  1.00  0.00     0.021 C 
ATOM     16  C   UNL     1     116.639 121.545 121.042  1.00  0.00     0.008 C 
ATOM     17  C   UNL     1     116.474 123.767 119.774  1.00  0.00     0.012 C 
ATOM     18  C   UNL     1     119.339 122.215 120.544  1.00  0.00    -0.067 C 
ATOM     19  C   UNL     1     117.244 120.871 119.813  1.00  0.00     0.009 C 
ATOM     20  C   UNL     1     118.762 121.168 119.589  1.00  0.00     0.021 C 
ATOM     21  C   UNL     1     120.678 122.334 120.698  1.00  0.00    -0.027 C 
ATOM     22  C   UNL     1     119.634 119.864 119.505  1.00  0.00    -0.023 C 
ATOM     23  C   UNL     1     121.674 121.301 120.266  1.00  0.00     0.031 C 
ATOM     24  C   UNL     1     121.129 120.269 119.259  1.00  0.00     0.002 C 
ATOM     25  C   UNL     1     119.499 119.018 120.822  1.00  0.00     0.010 C 
ATOM     26  C   UNL     1     119.159 119.023 118.272  1.00  0.00     0.012 C 
ATOM     27  C   UNL     1     122.064 119.034 119.170  1.00  0.00     0.036 C 
ATOM     28  C   UNL     1     120.773 118.271 121.266  1.00  0.00     0.032 C 
ATOM     29  C   UNL     1     121.678 117.855 120.094  1.00  0.00     0.114 C 
BRANCH  29  30
ATOM     30  O   UNL     1     122.846 117.275 120.623  1.00  0.00    -0.393 OA
ATOM     31  H   UNL     1     123.422 118.014 120.954  1.00  0.00     0.210 HD
ENDBRANCH  29  30
ENDBRANCH   1  11
TORSDOF 6
ENDMDL
MODEL 9
REMARK VINA RESULT:    -5.983      5.051     11.401
REMARK INTER + INTRA:          -9.661
REMARK INTER:                  -8.370
REMARK INTRA:                  -1.290
REMARK UNBOUND:                -1.755
REMARK SMILES CC[C@@H](C=C[C@H](C)[C@H]1CC[C@H]2C3=CC[C@H]4C[C@@H](O)CC[C@@]4(C)[C@H]3CC[C@@]12C)C(C)C
REMARK SMILES IDX 6 1 7 2 5 3 4 4 3 5 2 6 1 7 28 8 29 9 30 10 8 11 9 12 26 13
REMARK SMILES IDX 10 14 11 15 25 16 27 17 12 18 24 19 23 20 13 21 21 22 14 23
REMARK SMILES IDX 15 24 20 25 22 26 16 27 19 28 17 29 18 30
REMARK H PARENT 18 31
REMARK Flexibility Score: inf
ROOT
ATOM      1  C   UNL     1     115.165 123.232 124.041  1.00  0.00     0.012 C 
ATOM      2  C   UNL     1     114.631 124.622 124.437  1.00  0.00     0.012 C 
ENDROOT
BRANCH   1   3
ATOM      3  C   UNL     1     114.024 122.456 123.427  1.00  0.00    -0.028 C 
ATOM      4  C   UNL     1     113.488 121.282 123.855  1.00  0.00    -0.027 C 
BRANCH   4   5
ATOM      5  C   UNL     1     113.860 120.375 125.037  1.00  0.00     0.014 C 
BRANCH   5   6
ATOM      6  C   UNL     1     115.144 119.526 124.831  1.00  0.00     0.004 C 
ATOM      7  C   UNL     1     116.345 120.103 125.584  1.00  0.00     0.004 C 
ENDBRANCH   5   6
BRANCH   5   8
ATOM      8  C   UNL     1     112.647 119.617 125.671  1.00  0.00    -0.011 C 
ATOM      9  C   UNL     1     113.035 118.832 126.937  1.00  0.00     0.008 C 
ATOM     10  C   UNL     1     111.894 118.692 124.715  1.00  0.00     0.008 C 
ENDBRANCH   5   8
ENDBRANCH   4   5
ENDBRANCH   1   3
BRANCH   1  11
ATOM     11  C   UNL     1     116.454 123.410 123.141  1.00  0.00     0.002 C 
ATOM     12  C   UNL     1     117.729 123.107 123.933  1.00  0.00     0.005 C 
ATOM     13  C   UNL     1     116.656 122.680 121.772  1.00  0.00    -0.023 C 
ATOM     14  C   UNL     1     118.831 122.887 122.904  1.00  0.00     0.009 C 
ATOM     15  C   UNL     1     118.173 122.875 121.517  1.00  0.00     0.021 C 
ATOM     16  C   UNL     1     116.376 121.161 121.830  1.00  0.00     0.008 C 
ATOM     17  C   UNL     1     115.845 123.368 120.640  1.00  0.00     0.012 C 
ATOM     18  C   UNL     1     118.826 121.845 120.595  1.00  0.00    -0.067 C 
ATOM     19  C   UNL     1     116.623 120.478 120.486  1.00  0.00     0.009 C 
ATOM     20  C   UNL     1     118.016 120.784 119.847  1.00  0.00     0.021 C 
ATOM     21  C   UNL     1     120.153 121.974 120.370  1.00  0.00    -0.027 C 
ATOM     22  C   UNL     1     118.842 119.485 119.534  1.00  0.00    -0.023 C 
ATOM     23  C   UNL     1     120.999 120.944 119.685  1.00  0.00     0.031 C 
ATOM     24  C   UNL     1     120.206 119.898 118.878  1.00  0.00     0.002 C 
ATOM     25  C   UNL     1     119.087 118.651 120.844  1.00  0.00     0.010 C 
ATOM     26  C   UNL     1     118.052 118.628 118.488  1.00  0.00     0.012 C 
ATOM     27  C   UNL     1     121.091 118.668 118.544  1.00  0.00     0.036 C 
ATOM     28  C   UNL     1     120.442 117.918 120.922  1.00  0.00     0.032 C 
ATOM     29  C   UNL     1     120.989 117.496 119.548  1.00  0.00     0.114 C 
BRANCH  29  30
ATOM     30  O   UNL     1     122.264 116.930 119.735  1.00  0.00    -0.393 OA
ATOM     31  H   UNL     1     122.844 117.251 118.995  1.00  0.00     0.210 HD
ENDBRANCH  29  30
ENDBRANCH   1  11
TORSDOF 6
ENDMDL
