MODEL 1
REMARK VINA RESULT:    -5.023      0.000      0.000
REMARK INTER + INTRA:         -15.962
REMARK INTER:                 -12.657
REMARK INTRA:                  -3.305
REMARK UNBOUND:                -3.305
REMARK SMILES CCCCCCCCCCCCCCCCCCCCCCCCCCCC(=O)[O-]
REMARK SMILES IDX 15 1 16 2 17 3 18 4 19 5 20 6 21 7 22 8 23 9 24 10 25 11
REMARK SMILES IDX 26 12 27 13 28 14 29 15 30 16 14 17 13 18 12 19 11 20 10 21
REMARK SMILES IDX 9 22 8 23 7 24 6 25 5 26 4 27 3 28 2 29 1 30
REMARK H PARENT
REMARK Flexibility Score: inf
ROOT
ATOM      1  C   UNL     1      23.171  -7.888 -38.080  1.00  0.00     0.000 C 
ENDROOT
BRANCH   1   2
ATOM      2  C   UNL     1      24.706  -8.043 -38.072  1.00  0.00     0.000 C 
BRANCH   2   3
ATOM      3  C   UNL     1      25.284  -8.688 -39.347  1.00  0.00     0.000 C 
BRANCH   3   4
ATOM      4  C   UNL     1      24.279  -9.620 -40.061  1.00  0.00     0.000 C 
BRANCH   4   5
ATOM      5  C   UNL     1      24.979 -10.740 -40.840  1.00  0.00     0.000 C 
BRANCH   5   6
ATOM      6  C   UNL     1      25.070 -12.020 -39.996  1.00  0.00     0.000 C 
BRANCH   6   7
ATOM      7  C   UNL     1      24.620 -13.276 -40.763  1.00  0.00     0.000 C 
BRANCH   7   8
ATOM      8  C   UNL     1      24.562 -14.554 -39.897  1.00  0.00     0.000 C 
BRANCH   8   9
ATOM      9  C   UNL     1      23.455 -15.547 -40.307  1.00  0.00     0.000 C 
BRANCH   9  10
ATOM     10  C   UNL     1      23.776 -16.358 -41.578  1.00  0.00     0.000 C 
BRANCH  10  11
ATOM     11  C   UNL     1      24.901 -17.381 -41.349  1.00  0.00     0.000 C 
BRANCH  11  12
ATOM     12  C   UNL     1      24.962 -18.464 -42.441  1.00  0.00     0.006 C 
BRANCH  12  13
ATOM     13  C   UNL     1      25.833 -19.678 -42.067  1.00  0.00     0.053 C 
BRANCH  13  14
ATOM     14  C   UNL     1      27.061 -19.797 -42.920  1.00  0.00     0.041 C 
ATOM     15  O   UNL     1      27.349 -20.893 -43.468  1.00  0.00    -0.550 OA
ATOM     16  O   UNL     1      27.868 -18.688 -43.140  1.00  0.00    -0.550 OA
ENDBRANCH  13  14
ENDBRANCH  12  13
ENDBRANCH  11  12
ENDBRANCH  10  11
ENDBRANCH   9  10
ENDBRANCH   8   9
ENDBRANCH   7   8
ENDBRANCH   6   7
ENDBRANCH   5   6
ENDBRANCH   4   5
ENDBRANCH   3   4
ENDBRANCH   2   3
ENDBRANCH   1   2
BRANCH   1  17
ATOM     17  C   UNL     1      22.592  -7.092 -36.899  1.00  0.00     0.000 C 
BRANCH  17  18
ATOM     18  C   UNL     1      23.606  -6.110 -36.288  1.00  0.00     0.000 C 
BRANCH  18  19
ATOM     19  C   UNL     1      22.974  -4.733 -36.052  1.00  0.00     0.000 C 
BRANCH  19  20
ATOM     20  C   UNL     1      21.514  -4.710 -36.533  1.00  0.00     0.000 C 
BRANCH  20  21
ATOM     21  C   UNL     1      21.184  -3.471 -37.383  1.00  0.00     0.000 C 
BRANCH  21  22
ATOM     22  C   UNL     1      20.567  -3.838 -38.745  1.00  0.00    -0.000 C 
BRANCH  22  23
ATOM     23  C   UNL     1      21.597  -3.815 -39.890  1.00  0.00    -0.000 C 
BRANCH  23  24
ATOM     24  C   UNL     1      22.451  -5.090 -40.013  1.00  0.00    -0.000 C 
BRANCH  24  25
ATOM     25  C   UNL     1      23.962  -4.813 -39.919  1.00  0.00    -0.000 C 
BRANCH  25  26
ATOM     26  C   UNL     1      24.269  -3.379 -39.438  1.00  0.00    -0.000 C 
BRANCH  26  27
ATOM     27  C   UNL     1      25.659  -3.223 -38.794  1.00  0.00    -0.000 C 
BRANCH  27  28
ATOM     28  C   UNL     1      26.090  -4.384 -37.879  1.00  0.00    -0.000 C 
BRANCH  28  29
ATOM     29  C   UNL     1      27.476  -4.978 -38.195  1.00  0.00    -0.003 C 
ATOM     30  C   UNL     1      27.779  -6.249 -37.401  1.00  0.00     0.004 C 
ENDBRANCH  28  29
ENDBRANCH  27  28
ENDBRANCH  26  27
ENDBRANCH  25  26
ENDBRANCH  24  25
ENDBRANCH  23  24
ENDBRANCH  22  23
ENDBRANCH  21  22
ENDBRANCH  20  21
ENDBRANCH  19  20
ENDBRANCH  18  19
ENDBRANCH  17  18
ENDBRANCH   1  17
TORSDOF 26
ENDMDL
MODEL 2
REMARK VINA RESULT:    -4.995      1.159      2.910
REMARK INTER + INTRA:         -15.891
REMARK INTER:                 -12.657
REMARK INTRA:                  -3.235
REMARK UNBOUND:                -3.305
REMARK SMILES CCCCCCCCCCCCCCCCCCCCCCCCCCCC(=O)[O-]
REMARK SMILES IDX 15 1 16 2 17 3 18 4 19 5 20 6 21 7 22 8 23 9 24 10 25 11
REMARK SMILES IDX 26 12 27 13 28 14 29 15 30 16 14 17 13 18 12 19 11 20 10 21
REMARK SMILES IDX 9 22 8 23 7 24 6 25 5 26 4 27 3 28 2 29 1 30
REMARK H PARENT
REMARK Flexibility Score: inf
ROOT
ATOM      1  C   UNL     1      22.646  -6.170 -39.802  1.00  0.00     0.000 C 
ENDROOT
BRANCH   1   2
ATOM      2  C   UNL     1      21.844  -7.428 -39.411  1.00  0.00     0.000 C 
BRANCH   2   3
ATOM      3  C   UNL     1      22.417  -8.193 -38.202  1.00  0.00     0.000 C 
BRANCH   3   4
ATOM      4  C   UNL     1      23.944  -8.017 -38.044  1.00  0.00     0.000 C 
BRANCH   4   5
ATOM      5  C   UNL     1      24.716  -9.287 -38.418  1.00  0.00     0.000 C 
BRANCH   5   6
ATOM      6  C   UNL     1      25.106  -9.273 -39.904  1.00  0.00     0.000 C 
BRANCH   6   7
ATOM      7  C   UNL     1      24.654 -10.540 -40.652  1.00  0.00     0.000 C 
BRANCH   7   8
ATOM      8  C   UNL     1      25.078 -11.858 -39.969  1.00  0.00     0.000 C 
BRANCH   8   9
ATOM      9  C   UNL     1      24.724 -13.129 -40.769  1.00  0.00     0.000 C 
BRANCH   9  10
ATOM     10  C   UNL     1      24.506 -14.381 -39.896  1.00  0.00     0.000 C 
BRANCH  10  11
ATOM     11  C   UNL     1      23.763 -15.496 -40.650  1.00  0.00     0.000 C 
BRANCH  11  12
ATOM     12  C   UNL     1      24.557 -16.048 -41.847  1.00  0.00     0.006 C 
BRANCH  12  13
ATOM     13  C   UNL     1      24.960 -17.528 -41.699  1.00  0.00     0.053 C 
BRANCH  13  14
ATOM     14  C   UNL     1      25.842 -18.003 -42.815  1.00  0.00     0.041 C 
ATOM     15  O   UNL     1      26.249 -17.195 -43.690  1.00  0.00    -0.550 OA
ATOM     16  O   UNL     1      26.246 -19.331 -42.868  1.00  0.00    -0.550 OA
ENDBRANCH  13  14
ENDBRANCH  12  13
ENDBRANCH  11  12
ENDBRANCH  10  11
ENDBRANCH   9  10
ENDBRANCH   8   9
ENDBRANCH   7   8
ENDBRANCH   6   7
ENDBRANCH   5   6
ENDBRANCH   4   5
ENDBRANCH   3   4
ENDBRANCH   2   3
ENDBRANCH   1   2
BRANCH   1  17
ATOM     17  C   UNL     1      21.864  -5.128 -40.620  1.00  0.00     0.000 C 
BRANCH  17  18
ATOM     18  C   UNL     1      21.684  -3.797 -39.871  1.00  0.00     0.000 C 
BRANCH  18  19
ATOM     19  C   UNL     1      20.238  -3.619 -39.391  1.00  0.00     0.000 C 
BRANCH  19  20
ATOM     20  C   UNL     1      20.157  -2.565 -38.275  1.00  0.00     0.000 C 
BRANCH  20  21
ATOM     21  C   UNL     1      21.496  -2.363 -37.546  1.00  0.00     0.000 C 
BRANCH  21  22
ATOM     22  C   UNL     1      21.342  -2.381 -36.014  1.00  0.00    -0.000 C 
BRANCH  22  23
ATOM     23  C   UNL     1      21.945  -3.644 -35.371  1.00  0.00    -0.000 C 
BRANCH  23  24
ATOM     24  C   UNL     1      22.398  -4.722 -36.373  1.00  0.00    -0.000 C 
BRANCH  24  25
ATOM     25  C   UNL     1      23.929  -4.841 -36.475  1.00  0.00    -0.000 C 
BRANCH  25  26
ATOM     26  C   UNL     1      24.514  -3.963 -37.600  1.00  0.00    -0.000 C 
BRANCH  26  27
ATOM     27  C   UNL     1      25.641  -4.645 -38.399  1.00  0.00    -0.000 C 
BRANCH  27  28
ATOM     28  C   UNL     1      27.068  -4.343 -37.904  1.00  0.00    -0.000 C 
BRANCH  28  29
ATOM     29  C   UNL     1      27.928  -5.587 -37.612  1.00  0.00    -0.003 C 
ATOM     30  C   UNL     1      27.104  -6.795 -37.168  1.00  0.00     0.004 C 
ENDBRANCH  28  29
ENDBRANCH  27  28
ENDBRANCH  26  27
ENDBRANCH  25  26
ENDBRANCH  24  25
ENDBRANCH  23  24
ENDBRANCH  22  23
ENDBRANCH  21  22
ENDBRANCH  20  21
ENDBRANCH  19  20
ENDBRANCH  18  19
ENDBRANCH  17  18
ENDBRANCH   1  17
TORSDOF 26
ENDMDL
MODEL 3
REMARK VINA RESULT:    -4.727      1.127      2.265
REMARK INTER + INTRA:         -15.217
REMARK INTER:                 -12.253
REMARK INTRA:                  -2.965
REMARK UNBOUND:                -3.305
REMARK SMILES CCCCCCCCCCCCCCCCCCCCCCCCCCCC(=O)[O-]
REMARK SMILES IDX 15 1 16 2 17 3 18 4 19 5 20 6 21 7 22 8 23 9 24 10 25 11
REMARK SMILES IDX 26 12 27 13 28 14 29 15 30 16 14 17 13 18 12 19 11 20 10 21
REMARK SMILES IDX 9 22 8 23 7 24 6 25 5 26 4 27 3 28 2 29 1 30
REMARK H PARENT
REMARK Flexibility Score: inf
ROOT
ATOM      1  C   UNL     1      23.412  -8.249 -38.054  1.00  0.00     0.000 C 
ENDROOT
BRANCH   1   2
ATOM      2  C   UNL     1      24.502  -9.289 -38.383  1.00  0.00     0.000 C 
BRANCH   2   3
ATOM      3  C   UNL     1      24.975  -9.269 -39.850  1.00  0.00     0.000 C 
BRANCH   3   4
ATOM      4  C   UNL     1      24.648 -10.575 -40.607  1.00  0.00     0.000 C 
BRANCH   4   5
ATOM      5  C   UNL     1      25.250 -11.808 -39.925  1.00  0.00     0.000 C 
BRANCH   5   6
ATOM      6  C   UNL     1      24.814 -13.097 -40.638  1.00  0.00     0.000 C 
BRANCH   6   7
ATOM      7  C   UNL     1      24.538 -14.257 -39.664  1.00  0.00     0.000 C 
BRANCH   7   8
ATOM      8  C   UNL     1      23.898 -15.496 -40.328  1.00  0.00     0.000 C 
BRANCH   8   9
ATOM      9  C   UNL     1      24.272 -15.683 -41.812  1.00  0.00     0.000 C 
BRANCH   9  10
ATOM     10  C   UNL     1      24.332 -17.156 -42.265  1.00  0.00     0.000 C 
BRANCH  10  11
ATOM     11  C   UNL     1      25.353 -17.974 -41.456  1.00  0.00     0.000 C 
BRANCH  11  12
ATOM     12  C   UNL     1      25.827 -19.241 -42.189  1.00  0.00     0.006 C 
BRANCH  12  13
ATOM     13  C   UNL     1      26.955 -18.987 -43.207  1.00  0.00     0.053 C 
BRANCH  13  14
ATOM     14  C   UNL     1      28.027 -20.035 -43.159  1.00  0.00     0.041 C 
ATOM     15  O   UNL     1      28.913 -20.077 -44.053  1.00  0.00    -0.550 OA
ATOM     16  O   UNL     1      28.071 -20.942 -42.108  1.00  0.00    -0.550 OA
ENDBRANCH  13  14
ENDBRANCH  12  13
ENDBRANCH  11  12
ENDBRANCH  10  11
ENDBRANCH   9  10
ENDBRANCH   8   9
ENDBRANCH   7   8
ENDBRANCH   6   7
ENDBRANCH   5   6
ENDBRANCH   4   5
ENDBRANCH   3   4
ENDBRANCH   2   3
ENDBRANCH   1   2
BRANCH   1  17
ATOM     17  C   UNL     1      22.525  -7.838 -39.242  1.00  0.00     0.000 C 
BRANCH  17  18
ATOM     18  C   UNL     1      21.883  -6.453 -39.055  1.00  0.00     0.000 C 
BRANCH  18  19
ATOM     19  C   UNL     1      22.146  -5.550 -40.266  1.00  0.00     0.000 C 
BRANCH  19  20
ATOM     20  C   UNL     1      21.679  -4.112 -39.988  1.00  0.00     0.000 C 
BRANCH  20  21
ATOM     21  C   UNL     1      20.724  -4.016 -38.786  1.00  0.00     0.000 C 
BRANCH  21  22
ATOM     22  C   UNL     1      20.505  -2.564 -38.322  1.00  0.00    -0.000 C 
BRANCH  22  23
ATOM     23  C   UNL     1      20.839  -2.360 -36.832  1.00  0.00    -0.000 C 
BRANCH  23  24
ATOM     24  C   UNL     1      22.272  -2.759 -36.433  1.00  0.00    -0.000 C 
BRANCH  24  25
ATOM     25  C   UNL     1      22.357  -4.177 -35.841  1.00  0.00    -0.000 C 
BRANCH  25  26
ATOM     26  C   UNL     1      23.616  -4.935 -36.308  1.00  0.00    -0.000 C 
BRANCH  26  27
ATOM     27  C   UNL     1      24.481  -4.148 -37.311  1.00  0.00    -0.000 C 
BRANCH  27  28
ATOM     28  C   UNL     1      25.257  -5.011 -38.324  1.00  0.00    -0.000 C 
BRANCH  28  29
ATOM     29  C   UNL     1      26.725  -5.285 -37.951  1.00  0.00    -0.003 C 
ATOM     30  C   UNL     1      27.061  -6.776 -37.893  1.00  0.00     0.004 C 
ENDBRANCH  28  29
ENDBRANCH  27  28
ENDBRANCH  26  27
ENDBRANCH  25  26
ENDBRANCH  24  25
ENDBRANCH  23  24
ENDBRANCH  22  23
ENDBRANCH  21  22
ENDBRANCH  20  21
ENDBRANCH  19  20
ENDBRANCH  18  19
ENDBRANCH  17  18
ENDBRANCH   1  17
TORSDOF 26
ENDMDL
MODEL 4
REMARK VINA RESULT:    -4.672      3.807     10.229
REMARK INTER + INTRA:         -15.077
REMARK INTER:                 -11.515
REMARK INTRA:                  -3.562
REMARK UNBOUND:                -3.305
REMARK SMILES CCCCCCCCCCCCCCCCCCCCCCCCCCCC(=O)[O-]
REMARK SMILES IDX 15 1 16 2 17 3 18 4 19 5 20 6 21 7 22 8 23 9 24 10 25 11
REMARK SMILES IDX 26 12 27 13 28 14 29 15 30 16 14 17 13 18 12 19 11 20 10 21
REMARK SMILES IDX 9 22 8 23 7 24 6 25 5 26 4 27 3 28 2 29 1 30
REMARK H PARENT
REMARK Flexibility Score: inf
ROOT
ATOM      1  C   UNL     1      22.215  -4.418 -36.311  1.00  0.00     0.000 C 
ENDROOT
BRANCH   1   2
ATOM      2  C   UNL     1      21.645  -3.404 -35.299  1.00  0.00     0.000 C 
BRANCH   2   3
ATOM      3  C   UNL     1      21.143  -2.091 -35.932  1.00  0.00     0.000 C 
BRANCH   3   4
ATOM      4  C   UNL     1      21.216  -2.098 -37.475  1.00  0.00     0.000 C 
BRANCH   4   5
ATOM      5  C   UNL     1      19.827  -2.145 -38.121  1.00  0.00     0.000 C 
BRANCH   5   6
ATOM      6  C   UNL     1      19.744  -3.272 -39.162  1.00  0.00     0.000 C 
BRANCH   6   7
ATOM      7  C   UNL     1      21.010  -3.378 -40.031  1.00  0.00     0.000 C 
BRANCH   7   8
ATOM      8  C   UNL     1      21.749  -4.728 -39.901  1.00  0.00     0.000 C 
BRANCH   8   9
ATOM      9  C   UNL     1      23.286  -4.606 -39.850  1.00  0.00     0.000 C 
BRANCH   9  10
ATOM     10  C   UNL     1      23.794  -3.191 -39.509  1.00  0.00     0.000 C 
BRANCH  10  11
ATOM     11  C   UNL     1      25.182  -3.212 -38.847  1.00  0.00     0.000 C 
BRANCH  11  12
ATOM     12  C   UNL     1      25.729  -4.635 -38.639  1.00  0.00     0.006 C 
BRANCH  12  13
ATOM     13  C   UNL     1      26.876  -4.719 -37.614  1.00  0.00     0.053 C 
BRANCH  13  14
ATOM     14  C   UNL     1      27.486  -6.087 -37.537  1.00  0.00     0.041 C 
ATOM     15  O   UNL     1      26.751  -7.104 -37.430  1.00  0.00    -0.550 OA
ATOM     16  O   UNL     1      28.863  -6.244 -37.620  1.00  0.00    -0.550 OA
ENDBRANCH  13  14
ENDBRANCH  12  13
ENDBRANCH  11  12
ENDBRANCH  10  11
ENDBRANCH   9  10
ENDBRANCH   8   9
ENDBRANCH   7   8
ENDBRANCH   6   7
ENDBRANCH   5   6
ENDBRANCH   4   5
ENDBRANCH   3   4
ENDBRANCH   2   3
ENDBRANCH   1   2
BRANCH   1  17
ATOM     17  C   UNL     1      23.498  -5.136 -35.860  1.00  0.00     0.000 C 
BRANCH  17  18
ATOM     18  C   UNL     1      23.609  -6.565 -36.418  1.00  0.00     0.000 C 
BRANCH  18  19
ATOM     19  C   UNL     1      22.386  -6.927 -37.268  1.00  0.00     0.000 C 
BRANCH  19  20
ATOM     20  C   UNL     1      22.478  -8.377 -37.771  1.00  0.00     0.000 C 
BRANCH  20  21
ATOM     21  C   UNL     1      22.878  -8.470 -39.253  1.00  0.00     0.000 C 
BRANCH  21  22
ATOM     22  C   UNL     1      24.405  -8.447 -39.454  1.00  0.00    -0.000 C 
BRANCH  22  23
ATOM     23  C   UNL     1      25.057  -9.821 -39.210  1.00  0.00    -0.000 C 
BRANCH  23  24
ATOM     24  C   UNL     1      24.933 -10.811 -40.383  1.00  0.00    -0.000 C 
BRANCH  24  25
ATOM     25  C   UNL     1      25.397 -12.232 -40.020  1.00  0.00    -0.000 C 
BRANCH  25  26
ATOM     26  C   UNL     1      24.545 -13.322 -40.703  1.00  0.00    -0.000 C 
BRANCH  26  27
ATOM     27  C   UNL     1      24.238 -14.530 -39.797  1.00  0.00    -0.000 C 
BRANCH  27  28
ATOM     28  C   UNL     1      24.604 -15.903 -40.391  1.00  0.00    -0.000 C 
BRANCH  28  29
ATOM     29  C   UNL     1      23.822 -16.289 -41.660  1.00  0.00    -0.003 C 
ATOM     30  C   UNL     1      24.615 -17.196 -42.601  1.00  0.00     0.004 C 
ENDBRANCH  28  29
ENDBRANCH  27  28
ENDBRANCH  26  27
ENDBRANCH  25  26
ENDBRANCH  24  25
ENDBRANCH  23  24
ENDBRANCH  22  23
ENDBRANCH  21  22
ENDBRANCH  20  21
ENDBRANCH  19  20
ENDBRANCH  18  19
ENDBRANCH  17  18
ENDBRANCH   1  17
TORSDOF 26
ENDMDL
MODEL 5
REMARK VINA RESULT:    -4.615      3.735     11.917
REMARK INTER + INTRA:         -14.936
REMARK INTER:                 -12.422
REMARK INTRA:                  -2.514
REMARK UNBOUND:                -3.305
REMARK SMILES CCCCCCCCCCCCCCCCCCCCCCCCCCCC(=O)[O-]
REMARK SMILES IDX 15 1 16 2 17 3 18 4 19 5 20 6 21 7 22 8 23 9 24 10 25 11
REMARK SMILES IDX 26 12 27 13 28 14 29 15 30 16 14 17 13 18 12 19 11 20 10 21
REMARK SMILES IDX 9 22 8 23 7 24 6 25 5 26 4 27 3 28 2 29 1 30
REMARK H PARENT
REMARK Flexibility Score: inf
ROOT
ATOM      1  C   UNL     1      24.124  -9.200 -38.595  1.00  0.00     0.000 C 
ENDROOT
BRANCH   1   2
ATOM      2  C   UNL     1      23.123  -8.048 -38.814  1.00  0.00     0.000 C 
BRANCH   2   3
ATOM      3  C   UNL     1      22.395  -7.589 -37.536  1.00  0.00     0.000 C 
BRANCH   3   4
ATOM      4  C   UNL     1      23.163  -6.492 -36.765  1.00  0.00     0.000 C 
BRANCH   4   5
ATOM      5  C   UNL     1      22.347  -5.202 -36.622  1.00  0.00     0.000 C 
BRANCH   5   6
ATOM      6  C   UNL     1      21.172  -5.186 -37.612  1.00  0.00     0.000 C 
BRANCH   6   7
ATOM      7  C   UNL     1      21.294  -4.073 -38.668  1.00  0.00     0.000 C 
BRANCH   7   8
ATOM      8  C   UNL     1      21.910  -4.540 -40.005  1.00  0.00     0.000 C 
BRANCH   8   9
ATOM      9  C   UNL     1      23.444  -4.702 -39.973  1.00  0.00     0.000 C 
BRANCH   9  10
ATOM     10  C   UNL     1      24.213  -3.380 -39.779  1.00  0.00     0.000 C 
BRANCH  10  11
ATOM     11  C   UNL     1      25.014  -3.358 -38.467  1.00  0.00     0.000 C 
BRANCH  11  12
ATOM     12  C   UNL     1      26.515  -3.628 -38.673  1.00  0.00     0.006 C 
BRANCH  12  13
ATOM     13  C   UNL     1      27.116  -4.617 -37.656  1.00  0.00     0.053 C 
BRANCH  13  14
ATOM     14  C   UNL     1      26.638  -6.023 -37.863  1.00  0.00     0.041 C 
ATOM     15  O   UNL     1      26.362  -6.435 -39.021  1.00  0.00    -0.550 OA
ATOM     16  O   UNL     1      26.535  -6.892 -36.785  1.00  0.00    -0.550 OA
ENDBRANCH  13  14
ENDBRANCH  12  13
ENDBRANCH  11  12
ENDBRANCH  10  11
ENDBRANCH   9  10
ENDBRANCH   8   9
ENDBRANCH   7   8
ENDBRANCH   6   7
ENDBRANCH   5   6
ENDBRANCH   4   5
ENDBRANCH   3   4
ENDBRANCH   2   3
ENDBRANCH   1   2
BRANCH   1  17
ATOM     17  C   UNL     1      25.047  -9.496 -39.789  1.00  0.00     0.000 C 
BRANCH  17  18
ATOM     18  C   UNL     1      24.606 -10.732 -40.591  1.00  0.00     0.000 C 
BRANCH  18  19
ATOM     19  C   UNL     1      25.289 -12.004 -40.076  1.00  0.00     0.000 C 
BRANCH  19  20
ATOM     20  C   UNL     1      24.592 -13.260 -40.623  1.00  0.00     0.000 C 
BRANCH  20  21
ATOM     21  C   UNL     1      24.567 -14.418 -39.611  1.00  0.00     0.000 C 
BRANCH  21  22
ATOM     22  C   UNL     1      23.609 -15.549 -40.032  1.00  0.00    -0.000 C 
BRANCH  22  23
ATOM     23  C   UNL     1      23.567 -15.753 -41.558  1.00  0.00    -0.000 C 
BRANCH  23  24
ATOM     24  C   UNL     1      24.742 -16.565 -42.132  1.00  0.00    -0.000 C 
BRANCH  24  25
ATOM     25  C   UNL     1      25.013 -17.863 -41.353  1.00  0.00    -0.000 C 
BRANCH  25  26
ATOM     26  C   UNL     1      25.665 -18.952 -42.231  1.00  0.00    -0.000 C 
BRANCH  26  27
ATOM     27  C   UNL     1      26.751 -18.415 -43.184  1.00  0.00    -0.000 C 
BRANCH  27  28
ATOM     28  C   UNL     1      28.094 -19.166 -43.134  1.00  0.00    -0.000 C 
BRANCH  28  29
ATOM     29  C   UNL     1      27.981 -20.677 -42.861  1.00  0.00    -0.003 C 
ATOM     30  C   UNL     1      27.869 -21.510 -44.139  1.00  0.00     0.004 C 
ENDBRANCH  28  29
ENDBRANCH  27  28
ENDBRANCH  26  27
ENDBRANCH  25  26
ENDBRANCH  24  25
ENDBRANCH  23  24
ENDBRANCH  22  23
ENDBRANCH  21  22
ENDBRANCH  20  21
ENDBRANCH  19  20
ENDBRANCH  18  19
ENDBRANCH  17  18
ENDBRANCH   1  17
TORSDOF 26
ENDMDL
MODEL 6
REMARK VINA RESULT:    -4.610      1.208      2.792
REMARK INTER + INTRA:         -14.922
REMARK INTER:                 -11.190
REMARK INTRA:                  -3.732
REMARK UNBOUND:                -3.305
REMARK SMILES CCCCCCCCCCCCCCCCCCCCCCCCCCCC(=O)[O-]
REMARK SMILES IDX 15 1 16 2 17 3 18 4 19 5 20 6 21 7 22 8 23 9 24 10 25 11
REMARK SMILES IDX 26 12 27 13 28 14 29 15 30 16 14 17 13 18 12 19 11 20 10 21
REMARK SMILES IDX 9 22 8 23 7 24 6 25 5 26 4 27 3 28 2 29 1 30
REMARK H PARENT
REMARK Flexibility Score: inf
ROOT
ATOM      1  C   UNL     1      22.011  -6.225 -40.204  1.00  0.00     0.000 C 
ENDROOT
BRANCH   1   2
ATOM      2  C   UNL     1      23.207  -7.146 -39.882  1.00  0.00     0.000 C 
BRANCH   2   3
ATOM      3  C   UNL     1      22.817  -8.484 -39.224  1.00  0.00     0.000 C 
BRANCH   3   4
ATOM      4  C   UNL     1      24.039  -9.298 -38.743  1.00  0.00     0.000 C 
BRANCH   4   5
ATOM      5  C   UNL     1      25.036  -9.571 -39.874  1.00  0.00     0.000 C 
BRANCH   5   6
ATOM      6  C   UNL     1      24.639 -10.828 -40.663  1.00  0.00     0.000 C 
BRANCH   6   7
ATOM      7  C   UNL     1      25.247 -12.117 -40.081  1.00  0.00     0.000 C 
BRANCH   7   8
ATOM      8  C   UNL     1      24.605 -13.413 -40.620  1.00  0.00     0.000 C 
BRANCH   8   9
ATOM      9  C   UNL     1      24.573 -14.574 -39.605  1.00  0.00     0.000 C 
BRANCH   9  10
ATOM     10  C   UNL     1      23.569 -15.690 -39.956  1.00  0.00     0.000 C 
BRANCH  10  11
ATOM     11  C   UNL     1      23.192 -15.688 -41.447  1.00  0.00     0.000 C 
BRANCH  11  12
ATOM     12  C   UNL     1      24.009 -16.694 -42.276  1.00  0.00     0.006 C 
BRANCH  12  13
ATOM     13  C   UNL     1      24.928 -17.598 -41.433  1.00  0.00     0.053 C 
BRANCH  13  14
ATOM     14  C   UNL     1      25.689 -18.588 -42.263  1.00  0.00     0.041 C 
ATOM     15  O   UNL     1      25.419 -19.816 -42.192  1.00  0.00    -0.550 OA
ATOM     16  O   UNL     1      26.671 -18.153 -43.144  1.00  0.00    -0.550 OA
ENDBRANCH  13  14
ENDBRANCH  12  13
ENDBRANCH  11  12
ENDBRANCH  10  11
ENDBRANCH   9  10
ENDBRANCH   8   9
ENDBRANCH   7   8
ENDBRANCH   6   7
ENDBRANCH   5   6
ENDBRANCH   4   5
ENDBRANCH   3   4
ENDBRANCH   2   3
ENDBRANCH   1   2
BRANCH   1  17
ATOM     17  C   UNL     1      22.325  -4.720 -40.181  1.00  0.00     0.000 C 
BRANCH  17  18
ATOM     18  C   UNL     1      23.806  -4.424 -39.891  1.00  0.00     0.000 C 
BRANCH  18  19
ATOM     19  C   UNL     1      24.025  -2.941 -39.567  1.00  0.00     0.000 C 
BRANCH  19  20
ATOM     20  C   UNL     1      24.462  -2.758 -38.105  1.00  0.00     0.000 C 
BRANCH  20  21
ATOM     21  C   UNL     1      23.481  -1.897 -37.292  1.00  0.00     0.000 C 
BRANCH  21  22
ATOM     22  C   UNL     1      22.009  -2.222 -37.608  1.00  0.00    -0.000 C 
BRANCH  22  23
ATOM     23  C   UNL     1      21.308  -2.976 -36.463  1.00  0.00    -0.000 C 
BRANCH  23  24
ATOM     24  C   UNL     1      22.099  -4.169 -35.898  1.00  0.00    -0.000 C 
BRANCH  24  25
ATOM     25  C   UNL     1      21.897  -5.461 -36.708  1.00  0.00    -0.000 C 
BRANCH  25  26
ATOM     26  C   UNL     1      23.023  -6.489 -36.469  1.00  0.00    -0.000 C 
BRANCH  26  27
ATOM     27  C   UNL     1      24.427  -5.862 -36.372  1.00  0.00    -0.000 C 
BRANCH  27  28
ATOM     28  C   UNL     1      25.581  -6.765 -36.849  1.00  0.00    -0.000 C 
BRANCH  28  29
ATOM     29  C   UNL     1      26.316  -6.265 -38.106  1.00  0.00    -0.003 C 
ATOM     30  C   UNL     1      27.289  -5.122 -37.817  1.00  0.00     0.004 C 
ENDBRANCH  28  29
ENDBRANCH  27  28
ENDBRANCH  26  27
ENDBRANCH  25  26
ENDBRANCH  24  25
ENDBRANCH  23  24
ENDBRANCH  22  23
ENDBRANCH  21  22
ENDBRANCH  20  21
ENDBRANCH  19  20
ENDBRANCH  18  19
ENDBRANCH  17  18
ENDBRANCH   1  17
TORSDOF 26
ENDMDL
MODEL 7
REMARK VINA RESULT:    -4.555      3.848     11.672
REMARK INTER + INTRA:         -14.783
REMARK INTER:                 -11.976
REMARK INTRA:                  -2.807
REMARK UNBOUND:                -3.305
REMARK SMILES CCCCCCCCCCCCCCCCCCCCCCCCCCCC(=O)[O-]
REMARK SMILES IDX 15 1 16 2 17 3 18 4 19 5 20 6 21 7 22 8 23 9 24 10 25 11
REMARK SMILES IDX 26 12 27 13 28 14 29 15 30 16 14 17 13 18 12 19 11 20 10 21
REMARK SMILES IDX 9 22 8 23 7 24 6 25 5 26 4 27 3 28 2 29 1 30
REMARK H PARENT
REMARK Flexibility Score: inf
ROOT
ATOM      1  C   UNL     1      23.199  -8.534 -38.200  1.00  0.00     0.000 C 
ENDROOT
BRANCH   1   2
ATOM      2  C   UNL     1      22.722  -7.851 -39.498  1.00  0.00     0.000 C 
BRANCH   2   3
ATOM      3  C   UNL     1      22.004  -6.505 -39.279  1.00  0.00     0.000 C 
BRANCH   3   4
ATOM      4  C   UNL     1      22.199  -5.519 -40.453  1.00  0.00     0.000 C 
BRANCH   4   5
ATOM      5  C   UNL     1      21.316  -4.273 -40.316  1.00  0.00     0.000 C 
BRANCH   5   6
ATOM      6  C   UNL     1      21.871  -3.324 -39.242  1.00  0.00     0.000 C 
BRANCH   6   7
ATOM      7  C   UNL     1      21.005  -3.288 -37.971  1.00  0.00     0.000 C 
BRANCH   7   8
ATOM      8  C   UNL     1      21.814  -3.363 -36.657  1.00  0.00     0.000 C 
BRANCH   8   9
ATOM      9  C   UNL     1      22.092  -4.799 -36.166  1.00  0.00     0.000 C 
BRANCH   9  10
ATOM     10  C   UNL     1      23.556  -5.251 -36.340  1.00  0.00     0.000 C 
BRANCH  10  11
ATOM     11  C   UNL     1      24.435  -4.155 -36.966  1.00  0.00     0.000 C 
BRANCH  11  12
ATOM     12  C   UNL     1      25.192  -4.631 -38.218  1.00  0.00     0.006 C 
BRANCH  12  13
ATOM     13  C   UNL     1      25.830  -6.025 -38.069  1.00  0.00     0.053 C 
BRANCH  13  14
ATOM     14  C   UNL     1      27.295  -5.961 -37.754  1.00  0.00     0.041 C 
ATOM     15  O   UNL     1      27.999  -5.017 -38.199  1.00  0.00    -0.550 OA
ATOM     16  O   UNL     1      27.876  -6.922 -36.937  1.00  0.00    -0.550 OA
ENDBRANCH  13  14
ENDBRANCH  12  13
ENDBRANCH  11  12
ENDBRANCH  10  11
ENDBRANCH   9  10
ENDBRANCH   8   9
ENDBRANCH   7   8
ENDBRANCH   6   7
ENDBRANCH   5   6
ENDBRANCH   4   5
ENDBRANCH   3   4
ENDBRANCH   2   3
ENDBRANCH   1   2
BRANCH   1  17
ATOM     17  C   UNL     1      24.451  -9.414 -38.351  1.00  0.00     0.000 C 
BRANCH  17  18
ATOM     18  C   UNL     1      25.081  -9.321 -39.751  1.00  0.00     0.000 C 
BRANCH  18  19
ATOM     19  C   UNL     1      24.679 -10.517 -40.623  1.00  0.00     0.000 C 
BRANCH  19  20
ATOM     20  C   UNL     1      25.119 -11.839 -39.975  1.00  0.00     0.000 C 
BRANCH  20  21
ATOM     21  C   UNL     1      24.651 -13.075 -40.762  1.00  0.00     0.000 C 
BRANCH  21  22
ATOM     22  C   UNL     1      24.675 -14.359 -39.913  1.00  0.00    -0.000 C 
BRANCH  22  23
ATOM     23  C   UNL     1      23.603 -15.378 -40.346  1.00  0.00    -0.000 C 
BRANCH  23  24
ATOM     24  C   UNL     1      24.088 -16.432 -41.358  1.00  0.00    -0.000 C 
BRANCH  24  25
ATOM     25  C   UNL     1      25.046 -17.464 -40.738  1.00  0.00    -0.000 C 
BRANCH  25  26
ATOM     26  C   UNL     1      25.410 -18.595 -41.722  1.00  0.00    -0.000 C 
BRANCH  26  27
ATOM     27  C   UNL     1      26.187 -18.115 -42.963  1.00  0.00    -0.000 C 
BRANCH  27  28
ATOM     28  C   UNL     1      27.558 -18.784 -43.176  1.00  0.00    -0.000 C 
BRANCH  28  29
ATOM     29  C   UNL     1      27.500 -20.287 -43.507  1.00  0.00    -0.003 C 
ATOM     30  C   UNL     1      28.151 -21.162 -42.435  1.00  0.00     0.004 C 
ENDBRANCH  28  29
ENDBRANCH  27  28
ENDBRANCH  26  27
ENDBRANCH  25  26
ENDBRANCH  24  25
ENDBRANCH  23  24
ENDBRANCH  22  23
ENDBRANCH  21  22
ENDBRANCH  20  21
ENDBRANCH  19  20
ENDBRANCH  18  19
ENDBRANCH  17  18
ENDBRANCH   1  17
TORSDOF 26
ENDMDL
MODEL 8
REMARK VINA RESULT:    -4.505      1.538      3.376
REMARK INTER + INTRA:         -14.657
REMARK INTER:                 -11.552
REMARK INTRA:                  -3.106
REMARK UNBOUND:                -3.305
REMARK SMILES CCCCCCCCCCCCCCCCCCCCCCCCCCCC(=O)[O-]
REMARK SMILES IDX 15 1 16 2 17 3 18 4 19 5 20 6 21 7 22 8 23 9 24 10 25 11
REMARK SMILES IDX 26 12 27 13 28 14 29 15 30 16 14 17 13 18 12 19 11 20 10 21
REMARK SMILES IDX 9 22 8 23 7 24 6 25 5 26 4 27 3 28 2 29 1 30
REMARK H PARENT
REMARK Flexibility Score: inf
ROOT
ATOM      1  C   UNL     1      22.304  -7.823 -38.279  1.00  0.00     0.000 C 
ENDROOT
BRANCH   1   2
ATOM      2  C   UNL     1      22.680  -6.828 -37.162  1.00  0.00     0.000 C 
BRANCH   2   3
ATOM      3  C   UNL     1      24.168  -6.429 -37.144  1.00  0.00     0.000 C 
BRANCH   3   4
ATOM      4  C   UNL     1      25.113  -7.606 -37.472  1.00  0.00     0.000 C 
BRANCH   4   5
ATOM      5  C   UNL     1      25.862  -7.398 -38.793  1.00  0.00     0.000 C 
BRANCH   5   6
ATOM      6  C   UNL     1      25.329  -8.345 -39.880  1.00  0.00     0.000 C 
BRANCH   6   7
ATOM      7  C   UNL     1      25.020  -9.755 -39.346  1.00  0.00     0.000 C 
BRANCH   7   8
ATOM      8  C   UNL     1      24.983 -10.846 -40.438  1.00  0.00     0.000 C 
BRANCH   8   9
ATOM      9  C   UNL     1      25.346 -12.258 -39.935  1.00  0.00     0.000 C 
BRANCH   9  10
ATOM     10  C   UNL     1      24.638 -13.398 -40.694  1.00  0.00     0.000 C 
BRANCH  10  11
ATOM     11  C   UNL     1      24.337 -14.604 -39.788  1.00  0.00     0.000 C 
BRANCH  11  12
ATOM     12  C   UNL     1      23.677 -15.773 -40.540  1.00  0.00     0.006 C 
BRANCH  12  13
ATOM     13  C   UNL     1      24.285 -16.045 -41.928  1.00  0.00     0.053 C 
BRANCH  13  14
ATOM     14  C   UNL     1      25.118 -17.292 -41.963  1.00  0.00     0.041 C 
ATOM     15  O   UNL     1      25.692 -17.642 -43.027  1.00  0.00    -0.550 OA
ATOM     16  O   UNL     1      25.291 -18.048 -40.811  1.00  0.00    -0.550 OA
ENDBRANCH  13  14
ENDBRANCH  12  13
ENDBRANCH  11  12
ENDBRANCH  10  11
ENDBRANCH   9  10
ENDBRANCH   8   9
ENDBRANCH   7   8
ENDBRANCH   6   7
ENDBRANCH   5   6
ENDBRANCH   4   5
ENDBRANCH   3   4
ENDBRANCH   2   3
ENDBRANCH   1   2
BRANCH   1  17
ATOM     17  C   UNL     1      21.883  -7.178 -39.610  1.00  0.00     0.000 C 
BRANCH  17  18
ATOM     18  C   UNL     1      22.033  -5.647 -39.604  1.00  0.00     0.000 C 
BRANCH  18  19
ATOM     19  C   UNL     1      21.493  -5.030 -40.900  1.00  0.00     0.000 C 
BRANCH  19  20
ATOM     20  C   UNL     1      20.696  -3.749 -40.605  1.00  0.00     0.000 C 
BRANCH  20  21
ATOM     21  C   UNL     1      20.242  -3.652 -39.139  1.00  0.00     0.000 C 
BRANCH  21  22
ATOM     22  C   UNL     1      20.148  -2.196 -38.645  1.00  0.00    -0.000 C 
BRANCH  22  23
ATOM     23  C   UNL     1      20.070  -2.093 -37.111  1.00  0.00    -0.000 C 
BRANCH  23  24
ATOM     24  C   UNL     1      21.424  -1.880 -36.409  1.00  0.00    -0.000 C 
BRANCH  24  25
ATOM     25  C   UNL     1      22.336  -3.118 -36.475  1.00  0.00    -0.000 C 
BRANCH  25  26
ATOM     26  C   UNL     1      23.742  -2.786 -37.015  1.00  0.00    -0.000 C 
BRANCH  26  27
ATOM     27  C   UNL     1      23.858  -2.880 -38.549  1.00  0.00    -0.000 C 
BRANCH  27  28
ATOM     28  C   UNL     1      25.297  -2.946 -39.094  1.00  0.00    -0.000 C 
BRANCH  28  29
ATOM     29  C   UNL     1      26.262  -3.817 -38.269  1.00  0.00    -0.003 C 
ATOM     30  C   UNL     1      27.725  -3.403 -38.423  1.00  0.00     0.004 C 
ENDBRANCH  28  29
ENDBRANCH  27  28
ENDBRANCH  26  27
ENDBRANCH  25  26
ENDBRANCH  24  25
ENDBRANCH  23  24
ENDBRANCH  22  23
ENDBRANCH  21  22
ENDBRANCH  20  21
ENDBRANCH  19  20
ENDBRANCH  18  19
ENDBRANCH  17  18
ENDBRANCH   1  17
TORSDOF 26
ENDMDL
MODEL 9
REMARK VINA RESULT:    -4.496      1.223      3.516
REMARK INTER + INTRA:         -14.636
REMARK INTER:                 -11.925
REMARK INTRA:                  -2.711
REMARK UNBOUND:                -3.305
REMARK SMILES CCCCCCCCCCCCCCCCCCCCCCCCCCCC(=O)[O-]
REMARK SMILES IDX 15 1 16 2 17 3 18 4 19 5 20 6 21 7 22 8 23 9 24 10 25 11
REMARK SMILES IDX 26 12 27 13 28 14 29 15 30 16 14 17 13 18 12 19 11 20 10 21
REMARK SMILES IDX 9 22 8 23 7 24 6 25 5 26 4 27 3 28 2 29 1 30
REMARK H PARENT
REMARK Flexibility Score: inf
ROOT
ATOM      1  C   UNL     1      24.994  -9.446 -38.646  1.00  0.00     0.000 C 
ENDROOT
BRANCH   1   2
ATOM      2  C   UNL     1      24.273  -9.481 -40.009  1.00  0.00     0.000 C 
BRANCH   2   3
ATOM      3  C   UNL     1      24.631 -10.698 -40.884  1.00  0.00     0.000 C 
BRANCH   3   4
ATOM      4  C   UNL     1      25.080 -11.925 -40.058  1.00  0.00     0.000 C 
BRANCH   4   5
ATOM      5  C   UNL     1      24.652 -13.247 -40.703  1.00  0.00     0.000 C 
BRANCH   5   6
ATOM      6  C   UNL     1      24.680 -14.391 -39.677  1.00  0.00     0.000 C 
BRANCH   6   7
ATOM      7  C   UNL     1      23.541 -15.406 -39.881  1.00  0.00     0.000 C 
BRANCH   7   8
ATOM      8  C   UNL     1      23.347 -15.847 -41.348  1.00  0.00     0.000 C 
BRANCH   8   9
ATOM      9  C   UNL     1      24.552 -16.600 -41.948  1.00  0.00     0.000 C 
BRANCH   9  10
ATOM     10  C   UNL     1      25.096 -17.731 -41.053  1.00  0.00     0.000 C 
BRANCH  10  11
ATOM     11  C   UNL     1      25.615 -18.925 -41.871  1.00  0.00     0.000 C 
BRANCH  11  12
ATOM     12  C   UNL     1      26.461 -18.502 -43.085  1.00  0.00     0.006 C 
BRANCH  12  13
ATOM     13  C   UNL     1      27.951 -18.871 -42.966  1.00  0.00     0.053 C 
BRANCH  13  14
ATOM     14  C   UNL     1      28.197 -20.345 -43.096  1.00  0.00     0.041 C 
ATOM     15  O   UNL     1      29.012 -20.922 -42.330  1.00  0.00    -0.550 OA
ATOM     16  O   UNL     1      27.497 -21.089 -44.037  1.00  0.00    -0.550 OA
ENDBRANCH  13  14
ENDBRANCH  12  13
ENDBRANCH  11  12
ENDBRANCH  10  11
ENDBRANCH   9  10
ENDBRANCH   8   9
ENDBRANCH   7   8
ENDBRANCH   6   7
ENDBRANCH   5   6
ENDBRANCH   4   5
ENDBRANCH   3   4
ENDBRANCH   2   3
ENDBRANCH   1   2
BRANCH   1  17
ATOM     17  C   UNL     1      25.229  -8.040 -38.070  1.00  0.00     0.000 C 
BRANCH  17  18
ATOM     18  C   UNL     1      25.884  -7.084 -39.082  1.00  0.00     0.000 C 
BRANCH  18  19
ATOM     19  C   UNL     1      27.011  -6.272 -38.432  1.00  0.00     0.000 C 
BRANCH  19  20
ATOM     20  C   UNL     1      26.443  -5.082 -37.641  1.00  0.00     0.000 C 
BRANCH  20  21
ATOM     21  C   UNL     1      25.081  -4.607 -38.173  1.00  0.00     0.000 C 
BRANCH  21  22
ATOM     22  C   UNL     1      25.208  -3.416 -39.141  1.00  0.00    -0.000 C 
BRANCH  22  23
ATOM     23  C   UNL     1      24.289  -2.240 -38.759  1.00  0.00    -0.000 C 
BRANCH  23  24
ATOM     24  C   UNL     1      23.535  -2.417 -37.428  1.00  0.00    -0.000 C 
BRANCH  24  25
ATOM     25  C   UNL     1      22.045  -2.747 -37.622  1.00  0.00    -0.000 C 
BRANCH  25  26
ATOM     26  C   UNL     1      21.619  -4.019 -36.860  1.00  0.00    -0.000 C 
BRANCH  26  27
ATOM     27  C   UNL     1      20.965  -5.091 -37.754  1.00  0.00    -0.000 C 
BRANCH  27  28
ATOM     28  C   UNL     1      21.859  -6.301 -38.082  1.00  0.00    -0.000 C 
BRANCH  28  29
ATOM     29  C   UNL     1      22.215  -6.458 -39.572  1.00  0.00    -0.003 C 
ATOM     30  C   UNL     1      21.990  -5.179 -40.379  1.00  0.00     0.004 C 
ENDBRANCH  28  29
ENDBRANCH  27  28
ENDBRANCH  26  27
ENDBRANCH  25  26
ENDBRANCH  24  25
ENDBRANCH  23  24
ENDBRANCH  22  23
ENDBRANCH  21  22
ENDBRANCH  20  21
ENDBRANCH  19  20
ENDBRANCH  18  19
ENDBRANCH  17  18
ENDBRANCH   1  17
TORSDOF 26
ENDMDL
