MODEL 1
REMARK VINA RESULT:    -6.053      0.000      0.000
REMARK INTER + INTRA:          -7.590
REMARK INTER:                  -7.291
REMARK INTRA:                  -0.299
REMARK UNBOUND:                -0.299
REMARK SMILES O=c1c(O)c(-c2ccc(O)c(O)c2)oc2cc(O)cc(O)c12
REMARK SMILES IDX 5 1 3 2 2 3 1 4 22 5 20 6 19 7 17 8 16 9 15 10 14 11 6 12
REMARK SMILES IDX 7 13 8 14 9 15 13 16 11 17 10 18 12 20 4 22 21 24 18 26
REMARK H PARENT 10 19 12 21 4 23 21 25 18 27
REMARK Flexibility Score: inf
ROOT
ATOM      1  C   UNL     1      13.189  20.031 -11.023  1.00  0.00     0.180 A 
ATOM      2  C   UNL     1      12.377  20.809 -10.179  1.00  0.00     0.208 A 
ATOM      3  C   UNL     1      11.185  20.257  -9.682  1.00  0.00     0.238 A 
ATOM      4  O   UNL     1      10.436  20.977  -8.972  1.00  0.00    -0.285 OA
ATOM      5  C   UNL     1      10.828  18.930 -10.022  1.00  0.00     0.111 A 
ATOM      6  C   UNL     1       9.664  18.256  -9.544  1.00  0.00     0.134 A 
ATOM      7  C   UNL     1       9.342  16.990 -10.049  1.00  0.00     0.093 A 
ATOM      8  C   UNL     1      10.176  16.347 -10.964  1.00  0.00     0.123 A 
ATOM      9  C   UNL     1      11.348  16.972 -11.393  1.00  0.00     0.094 A 
ATOM     10  C   UNL     1      11.676  18.250 -10.934  1.00  0.00     0.146 A 
ATOM     11  O   UNL     1      12.794  18.814 -11.375  1.00  0.00    -0.452 OA
ENDROOT
BRANCH   1  12
ATOM     12  C   UNL     1      14.472  20.535 -11.565  1.00  0.00     0.025 A 
ATOM     13  C   UNL     1      15.636  20.569 -10.778  1.00  0.00     0.016 A 
ATOM     14  C   UNL     1      16.842  21.025 -11.318  1.00  0.00     0.051 A 
ATOM     15  C   UNL     1      16.903  21.442 -12.655  1.00  0.00     0.157 A 
ATOM     16  C   UNL     1      14.544  20.934 -12.910  1.00  0.00     0.062 A 
ATOM     17  C   UNL     1      15.753  21.392 -13.452  1.00  0.00     0.158 A 
BRANCH  15  18
ATOM     18  O   UNL     1      18.103  21.899 -13.197  1.00  0.00    -0.504 OA
ATOM     19  H   UNL     1      18.142  22.319 -14.119  1.00  0.00     0.293 HD
ENDBRANCH  15  18
BRANCH  17  20
ATOM     20  O   UNL     1      15.820  21.801 -14.784  1.00  0.00    -0.504 OA
ATOM     21  H   UNL     1      15.121  22.415 -15.185  1.00  0.00     0.293 HD
ENDBRANCH  17  20
ENDBRANCH   1  12
BRANCH   2  22
ATOM     22  O   UNL     1      12.737  22.125  -9.874  1.00  0.00    -0.502 OA
ATOM     23  H   UNL     1      12.151  22.733  -9.316  1.00  0.00     0.293 HD
ENDBRANCH   2  22
BRANCH   6  24
ATOM     24  O   UNL     1       8.813  18.771  -8.561  1.00  0.00    -0.507 OA
ATOM     25  H   UNL     1       8.306  19.639  -8.638  1.00  0.00     0.293 HD
ENDBRANCH   6  24
BRANCH   8  26
ATOM     26  O   UNL     1       9.833  15.081 -11.433  1.00  0.00    -0.508 OA
ATOM     27  H   UNL     1      10.419  14.585 -12.095  1.00  0.00     0.293 HD
ENDBRANCH   8  26
TORSDOF 6
ENDMDL
MODEL 2
REMARK VINA RESULT:    -6.003      1.696      3.132
REMARK INTER + INTRA:          -7.531
REMARK INTER:                  -7.204
REMARK INTRA:                  -0.327
REMARK UNBOUND:                -0.299
REMARK SMILES O=c1c(O)c(-c2ccc(O)c(O)c2)oc2cc(O)cc(O)c12
REMARK SMILES IDX 5 1 3 2 2 3 1 4 22 5 20 6 19 7 17 8 16 9 15 10 14 11 6 12
REMARK SMILES IDX 7 13 8 14 9 15 13 16 11 17 10 18 12 20 4 22 21 24 18 26
REMARK H PARENT 10 19 12 21 4 23 21 25 18 27
REMARK Flexibility Score: inf
ROOT
ATOM      1  C   UNL     1      12.825  19.274 -10.733  1.00  0.00     0.180 A 
ATOM      2  C   UNL     1      12.877  17.916 -10.372  1.00  0.00     0.208 A 
ATOM      3  C   UNL     1      11.713  17.293  -9.894  1.00  0.00     0.238 A 
ATOM      4  O   UNL     1      11.780  16.093  -9.520  1.00  0.00    -0.285 OA
ATOM      5  C   UNL     1      10.508  18.030  -9.799  1.00  0.00     0.111 A 
ATOM      6  C   UNL     1       9.259  17.490  -9.367  1.00  0.00     0.134 A 
ATOM      7  C   UNL     1       8.163  18.342  -9.187  1.00  0.00     0.093 A 
ATOM      8  C   UNL     1       8.251  19.701  -9.486  1.00  0.00     0.123 A 
ATOM      9  C   UNL     1       9.450  20.229  -9.967  1.00  0.00     0.094 A 
ATOM     10  C   UNL     1      10.571  19.410 -10.122  1.00  0.00     0.146 A 
ATOM     11  O   UNL     1      11.696  19.954 -10.571  1.00  0.00    -0.452 OA
ENDROOT
BRANCH   1  12
ATOM     12  C   UNL     1      14.004  19.993 -11.269  1.00  0.00     0.025 A 
ATOM     13  C   UNL     1      14.241  20.082 -12.651  1.00  0.00     0.016 A 
ATOM     14  C   UNL     1      15.347  20.788 -13.135  1.00  0.00     0.051 A 
ATOM     15  C   UNL     1      16.224  21.422 -12.245  1.00  0.00     0.157 A 
ATOM     16  C   UNL     1      14.874  20.649 -10.382  1.00  0.00     0.062 A 
ATOM     17  C   UNL     1      15.984  21.356 -10.867  1.00  0.00     0.158 A 
BRANCH  15  18
ATOM     18  O   UNL     1      17.328  22.124 -12.722  1.00  0.00    -0.504 OA
ATOM     19  H   UNL     1      17.847  21.809 -13.534  1.00  0.00     0.293 HD
ENDBRANCH  15  18
BRANCH  17  20
ATOM     20  O   UNL     1      16.854  21.995  -9.984  1.00  0.00    -0.504 OA
ATOM     21  H   UNL     1      17.567  22.635 -10.314  1.00  0.00     0.293 HD
ENDBRANCH  17  20
ENDBRANCH   1  12
BRANCH   2  22
ATOM     22  O   UNL     1      14.083  17.214 -10.452  1.00  0.00    -0.502 OA
ATOM     23  H   UNL     1      14.984  17.674 -10.425  1.00  0.00     0.293 HD
ENDBRANCH   2  22
BRANCH   6  24
ATOM     24  O   UNL     1       9.039  16.129  -9.129  1.00  0.00    -0.507 OA
ATOM     25  H   UNL     1       9.252  15.390  -9.780  1.00  0.00     0.293 HD
ENDBRANCH   6  24
BRANCH   8  26
ATOM     26  O   UNL     1       7.135  20.516  -9.311  1.00  0.00    -0.508 OA
ATOM     27  H   UNL     1       6.223  20.248  -9.663  1.00  0.00     0.293 HD
ENDBRANCH   8  26
TORSDOF 6
ENDMDL
MODEL 3
REMARK VINA RESULT:    -5.920     15.702     18.095
REMARK INTER + INTRA:          -7.431
REMARK INTER:                  -7.132
REMARK INTRA:                  -0.298
REMARK UNBOUND:                -0.299
REMARK SMILES O=c1c(O)c(-c2ccc(O)c(O)c2)oc2cc(O)cc(O)c12
REMARK SMILES IDX 5 1 3 2 2 3 1 4 22 5 20 6 19 7 17 8 16 9 15 10 14 11 6 12
REMARK SMILES IDX 7 13 8 14 9 15 13 16 11 17 10 18 12 20 4 22 21 24 18 26
REMARK H PARENT 10 19 12 21 4 23 21 25 18 27
REMARK Flexibility Score: inf
ROOT
ATOM      1  C   UNL     1      20.238   4.495 -10.127  1.00  0.00     0.180 A 
ATOM      2  C   UNL     1      20.758   3.203  -9.936  1.00  0.00     0.208 A 
ATOM      3  C   UNL     1      22.036   3.059  -9.373  1.00  0.00     0.238 A 
ATOM      4  O   UNL     1      22.518   1.902  -9.255  1.00  0.00    -0.285 OA
ATOM      5  C   UNL     1      22.771   4.207  -8.993  1.00  0.00     0.111 A 
ATOM      6  C   UNL     1      24.058   4.178  -8.376  1.00  0.00     0.134 A 
ATOM      7  C   UNL     1      24.749   5.377  -8.162  1.00  0.00     0.093 A 
ATOM      8  C   UNL     1      24.174   6.607  -8.481  1.00  0.00     0.123 A 
ATOM      9  C   UNL     1      22.891   6.650  -9.029  1.00  0.00     0.094 A 
ATOM     10  C   UNL     1      22.192   5.469  -9.288  1.00  0.00     0.146 A 
ATOM     11  O   UNL     1      20.979   5.553  -9.820  1.00  0.00    -0.452 OA
ENDROOT
BRANCH   1  12
ATOM     12  C   UNL     1      18.888   4.726 -10.692  1.00  0.00     0.025 A 
ATOM     13  C   UNL     1      17.792   5.029  -9.866  1.00  0.00     0.016 A 
ATOM     14  C   UNL     1      16.532   5.268 -10.424  1.00  0.00     0.051 A 
ATOM     15  C   UNL     1      16.354   5.219 -11.813  1.00  0.00     0.157 A 
ATOM     16  C   UNL     1      18.709   4.700 -12.085  1.00  0.00     0.062 A 
ATOM     17  C   UNL     1      17.445   4.938 -12.644  1.00  0.00     0.158 A 
BRANCH  15  18
ATOM     18  O   UNL     1      15.100   5.454 -12.373  1.00  0.00    -0.504 OA
ATOM     19  H   UNL     1      14.484   6.173 -12.010  1.00  0.00     0.293 HD
ENDBRANCH  15  18
BRANCH  17  20
ATOM     20  O   UNL     1      17.266   4.898 -14.027  1.00  0.00    -0.504 OA
ATOM     21  H   UNL     1      17.947   4.461 -14.637  1.00  0.00     0.293 HD
ENDBRANCH  17  20
ENDBRANCH   1  12
BRANCH   2  22
ATOM     22  O   UNL     1      20.024   2.083 -10.339  1.00  0.00    -0.502 OA
ATOM     23  H   UNL     1      19.319   1.655  -9.752  1.00  0.00     0.293 HD
ENDBRANCH   2  22
BRANCH   6  24
ATOM     24  O   UNL     1      24.685   3.009  -7.933  1.00  0.00    -0.507 OA
ATOM     25  H   UNL     1      24.209   2.145  -7.726  1.00  0.00     0.293 HD
ENDBRANCH   6  24
BRANCH   8  26
ATOM     26  O   UNL     1      24.884   7.781  -8.240  1.00  0.00    -0.508 OA
ATOM     27  H   UNL     1      24.650   8.647  -8.710  1.00  0.00     0.293 HD
ENDBRANCH   8  26
TORSDOF 6
ENDMDL
MODEL 4
REMARK VINA RESULT:    -5.762      1.609      6.863
REMARK INTER + INTRA:          -7.240
REMARK INTER:                  -6.925
REMARK INTRA:                  -0.315
REMARK UNBOUND:                -0.299
REMARK SMILES O=c1c(O)c(-c2ccc(O)c(O)c2)oc2cc(O)cc(O)c12
REMARK SMILES IDX 5 1 3 2 2 3 1 4 22 5 20 6 19 7 17 8 16 9 15 10 14 11 6 12
REMARK SMILES IDX 7 13 8 14 9 15 13 16 11 17 10 18 12 20 4 22 21 24 18 26
REMARK H PARENT 10 19 12 21 4 23 21 25 18 27
REMARK Flexibility Score: inf
ROOT
ATOM      1  C   UNL     1      13.060  19.966 -10.324  1.00  0.00     0.180 A 
ATOM      2  C   UNL     1      13.936  20.181  -9.245  1.00  0.00     0.208 A 
ATOM      3  C   UNL     1      15.205  20.727  -9.495  1.00  0.00     0.238 A 
ATOM      4  O   UNL     1      16.005  20.865  -8.533  1.00  0.00    -0.285 OA
ATOM      5  C   UNL     1      15.577  21.067 -10.818  1.00  0.00     0.111 A 
ATOM      6  C   UNL     1      16.821  21.664 -11.183  1.00  0.00     0.134 A 
ATOM      7  C   UNL     1      17.134  21.838 -12.536  1.00  0.00     0.093 A 
ATOM      8  C   UNL     1      16.222  21.498 -13.536  1.00  0.00     0.123 A 
ATOM      9  C   UNL     1      14.979  20.970 -13.188  1.00  0.00     0.094 A 
ATOM     10  C   UNL     1      14.653  20.751 -11.848  1.00  0.00     0.146 A 
ATOM     11  O   UNL     1      13.463  20.236 -11.560  1.00  0.00    -0.452 OA
ENDROOT
BRANCH   1  12
ATOM     12  C   UNL     1      11.698  19.418 -10.136  1.00  0.00     0.025 A 
ATOM     13  C   UNL     1      11.469  18.033 -10.068  1.00  0.00     0.016 A 
ATOM     14  C   UNL     1      10.177  17.539  -9.864  1.00  0.00     0.051 A 
ATOM     15  C   UNL     1       9.099  18.421  -9.715  1.00  0.00     0.157 A 
ATOM     16  C   UNL     1      10.617  20.298  -9.963  1.00  0.00     0.062 A 
ATOM     17  C   UNL     1       9.321  19.803  -9.760  1.00  0.00     0.158 A 
BRANCH  15  18
ATOM     18  O   UNL     1       7.810  17.933  -9.514  1.00  0.00    -0.504 OA
ATOM     19  H   UNL     1       7.330  17.395 -10.227  1.00  0.00     0.293 HD
ENDBRANCH  15  18
BRANCH  17  20
ATOM     20  O   UNL     1       8.247  20.679  -9.603  1.00  0.00    -0.504 OA
ATOM     21  H   UNL     1       7.825  20.842  -8.696  1.00  0.00     0.293 HD
ENDBRANCH  17  20
ENDBRANCH   1  12
BRANCH   2  22
ATOM     22  O   UNL     1      13.558  19.816  -7.950  1.00  0.00    -0.502 OA
ATOM     23  H   UNL     1      13.354  18.859  -7.692  1.00  0.00     0.293 HD
ENDBRANCH   2  22
BRANCH   6  24
ATOM     24  O   UNL     1      17.766  22.125 -10.260  1.00  0.00    -0.507 OA
ATOM     25  H   UNL     1      18.446  22.845 -10.445  1.00  0.00     0.293 HD
ENDBRANCH   6  24
BRANCH   8  26
ATOM     26  O   UNL     1      16.561  21.699 -14.872  1.00  0.00    -0.508 OA
ATOM     27  H   UNL     1      15.865  21.958 -15.561  1.00  0.00     0.293 HD
ENDBRANCH   8  26
TORSDOF 6
ENDMDL
MODEL 5
REMARK VINA RESULT:    -5.518     14.555     17.270
REMARK INTER + INTRA:          -6.946
REMARK INTER:                  -6.674
REMARK INTRA:                  -0.272
REMARK UNBOUND:                -0.299
REMARK SMILES O=c1c(O)c(-c2ccc(O)c(O)c2)oc2cc(O)cc(O)c12
REMARK SMILES IDX 5 1 3 2 2 3 1 4 22 5 20 6 19 7 17 8 16 9 15 10 14 11 6 12
REMARK SMILES IDX 7 13 8 14 9 15 13 16 11 17 10 18 12 20 4 22 21 24 18 26
REMARK H PARENT 10 19 12 21 4 23 21 25 18 27
REMARK Flexibility Score: inf
ROOT
ATOM      1  C   UNL     1      18.401   4.680 -10.345  1.00  0.00     0.180 A 
ATOM      2  C   UNL     1      18.866   3.406 -10.717  1.00  0.00     0.208 A 
ATOM      3  C   UNL     1      20.183   3.040 -10.395  1.00  0.00     0.238 A 
ATOM      4  O   UNL     1      20.610   1.920 -10.779  1.00  0.00    -0.285 OA
ATOM      5  C   UNL     1      21.013   3.946  -9.692  1.00  0.00     0.111 A 
ATOM      6  C   UNL     1      22.350   3.666  -9.278  1.00  0.00     0.134 A 
ATOM      7  C   UNL     1      23.123   4.682  -8.703  1.00  0.00     0.093 A 
ATOM      8  C   UNL     1      22.587   5.948  -8.467  1.00  0.00     0.123 A 
ATOM      9  C   UNL     1      21.262   6.215  -8.812  1.00  0.00     0.094 A 
ATOM     10  C   UNL     1      20.478   5.232  -9.421  1.00  0.00     0.146 A 
ATOM     11  O   UNL     1      19.225   5.530  -9.744  1.00  0.00    -0.452 OA
ENDROOT
BRANCH   1  12
ATOM     12  C   UNL     1      17.018   5.127 -10.628  1.00  0.00     0.025 A 
ATOM     13  C   UNL     1      16.046   5.184  -9.614  1.00  0.00     0.016 A 
ATOM     14  C   UNL     1      14.753   5.633  -9.899  1.00  0.00     0.051 A 
ATOM     15  C   UNL     1      14.418   6.043 -11.197  1.00  0.00     0.157 A 
ATOM     16  C   UNL     1      16.683   5.559 -11.921  1.00  0.00     0.062 A 
ATOM     17  C   UNL     1      15.386   6.009 -12.208  1.00  0.00     0.158 A 
BRANCH  15  18
ATOM     18  O   UNL     1      13.130   6.489 -11.485  1.00  0.00    -0.504 OA
ATOM     19  H   UNL     1      12.465   5.906 -11.980  1.00  0.00     0.293 HD
ENDBRANCH  15  18
BRANCH  17  20
ATOM     20  O   UNL     1      15.051   6.425 -13.496  1.00  0.00    -0.504 OA
ATOM     21  H   UNL     1      15.696   6.961 -14.064  1.00  0.00     0.293 HD
ENDBRANCH  17  20
ENDBRANCH   1  12
BRANCH   2  22
ATOM     22  O   UNL     1      18.037   2.536 -11.431  1.00  0.00    -0.502 OA
ATOM     23  H   UNL     1      17.495   2.836 -12.232  1.00  0.00     0.293 HD
ENDBRANCH   2  22
BRANCH   6  24
ATOM     24  O   UNL     1      22.953   2.408  -9.383  1.00  0.00    -0.507 OA
ATOM     25  H   UNL     1      22.946   1.705  -8.660  1.00  0.00     0.293 HD
ENDBRANCH   6  24
BRANCH   8  26
ATOM     26  O   UNL     1      23.380   6.931  -7.878  1.00  0.00    -0.508 OA
ATOM     27  H   UNL     1      23.867   6.765  -7.005  1.00  0.00     0.293 HD
ENDBRANCH   8  26
TORSDOF 6
ENDMDL
MODEL 6
REMARK VINA RESULT:    -5.328      2.546      8.206
REMARK INTER + INTRA:          -6.718
REMARK INTER:                  -6.450
REMARK INTRA:                  -0.268
REMARK UNBOUND:                -0.299
REMARK SMILES O=c1c(O)c(-c2ccc(O)c(O)c2)oc2cc(O)cc(O)c12
REMARK SMILES IDX 5 1 3 2 2 3 1 4 22 5 20 6 19 7 17 8 16 9 15 10 14 11 6 12
REMARK SMILES IDX 7 13 8 14 9 15 13 16 11 17 10 18 12 20 4 22 21 24 18 26
REMARK H PARENT 10 19 12 21 4 23 21 25 18 27
REMARK Flexibility Score: inf
ROOT
ATOM      1  C   UNL     1      16.441  21.284 -12.837  1.00  0.00     0.180 A 
ATOM      2  C   UNL     1      17.692  21.238 -12.196  1.00  0.00     0.208 A 
ATOM      3  C   UNL     1      18.855  21.435 -12.956  1.00  0.00     0.238 A 
ATOM      4  O   UNL     1      19.974  21.338 -12.387  1.00  0.00    -0.285 OA
ATOM      5  C   UNL     1      18.754  21.692 -14.345  1.00  0.00     0.111 A 
ATOM      6  C   UNL     1      19.864  21.947 -15.206  1.00  0.00     0.134 A 
ATOM      7  C   UNL     1      19.656  22.060 -16.586  1.00  0.00     0.093 A 
ATOM      8  C   UNL     1      18.373  21.993 -17.129  1.00  0.00     0.123 A 
ATOM      9  C   UNL     1      17.275  21.804 -16.290  1.00  0.00     0.094 A 
ATOM     10  C   UNL     1      17.454  21.652 -14.913  1.00  0.00     0.146 A 
ATOM     11  O   UNL     1      16.383  21.463 -14.151  1.00  0.00    -0.452 OA
ENDROOT
BRANCH   1  12
ATOM     12  C   UNL     1      15.170  21.111 -12.097  1.00  0.00     0.025 A 
ATOM     13  C   UNL     1      14.667  22.121 -11.259  1.00  0.00     0.016 A 
ATOM     14  C   UNL     1      13.452  21.945 -10.591  1.00  0.00     0.051 A 
ATOM     15  C   UNL     1      12.718  20.763 -10.759  1.00  0.00     0.157 A 
ATOM     16  C   UNL     1      14.420  19.937 -12.279  1.00  0.00     0.062 A 
ATOM     17  C   UNL     1      13.202  19.760 -11.608  1.00  0.00     0.158 A 
BRANCH  15  18
ATOM     18  O   UNL     1      11.508  20.583 -10.093  1.00  0.00    -0.504 OA
ATOM     19  H   UNL     1      11.316  21.040  -9.209  1.00  0.00     0.293 HD
ENDBRANCH  15  18
BRANCH  17  20
ATOM     20  O   UNL     1      12.465  18.588 -11.779  1.00  0.00    -0.504 OA
ATOM     21  H   UNL     1      11.561  18.462 -11.339  1.00  0.00     0.293 HD
ENDBRANCH  17  20
ENDBRANCH   1  12
BRANCH   2  22
ATOM     22  O   UNL     1      17.771  20.960 -10.828  1.00  0.00    -0.502 OA
ATOM     23  H   UNL     1      18.387  20.250 -10.452  1.00  0.00     0.293 HD
ENDBRANCH   2  22
BRANCH   6  24
ATOM     24  O   UNL     1      21.176  22.124 -14.755  1.00  0.00    -0.507 OA
ATOM     25  H   UNL     1      21.430  22.568 -13.886  1.00  0.00     0.293 HD
ENDBRANCH   6  24
BRANCH   8  26
ATOM     26  O   UNL     1      18.203  22.125 -18.505  1.00  0.00    -0.508 OA
ATOM     27  H   UNL     1      17.283  22.239 -18.916  1.00  0.00     0.293 HD
ENDBRANCH   8  26
TORSDOF 6
ENDMDL
MODEL 7
REMARK VINA RESULT:    -5.263      1.834      7.168
REMARK INTER + INTRA:          -6.640
REMARK INTER:                  -6.307
REMARK INTRA:                  -0.333
REMARK UNBOUND:                -0.299
REMARK SMILES O=c1c(O)c(-c2ccc(O)c(O)c2)oc2cc(O)cc(O)c12
REMARK SMILES IDX 5 1 3 2 2 3 1 4 22 5 20 6 19 7 17 8 16 9 15 10 14 11 6 12
REMARK SMILES IDX 7 13 8 14 9 15 13 16 11 17 10 18 12 20 4 22 21 24 18 26
REMARK H PARENT 10 19 12 21 4 23 21 25 18 27
REMARK Flexibility Score: inf
ROOT
ATOM      1  C   UNL     1      12.429  19.114 -10.391  1.00  0.00     0.180 A 
ATOM      2  C   UNL     1      12.804  19.192 -11.744  1.00  0.00     0.208 A 
ATOM      3  C   UNL     1      14.012  19.822 -12.082  1.00  0.00     0.238 A 
ATOM      4  O   UNL     1      14.315  19.936 -13.298  1.00  0.00    -0.285 OA
ATOM      5  C   UNL     1      14.839  20.351 -11.063  1.00  0.00     0.111 A 
ATOM      6  C   UNL     1      16.104  20.975 -11.286  1.00  0.00     0.134 A 
ATOM      7  C   UNL     1      16.775  21.580 -10.217  1.00  0.00     0.093 A 
ATOM      8  C   UNL     1      16.261  21.526  -8.921  1.00  0.00     0.123 A 
ATOM      9  C   UNL     1      15.055  20.867  -8.681  1.00  0.00     0.094 A 
ATOM     10  C   UNL     1      14.344  20.286  -9.734  1.00  0.00     0.146 A 
ATOM     11  O   UNL     1      13.195  19.678  -9.465  1.00  0.00    -0.452 OA
ENDROOT
BRANCH   1  12
ATOM     12  C   UNL     1      11.183  18.444  -9.955  1.00  0.00     0.025 A 
ATOM     13  C   UNL     1      11.156  17.070  -9.661  1.00  0.00     0.016 A 
ATOM     14  C   UNL     1       9.973  16.463  -9.227  1.00  0.00     0.051 A 
ATOM     15  C   UNL     1       8.806  17.223  -9.071  1.00  0.00     0.157 A 
ATOM     16  C   UNL     1      10.016  19.204  -9.776  1.00  0.00     0.062 A 
ATOM     17  C   UNL     1       8.829  18.596  -9.342  1.00  0.00     0.158 A 
BRANCH  15  18
ATOM     18  O   UNL     1       7.625  16.622  -8.641  1.00  0.00    -0.504 OA
ATOM     19  H   UNL     1       6.816  16.548  -9.247  1.00  0.00     0.293 HD
ENDBRANCH  15  18
BRANCH  17  20
ATOM     20  O   UNL     1       7.668  19.351  -9.178  1.00  0.00    -0.504 OA
ATOM     21  H   UNL     1       7.201  19.417  -8.281  1.00  0.00     0.293 HD
ENDBRANCH  17  20
ENDBRANCH   1  12
BRANCH   2  22
ATOM     22  O   UNL     1      11.962  18.682 -12.736  1.00  0.00    -0.502 OA
ATOM     23  H   UNL     1      11.625  19.246 -13.507  1.00  0.00     0.293 HD
ENDBRANCH   2  22
BRANCH   6  24
ATOM     24  O   UNL     1      16.751  21.003 -12.526  1.00  0.00    -0.507 OA
ATOM     25  H   UNL     1      16.735  21.783 -13.164  1.00  0.00     0.293 HD
ENDBRANCH   6  24
BRANCH   8  26
ATOM     26  O   UNL     1      16.964  22.125  -7.878  1.00  0.00    -0.508 OA
ATOM     27  H   UNL     1      17.967  22.266  -7.928  1.00  0.00     0.293 HD
ENDBRANCH   8  26
TORSDOF 6
ENDMDL
MODEL 8
REMARK VINA RESULT:    -5.222      2.138      6.923
REMARK INTER + INTRA:          -6.590
REMARK INTER:                  -6.311
REMARK INTRA:                  -0.279
REMARK UNBOUND:                -0.299
REMARK SMILES O=c1c(O)c(-c2ccc(O)c(O)c2)oc2cc(O)cc(O)c12
REMARK SMILES IDX 5 1 3 2 2 3 1 4 22 5 20 6 19 7 17 8 16 9 15 10 14 11 6 12
REMARK SMILES IDX 7 13 8 14 9 15 13 16 11 17 10 18 12 20 4 22 21 24 18 26
REMARK H PARENT 10 19 12 21 4 23 21 25 18 27
REMARK Flexibility Score: inf
ROOT
ATOM      1  C   UNL     1      12.399  19.570  -9.752  1.00  0.00     0.180 A 
ATOM      2  C   UNL     1      13.223  18.848  -8.870  1.00  0.00     0.208 A 
ATOM      3  C   UNL     1      14.616  18.916  -9.029  1.00  0.00     0.238 A 
ATOM      4  O   UNL     1      15.346  18.224  -8.272  1.00  0.00    -0.285 OA
ATOM      5  C   UNL     1      15.169  19.717 -10.057  1.00  0.00     0.111 A 
ATOM      6  C   UNL     1      16.568  19.892 -10.285  1.00  0.00     0.134 A 
ATOM      7  C   UNL     1      17.000  20.603 -11.411  1.00  0.00     0.093 A 
ATOM      8  C   UNL     1      16.088  21.201 -12.280  1.00  0.00     0.123 A 
ATOM      9  C   UNL     1      14.719  21.087 -12.033  1.00  0.00     0.094 A 
ATOM     10  C   UNL     1      14.256  20.353 -10.938  1.00  0.00     0.146 A 
ATOM     11  O   UNL     1      12.946  20.260 -10.745  1.00  0.00    -0.452 OA
ENDROOT
BRANCH   1  12
ATOM     12  C   UNL     1      10.923  19.567  -9.631  1.00  0.00     0.025 A 
ATOM     13  C   UNL     1      10.232  20.664  -9.088  1.00  0.00     0.016 A 
ATOM     14  C   UNL     1       8.836  20.650  -9.007  1.00  0.00     0.051 A 
ATOM     15  C   UNL     1       8.113  19.546  -9.478  1.00  0.00     0.157 A 
ATOM     16  C   UNL     1      10.192  18.473 -10.121  1.00  0.00     0.062 A 
ATOM     17  C   UNL     1       8.792  18.457 -10.039  1.00  0.00     0.158 A 
BRANCH  15  18
ATOM     18  O   UNL     1       6.722  19.526  -9.397  1.00  0.00    -0.504 OA
ATOM     19  H   UNL     1       6.167  20.346  -9.616  1.00  0.00     0.293 HD
ENDBRANCH  15  18
BRANCH  17  20
ATOM     20  O   UNL     1       8.069  17.364 -10.514  1.00  0.00    -0.504 OA
ATOM     21  H   UNL     1       8.527  16.583 -10.968  1.00  0.00     0.293 HD
ENDBRANCH  17  20
ENDBRANCH   1  12
BRANCH   2  22
ATOM     22  O   UNL     1      12.655  18.045  -7.876  1.00  0.00    -0.502 OA
ATOM     23  H   UNL     1      13.165  17.762  -7.049  1.00  0.00     0.293 HD
ENDBRANCH   2  22
BRANCH   6  24
ATOM     24  O   UNL     1      17.564  19.414  -9.428  1.00  0.00    -0.507 OA
ATOM     25  H   UNL     1      18.534  19.307  -9.678  1.00  0.00     0.293 HD
ENDBRANCH   6  24
BRANCH   8  26
ATOM     26  O   UNL     1      16.555  21.915 -13.382  1.00  0.00    -0.508 OA
ATOM     27  H   UNL     1      16.591  21.498 -14.305  1.00  0.00     0.293 HD
ENDBRANCH   8  26
TORSDOF 6
ENDMDL
