MODEL 1
REMARK VINA RESULT:    -6.115      0.000      0.000
REMARK INTER + INTRA:          -9.155
REMARK INTER:                  -8.976
REMARK INTRA:                  -0.180
REMARK UNBOUND:                -0.180
REMARK SMILES O=c1c(O[C@@H]2O[C@@H](CO)[C@H](O)[C@H](O)[C@@H]2O)c(-c2ccc(O)c(O)c2)oc2cc(O)cc(O)c12
REMARK SMILES IDX 4 1 3 2 16 3 25 4 2 5 26 6 1 7 33 8 27 9 31 10 28 11 30 12
REMARK SMILES IDX 17 13 18 14 19 15 20 16 24 17 22 18 21 19 23 21 32 23 29 25
REMARK SMILES IDX 5 27 14 28 6 29 12 30 7 31 10 32 15 33 13 35 8 37 9 38 11 40
REMARK H PARENT 21 20 23 22 32 24 29 26 15 34 13 36 9 39 11 41
REMARK Flexibility Score: inf
ROOT
ATOM      1  O   UNL     1       7.980  14.932 -16.472  1.00  0.00    -0.454 OA
ENDROOT
BRANCH   1   2
ATOM      2  C   UNL     1       8.109  15.576 -17.727  1.00  0.00     0.214 A 
ATOM      3  C   UNL     1       8.041  16.981 -17.966  1.00  0.00     0.180 A 
ATOM      4  O   UNL     1       8.262  17.452 -19.189  1.00  0.00    -0.452 OA
ATOM      5  C   UNL     1       8.367  14.739 -18.822  1.00  0.00     0.239 A 
ATOM      6  C   UNL     1       8.519  16.686 -20.238  1.00  0.00     0.146 A 
ATOM      7  O   UNL     1       8.444  13.492 -18.634  1.00  0.00    -0.285 OA
ATOM      8  C   UNL     1       8.568  15.280 -20.107  1.00  0.00     0.111 A 
ATOM      9  C   UNL     1       8.744  17.285 -21.482  1.00  0.00     0.094 A 
ATOM     10  C   UNL     1       8.800  14.488 -21.258  1.00  0.00     0.134 A 
ATOM     11  C   UNL     1       8.969  16.502 -22.616  1.00  0.00     0.123 A 
ATOM     12  C   UNL     1       8.990  15.105 -22.505  1.00  0.00     0.093 A 
BRANCH   3  13
ATOM     13  C   UNL     1       7.741  17.981 -16.936  1.00  0.00     0.025 A 
ATOM     14  C   UNL     1       7.685  19.332 -17.283  1.00  0.00     0.016 A 
ATOM     15  C   UNL     1       7.463  20.304 -16.302  1.00  0.00     0.051 A 
ATOM     16  C   UNL     1       7.240  19.929 -14.971  1.00  0.00     0.157 A 
ATOM     17  C   UNL     1       7.396  17.588 -15.632  1.00  0.00     0.062 A 
ATOM     18  C   UNL     1       7.165  18.552 -14.641  1.00  0.00     0.158 A 
BRANCH  16  19
ATOM     19  O   UNL     1       7.111  20.942 -14.015  1.00  0.00    -0.504 OA
ATOM     20  H   UNL     1       7.021  20.760 -13.027  1.00  0.00     0.293 HD
ENDBRANCH  16  19
BRANCH  18  21
ATOM     21  O   UNL     1       6.877  18.106 -13.352  1.00  0.00    -0.504 OA
ATOM     22  H   UNL     1       7.445  17.435 -12.853  1.00  0.00     0.293 HD
ENDBRANCH  18  21
ENDBRANCH   3  13
BRANCH  10  23
ATOM     23  O   UNL     1       8.853  13.095 -21.171  1.00  0.00    -0.507 OA
ATOM     24  H   UNL     1       8.520  12.496 -21.917  1.00  0.00     0.293 HD
ENDBRANCH  10  23
BRANCH  11  25
ATOM     25  O   UNL     1       9.188  17.120 -23.846  1.00  0.00    -0.508 OA
ATOM     26  H   UNL     1       9.716  16.663 -24.580  1.00  0.00     0.293 HD
ENDBRANCH  11  25
ENDBRANCH   1   2
BRANCH   1  27
ATOM     27  C   UNL     1       8.909  14.906 -15.385  1.00  0.00     0.339 C 
ATOM     28  C   UNL     1       8.908  13.525 -14.685  1.00  0.00     0.214 C 
ATOM     29  O   UNL     1      10.207  15.296 -15.806  1.00  0.00    -0.332 OA
ATOM     30  C   UNL     1       9.781  12.464 -15.417  1.00  0.00     0.180 C 
ATOM     31  C   UNL     1      10.740  14.388 -16.749  1.00  0.00     0.179 C 
ATOM     32  C   UNL     1      11.068  13.078 -16.009  1.00  0.00     0.177 C 
BRANCH  28  33
ATOM     33  O   UNL     1       7.575  13.073 -14.584  1.00  0.00    -0.384 OA
ATOM     34  H   UNL     1       7.002  13.861 -14.385  1.00  0.00     0.211 HD
ENDBRANCH  28  33
BRANCH  30  35
ATOM     35  O   UNL     1       9.034  11.756 -16.378  1.00  0.00    -0.387 OA
ATOM     36  H   UNL     1       8.837  10.848 -16.023  1.00  0.00     0.211 HD
ENDBRANCH  30  35
BRANCH  31  37
ATOM     37  C   UNL     1      11.981  15.025 -17.399  1.00  0.00     0.191 C 
BRANCH  37  38
ATOM     38  O   UNL     1      11.622  15.993 -18.358  1.00  0.00    -0.394 OA
ATOM     39  H   UNL     1      10.762  15.691 -18.760  1.00  0.00     0.210 HD
ENDBRANCH  37  38
ENDBRANCH  31  37
BRANCH  32  40
ATOM     40  O   UNL     1      11.748  12.159 -16.824  1.00  0.00    -0.387 OA
ATOM     41  H   UNL     1      12.260  12.669 -17.509  1.00  0.00     0.211 HD
ENDBRANCH  32  40
ENDBRANCH   1  27
TORSDOF 12
ENDMDL
MODEL 2
REMARK VINA RESULT:    -5.923      1.576      6.491
REMARK INTER + INTRA:          -8.873
REMARK INTER:                  -7.372
REMARK INTRA:                  -1.501
REMARK UNBOUND:                -0.180
REMARK SMILES O=c1c(O[C@@H]2O[C@@H](CO)[C@H](O)[C@H](O)[C@@H]2O)c(-c2ccc(O)c(O)c2)oc2cc(O)cc(O)c12
REMARK SMILES IDX 4 1 3 2 16 3 25 4 2 5 26 6 1 7 33 8 27 9 31 10 28 11 30 12
REMARK SMILES IDX 17 13 18 14 19 15 20 16 24 17 22 18 21 19 23 21 32 23 29 25
REMARK SMILES IDX 5 27 14 28 6 29 12 30 7 31 10 32 15 33 13 35 8 37 9 38 11 40
REMARK H PARENT 21 20 23 22 32 24 29 26 15 34 13 36 9 39 11 41
REMARK Flexibility Score: inf
ROOT
ATOM      1  O   UNL     1       7.973  15.703 -18.503  1.00  0.00    -0.454 OA
ENDROOT
BRANCH   1   2
ATOM      2  C   UNL     1       7.775  16.448 -17.315  1.00  0.00     0.214 A 
ATOM      3  C   UNL     1       7.868  15.949 -15.982  1.00  0.00     0.180 A 
ATOM      4  O   UNL     1       7.737  16.784 -14.956  1.00  0.00    -0.452 OA
ATOM      5  C   UNL     1       7.500  17.812 -17.485  1.00  0.00     0.239 A 
ATOM      6  C   UNL     1       7.490  18.078 -15.087  1.00  0.00     0.146 A 
ATOM      7  O   UNL     1       7.426  18.280 -18.656  1.00  0.00    -0.285 OA
ATOM      8  C   UNL     1       7.342  18.656 -16.368  1.00  0.00     0.111 A 
ATOM      9  C   UNL     1       7.376  18.871 -13.940  1.00  0.00     0.094 A 
ATOM     10  C   UNL     1       7.031  20.034 -16.471  1.00  0.00     0.134 A 
ATOM     11  C   UNL     1       7.066  20.229 -14.044  1.00  0.00     0.123 A 
ATOM     12  C   UNL     1       6.889  20.807 -15.308  1.00  0.00     0.093 A 
BRANCH   3  13
ATOM     13  C   UNL     1       8.110  14.543 -15.639  1.00  0.00     0.025 A 
ATOM     14  C   UNL     1       7.027  13.702 -15.375  1.00  0.00     0.016 A 
ATOM     15  C   UNL     1       7.243  12.376 -14.986  1.00  0.00     0.051 A 
ATOM     16  C   UNL     1       8.544  11.863 -14.910  1.00  0.00     0.157 A 
ATOM     17  C   UNL     1       9.407  14.006 -15.688  1.00  0.00     0.062 A 
ATOM     18  C   UNL     1       9.636  12.676 -15.306  1.00  0.00     0.158 A 
BRANCH  16  19
ATOM     19  O   UNL     1       8.710  10.559 -14.431  1.00  0.00    -0.504 OA
ATOM     20  H   UNL     1       8.179  10.181 -13.662  1.00  0.00     0.293 HD
ENDBRANCH  16  19
BRANCH  18  21
ATOM     21  O   UNL     1      10.950  12.210 -15.323  1.00  0.00    -0.504 OA
ATOM     22  H   UNL     1      11.197  11.242 -15.480  1.00  0.00     0.293 HD
ENDBRANCH  18  21
ENDBRANCH   3  13
BRANCH  10  23
ATOM     23  O   UNL     1       6.876  20.642 -17.718  1.00  0.00    -0.507 OA
ATOM     24  H   UNL     1       7.124  20.173 -18.581  1.00  0.00     0.293 HD
ENDBRANCH  10  23
BRANCH  11  25
ATOM     25  O   UNL     1       6.956  20.999 -12.888  1.00  0.00    -0.508 OA
ATOM     26  H   UNL     1       6.686  21.975 -12.928  1.00  0.00     0.293 HD
ENDBRANCH  11  25
ENDBRANCH   1   2
BRANCH   1  27
ATOM     27  C   UNL     1       9.206  15.352 -19.139  1.00  0.00     0.339 C 
ATOM     28  C   UNL     1       9.154  13.907 -19.696  1.00  0.00     0.214 C 
ATOM     29  O   UNL     1       9.561  16.300 -20.134  1.00  0.00    -0.332 OA
ATOM     30  C   UNL     1       8.446  13.806 -21.078  1.00  0.00     0.180 C 
ATOM     31  C   UNL     1       8.616  16.327 -21.185  1.00  0.00     0.179 C 
ATOM     32  C   UNL     1       8.760  15.017 -21.983  1.00  0.00     0.177 C 
BRANCH  28  33
ATOM     33  O   UNL     1       8.499  13.086 -18.752  1.00  0.00    -0.384 OA
ATOM     34  H   UNL     1       7.923  13.670 -18.190  1.00  0.00     0.211 HD
ENDBRANCH  28  33
BRANCH  30  35
ATOM     35  O   UNL     1       7.062  13.588 -20.935  1.00  0.00    -0.387 OA
ATOM     36  H   UNL     1       6.911  13.003 -20.146  1.00  0.00     0.211 HD
ENDBRANCH  30  35
BRANCH  31  37
ATOM     37  C   UNL     1       8.875  17.574 -22.048  1.00  0.00     0.191 C 
BRANCH  37  38
ATOM     38  O   UNL     1       7.956  17.664 -23.114  1.00  0.00    -0.394 OA
ATOM     39  H   UNL     1       8.209  18.469 -23.642  1.00  0.00     0.210 HD
ENDBRANCH  37  38
ENDBRANCH  31  37
BRANCH  32  40
ATOM     40  O   UNL     1       7.972  15.009 -23.144  1.00  0.00    -0.387 OA
ATOM     41  H   UNL     1       8.437  14.460 -23.832  1.00  0.00     0.211 HD
ENDBRANCH  32  40
ENDBRANCH   1  27
TORSDOF 12
ENDMDL
MODEL 3
REMARK VINA RESULT:    -5.905      1.919      6.173
REMARK INTER + INTRA:          -8.846
REMARK INTER:                  -6.836
REMARK INTRA:                  -2.010
REMARK UNBOUND:                -0.180
REMARK SMILES O=c1c(O[C@@H]2O[C@@H](CO)[C@H](O)[C@H](O)[C@@H]2O)c(-c2ccc(O)c(O)c2)oc2cc(O)cc(O)c12
REMARK SMILES IDX 4 1 3 2 16 3 25 4 2 5 26 6 1 7 33 8 27 9 31 10 28 11 30 12
REMARK SMILES IDX 17 13 18 14 19 15 20 16 24 17 22 18 21 19 23 21 32 23 29 25
REMARK SMILES IDX 5 27 14 28 6 29 12 30 7 31 10 32 15 33 13 35 8 37 9 38 11 40
REMARK H PARENT 21 20 23 22 32 24 29 26 15 34 13 36 9 39 11 41
REMARK Flexibility Score: inf
ROOT
ATOM      1  O   UNL     1       8.308  15.148 -18.596  1.00  0.00    -0.454 OA
ENDROOT
BRANCH   1   2
ATOM      2  C   UNL     1       8.003  16.032 -17.532  1.00  0.00     0.214 A 
ATOM      3  C   UNL     1       7.912  15.689 -16.151  1.00  0.00     0.180 A 
ATOM      4  O   UNL     1       7.698  16.642 -15.249  1.00  0.00    -0.452 OA
ATOM      5  C   UNL     1       7.816  17.376 -17.886  1.00  0.00     0.239 A 
ATOM      6  C   UNL     1       7.530  17.920 -15.553  1.00  0.00     0.146 A 
ATOM      7  O   UNL     1       7.905  17.707 -19.102  1.00  0.00    -0.285 OA
ATOM      8  C   UNL     1       7.565  18.349 -16.898  1.00  0.00     0.111 A 
ATOM      9  C   UNL     1       7.317  18.844 -14.525  1.00  0.00     0.094 A 
ATOM     10  C   UNL     1       7.335  19.716 -17.193  1.00  0.00     0.134 A 
ATOM     11  C   UNL     1       7.087  20.190 -14.817  1.00  0.00     0.123 A 
ATOM     12  C   UNL     1       7.090  20.623 -16.150  1.00  0.00     0.093 A 
BRANCH   3  13
ATOM     13  C   UNL     1       8.043  14.326 -15.626  1.00  0.00     0.025 A 
ATOM     14  C   UNL     1       6.915  13.660 -15.144  1.00  0.00     0.016 A 
ATOM     15  C   UNL     1       7.034  12.385 -14.582  1.00  0.00     0.051 A 
ATOM     16  C   UNL     1       8.276  11.739 -14.549  1.00  0.00     0.157 A 
ATOM     17  C   UNL     1       9.266  13.639 -15.712  1.00  0.00     0.062 A 
ATOM     18  C   UNL     1       9.397  12.358 -15.159  1.00  0.00     0.158 A 
BRANCH  16  19
ATOM     19  O   UNL     1       8.358  10.503 -13.899  1.00  0.00    -0.504 OA
ATOM     20  H   UNL     1       9.168   9.904 -13.953  1.00  0.00     0.293 HD
ENDBRANCH  16  19
BRANCH  18  21
ATOM     21  O   UNL     1      10.647  11.743 -15.226  1.00  0.00    -0.504 OA
ATOM     22  H   UNL     1      11.163  11.619 -16.086  1.00  0.00     0.293 HD
ENDBRANCH  18  21
ENDBRANCH   3  13
BRANCH  10  23
ATOM     23  O   UNL     1       7.359  20.179 -18.509  1.00  0.00    -0.507 OA
ATOM     24  H   UNL     1       7.209  19.564 -19.300  1.00  0.00     0.293 HD
ENDBRANCH  10  23
BRANCH  11  25
ATOM     25  O   UNL     1       6.875  21.093 -13.777  1.00  0.00    -0.508 OA
ATOM     26  H   UNL     1       7.048  20.836 -12.812  1.00  0.00     0.293 HD
ENDBRANCH  11  25
ENDBRANCH   1   2
BRANCH   1  27
ATOM     27  C   UNL     1       7.443  14.220 -19.258  1.00  0.00     0.339 C 
ATOM     28  C   UNL     1       7.574  14.336 -20.797  1.00  0.00     0.214 C 
ATOM     29  O   UNL     1       7.659  12.896 -18.796  1.00  0.00    -0.332 OA
ATOM     30  C   UNL     1       8.796  13.560 -21.369  1.00  0.00     0.180 C 
ATOM     31  C   UNL     1       8.963  12.445 -19.105  1.00  0.00     0.179 C 
ATOM     32  C   UNL     1       9.038  12.227 -20.628  1.00  0.00     0.177 C 
BRANCH  28  33
ATOM     33  O   UNL     1       7.662  15.702 -21.138  1.00  0.00    -0.384 OA
ATOM     34  H   UNL     1       6.902  15.913 -21.745  1.00  0.00     0.211 HD
ENDBRANCH  28  33
BRANCH  30  35
ATOM     35  O   UNL     1       9.948  14.369 -21.410  1.00  0.00    -0.387 OA
ATOM     36  H   UNL     1      10.688  13.894 -20.946  1.00  0.00     0.211 HD
ENDBRANCH  30  35
BRANCH  31  37
ATOM     37  C   UNL     1       9.241  11.157 -18.311  1.00  0.00     0.191 C 
BRANCH  37  38
ATOM     38  O   UNL     1      10.624  10.923 -18.176  1.00  0.00    -0.394 OA
ATOM     39  H   UNL     1      10.755   9.938 -18.245  1.00  0.00     0.210 HD
ENDBRANCH  37  38
ENDBRANCH  31  37
BRANCH  32  40
ATOM     40  O   UNL     1      10.246  11.631 -21.024  1.00  0.00    -0.387 OA
ATOM     41  H   UNL     1      10.676  11.234 -20.219  1.00  0.00     0.211 HD
ENDBRANCH  32  40
ENDBRANCH   1  27
TORSDOF 12
ENDMDL
MODEL 4
REMARK VINA RESULT:    -5.862      2.061      5.935
REMARK INTER + INTRA:          -8.783
REMARK INTER:                  -8.175
REMARK INTRA:                  -0.608
REMARK UNBOUND:                -0.180
REMARK SMILES O=c1c(O[C@@H]2O[C@@H](CO)[C@H](O)[C@H](O)[C@@H]2O)c(-c2ccc(O)c(O)c2)oc2cc(O)cc(O)c12
REMARK SMILES IDX 4 1 3 2 16 3 25 4 2 5 26 6 1 7 33 8 27 9 31 10 28 11 30 12
REMARK SMILES IDX 17 13 18 14 19 15 20 16 24 17 22 18 21 19 23 21 32 23 29 25
REMARK SMILES IDX 5 27 14 28 6 29 12 30 7 31 10 32 15 33 13 35 8 37 9 38 11 40
REMARK H PARENT 21 20 23 22 32 24 29 26 15 34 13 36 9 39 11 41
REMARK Flexibility Score: inf
ROOT
ATOM      1  O   UNL     1       8.240  13.669 -18.462  1.00  0.00    -0.454 OA
ENDROOT
BRANCH   1   2
ATOM      2  C   UNL     1       8.046  13.214 -17.135  1.00  0.00     0.214 A 
ATOM      3  C   UNL     1       7.623  14.005 -16.026  1.00  0.00     0.180 A 
ATOM      4  O   UNL     1       7.403  13.426 -14.850  1.00  0.00    -0.452 OA
ATOM      5  C   UNL     1       8.259  11.845 -16.918  1.00  0.00     0.239 A 
ATOM      6  C   UNL     1       7.584  12.134 -14.620  1.00  0.00     0.146 A 
ATOM      7  O   UNL     1       8.622  11.121 -17.887  1.00  0.00    -0.285 OA
ATOM      8  C   UNL     1       8.039  11.278 -15.647  1.00  0.00     0.111 A 
ATOM      9  C   UNL     1       7.317  11.624 -13.345  1.00  0.00     0.094 A 
ATOM     10  C   UNL     1       8.267   9.910 -15.355  1.00  0.00     0.134 A 
ATOM     11  C   UNL     1       7.545  10.276 -13.058  1.00  0.00     0.123 A 
ATOM     12  C   UNL     1       8.025   9.423 -14.061  1.00  0.00     0.093 A 
BRANCH   3  13
ATOM     13  C   UNL     1       7.397  15.453 -16.081  1.00  0.00     0.025 A 
ATOM     14  C   UNL     1       7.032  16.049 -17.290  1.00  0.00     0.016 A 
ATOM     15  C   UNL     1       6.875  17.437 -17.373  1.00  0.00     0.051 A 
ATOM     16  C   UNL     1       7.026  18.236 -16.234  1.00  0.00     0.157 A 
ATOM     17  C   UNL     1       7.427  16.229 -14.910  1.00  0.00     0.062 A 
ATOM     18  C   UNL     1       7.265  17.620 -14.979  1.00  0.00     0.158 A 
BRANCH  16  19
ATOM     19  O   UNL     1       6.944  19.624 -16.388  1.00  0.00    -0.504 OA
ATOM     20  H   UNL     1       6.465  20.067 -17.157  1.00  0.00     0.293 HD
ENDBRANCH  16  19
BRANCH  18  21
ATOM     21  O   UNL     1       7.355  18.347 -13.793  1.00  0.00    -0.504 OA
ATOM     22  H   UNL     1       6.856  19.210 -13.627  1.00  0.00     0.293 HD
ENDBRANCH  18  21
ENDBRANCH   3  13
BRANCH  10  23
ATOM     23  O   UNL     1       8.719   9.032 -16.342  1.00  0.00    -0.507 OA
ATOM     24  H   UNL     1       9.690   8.755 -16.411  1.00  0.00     0.293 HD
ENDBRANCH  10  23
BRANCH  11  25
ATOM     25  O   UNL     1       7.274   9.790 -11.781  1.00  0.00    -0.508 OA
ATOM     26  H   UNL     1       6.995  10.409 -11.028  1.00  0.00     0.293 HD
ENDBRANCH  11  25
ENDBRANCH   1   2
BRANCH   1  27
ATOM     27  C   UNL     1       9.464  13.788 -19.193  1.00  0.00     0.339 C 
ATOM     28  C   UNL     1       9.326  13.183 -20.613  1.00  0.00     0.214 C 
ATOM     29  O   UNL     1       9.919  15.131 -19.221  1.00  0.00    -0.332 OA
ATOM     30  C   UNL     1       8.659  14.153 -21.631  1.00  0.00     0.180 C 
ATOM     31  C   UNL     1       9.014  15.971 -19.909  1.00  0.00     0.179 C 
ATOM     32  C   UNL     1       9.089  15.619 -21.407  1.00  0.00     0.177 C 
BRANCH  28  33
ATOM     33  O   UNL     1       8.584  11.987 -20.521  1.00  0.00    -0.384 OA
ATOM     34  H   UNL     1       9.193  11.276 -20.185  1.00  0.00     0.211 HD
ENDBRANCH  28  33
BRANCH  30  35
ATOM     35  O   UNL     1       7.259  14.001 -21.646  1.00  0.00    -0.387 OA
ATOM     36  H   UNL     1       6.856  14.697 -21.062  1.00  0.00     0.211 HD
ENDBRANCH  30  35
BRANCH  31  37
ATOM     37  C   UNL     1       9.391  17.437 -19.629  1.00  0.00     0.191 C 
BRANCH  37  38
ATOM     38  O   UNL     1      10.646  17.534 -18.994  1.00  0.00    -0.394 OA
ATOM     39  H   UNL     1      11.334  17.483 -19.712  1.00  0.00     0.210 HD
ENDBRANCH  37  38
ENDBRANCH  31  37
BRANCH  32  40
ATOM     40  O   UNL     1       8.341  16.501 -22.202  1.00  0.00    -0.387 OA
ATOM     41  H   UNL     1       7.385  16.430 -21.931  1.00  0.00     0.211 HD
ENDBRANCH  32  40
ENDBRANCH   1  27
TORSDOF 12
ENDMDL
MODEL 5
REMARK VINA RESULT:    -5.791      1.798      6.040
REMARK INTER + INTRA:          -8.679
REMARK INTER:                  -7.705
REMARK INTRA:                  -0.975
REMARK UNBOUND:                -0.180
REMARK SMILES O=c1c(O[C@@H]2O[C@@H](CO)[C@H](O)[C@H](O)[C@@H]2O)c(-c2ccc(O)c(O)c2)oc2cc(O)cc(O)c12
REMARK SMILES IDX 4 1 3 2 16 3 25 4 2 5 26 6 1 7 33 8 27 9 31 10 28 11 30 12
REMARK SMILES IDX 17 13 18 14 19 15 20 16 24 17 22 18 21 19 23 21 32 23 29 25
REMARK SMILES IDX 5 27 14 28 6 29 12 30 7 31 10 32 15 33 13 35 8 37 9 38 11 40
REMARK H PARENT 21 20 23 22 32 24 29 26 15 34 13 36 9 39 11 41
REMARK Flexibility Score: inf
ROOT
ATOM      1  O   UNL     1       8.165  14.789 -17.833  1.00  0.00    -0.454 OA
ENDROOT
BRANCH   1   2
ATOM      2  C   UNL     1       8.052  16.190 -17.658  1.00  0.00     0.214 A 
ATOM      3  C   UNL     1       8.260  17.184 -18.660  1.00  0.00     0.180 A 
ATOM      4  O   UNL     1       8.039  18.463 -18.373  1.00  0.00    -0.452 OA
ATOM      5  C   UNL     1       7.661  16.619 -16.382  1.00  0.00     0.239 A 
ATOM      6  C   UNL     1       7.658  18.895 -17.181  1.00  0.00     0.146 A 
ATOM      7  O   UNL     1       7.459  15.757 -15.481  1.00  0.00    -0.285 OA
ATOM      8  C   UNL     1       7.464  17.989 -16.115  1.00  0.00     0.111 A 
ATOM      9  C   UNL     1       7.446  20.265 -16.988  1.00  0.00     0.094 A 
ATOM     10  C   UNL     1       7.101  18.490 -14.841  1.00  0.00     0.134 A 
ATOM     11  C   UNL     1       7.091  20.757 -15.729  1.00  0.00     0.123 A 
ATOM     12  C   UNL     1       6.925  19.870 -14.657  1.00  0.00     0.093 A 
BRANCH   3  13
ATOM     13  C   UNL     1       8.708  16.900 -20.027  1.00  0.00     0.025 A 
ATOM     14  C   UNL     1       9.778  16.028 -20.235  1.00  0.00     0.016 A 
ATOM     15  C   UNL     1      10.258  15.796 -21.529  1.00  0.00     0.051 A 
ATOM     16  C   UNL     1       9.634  16.391 -22.633  1.00  0.00     0.157 A 
ATOM     17  C   UNL     1       7.999  17.401 -21.132  1.00  0.00     0.062 A 
ATOM     18  C   UNL     1       8.466  17.170 -22.434  1.00  0.00     0.158 A 
BRANCH  16  19
ATOM     19  O   UNL     1      10.205  16.197 -23.895  1.00  0.00    -0.504 OA
ATOM     20  H   UNL     1      11.073  15.703 -24.038  1.00  0.00     0.293 HD
ENDBRANCH  16  19
BRANCH  18  21
ATOM     21  O   UNL     1       7.753  17.734 -23.492  1.00  0.00    -0.504 OA
ATOM     22  H   UNL     1       8.129  18.449 -24.100  1.00  0.00     0.293 HD
ENDBRANCH  18  21
ENDBRANCH   3  13
BRANCH  10  23
ATOM     23  O   UNL     1       6.903  17.627 -13.761  1.00  0.00    -0.507 OA
ATOM     24  H   UNL     1       6.014  17.171 -13.592  1.00  0.00     0.293 HD
ENDBRANCH  10  23
BRANCH  11  25
ATOM     25  O   UNL     1       6.888  22.125 -15.559  1.00  0.00    -0.508 OA
ATOM     26  H   UNL     1       6.749  22.741 -16.352  1.00  0.00     0.293 HD
ENDBRANCH  11  25
ENDBRANCH   1   2
BRANCH   1  27
ATOM     27  C   UNL     1       7.142  13.794 -17.735  1.00  0.00     0.339 C 
ATOM     28  C   UNL     1       6.875  13.132 -19.110  1.00  0.00     0.214 C 
ATOM     29  O   UNL     1       7.443  12.842 -16.727  1.00  0.00    -0.332 OA
ATOM     30  C   UNL     1       7.894  12.008 -19.458  1.00  0.00     0.180 C 
ATOM     31  C   UNL     1       8.615  12.114 -17.036  1.00  0.00     0.179 C 
ATOM     32  C   UNL     1       8.292  11.179 -18.217  1.00  0.00     0.177 C 
BRANCH  28  33
ATOM     33  O   UNL     1       6.899  14.135 -20.102  1.00  0.00    -0.384 OA
ATOM     34  H   UNL     1       6.043  14.639 -20.045  1.00  0.00     0.211 HD
ENDBRANCH  28  33
BRANCH  30  35
ATOM     35  O   UNL     1       9.012  12.518 -20.144  1.00  0.00    -0.387 OA
ATOM     36  H   UNL     1       9.706  12.773 -19.479  1.00  0.00     0.211 HD
ENDBRANCH  30  35
BRANCH  31  37
ATOM     37  C   UNL     1       9.062  11.344 -15.780  1.00  0.00     0.191 C 
BRANCH  37  38
ATOM     38  O   UNL     1      10.418  10.968 -15.862  1.00  0.00    -0.394 OA
ATOM     39  H   UNL     1      10.948  11.811 -15.880  1.00  0.00     0.210 HD
ENDBRANCH  37  38
ENDBRANCH  31  37
BRANCH  32  40
ATOM     40  O   UNL     1       9.346  10.297 -18.505  1.00  0.00    -0.387 OA
ATOM     41  H   UNL     1       9.840  10.117 -17.660  1.00  0.00     0.211 HD
ENDBRANCH  32  40
ENDBRANCH   1  27
TORSDOF 12
ENDMDL
MODEL 6
REMARK VINA RESULT:    -5.422      1.461      5.979
REMARK INTER + INTRA:          -8.137
REMARK INTER:                  -8.251
REMARK INTRA:                   0.114
REMARK UNBOUND:                -0.180
REMARK SMILES O=c1c(O[C@@H]2O[C@@H](CO)[C@H](O)[C@H](O)[C@@H]2O)c(-c2ccc(O)c(O)c2)oc2cc(O)cc(O)c12
REMARK SMILES IDX 4 1 3 2 16 3 25 4 2 5 26 6 1 7 33 8 27 9 31 10 28 11 30 12
REMARK SMILES IDX 17 13 18 14 19 15 20 16 24 17 22 18 21 19 23 21 32 23 29 25
REMARK SMILES IDX 5 27 14 28 6 29 12 30 7 31 10 32 15 33 13 35 8 37 9 38 11 40
REMARK H PARENT 21 20 23 22 32 24 29 26 15 34 13 36 9 39 11 41
REMARK Flexibility Score: inf
ROOT
ATOM      1  O   UNL     1       7.971  14.551 -17.693  1.00  0.00    -0.454 OA
ENDROOT
BRANCH   1   2
ATOM      2  C   UNL     1       7.922  15.964 -17.595  1.00  0.00     0.214 A 
ATOM      3  C   UNL     1       8.142  16.890 -18.657  1.00  0.00     0.180 A 
ATOM      4  O   UNL     1       7.983  18.192 -18.438  1.00  0.00    -0.452 OA
ATOM      5  C   UNL     1       7.585  16.480 -16.336  1.00  0.00     0.239 A 
ATOM      6  C   UNL     1       7.654  18.706 -17.263  1.00  0.00     0.146 A 
ATOM      7  O   UNL     1       7.373  15.679 -15.382  1.00  0.00    -0.285 OA
ATOM      8  C   UNL     1       7.454  17.870 -16.143  1.00  0.00     0.111 A 
ATOM      9  C   UNL     1       7.506  20.092 -17.142  1.00  0.00     0.094 A 
ATOM     10  C   UNL     1       7.149  18.456 -14.889  1.00  0.00     0.134 A 
ATOM     11  C   UNL     1       7.208  20.669 -15.905  1.00  0.00     0.123 A 
ATOM     12  C   UNL     1       7.036  19.851 -14.780  1.00  0.00     0.093 A 
BRANCH   3  13
ATOM     13  C   UNL     1       8.538  16.511 -20.017  1.00  0.00     0.025 A 
ATOM     14  C   UNL     1       9.135  15.269 -20.241  1.00  0.00     0.016 A 
ATOM     15  C   UNL     1       9.575  14.919 -21.522  1.00  0.00     0.051 A 
ATOM     16  C   UNL     1       9.372  15.785 -22.602  1.00  0.00     0.157 A 
ATOM     17  C   UNL     1       8.218  17.331 -21.112  1.00  0.00     0.062 A 
ATOM     18  C   UNL     1       8.648  16.988 -22.402  1.00  0.00     0.158 A 
BRANCH  16  19
ATOM     19  O   UNL     1       9.909  15.427 -23.844  1.00  0.00    -0.504 OA
ATOM     20  H   UNL     1      10.446  16.060 -24.417  1.00  0.00     0.293 HD
ENDBRANCH  16  19
BRANCH  18  21
ATOM     21  O   UNL     1       8.348  17.864 -23.444  1.00  0.00    -0.504 OA
ATOM     22  H   UNL     1       8.857  18.720 -23.619  1.00  0.00     0.293 HD
ENDBRANCH  18  21
ENDBRANCH   3  13
BRANCH  10  23
ATOM     23  O   UNL     1       6.946  17.664 -13.758  1.00  0.00    -0.507 OA
ATOM     24  H   UNL     1       6.305  16.880 -13.757  1.00  0.00     0.293 HD
ENDBRANCH  10  23
BRANCH  11  25
ATOM     25  O   UNL     1       7.067  22.051 -15.808  1.00  0.00    -0.508 OA
ATOM     26  H   UNL     1       6.280  22.469 -15.324  1.00  0.00     0.293 HD
ENDBRANCH  11  25
ENDBRANCH   1   2
BRANCH   1  27
ATOM     27  C   UNL     1       9.111  13.712 -17.894  1.00  0.00     0.339 C 
ATOM     28  C   UNL     1       9.945  13.584 -16.595  1.00  0.00     0.214 C 
ATOM     29  O   UNL     1       8.735  12.448 -18.419  1.00  0.00    -0.332 OA
ATOM     30  C   UNL     1       9.379  12.528 -15.602  1.00  0.00     0.180 C 
ATOM     31  C   UNL     1       7.923  11.730 -17.511  1.00  0.00     0.179 C 
ATOM     32  C   UNL     1       8.811  11.290 -16.331  1.00  0.00     0.177 C 
BRANCH  28  33
ATOM     33  O   UNL     1      10.006  14.851 -15.975  1.00  0.00    -0.384 OA
ATOM     34  H   UNL     1      10.747  14.829 -15.311  1.00  0.00     0.211 HD
ENDBRANCH  28  33
BRANCH  30  35
ATOM     35  O   UNL     1       8.449  13.100 -14.713  1.00  0.00    -0.387 OA
ATOM     36  H   UNL     1       7.961  13.826 -15.185  1.00  0.00     0.211 HD
ENDBRANCH  30  35
BRANCH  31  37
ATOM     37  C   UNL     1       7.292  10.537 -18.250  1.00  0.00     0.191 C 
BRANCH  37  38
ATOM     38  O   UNL     1       8.138   9.410 -18.226  1.00  0.00    -0.394 OA
ATOM     39  H   UNL     1       7.727   8.758 -17.595  1.00  0.00     0.210 HD
ENDBRANCH  37  38
ENDBRANCH  31  37
BRANCH  32  40
ATOM     40  O   UNL     1       8.137  10.436 -15.444  1.00  0.00    -0.387 OA
ATOM     41  H   UNL     1       8.433  10.652 -14.518  1.00  0.00     0.211 HD
ENDBRANCH  32  40
ENDBRANCH   1  27
TORSDOF 12
ENDMDL
MODEL 7
REMARK VINA RESULT:    -5.073      2.565      6.410
REMARK INTER + INTRA:          -7.625
REMARK INTER:                  -7.098
REMARK INTRA:                  -0.526
REMARK UNBOUND:                -0.180
REMARK SMILES O=c1c(O[C@@H]2O[C@@H](CO)[C@H](O)[C@H](O)[C@@H]2O)c(-c2ccc(O)c(O)c2)oc2cc(O)cc(O)c12
REMARK SMILES IDX 4 1 3 2 16 3 25 4 2 5 26 6 1 7 33 8 27 9 31 10 28 11 30 12
REMARK SMILES IDX 17 13 18 14 19 15 20 16 24 17 22 18 21 19 23 21 32 23 29 25
REMARK SMILES IDX 5 27 14 28 6 29 12 30 7 31 10 32 15 33 13 35 8 37 9 38 11 40
REMARK H PARENT 21 20 23 22 32 24 29 26 15 34 13 36 9 39 11 41
REMARK Flexibility Score: inf
ROOT
ATOM      1  O   UNL     1       7.889  12.299 -18.389  1.00  0.00    -0.454 OA
ENDROOT
BRANCH   1   2
ATOM      2  C   UNL     1       7.743  12.022 -17.007  1.00  0.00     0.214 A 
ATOM      3  C   UNL     1       7.573  12.984 -15.968  1.00  0.00     0.180 A 
ATOM      4  O   UNL     1       7.365  12.575 -14.720  1.00  0.00    -0.452 OA
ATOM      5  C   UNL     1       7.728  10.666 -16.652  1.00  0.00     0.239 A 
ATOM      6  C   UNL     1       7.334  11.301 -14.359  1.00  0.00     0.146 A 
ATOM      7  O   UNL     1       7.864   9.795 -17.557  1.00  0.00    -0.285 OA
ATOM      8  C   UNL     1       7.532  10.278 -15.312  1.00  0.00     0.111 A 
ATOM      9  C   UNL     1       7.101  10.978 -13.017  1.00  0.00     0.094 A 
ATOM     10  C   UNL     1       7.539   8.927 -14.884  1.00  0.00     0.134 A 
ATOM     11  C   UNL     1       7.112   9.646 -12.596  1.00  0.00     0.123 A 
ATOM     12  C   UNL     1       7.336   8.624 -13.528  1.00  0.00     0.093 A 
BRANCH   3  13
ATOM     13  C   UNL     1       7.604  14.436 -16.171  1.00  0.00     0.025 A 
ATOM     14  C   UNL     1       8.037  15.268 -15.136  1.00  0.00     0.016 A 
ATOM     15  C   UNL     1       8.013  16.658 -15.292  1.00  0.00     0.051 A 
ATOM     16  C   UNL     1       7.607  17.228 -16.504  1.00  0.00     0.157 A 
ATOM     17  C   UNL     1       7.315  14.991 -17.429  1.00  0.00     0.062 A 
ATOM     18  C   UNL     1       7.294  16.383 -17.599  1.00  0.00     0.158 A 
BRANCH  16  19
ATOM     19  O   UNL     1       7.518  18.622 -16.579  1.00  0.00    -0.504 OA
ATOM     20  H   UNL     1       6.739  19.103 -17.003  1.00  0.00     0.293 HD
ENDBRANCH  16  19
BRANCH  18  21
ATOM     21  O   UNL     1       6.951  16.881 -18.855  1.00  0.00    -0.504 OA
ATOM     22  H   UNL     1       7.468  17.610 -19.328  1.00  0.00     0.293 HD
ENDBRANCH  18  21
ENDBRANCH   3  13
BRANCH  10  23
ATOM     23  O   UNL     1       7.733   7.887 -15.794  1.00  0.00    -0.507 OA
ATOM     24  H   UNL     1       8.183   8.033 -16.689  1.00  0.00     0.293 HD
ENDBRANCH  10  23
BRANCH  11  25
ATOM     25  O   UNL     1       6.880   9.348 -11.255  1.00  0.00    -0.508 OA
ATOM     26  H   UNL     1       5.977   9.516 -10.825  1.00  0.00     0.293 HD
ENDBRANCH  11  25
ENDBRANCH   1   2
BRANCH   1  27
ATOM     27  C   UNL     1       9.063  12.190 -19.199  1.00  0.00     0.339 C 
ATOM     28  C   UNL     1       8.737  12.461 -20.689  1.00  0.00     0.214 C 
ATOM     29  O   UNL     1      10.104  13.024 -18.715  1.00  0.00    -0.332 OA
ATOM     30  C   UNL     1       8.673  13.976 -21.038  1.00  0.00     0.180 C 
ATOM     31  C   UNL     1       9.750  14.391 -18.788  1.00  0.00     0.179 C 
ATOM     32  C   UNL     1       9.735  14.796 -20.274  1.00  0.00     0.177 C 
BRANCH  28  33
ATOM     33  O   UNL     1       7.511  11.837 -21.001  1.00  0.00    -0.384 OA
ATOM     34  H   UNL     1       7.516  10.933 -20.587  1.00  0.00     0.211 HD
ENDBRANCH  28  33
BRANCH  30  35
ATOM     35  O   UNL     1       7.374  14.491 -20.867  1.00  0.00    -0.387 OA
ATOM     36  H   UNL     1       6.890  14.432 -21.733  1.00  0.00     0.211 HD
ENDBRANCH  30  35
BRANCH  31  37
ATOM     37  C   UNL     1      10.762  15.207 -17.964  1.00  0.00     0.191 C 
BRANCH  37  38
ATOM     38  O   UNL     1      11.591  15.988 -18.794  1.00  0.00    -0.394 OA
ATOM     39  H   UNL     1      11.835  16.800 -18.271  1.00  0.00     0.210 HD
ENDBRANCH  37  38
ENDBRANCH  31  37
BRANCH  32  40
ATOM     40  O   UNL     1       9.546  16.175 -20.451  1.00  0.00    -0.387 OA
ATOM     41  H   UNL     1       8.855  16.307 -21.156  1.00  0.00     0.211 HD
ENDBRANCH  32  40
ENDBRANCH   1  27
TORSDOF 12
ENDMDL
MODEL 8
REMARK VINA RESULT:    -5.032      3.876      7.881
REMARK INTER + INTRA:          -7.566
REMARK INTER:                  -7.779
REMARK INTRA:                   0.214
REMARK UNBOUND:                -0.180
REMARK SMILES O=c1c(O[C@@H]2O[C@@H](CO)[C@H](O)[C@H](O)[C@@H]2O)c(-c2ccc(O)c(O)c2)oc2cc(O)cc(O)c12
REMARK SMILES IDX 4 1 3 2 16 3 25 4 2 5 26 6 1 7 33 8 27 9 31 10 28 11 30 12
REMARK SMILES IDX 17 13 18 14 19 15 20 16 24 17 22 18 21 19 23 21 32 23 29 25
REMARK SMILES IDX 5 27 14 28 6 29 12 30 7 31 10 32 15 33 13 35 8 37 9 38 11 40
REMARK H PARENT 21 20 23 22 32 24 29 26 15 34 13 36 9 39 11 41
REMARK Flexibility Score: inf
ROOT
ATOM      1  O   UNL     1       7.486  10.182 -17.048  1.00  0.00    -0.454 OA
ENDROOT
BRANCH   1   2
ATOM      2  C   UNL     1       7.469  10.054 -15.637  1.00  0.00     0.214 A 
ATOM      3  C   UNL     1       7.607  11.114 -14.693  1.00  0.00     0.180 A 
ATOM      4  O   UNL     1       7.490  10.858 -13.394  1.00  0.00    -0.452 OA
ATOM      5  C   UNL     1       7.258   8.760 -15.141  1.00  0.00     0.239 A 
ATOM      6  C   UNL     1       7.278   9.648 -12.899  1.00  0.00     0.146 A 
ATOM      7  O   UNL     1       7.120   7.806 -15.958  1.00  0.00    -0.285 OA
ATOM      8  C   UNL     1       7.167   8.530 -13.754  1.00  0.00     0.111 A 
ATOM      9  C   UNL     1       7.164   9.489 -11.513  1.00  0.00     0.094 A 
ATOM     10  C   UNL     1       6.987   7.243 -13.189  1.00  0.00     0.134 A 
ATOM     11  C   UNL     1       6.990   8.219 -10.957  1.00  0.00     0.123 A 
ATOM     12  C   UNL     1       6.908   7.098 -11.794  1.00  0.00     0.093 A 
BRANCH   3  13
ATOM     13  C   UNL     1       7.871  12.512 -15.051  1.00  0.00     0.025 A 
ATOM     14  C   UNL     1       6.887  13.253 -15.707  1.00  0.00     0.016 A 
ATOM     15  C   UNL     1       7.146  14.567 -16.111  1.00  0.00     0.051 A 
ATOM     16  C   UNL     1       8.373  15.172 -15.812  1.00  0.00     0.157 A 
ATOM     17  C   UNL     1       9.054  13.147 -14.637  1.00  0.00     0.062 A 
ATOM     18  C   UNL     1       9.323  14.466 -15.030  1.00  0.00     0.158 A 
BRANCH  16  19
ATOM     19  O   UNL     1       8.615  16.455 -16.313  1.00  0.00    -0.504 OA
ATOM     20  H   UNL     1       8.600  16.675 -17.298  1.00  0.00     0.293 HD
ENDBRANCH  16  19
BRANCH  18  21
ATOM     21  O   UNL     1      10.535  15.030 -14.635  1.00  0.00    -0.504 OA
ATOM     22  H   UNL     1      11.073  15.660 -15.214  1.00  0.00     0.293 HD
ENDBRANCH  18  21
ENDBRANCH   3  13
BRANCH  10  23
ATOM     23  O   UNL     1       6.875   6.112 -14.000  1.00  0.00    -0.507 OA
ATOM     24  H   UNL     1       6.654   6.177 -14.986  1.00  0.00     0.293 HD
ENDBRANCH  10  23
BRANCH  11  25
ATOM     25  O   UNL     1       6.881   8.083  -9.575  1.00  0.00    -0.508 OA
ATOM     26  H   UNL     1       7.520   7.498  -9.050  1.00  0.00     0.293 HD
ENDBRANCH  11  25
ENDBRANCH   1   2
BRANCH   1  27
ATOM     27  C   UNL     1       8.405   9.609 -17.983  1.00  0.00     0.339 C 
ATOM     28  C   UNL     1       8.928  10.678 -18.975  1.00  0.00     0.214 C 
ATOM     29  O   UNL     1       9.457   8.927 -17.320  1.00  0.00    -0.332 OA
ATOM     30  C   UNL     1      10.094  11.533 -18.398  1.00  0.00     0.180 C 
ATOM     31  C   UNL     1      10.244   9.813 -16.549  1.00  0.00     0.179 C 
ATOM     32  C   UNL     1      11.050  10.696 -17.521  1.00  0.00     0.177 C 
BRANCH  28  33
ATOM     33  O   UNL     1       7.851  11.511 -19.346  1.00  0.00    -0.384 OA
ATOM     34  H   UNL     1       7.026  11.144 -18.931  1.00  0.00     0.211 HD
ENDBRANCH  28  33
BRANCH  30  35
ATOM     35  O   UNL     1       9.614  12.675 -17.729  1.00  0.00    -0.387 OA
ATOM     36  H   UNL     1       9.641  13.447 -18.355  1.00  0.00     0.211 HD
ENDBRANCH  30  35
BRANCH  31  37
ATOM     37  C   UNL     1      11.147   8.987 -15.617  1.00  0.00     0.191 C 
BRANCH  37  38
ATOM     38  O   UNL     1      10.434   8.507 -14.500  1.00  0.00    -0.394 OA
ATOM     39  H   UNL     1      10.973   7.764 -14.114  1.00  0.00     0.210 HD
ENDBRANCH  37  38
ENDBRANCH  31  37
BRANCH  32  40
ATOM     40  O   UNL     1      11.983  11.509 -16.857  1.00  0.00    -0.387 OA
ATOM     41  H   UNL     1      12.888  11.303 -17.218  1.00  0.00     0.211 HD
ENDBRANCH  32  40
ENDBRANCH   1  27
TORSDOF 12
ENDMDL
MODEL 9
REMARK VINA RESULT:    -4.929      1.290      5.597
REMARK INTER + INTRA:          -7.414
REMARK INTER:                  -8.160
REMARK INTRA:                   0.746
REMARK UNBOUND:                -0.180
REMARK SMILES O=c1c(O[C@@H]2O[C@@H](CO)[C@H](O)[C@H](O)[C@@H]2O)c(-c2ccc(O)c(O)c2)oc2cc(O)cc(O)c12
REMARK SMILES IDX 4 1 3 2 16 3 25 4 2 5 26 6 1 7 33 8 27 9 31 10 28 11 30 12
REMARK SMILES IDX 17 13 18 14 19 15 20 16 24 17 22 18 21 19 23 21 32 23 29 25
REMARK SMILES IDX 5 27 14 28 6 29 12 30 7 31 10 32 15 33 13 35 8 37 9 38 11 40
REMARK H PARENT 21 20 23 22 32 24 29 26 15 34 13 36 9 39 11 41
REMARK Flexibility Score: inf
ROOT
ATOM      1  O   UNL     1       7.485  14.598 -17.527  1.00  0.00    -0.454 OA
ENDROOT
BRANCH   1   2
ATOM      2  C   UNL     1       7.662  15.998 -17.410  1.00  0.00     0.214 A 
ATOM      3  C   UNL     1       8.049  16.889 -18.455  1.00  0.00     0.180 A 
ATOM      4  O   UNL     1       8.097  18.197 -18.220  1.00  0.00    -0.452 OA
ATOM      5  C   UNL     1       7.389  16.548 -16.150  1.00  0.00     0.239 A 
ATOM      6  C   UNL     1       7.833  18.744 -17.044  1.00  0.00     0.146 A 
ATOM      7  O   UNL     1       7.033  15.781 -15.211  1.00  0.00    -0.285 OA
ATOM      8  C   UNL     1       7.479  17.938 -15.939  1.00  0.00     0.111 A 
ATOM      9  C   UNL     1       7.908  20.134 -16.906  1.00  0.00     0.094 A 
ATOM     10  C   UNL     1       7.249  18.551 -14.683  1.00  0.00     0.134 A 
ATOM     11  C   UNL     1       7.683  20.737 -15.666  1.00  0.00     0.123 A 
ATOM     12  C   UNL     1       7.360  19.945 -14.556  1.00  0.00     0.093 A 
BRANCH   3  13
ATOM     13  C   UNL     1       8.404  16.467 -19.814  1.00  0.00     0.025 A 
ATOM     14  C   UNL     1       8.459  17.414 -20.838  1.00  0.00     0.016 A 
ATOM     15  C   UNL     1       8.735  17.017 -22.151  1.00  0.00     0.051 A 
ATOM     16  C   UNL     1       9.014  15.677 -22.442  1.00  0.00     0.157 A 
ATOM     17  C   UNL     1       8.804  15.145 -20.072  1.00  0.00     0.062 A 
ATOM     18  C   UNL     1       9.089  14.737 -21.383  1.00  0.00     0.158 A 
BRANCH  16  19
ATOM     19  O   UNL     1       9.196  15.318 -23.782  1.00  0.00    -0.504 OA
ATOM     20  H   UNL     1       9.746  14.523 -24.071  1.00  0.00     0.293 HD
ENDBRANCH  16  19
BRANCH  18  21
ATOM     21  O   UNL     1       9.431  13.401 -21.591  1.00  0.00    -0.504 OA
ATOM     22  H   UNL     1      10.313  12.999 -21.304  1.00  0.00     0.293 HD
ENDBRANCH  18  21
ENDBRANCH   3  13
BRANCH  10  23
ATOM     23  O   UNL     1       6.899  17.790 -13.566  1.00  0.00    -0.507 OA
ATOM     24  H   UNL     1       6.246  17.018 -13.624  1.00  0.00     0.293 HD
ENDBRANCH  10  23
BRANCH  11  25
ATOM     25  O   UNL     1       7.764  22.123 -15.551  1.00  0.00    -0.508 OA
ATOM     26  H   UNL     1       7.684  22.584 -14.652  1.00  0.00     0.293 HD
ENDBRANCH  11  25
ENDBRANCH   1   2
BRANCH   1  27
ATOM     27  C   UNL     1       7.611  13.596 -16.513  1.00  0.00     0.339 C 
ATOM     28  C   UNL     1       7.771  12.188 -17.138  1.00  0.00     0.214 C 
ATOM     29  O   UNL     1       8.659  13.907 -15.609  1.00  0.00    -0.332 OA
ATOM     30  C   UNL     1       9.229  11.877 -17.585  1.00  0.00     0.180 C 
ATOM     31  C   UNL     1       9.916  13.916 -16.255  1.00  0.00     0.179 C 
ATOM     32  C   UNL     1      10.274  12.459 -16.609  1.00  0.00     0.177 C 
BRANCH  28  33
ATOM     33  O   UNL     1       6.892  12.082 -18.237  1.00  0.00    -0.384 OA
ATOM     34  H   UNL     1       6.583  11.138 -18.289  1.00  0.00     0.211 HD
ENDBRANCH  28  33
BRANCH  30  35
ATOM     35  O   UNL     1       9.458  12.275 -18.916  1.00  0.00    -0.387 OA
ATOM     36  H   UNL     1       9.382  13.265 -18.970  1.00  0.00     0.211 HD
ENDBRANCH  30  35
BRANCH  31  37
ATOM     37  C   UNL     1      10.948  14.565 -15.317  1.00  0.00     0.191 C 
BRANCH  37  38
ATOM     38  O   UNL     1      11.985  15.185 -16.042  1.00  0.00    -0.394 OA
ATOM     39  H   UNL     1      11.551  15.713 -16.767  1.00  0.00     0.210 HD
ENDBRANCH  37  38
ENDBRANCH  31  37
BRANCH  32  40
ATOM     40  O   UNL     1      11.577  12.337 -17.117  1.00  0.00    -0.387 OA
ATOM     41  H   UNL     1      11.799  13.175 -17.607  1.00  0.00     0.211 HD
ENDBRANCH  32  40
ENDBRANCH   1  27
TORSDOF 12
ENDMDL
