MODEL 1
REMARK VINA RESULT:    -3.137      0.000      0.000
REMARK INTER + INTRA:         -10.679
REMARK INTER:                  -6.805
REMARK INTRA:                  -3.873
REMARK UNBOUND:                -3.873
REMARK SMILES CCCCCCCCCCCCCCCCCCCCCC(=O)[O-]
REMARK SMILES IDX 12 1 11 2 10 3 9 4 8 5 7 6 6 7 5 8 4 9 3 10 2 11 1 12 13 13
REMARK SMILES IDX 14 14 15 15 16 16 17 17 18 18 19 19 20 20 21 21 22 22 23 23
REMARK SMILES IDX 24 24
REMARK H PARENT
REMARK Flexibility Score: inf
ROOT
ATOM      1  C   UNL     1     131.444 143.373 141.037  1.00  0.00     0.000 C 
ENDROOT
BRANCH   1   2
ATOM      2  C   UNL     1     131.484 144.312 139.812  1.00  0.00     0.000 C 
BRANCH   2   3
ATOM      3  C   UNL     1     132.820 145.062 139.673  1.00  0.00     0.000 C 
BRANCH   3   4
ATOM      4  C   UNL     1     133.581 144.669 138.390  1.00  0.00    -0.000 C 
BRANCH   4   5
ATOM      5  C   UNL     1     132.755 143.810 137.415  1.00  0.00    -0.000 C 
BRANCH   5   6
ATOM      6  C   UNL     1     133.387 142.438 137.140  1.00  0.00    -0.000 C 
BRANCH   6   7
ATOM      7  C   UNL     1     134.385 141.999 138.227  1.00  0.00    -0.000 C 
BRANCH   7   8
ATOM      8  C   UNL     1     133.897 140.866 139.151  1.00  0.00    -0.000 C 
BRANCH   8   9
ATOM      9  C   UNL     1     134.352 141.038 140.607  1.00  0.00    -0.000 C 
BRANCH   9  10
ATOM     10  C   UNL     1     135.181 142.314 140.778  1.00  0.00    -0.000 C 
BRANCH  10  11
ATOM     11  C   UNL     1     134.871 142.994 142.117  1.00  0.00    -0.003 C 
ATOM     12  C   UNL     1     135.471 144.394 142.175  1.00  0.00     0.004 C 
ENDBRANCH  10  11
ENDBRANCH   9  10
ENDBRANCH   8   9
ENDBRANCH   7   8
ENDBRANCH   6   7
ENDBRANCH   5   6
ENDBRANCH   4   5
ENDBRANCH   3   4
ENDBRANCH   2   3
ENDBRANCH   1   2
BRANCH   1  13
ATOM     13  C   UNL     1     130.732 142.027 140.779  1.00  0.00     0.000 C 
BRANCH  13  14
ATOM     14  C   UNL     1     130.338 141.767 139.314  1.00  0.00     0.000 C 
BRANCH  14  15
ATOM     15  C   UNL     1     130.241 140.264 138.961  1.00  0.00     0.000 C 
BRANCH  15  16
ATOM     16  C   UNL     1     128.933 139.633 139.457  1.00  0.00     0.000 C 
BRANCH  16  17
ATOM     17  C   UNL     1     129.205 138.341 140.237  1.00  0.00     0.000 C 
BRANCH  17  18
ATOM     18  C   UNL     1     130.537 138.428 140.996  1.00  0.00     0.000 C 
BRANCH  18  19
ATOM     19  C   UNL     1     130.377 138.152 142.502  1.00  0.00     0.000 C 
BRANCH  19  20
ATOM     20  C   UNL     1     131.345 138.989 143.355  1.00  0.00     0.006 C 
BRANCH  20  21
ATOM     21  C   UNL     1     130.608 139.886 144.359  1.00  0.00     0.053 C 
BRANCH  21  22
ATOM     22  C   UNL     1     130.123 139.112 145.549  1.00  0.00     0.041 C 
ATOM     23  O   UNL     1     130.841 138.203 146.044  1.00  0.00    -0.550 OA
ATOM     24  O   UNL     1     128.869 139.370 146.088  1.00  0.00    -0.550 OA
ENDBRANCH  21  22
ENDBRANCH  20  21
ENDBRANCH  19  20
ENDBRANCH  18  19
ENDBRANCH  17  18
ENDBRANCH  16  17
ENDBRANCH  15  16
ENDBRANCH  14  15
ENDBRANCH  13  14
ENDBRANCH   1  13
TORSDOF 20
ENDMDL
MODEL 2
REMARK VINA RESULT:    -3.132      3.166      6.306
REMARK INTER + INTRA:         -10.667
REMARK INTER:                  -7.188
REMARK INTRA:                  -3.479
REMARK UNBOUND:                -3.873
REMARK SMILES CCCCCCCCCCCCCCCCCCCCCC(=O)[O-]
REMARK SMILES IDX 12 1 11 2 10 3 9 4 8 5 7 6 6 7 5 8 4 9 3 10 2 11 1 12 13 13
REMARK SMILES IDX 14 14 15 15 16 16 17 17 18 18 19 19 20 20 21 21 22 22 23 23
REMARK SMILES IDX 24 24
REMARK H PARENT
REMARK Flexibility Score: inf
ROOT
ATOM      1  C   UNL     1     130.685 143.118 138.011  1.00  0.00     0.000 C 
ENDROOT
BRANCH   1   2
ATOM      2  C   UNL     1     130.540 141.586 137.890  1.00  0.00     0.000 C 
BRANCH   2   3
ATOM      3  C   UNL     1     129.617 140.983 138.963  1.00  0.00     0.000 C 
BRANCH   3   4
ATOM      4  C   UNL     1     129.874 139.478 139.177  1.00  0.00    -0.000 C 
BRANCH   4   5
ATOM      5  C   UNL     1     128.712 138.740 139.867  1.00  0.00    -0.000 C 
BRANCH   5   6
ATOM      6  C   UNL     1     129.177 137.807 140.995  1.00  0.00    -0.000 C 
BRANCH   6   7
ATOM      7  C   UNL     1     130.392 138.349 141.769  1.00  0.00    -0.000 C 
BRANCH   7   8
ATOM      8  C   UNL     1     130.508 137.876 143.231  1.00  0.00    -0.000 C 
BRANCH   8   9
ATOM      9  C   UNL     1     130.768 139.023 144.217  1.00  0.00    -0.000 C 
BRANCH   9  10
ATOM     10  C   UNL     1     129.949 138.842 145.499  1.00  0.00    -0.000 C 
BRANCH  10  11
ATOM     11  C   UNL     1     129.315 140.168 145.936  1.00  0.00    -0.003 C 
ATOM     12  C   UNL     1     130.083 141.358 145.371  1.00  0.00     0.004 C 
ENDBRANCH  10  11
ENDBRANCH   9  10
ENDBRANCH   8   9
ENDBRANCH   7   8
ENDBRANCH   6   7
ENDBRANCH   5   6
ENDBRANCH   4   5
ENDBRANCH   3   4
ENDBRANCH   2   3
ENDBRANCH   1   2
BRANCH   1  13
ATOM     13  C   UNL     1     132.051 143.583 138.562  1.00  0.00     0.000 C 
BRANCH  13  14
ATOM     14  C   UNL     1     131.979 144.605 139.710  1.00  0.00     0.000 C 
BRANCH  14  15
ATOM     15  C   UNL     1     132.363 144.013 141.086  1.00  0.00     0.000 C 
BRANCH  15  16
ATOM     16  C   UNL     1     131.196 143.266 141.744  1.00  0.00     0.000 C 
BRANCH  16  17
ATOM     17  C   UNL     1     131.527 141.781 141.933  1.00  0.00     0.000 C 
BRANCH  17  18
ATOM     18  C   UNL     1     132.990 141.494 141.565  1.00  0.00     0.000 C 
BRANCH  18  19
ATOM     19  C   UNL     1     133.122 140.449 140.443  1.00  0.00     0.000 C 
BRANCH  19  20
ATOM     20  C   UNL     1     134.212 140.819 139.424  1.00  0.00     0.006 C 
BRANCH  20  21
ATOM     21  C   UNL     1     134.444 139.708 138.390  1.00  0.00     0.053 C 
BRANCH  21  22
ATOM     22  C   UNL     1     133.616 139.912 137.157  1.00  0.00     0.041 C 
ATOM     23  O   UNL     1     133.706 140.989 136.508  1.00  0.00    -0.550 OA
ATOM     24  O   UNL     1     132.721 138.933 136.745  1.00  0.00    -0.550 OA
ENDBRANCH  21  22
ENDBRANCH  20  21
ENDBRANCH  19  20
ENDBRANCH  18  19
ENDBRANCH  17  18
ENDBRANCH  16  17
ENDBRANCH  15  16
ENDBRANCH  14  15
ENDBRANCH  13  14
ENDBRANCH   1  13
TORSDOF 20
ENDMDL
MODEL 3
REMARK VINA RESULT:    -3.064      1.616      3.987
REMARK INTER + INTRA:         -10.520
REMARK INTER:                  -8.036
REMARK INTRA:                  -2.484
REMARK UNBOUND:                -3.873
REMARK SMILES CCCCCCCCCCCCCCCCCCCCCC(=O)[O-]
REMARK SMILES IDX 12 1 11 2 10 3 9 4 8 5 7 6 6 7 5 8 4 9 3 10 2 11 1 12 13 13
REMARK SMILES IDX 14 14 15 15 16 16 17 17 18 18 19 19 20 20 21 21 22 22 23 23
REMARK SMILES IDX 24 24
REMARK H PARENT
REMARK Flexibility Score: inf
ROOT
ATOM      1  C   UNL     1     130.201 140.138 139.339  1.00  0.00     0.000 C 
ENDROOT
BRANCH   1   2
ATOM      2  C   UNL     1     130.134 141.575 139.898  1.00  0.00     0.000 C 
BRANCH   2   3
ATOM      3  C   UNL     1     131.060 141.793 141.106  1.00  0.00     0.000 C 
BRANCH   3   4
ATOM      4  C   UNL     1     131.337 143.288 141.370  1.00  0.00    -0.000 C 
BRANCH   4   5
ATOM      5  C   UNL     1     132.680 143.780 140.801  1.00  0.00    -0.000 C 
BRANCH   5   6
ATOM      6  C   UNL     1     132.513 144.790 139.655  1.00  0.00    -0.000 C 
BRANCH   6   7
ATOM      7  C   UNL     1     132.179 144.128 138.306  1.00  0.00    -0.000 C 
BRANCH   7   8
ATOM      8  C   UNL     1     133.055 142.918 137.930  1.00  0.00    -0.000 C 
BRANCH   8   9
ATOM      9  C   UNL     1     133.578 142.978 136.487  1.00  0.00    -0.000 C 
BRANCH   9  10
ATOM     10  C   UNL     1     133.164 144.286 135.806  1.00  0.00    -0.000 C 
BRANCH  10  11
ATOM     11  C   UNL     1     132.444 144.008 134.480  1.00  0.00    -0.003 C 
ATOM     12  C   UNL     1     130.940 144.217 134.617  1.00  0.00     0.004 C 
ENDBRANCH  10  11
ENDBRANCH   9  10
ENDBRANCH   8   9
ENDBRANCH   7   8
ENDBRANCH   6   7
ENDBRANCH   5   6
ENDBRANCH   4   5
ENDBRANCH   3   4
ENDBRANCH   2   3
ENDBRANCH   1   2
BRANCH   1  13
ATOM     13  C   UNL     1     128.854 139.383 139.372  1.00  0.00     0.000 C 
BRANCH  13  14
ATOM     14  C   UNL     1     128.915 137.962 139.959  1.00  0.00     0.000 C 
BRANCH  14  15
ATOM     15  C   UNL     1     129.490 137.913 141.394  1.00  0.00     0.000 C 
BRANCH  15  16
ATOM     16  C   UNL     1     130.285 136.628 141.659  1.00  0.00     0.000 C 
BRANCH  16  17
ATOM     17  C   UNL     1     131.622 136.937 142.344  1.00  0.00     0.000 C 
BRANCH  17  18
ATOM     18  C   UNL     1     131.883 138.450 142.379  1.00  0.00     0.000 C 
BRANCH  18  19
ATOM     19  C   UNL     1     132.178 138.965 143.799  1.00  0.00     0.000 C 
BRANCH  19  20
ATOM     20  C   UNL     1     131.072 139.895 144.325  1.00  0.00     0.006 C 
BRANCH  20  21
ATOM     21  C   UNL     1     129.817 139.121 144.753  1.00  0.00     0.053 C 
BRANCH  21  22
ATOM     22  C   UNL     1     129.316 139.569 146.094  1.00  0.00     0.041 C 
ATOM     23  O   UNL     1     129.360 138.784 147.078  1.00  0.00    -0.550 OA
ATOM     24  O   UNL     1     128.769 140.837 146.249  1.00  0.00    -0.550 OA
ENDBRANCH  21  22
ENDBRANCH  20  21
ENDBRANCH  19  20
ENDBRANCH  18  19
ENDBRANCH  17  18
ENDBRANCH  16  17
ENDBRANCH  15  16
ENDBRANCH  14  15
ENDBRANCH  13  14
ENDBRANCH   1  13
TORSDOF 20
ENDMDL
MODEL 4
REMARK VINA RESULT:    -3.052      4.311      7.687
REMARK INTER + INTRA:         -10.493
REMARK INTER:                  -7.622
REMARK INTRA:                  -2.871
REMARK UNBOUND:                -3.873
REMARK SMILES CCCCCCCCCCCCCCCCCCCCCC(=O)[O-]
REMARK SMILES IDX 12 1 11 2 10 3 9 4 8 5 7 6 6 7 5 8 4 9 3 10 2 11 1 12 13 13
REMARK SMILES IDX 14 14 15 15 16 16 17 17 18 18 19 19 20 20 21 21 22 22 23 23
REMARK SMILES IDX 24 24
REMARK H PARENT
REMARK Flexibility Score: inf
ROOT
ATOM      1  C   UNL     1     129.246 139.131 139.116  1.00  0.00     0.000 C 
ENDROOT
BRANCH   1   2
ATOM      2  C   UNL     1     128.464 138.409 140.235  1.00  0.00     0.000 C 
BRANCH   2   3
ATOM      3  C   UNL     1     129.326 137.403 141.016  1.00  0.00     0.000 C 
BRANCH   3   4
ATOM      4  C   UNL     1     130.250 138.094 142.040  1.00  0.00    -0.000 C 
BRANCH   4   5
ATOM      5  C   UNL     1     131.714 138.209 141.577  1.00  0.00    -0.000 C 
BRANCH   5   6
ATOM      6  C   UNL     1     132.405 139.485 142.080  1.00  0.00    -0.000 C 
BRANCH   6   7
ATOM      7  C   UNL     1     131.425 140.510 142.680  1.00  0.00    -0.000 C 
BRANCH   7   8
ATOM      8  C   UNL     1     131.750 140.972 144.113  1.00  0.00    -0.000 C 
BRANCH   8   9
ATOM      9  C   UNL     1     130.553 141.620 144.824  1.00  0.00    -0.000 C 
BRANCH   9  10
ATOM     10  C   UNL     1     129.731 140.573 145.582  1.00  0.00    -0.000 C 
BRANCH  10  11
ATOM     11  C   UNL     1     130.640 139.653 146.404  1.00  0.00    -0.003 C 
ATOM     12  C   UNL     1     130.630 138.232 145.851  1.00  0.00     0.004 C 
ENDBRANCH  10  11
ENDBRANCH   9  10
ENDBRANCH   8   9
ENDBRANCH   7   8
ENDBRANCH   6   7
ENDBRANCH   5   6
ENDBRANCH   4   5
ENDBRANCH   3   4
ENDBRANCH   2   3
ENDBRANCH   1   2
BRANCH   1  13
ATOM     13  C   UNL     1     129.108 140.669 139.139  1.00  0.00     0.000 C 
BRANCH  13  14
ATOM     14  C   UNL     1     130.261 141.439 138.473  1.00  0.00     0.000 C 
BRANCH  14  15
ATOM     15  C   UNL     1     131.434 140.532 138.034  1.00  0.00     0.000 C 
BRANCH  15  16
ATOM     16  C   UNL     1     132.744 140.888 138.748  1.00  0.00     0.000 C 
BRANCH  16  17
ATOM     17  C   UNL     1     132.615 142.212 139.512  1.00  0.00     0.000 C 
BRANCH  17  18
ATOM     18  C   UNL     1     133.692 143.211 139.063  1.00  0.00     0.000 C 
BRANCH  18  19
ATOM     19  C   UNL     1     133.127 144.317 138.154  1.00  0.00     0.000 C 
BRANCH  19  20
ATOM     20  C   UNL     1     133.416 144.057 136.666  1.00  0.00     0.006 C 
BRANCH  20  21
ATOM     21  C   UNL     1     132.138 143.771 135.867  1.00  0.00     0.053 C 
BRANCH  21  22
ATOM     22  C   UNL     1     132.282 144.161 134.426  1.00  0.00     0.041 C 
ATOM     23  O   UNL     1     133.028 145.125 134.106  1.00  0.00    -0.550 OA
ATOM     24  O   UNL     1     131.568 143.487 133.443  1.00  0.00    -0.550 OA
ENDBRANCH  21  22
ENDBRANCH  20  21
ENDBRANCH  19  20
ENDBRANCH  18  19
ENDBRANCH  17  18
ENDBRANCH  16  17
ENDBRANCH  15  16
ENDBRANCH  14  15
ENDBRANCH  13  14
ENDBRANCH   1  13
TORSDOF 20
ENDMDL
MODEL 5
REMARK VINA RESULT:    -2.988     13.527     15.674
REMARK INTER + INTRA:         -10.354
REMARK INTER:                  -6.694
REMARK INTRA:                  -3.660
REMARK UNBOUND:                -3.873
REMARK SMILES CCCCCCCCCCCCCCCCCCCCCC(=O)[O-]
REMARK SMILES IDX 12 1 11 2 10 3 9 4 8 5 7 6 6 7 5 8 4 9 3 10 2 11 1 12 13 13
REMARK SMILES IDX 14 14 15 15 16 16 17 17 18 18 19 19 20 20 21 21 22 22 23 23
REMARK SMILES IDX 24 24
REMARK H PARENT
REMARK Flexibility Score: inf
ROOT
ATOM      1  C   UNL     1     135.642 126.247 136.871  1.00  0.00     0.000 C 
ENDROOT
BRANCH   1   2
ATOM      2  C   UNL     1     135.055 125.774 135.524  1.00  0.00     0.000 C 
BRANCH   2   3
ATOM      3  C   UNL     1     134.951 126.902 134.484  1.00  0.00     0.000 C 
BRANCH   3   4
ATOM      4  C   UNL     1     134.162 128.116 135.015  1.00  0.00    -0.000 C 
BRANCH   4   5
ATOM      5  C   UNL     1     133.985 129.243 133.981  1.00  0.00    -0.000 C 
BRANCH   5   6
ATOM      6  C   UNL     1     133.462 130.549 134.598  1.00  0.00    -0.000 C 
BRANCH   6   7
ATOM      7  C   UNL     1     133.287 130.471 136.126  1.00  0.00    -0.000 C 
BRANCH   7   8
ATOM      8  C   UNL     1     134.034 131.552 136.931  1.00  0.00    -0.000 C 
BRANCH   8   9
ATOM      9  C   UNL     1     135.560 131.390 136.887  1.00  0.00    -0.000 C 
BRANCH   9  10
ATOM     10  C   UNL     1     135.991 130.064 137.522  1.00  0.00    -0.000 C 
BRANCH  10  11
ATOM     11  C   UNL     1     137.213 129.483 136.801  1.00  0.00    -0.003 C 
ATOM     12  C   UNL     1     137.326 130.029 135.382  1.00  0.00     0.004 C 
ENDBRANCH  10  11
ENDBRANCH   9  10
ENDBRANCH   8   9
ENDBRANCH   7   8
ENDBRANCH   6   7
ENDBRANCH   5   6
ENDBRANCH   4   5
ENDBRANCH   3   4
ENDBRANCH   2   3
ENDBRANCH   1   2
BRANCH   1  13
ATOM     13  C   UNL     1     137.086 125.768 137.136  1.00  0.00     0.000 C 
BRANCH  13  14
ATOM     14  C   UNL     1     137.690 124.875 136.038  1.00  0.00     0.000 C 
BRANCH  14  15
ATOM     15  C   UNL     1     138.656 125.628 135.095  1.00  0.00     0.000 C 
BRANCH  15  16
ATOM     16  C   UNL     1     139.528 126.643 135.846  1.00  0.00     0.000 C 
BRANCH  16  17
ATOM     17  C   UNL     1     140.806 125.985 136.381  1.00  0.00     0.000 C 
BRANCH  17  18
ATOM     18  C   UNL     1     141.255 126.648 137.692  1.00  0.00     0.000 C 
BRANCH  18  19
ATOM     19  C   UNL     1     140.821 125.850 138.934  1.00  0.00     0.000 C 
BRANCH  19  20
ATOM     20  C   UNL     1     139.559 126.433 139.592  1.00  0.00     0.006 C 
BRANCH  20  21
ATOM     21  C   UNL     1     139.430 127.945 139.363  1.00  0.00     0.053 C 
BRANCH  21  22
ATOM     22  C   UNL     1     139.043 128.668 140.619  1.00  0.00     0.041 C 
ATOM     23  O   UNL     1     139.697 128.482 141.680  1.00  0.00    -0.550 OA
ATOM     24  O   UNL     1     137.943 129.516 140.628  1.00  0.00    -0.550 OA
ENDBRANCH  21  22
ENDBRANCH  20  21
ENDBRANCH  19  20
ENDBRANCH  18  19
ENDBRANCH  17  18
ENDBRANCH  16  17
ENDBRANCH  15  16
ENDBRANCH  14  15
ENDBRANCH  13  14
ENDBRANCH   1  13
TORSDOF 20
ENDMDL
MODEL 6
REMARK VINA RESULT:    -2.933      2.379      4.605
REMARK INTER + INTRA:         -10.235
REMARK INTER:                  -6.618
REMARK INTRA:                  -3.617
REMARK UNBOUND:                -3.873
REMARK SMILES CCCCCCCCCCCCCCCCCCCCCC(=O)[O-]
REMARK SMILES IDX 12 1 11 2 10 3 9 4 8 5 7 6 6 7 5 8 4 9 3 10 2 11 1 12 13 13
REMARK SMILES IDX 14 14 15 15 16 16 17 17 18 18 19 19 20 20 21 21 22 22 23 23
REMARK SMILES IDX 24 24
REMARK H PARENT
REMARK Flexibility Score: inf
ROOT
ATOM      1  C   UNL     1     133.463 144.904 140.746  1.00  0.00     0.000 C 
ENDROOT
BRANCH   1   2
ATOM      2  C   UNL     1     133.206 143.809 141.803  1.00  0.00     0.000 C 
BRANCH   2   3
ATOM      3  C   UNL     1     131.729 143.388 141.885  1.00  0.00     0.000 C 
BRANCH   3   4
ATOM      4  C   UNL     1     131.380 142.734 143.237  1.00  0.00    -0.000 C 
BRANCH   4   5
ATOM      5  C   UNL     1     131.172 141.211 143.157  1.00  0.00    -0.000 C 
BRANCH   5   6
ATOM      6  C   UNL     1     132.374 140.411 143.681  1.00  0.00    -0.000 C 
BRANCH   6   7
ATOM      7  C   UNL     1     132.983 139.469 142.628  1.00  0.00    -0.000 C 
BRANCH   7   8
ATOM      8  C   UNL     1     134.021 140.112 141.689  1.00  0.00    -0.000 C 
BRANCH   8   9
ATOM      9  C   UNL     1     133.457 140.438 140.299  1.00  0.00    -0.000 C 
BRANCH   9  10
ATOM     10  C   UNL     1     134.504 141.146 139.432  1.00  0.00    -0.000 C 
BRANCH  10  11
ATOM     11  C   UNL     1     134.438 140.653 137.982  1.00  0.00    -0.003 C 
ATOM     12  C   UNL     1     133.443 139.508 137.834  1.00  0.00     0.004 C 
ENDBRANCH  10  11
ENDBRANCH   9  10
ENDBRANCH   8   9
ENDBRANCH   7   8
ENDBRANCH   6   7
ENDBRANCH   5   6
ENDBRANCH   4   5
ENDBRANCH   3   4
ENDBRANCH   2   3
ENDBRANCH   1   2
BRANCH   1  13
ATOM     13  C   UNL     1     132.468 144.890 139.565  1.00  0.00     0.000 C 
BRANCH  13  14
ATOM     14  C   UNL     1     133.030 144.339 138.243  1.00  0.00     0.000 C 
BRANCH  14  15
ATOM     15  C   UNL     1     132.108 143.296 137.570  1.00  0.00     0.000 C 
BRANCH  15  16
ATOM     16  C   UNL     1     130.865 142.987 138.414  1.00  0.00     0.000 C 
BRANCH  16  17
ATOM     17  C   UNL     1     130.259 141.632 138.029  1.00  0.00     0.000 C 
BRANCH  17  18
ATOM     18  C   UNL     1     129.299 141.132 139.119  1.00  0.00     0.000 C 
BRANCH  18  19
ATOM     19  C   UNL     1     129.228 139.596 139.182  1.00  0.00     0.000 C 
BRANCH  19  20
ATOM     20  C   UNL     1     130.100 139.017 140.309  1.00  0.00     0.006 C 
BRANCH  20  21
ATOM     21  C   UNL     1     129.383 137.902 141.084  1.00  0.00     0.053 C 
BRANCH  21  22
ATOM     22  C   UNL     1     128.311 137.251 140.261  1.00  0.00     0.041 C 
ATOM     23  O   UNL     1     128.625 136.478 139.316  1.00  0.00    -0.550 OA
ATOM     24  O   UNL     1     126.973 137.524 140.513  1.00  0.00    -0.550 OA
ENDBRANCH  21  22
ENDBRANCH  20  21
ENDBRANCH  19  20
ENDBRANCH  18  19
ENDBRANCH  17  18
ENDBRANCH  16  17
ENDBRANCH  15  16
ENDBRANCH  14  15
ENDBRANCH  13  14
ENDBRANCH   1  13
TORSDOF 20
ENDMDL
MODEL 7
REMARK VINA RESULT:    -2.916      5.170      7.783
REMARK INTER + INTRA:         -10.198
REMARK INTER:                  -7.698
REMARK INTRA:                  -2.500
REMARK UNBOUND:                -3.873
REMARK SMILES CCCCCCCCCCCCCCCCCCCCCC(=O)[O-]
REMARK SMILES IDX 12 1 11 2 10 3 9 4 8 5 7 6 6 7 5 8 4 9 3 10 2 11 1 12 13 13
REMARK SMILES IDX 14 14 15 15 16 16 17 17 18 18 19 19 20 20 21 21 22 22 23 23
REMARK SMILES IDX 24 24
REMARK H PARENT
REMARK Flexibility Score: inf
ROOT
ATOM      1  C   UNL     1     131.798 144.231 134.542  1.00  0.00     0.000 C 
ENDROOT
BRANCH   1   2
ATOM      2  C   UNL     1     132.870 145.031 133.771  1.00  0.00     0.000 C 
BRANCH   2   3
ATOM      3  C   UNL     1     132.946 144.654 132.282  1.00  0.00     0.000 C 
BRANCH   3   4
ATOM      4  C   UNL     1     134.297 144.010 131.909  1.00  0.00    -0.000 C 
BRANCH   4   5
ATOM      5  C   UNL     1     134.456 143.724 130.405  1.00  0.00    -0.000 C 
BRANCH   5   6
ATOM      6  C   UNL     1     135.465 142.605 130.110  1.00  0.00    -0.000 C 
BRANCH   6   7
ATOM      7  C   UNL     1     134.889 141.484 129.225  1.00  0.00    -0.000 C 
BRANCH   7   8
ATOM      8  C   UNL     1     134.402 140.233 129.980  1.00  0.00    -0.000 C 
BRANCH   8   9
ATOM      9  C   UNL     1     132.872 140.114 130.027  1.00  0.00    -0.000 C 
BRANCH   9  10
ATOM     10  C   UNL     1     132.313 140.712 131.321  1.00  0.00    -0.000 C 
BRANCH  10  11
ATOM     11  C   UNL     1     131.154 141.671 131.026  1.00  0.00    -0.003 C 
ATOM     12  C   UNL     1     131.173 142.125 129.570  1.00  0.00     0.004 C 
ENDBRANCH  10  11
ENDBRANCH   9  10
ENDBRANCH   8   9
ENDBRANCH   7   8
ENDBRANCH   6   7
ENDBRANCH   5   6
ENDBRANCH   4   5
ENDBRANCH   3   4
ENDBRANCH   2   3
ENDBRANCH   1   2
BRANCH   1  13
ATOM     13  C   UNL     1     132.369 143.287 135.623  1.00  0.00     0.000 C 
BRANCH  13  14
ATOM     14  C   UNL     1     133.222 143.973 136.705  1.00  0.00     0.000 C 
BRANCH  14  15
ATOM     15  C   UNL     1     133.776 142.993 137.765  1.00  0.00     0.000 C 
BRANCH  15  16
ATOM     16  C   UNL     1     133.946 143.656 139.138  1.00  0.00     0.000 C 
BRANCH  16  17
ATOM     17  C   UNL     1     133.047 144.891 139.271  1.00  0.00     0.000 C 
BRANCH  17  18
ATOM     18  C   UNL     1     131.721 144.531 139.957  1.00  0.00     0.000 C 
BRANCH  18  19
ATOM     19  C   UNL     1     131.891 143.450 141.040  1.00  0.00     0.000 C 
BRANCH  19  20
ATOM     20  C   UNL     1     130.789 142.380 140.976  1.00  0.00     0.006 C 
BRANCH  20  21
ATOM     21  C   UNL     1     131.061 141.329 139.890  1.00  0.00     0.053 C 
BRANCH  21  22
ATOM     22  C   UNL     1     129.952 141.268 138.882  1.00  0.00     0.041 C 
ATOM     23  O   UNL     1     129.946 142.061 137.903  1.00  0.00    -0.550 OA
ATOM     24  O   UNL     1     128.909 140.364 139.043  1.00  0.00    -0.550 OA
ENDBRANCH  21  22
ENDBRANCH  20  21
ENDBRANCH  19  20
ENDBRANCH  18  19
ENDBRANCH  17  18
ENDBRANCH  16  17
ENDBRANCH  15  16
ENDBRANCH  14  15
ENDBRANCH  13  14
ENDBRANCH   1  13
TORSDOF 20
ENDMDL
MODEL 8
REMARK VINA RESULT:    -2.910      2.251      4.114
REMARK INTER + INTRA:         -10.186
REMARK INTER:                  -6.994
REMARK INTRA:                  -3.191
REMARK UNBOUND:                -3.873
REMARK SMILES CCCCCCCCCCCCCCCCCCCCCC(=O)[O-]
REMARK SMILES IDX 12 1 11 2 10 3 9 4 8 5 7 6 6 7 5 8 4 9 3 10 2 11 1 12 13 13
REMARK SMILES IDX 14 14 15 15 16 16 17 17 18 18 19 19 20 20 21 21 22 22 23 23
REMARK SMILES IDX 24 24
REMARK H PARENT
REMARK Flexibility Score: inf
ROOT
ATOM      1  C   UNL     1     132.368 143.809 141.563  1.00  0.00     0.000 C 
ENDROOT
BRANCH   1   2
ATOM      2  C   UNL     1     131.874 144.401 140.226  1.00  0.00     0.000 C 
BRANCH   2   3
ATOM      3  C   UNL     1     132.942 144.362 139.120  1.00  0.00     0.000 C 
BRANCH   3   4
ATOM      4  C   UNL     1     132.408 143.744 137.811  1.00  0.00    -0.000 C 
BRANCH   4   5
ATOM      5  C   UNL     1     130.888 143.500 137.814  1.00  0.00    -0.000 C 
BRANCH   5   6
ATOM      6  C   UNL     1     130.518 142.013 137.696  1.00  0.00    -0.000 C 
BRANCH   6   7
ATOM      7  C   UNL     1     129.653 141.508 138.865  1.00  0.00    -0.000 C 
BRANCH   7   8
ATOM      8  C   UNL     1     130.363 140.556 139.847  1.00  0.00    -0.000 C 
BRANCH   8   9
ATOM      9  C   UNL     1     131.890 140.715 139.842  1.00  0.00    -0.000 C 
BRANCH   9  10
ATOM     10  C   UNL     1     132.572 139.461 139.286  1.00  0.00    -0.000 C 
BRANCH  10  11
ATOM     11  C   UNL     1     133.756 139.834 138.387  1.00  0.00    -0.003 C 
ATOM     12  C   UNL     1     133.343 139.872 136.919  1.00  0.00     0.004 C 
ENDBRANCH  10  11
ENDBRANCH   9  10
ENDBRANCH   8   9
ENDBRANCH   7   8
ENDBRANCH   6   7
ENDBRANCH   5   6
ENDBRANCH   4   5
ENDBRANCH   3   4
ENDBRANCH   2   3
ENDBRANCH   1   2
BRANCH   1  13
ATOM     13  C   UNL     1     131.245 143.242 142.458  1.00  0.00     0.000 C 
BRANCH  13  14
ATOM     14  C   UNL     1     131.695 142.179 143.476  1.00  0.00     0.000 C 
BRANCH  14  15
ATOM     15  C   UNL     1     130.533 141.605 144.320  1.00  0.00     0.000 C 
BRANCH  15  16
ATOM     16  C   UNL     1     130.938 141.365 145.780  1.00  0.00     0.000 C 
BRANCH  16  17
ATOM     17  C   UNL     1     130.360 140.044 146.304  1.00  0.00     0.000 C 
BRANCH  17  18
ATOM     18  C   UNL     1     129.937 139.133 145.142  1.00  0.00     0.000 C 
BRANCH  18  19
ATOM     19  C   UNL     1     130.881 137.931 144.962  1.00  0.00     0.000 C 
BRANCH  19  20
ATOM     20  C   UNL     1     131.454 137.845 143.538  1.00  0.00     0.006 C 
BRANCH  20  21
ATOM     21  C   UNL     1     130.448 138.314 142.477  1.00  0.00     0.053 C 
BRANCH  21  22
ATOM     22  C   UNL     1     129.995 137.184 141.601  1.00  0.00     0.041 C 
ATOM     23  O   UNL     1     130.486 136.033 141.752  1.00  0.00    -0.550 OA
ATOM     24  O   UNL     1     129.061 137.408 140.597  1.00  0.00    -0.550 OA
ENDBRANCH  21  22
ENDBRANCH  20  21
ENDBRANCH  19  20
ENDBRANCH  18  19
ENDBRANCH  17  18
ENDBRANCH  16  17
ENDBRANCH  15  16
ENDBRANCH  14  15
ENDBRANCH  13  14
ENDBRANCH   1  13
TORSDOF 20
ENDMDL
MODEL 9
REMARK VINA RESULT:    -2.902      7.319     10.450
REMARK INTER + INTRA:         -10.169
REMARK INTER:                  -7.011
REMARK INTRA:                  -3.157
REMARK UNBOUND:                -3.873
REMARK SMILES CCCCCCCCCCCCCCCCCCCCCC(=O)[O-]
REMARK SMILES IDX 12 1 11 2 10 3 9 4 8 5 7 6 6 7 5 8 4 9 3 10 2 11 1 12 13 13
REMARK SMILES IDX 14 14 15 15 16 16 17 17 18 18 19 19 20 20 21 21 22 22 23 23
REMARK SMILES IDX 24 24
REMARK H PARENT
REMARK Flexibility Score: inf
ROOT
ATOM      1  C   UNL     1     132.629 140.646 129.004  1.00  0.00     0.000 C 
ENDROOT
BRANCH   1   2
ATOM      2  C   UNL     1     133.697 140.034 129.937  1.00  0.00     0.000 C 
BRANCH   2   3
ATOM      3  C   UNL     1     135.132 140.426 129.544  1.00  0.00     0.000 C 
BRANCH   3   4
ATOM      4  C   UNL     1     135.492 141.857 129.993  1.00  0.00    -0.000 C 
BRANCH   4   5
ATOM      5  C   UNL     1     136.087 141.933 131.411  1.00  0.00    -0.000 C 
BRANCH   5   6
ATOM      6  C   UNL     1     136.734 143.292 131.719  1.00  0.00    -0.000 C 
BRANCH   6   7
ATOM      7  C   UNL     1     137.080 144.100 130.456  1.00  0.00    -0.000 C 
BRANCH   7   8
ATOM      8  C   UNL     1     138.545 144.001 129.991  1.00  0.00    -0.000 C 
BRANCH   8   9
ATOM      9  C   UNL     1     138.693 143.391 128.589  1.00  0.00    -0.000 C 
BRANCH   9  10
ATOM     10  C   UNL     1     139.658 142.201 128.607  1.00  0.00    -0.000 C 
BRANCH  10  11
ATOM     11  C   UNL     1     138.904 140.889 128.856  1.00  0.00    -0.003 C 
ATOM     12  C   UNL     1     139.249 140.307 130.222  1.00  0.00     0.004 C 
ENDBRANCH  10  11
ENDBRANCH   9  10
ENDBRANCH   8   9
ENDBRANCH   7   8
ENDBRANCH   6   7
ENDBRANCH   5   6
ENDBRANCH   4   5
ENDBRANCH   3   4
ENDBRANCH   2   3
ENDBRANCH   1   2
BRANCH   1  13
ATOM     13  C   UNL     1     131.746 141.722 129.673  1.00  0.00     0.000 C 
BRANCH  13  14
ATOM     14  C   UNL     1     131.579 141.576 131.196  1.00  0.00     0.000 C 
BRANCH  14  15
ATOM     15  C   UNL     1     131.917 142.867 131.978  1.00  0.00     0.000 C 
BRANCH  15  16
ATOM     16  C   UNL     1     132.825 143.811 131.179  1.00  0.00     0.000 C 
BRANCH  16  17
ATOM     17  C   UNL     1     133.334 144.961 132.056  1.00  0.00     0.000 C 
BRANCH  17  18
ATOM     18  C   UNL     1     132.779 144.849 133.484  1.00  0.00     0.000 C 
BRANCH  18  19
ATOM     19  C   UNL     1     133.886 144.639 134.532  1.00  0.00     0.000 C 
BRANCH  19  20
ATOM     20  C   UNL     1     133.319 144.319 135.925  1.00  0.00     0.006 C 
BRANCH  20  21
ATOM     21  C   UNL     1     132.126 143.356 135.860  1.00  0.00     0.053 C 
BRANCH  21  22
ATOM     22  C   UNL     1     131.385 143.296 137.163  1.00  0.00     0.041 C 
ATOM     23  O   UNL     1     131.867 143.850 138.187  1.00  0.00    -0.550 OA
ATOM     24  O   UNL     1     130.185 142.602 137.254  1.00  0.00    -0.550 OA
ENDBRANCH  21  22
ENDBRANCH  20  21
ENDBRANCH  19  20
ENDBRANCH  18  19
ENDBRANCH  17  18
ENDBRANCH  16  17
ENDBRANCH  15  16
ENDBRANCH  14  15
ENDBRANCH  13  14
ENDBRANCH   1  13
TORSDOF 20
ENDMDL
