MODEL 1
REMARK VINA RESULT:    -6.251      0.000      0.000
REMARK INTER + INTRA:          -6.952
REMARK INTER:                  -6.799
REMARK INTRA:                  -0.153
REMARK UNBOUND:                -0.153
REMARK SMILES C[C@@H]1[C@H](C)CC[C@]2(C(=O)[O-])CC[C@@]3(C)C(=CC[C@H]4[C@]5(C)CC[C@@H](O)C(C)(C)[C@H]5CC[C@@]43C)[C@H]12
REMARK SMILES IDX 7 1 6 2 11 3 33 4 5 5 12 6 15 7 2 8 3 9 13 10 16 11 1 12
REMARK SMILES IDX 4 13 14 14 31 15 17 16 18 17 30 18 32 19 19 20 29 21 28 22
REMARK SMILES IDX 21 23 20 24 25 25 22 26 23 27 26 28 27 29 8 30 9 31 10 32
REMARK SMILES IDX 24 33
REMARK H PARENT 24 34
REMARK Flexibility Score: inf
ROOT
ATOM      1  C   UNL     1      52.023  -7.024 -46.628  1.00  0.00     0.017 C 
ATOM      2  C   UNL     1      50.662  -7.534 -47.203  1.00  0.00     0.014 C 
ATOM      3  C   UNL     1      52.019  -5.460 -46.515  1.00  0.00     0.014 C 
ATOM      4  C   UNL     1      53.236  -7.524 -47.496  1.00  0.00     0.030 C 
ATOM      5  C   UNL     1      50.510  -7.418 -48.720  1.00  0.00     0.004 C 
ATOM      6  C   UNL     1      53.400  -4.745 -46.567  1.00  0.00     0.013 C 
ATOM      7  C   UNL     1      54.581  -6.923 -47.045  1.00  0.00    -0.063 C 
ATOM      8  C   UNL     1      53.024  -7.465 -49.050  1.00  0.00    -0.003 C 
ATOM      9  C   UNL     1      51.671  -8.122 -49.430  1.00  0.00    -0.011 C 
ATOM     10  C   UNL     1      54.651  -5.620 -46.229  1.00  0.00    -0.006 C 
ATOM     11  C   UNL     1      55.704  -7.647 -47.269  1.00  0.00    -0.027 C 
ATOM     12  C   UNL     1      53.195  -6.072 -49.683  1.00  0.00     0.008 C 
ATOM     13  C   UNL     1      51.428  -8.188 -50.946  1.00  0.00     0.008 C 
ATOM     14  C   UNL     1      54.564  -6.000 -44.702  1.00  0.00     0.017 C 
ATOM     15  C   UNL     1      56.042  -4.864 -46.561  1.00  0.00    -0.020 C 
ATOM     16  C   UNL     1      57.109  -7.216 -46.901  1.00  0.00     0.032 C 
ATOM     17  C   UNL     1      57.211  -5.851 -46.156  1.00  0.00     0.006 C 
ATOM     18  C   UNL     1      56.150  -3.507 -45.783  1.00  0.00     0.008 C 
ATOM     19  C   UNL     1      56.161  -4.510 -48.079  1.00  0.00     0.012 C 
ATOM     20  C   UNL     1      58.674  -5.232 -46.078  1.00  0.00    -0.025 C 
ATOM     21  C   UNL     1      57.571  -2.924 -45.704  1.00  0.00     0.005 C 
ATOM     22  C   UNL     1      58.584  -3.960 -45.149  1.00  0.00     0.003 C 
ATOM     23  C   UNL     1      59.604  -6.277 -45.381  1.00  0.00     0.010 C 
ATOM     24  C   UNL     1      59.262  -4.917 -47.498  1.00  0.00     0.012 C 
ATOM     25  C   UNL     1      59.965  -3.354 -44.666  1.00  0.00    -0.006 C 
ATOM     26  C   UNL     1      60.969  -5.717 -44.958  1.00  0.00     0.033 C 
ATOM     27  C   UNL     1      60.825  -4.498 -44.037  1.00  0.00     0.120 C 
ATOM     28  C   UNL     1      59.715  -2.307 -43.544  1.00  0.00     0.014 C 
ATOM     29  C   UNL     1      60.746  -2.632 -45.795  1.00  0.00     0.014 C 
ENDROOT
BRANCH   1  30
ATOM     30  C   UNL     1      52.077  -7.640 -45.226  1.00  0.00     0.048 C 
ATOM     31  O   UNL     1      51.376  -7.160 -44.294  1.00  0.00    -0.550 OA
ATOM     32  O   UNL     1      52.796  -8.804 -44.976  1.00  0.00    -0.550 OA
ENDBRANCH   1  30
BRANCH  27  33
ATOM     33  O   UNL     1      62.105  -4.020 -43.698  1.00  0.00    -0.393 OA
ATOM     34  H   UNL     1      62.601  -3.890 -44.549  1.00  0.00     0.210 HD
ENDBRANCH  27  33
TORSDOF 2
ENDMDL
MODEL 2
REMARK VINA RESULT:    -6.092      4.670      6.589
REMARK INTER + INTRA:          -6.779
REMARK INTER:                  -6.596
REMARK INTRA:                  -0.182
REMARK UNBOUND:                -0.153
REMARK SMILES C[C@@H]1[C@H](C)CC[C@]2(C(=O)[O-])CC[C@@]3(C)C(=CC[C@H]4[C@]5(C)CC[C@@H](O)C(C)(C)[C@H]5CC[C@@]43C)[C@H]12
REMARK SMILES IDX 7 1 6 2 11 3 33 4 5 5 12 6 15 7 2 8 3 9 13 10 16 11 1 12
REMARK SMILES IDX 4 13 14 14 31 15 17 16 18 17 30 18 32 19 19 20 29 21 28 22
REMARK SMILES IDX 21 23 20 24 25 25 22 26 23 27 26 28 27 29 8 30 9 31 10 32
REMARK SMILES IDX 24 33
REMARK H PARENT 24 34
REMARK Flexibility Score: inf
ROOT
ATOM      1  C   UNL     1      51.453  -6.623 -50.740  1.00  0.00     0.017 C 
ATOM      2  C   UNL     1      51.572  -6.232 -52.248  1.00  0.00     0.014 C 
ATOM      3  C   UNL     1      50.221  -5.910 -50.084  1.00  0.00     0.014 C 
ATOM      4  C   UNL     1      52.777  -6.296 -49.956  1.00  0.00     0.030 C 
ATOM      5  C   UNL     1      52.207  -4.868 -52.521  1.00  0.00     0.004 C 
ATOM      6  C   UNL     1      50.281  -5.667 -48.548  1.00  0.00     0.013 C 
ATOM      7  C   UNL     1      52.648  -6.534 -48.440  1.00  0.00    -0.063 C 
ATOM      8  C   UNL     1      53.450  -4.924 -50.311  1.00  0.00    -0.003 C 
ATOM      9  C   UNL     1      53.582  -4.774 -51.849  1.00  0.00    -0.011 C 
ATOM     10  C   UNL     1      51.278  -6.560 -47.739  1.00  0.00    -0.006 C 
ATOM     11  C   UNL     1      53.770  -6.857 -47.752  1.00  0.00    -0.027 C 
ATOM     12  C   UNL     1      52.804  -3.688 -49.658  1.00  0.00     0.008 C 
ATOM     13  C   UNL     1      54.316  -3.495 -52.279  1.00  0.00     0.008 C 
ATOM     14  C   UNL     1      50.737  -8.039 -47.791  1.00  0.00     0.017 C 
ATOM     15  C   UNL     1      51.457  -6.059 -46.211  1.00  0.00    -0.020 C 
ATOM     16  C   UNL     1      53.835  -7.118 -46.262  1.00  0.00     0.032 C 
ATOM     17  C   UNL     1      52.469  -7.056 -45.515  1.00  0.00     0.006 C 
ATOM     18  C   UNL     1      50.081  -6.030 -45.459  1.00  0.00     0.008 C 
ATOM     19  C   UNL     1      52.026  -4.605 -46.141  1.00  0.00     0.012 C 
ATOM     20  C   UNL     1      52.569  -6.983 -43.929  1.00  0.00    -0.025 C 
ATOM     21  C   UNL     1      50.189  -5.970 -43.927  1.00  0.00     0.005 C 
ATOM     22  C   UNL     1      51.096  -7.101 -43.373  1.00  0.00     0.003 C 
ATOM     23  C   UNL     1      53.375  -8.228 -43.438  1.00  0.00     0.010 C 
ATOM     24  C   UNL     1      53.309  -5.690 -43.441  1.00  0.00     0.012 C 
ATOM     25  C   UNL     1      50.962  -7.367 -41.818  1.00  0.00    -0.006 C 
ATOM     26  C   UNL     1      53.298  -8.465 -41.924  1.00  0.00     0.033 C 
ATOM     27  C   UNL     1      51.849  -8.597 -41.438  1.00  0.00     0.120 C 
ATOM     28  C   UNL     1      49.493  -7.745 -41.475  1.00  0.00     0.014 C 
ATOM     29  C   UNL     1      51.327  -6.134 -40.951  1.00  0.00     0.014 C 
ENDROOT
BRANCH   1  30
ATOM     30  C   UNL     1      51.211  -8.136 -50.776  1.00  0.00     0.048 C 
ATOM     31  O   UNL     1      50.044  -8.589 -50.929  1.00  0.00    -0.550 OA
ATOM     32  O   UNL     1      52.271  -9.037 -50.765  1.00  0.00    -0.550 OA
ENDBRANCH   1  30
BRANCH  27  33
ATOM     33  O   UNL     1      51.843  -8.795 -40.045  1.00  0.00    -0.393 OA
ATOM     34  H   UNL     1      51.346  -9.637 -39.873  1.00  0.00     0.210 HD
ENDBRANCH  27  33
TORSDOF 2
ENDMDL
MODEL 3
REMARK VINA RESULT:    -5.896      2.081      8.236
REMARK INTER + INTRA:          -6.565
REMARK INTER:                  -6.381
REMARK INTRA:                  -0.184
REMARK UNBOUND:                -0.153
REMARK SMILES C[C@@H]1[C@H](C)CC[C@]2(C(=O)[O-])CC[C@@]3(C)C(=CC[C@H]4[C@]5(C)CC[C@@H](O)C(C)(C)[C@H]5CC[C@@]43C)[C@H]12
REMARK SMILES IDX 7 1 6 2 11 3 33 4 5 5 12 6 15 7 2 8 3 9 13 10 16 11 1 12
REMARK SMILES IDX 4 13 14 14 31 15 17 16 18 17 30 18 32 19 19 20 29 21 28 22
REMARK SMILES IDX 21 23 20 24 25 25 22 26 23 27 26 28 27 29 8 30 9 31 10 32
REMARK SMILES IDX 24 33
REMARK H PARENT 24 34
REMARK Flexibility Score: inf
ROOT
ATOM      1  C   UNL     1      60.349  -3.527 -46.343  1.00  0.00     0.017 C 
ATOM      2  C   UNL     1      61.791  -3.263 -45.803  1.00  0.00     0.014 C 
ATOM      3  C   UNL     1      59.358  -2.432 -45.817  1.00  0.00     0.014 C 
ATOM      4  C   UNL     1      59.848  -4.969 -45.962  1.00  0.00     0.030 C 
ATOM      5  C   UNL     1      62.043  -3.715 -44.364  1.00  0.00     0.004 C 
ATOM      6  C   UNL     1      57.857  -2.829 -45.713  1.00  0.00     0.013 C 
ATOM      7  C   UNL     1      58.378  -5.214 -46.351  1.00  0.00    -0.063 C 
ATOM      8  C   UNL     1      60.187  -5.438 -44.503  1.00  0.00    -0.003 C 
ATOM      9  C   UNL     1      61.689  -5.197 -44.199  1.00  0.00    -0.011 C 
ATOM     10  C   UNL     1      57.397  -4.050 -46.576  1.00  0.00    -0.006 C 
ATOM     11  C   UNL     1      57.999  -6.486 -46.625  1.00  0.00    -0.027 C 
ATOM     12  C   UNL     1      59.271  -4.872 -43.403  1.00  0.00     0.008 C 
ATOM     13  C   UNL     1      62.125  -5.715 -42.820  1.00  0.00     0.008 C 
ATOM     14  C   UNL     1      57.493  -3.622 -48.089  1.00  0.00     0.017 C 
ATOM     15  C   UNL     1      55.901  -4.541 -46.204  1.00  0.00    -0.020 C 
ATOM     16  C   UNL     1      56.600  -6.915 -47.016  1.00  0.00     0.032 C 
ATOM     17  C   UNL     1      55.565  -5.758 -47.158  1.00  0.00     0.006 C 
ATOM     18  C   UNL     1      54.862  -3.379 -46.379  1.00  0.00     0.008 C 
ATOM     19  C   UNL     1      55.796  -5.002 -44.713  1.00  0.00     0.012 C 
ATOM     20  C   UNL     1      54.044  -6.218 -47.223  1.00  0.00    -0.025 C 
ATOM     21  C   UNL     1      53.396  -3.836 -46.452  1.00  0.00     0.005 C 
ATOM     22  C   UNL     1      53.190  -4.928 -47.536  1.00  0.00     0.003 C 
ATOM     23  C   UNL     1      53.888  -7.205 -48.424  1.00  0.00     0.010 C 
ATOM     24  C   UNL     1      53.590  -6.954 -45.914  1.00  0.00     0.012 C 
ATOM     25  C   UNL     1      51.685  -5.178 -47.957  1.00  0.00    -0.006 C 
ATOM     26  C   UNL     1      52.432  -7.500 -48.806  1.00  0.00     0.033 C 
ATOM     27  C   UNL     1      51.654  -6.217 -49.124  1.00  0.00     0.120 C 
ATOM     28  C   UNL     1      51.067  -3.861 -48.507  1.00  0.00     0.014 C 
ATOM     29  C   UNL     1      50.788  -5.643 -46.779  1.00  0.00     0.014 C 
ENDROOT
BRANCH   1  30
ATOM     30  C   UNL     1      60.500  -3.396 -47.862  1.00  0.00     0.048 C 
ATOM     31  O   UNL     1      60.486  -2.258 -48.405  1.00  0.00    -0.550 OA
ATOM     32  O   UNL     1      60.777  -4.503 -48.658  1.00  0.00    -0.550 OA
ENDBRANCH   1  30
BRANCH  27  33
ATOM     33  O   UNL     1      50.325  -6.550 -49.450  1.00  0.00    -0.393 OA
ATOM     34  H   UNL     1      49.938  -7.008 -48.659  1.00  0.00     0.210 HD
ENDBRANCH  27  33
TORSDOF 2
ENDMDL
MODEL 4
REMARK VINA RESULT:    -5.827     11.935     13.775
REMARK INTER + INTRA:          -6.491
REMARK INTER:                  -6.307
REMARK INTRA:                  -0.183
REMARK UNBOUND:                -0.153
REMARK SMILES C[C@@H]1[C@H](C)CC[C@]2(C(=O)[O-])CC[C@@]3(C)C(=CC[C@H]4[C@]5(C)CC[C@@H](O)C(C)(C)[C@H]5CC[C@@]43C)[C@H]12
REMARK SMILES IDX 7 1 6 2 11 3 33 4 5 5 12 6 15 7 2 8 3 9 13 10 16 11 1 12
REMARK SMILES IDX 4 13 14 14 31 15 17 16 18 17 30 18 32 19 19 20 29 21 28 22
REMARK SMILES IDX 21 23 20 24 25 25 22 26 23 27 26 28 27 29 8 30 9 31 10 32
REMARK SMILES IDX 24 33
REMARK H PARENT 24 34
REMARK Flexibility Score: inf
ROOT
ATOM      1  C   UNL     1      52.295   6.248 -53.157  1.00  0.00     0.017 C 
ATOM      2  C   UNL     1      52.102   6.575 -54.672  1.00  0.00     0.014 C 
ATOM      3  C   UNL     1      51.074   6.769 -52.323  1.00  0.00     0.014 C 
ATOM      4  C   UNL     1      53.646   6.841 -52.609  1.00  0.00     0.030 C 
ATOM      5  C   UNL     1      52.430   8.013 -55.077  1.00  0.00     0.004 C 
ATOM      6  C   UNL     1      51.331   7.098 -50.824  1.00  0.00     0.013 C 
ATOM      7  C   UNL     1      53.803   6.664 -51.087  1.00  0.00    -0.063 C 
ATOM      8  C   UNL     1      53.996   8.290 -53.101  1.00  0.00    -0.003 C 
ATOM      9  C   UNL     1      53.853   8.380 -54.643  1.00  0.00    -0.011 C 
ATOM     10  C   UNL     1      52.588   6.436 -50.170  1.00  0.00    -0.006 C 
ATOM     11  C   UNL     1      55.058   6.577 -50.586  1.00  0.00    -0.027 C 
ATOM     12  C   UNL     1      53.249   9.426 -52.379  1.00  0.00     0.008 C 
ATOM     13  C   UNL     1      54.268   9.743 -55.217  1.00  0.00     0.008 C 
ATOM     14  C   UNL     1      52.320   4.885 -50.098  1.00  0.00     0.017 C 
ATOM     15  C   UNL     1      52.912   7.039 -48.704  1.00  0.00    -0.020 C 
ATOM     16  C   UNL     1      55.404   6.409 -49.121  1.00  0.00     0.032 C 
ATOM     17  C   UNL     1      54.184   6.271 -48.162  1.00  0.00     0.006 C 
ATOM     18  C   UNL     1      51.690   6.867 -47.737  1.00  0.00     0.008 C 
ATOM     19  C   UNL     1      53.214   8.572 -48.762  1.00  0.00     0.012 C 
ATOM     20  C   UNL     1      54.518   6.442 -46.616  1.00  0.00    -0.025 C 
ATOM     21  C   UNL     1      52.026   7.024 -46.245  1.00  0.00     0.005 C 
ATOM     22  C   UNL     1      53.198   6.098 -45.823  1.00  0.00     0.003 C 
ATOM     23  C   UNL     1      55.603   5.383 -46.235  1.00  0.00     0.010 C 
ATOM     24  C   UNL     1      55.081   7.868 -46.286  1.00  0.00     0.012 C 
ATOM     25  C   UNL     1      53.361   5.894 -44.261  1.00  0.00    -0.006 C 
ATOM     26  C   UNL     1      55.810   5.216 -44.724  1.00  0.00     0.033 C 
ATOM     27  C   UNL     1      54.503   4.859 -44.004  1.00  0.00     0.120 C 
ATOM     28  C   UNL     1      52.057   5.285 -43.672  1.00  0.00     0.014 C 
ATOM     29  C   UNL     1      53.630   7.216 -43.494  1.00  0.00     0.014 C 
ENDROOT
BRANCH   1  30
ATOM     30  C   UNL     1      52.327   4.717 -53.118  1.00  0.00     0.048 C 
ATOM     31  O   UNL     1      51.251   4.060 -53.106  1.00  0.00    -0.550 OA
ATOM     32  O   UNL     1      53.525   4.017 -53.218  1.00  0.00    -0.550 OA
ENDBRANCH   1  30
BRANCH  27  33
ATOM     33  O   UNL     1      54.753   4.736 -42.625  1.00  0.00    -0.393 OA
ATOM     34  H   UNL     1      55.676   5.066 -42.466  1.00  0.00     0.210 HD
ENDBRANCH  27  33
TORSDOF 2
ENDMDL
MODEL 5
REMARK VINA RESULT:    -5.775      8.033     12.428
REMARK INTER + INTRA:          -6.434
REMARK INTER:                  -6.255
REMARK INTRA:                  -0.179
REMARK UNBOUND:                -0.153
REMARK SMILES C[C@@H]1[C@H](C)CC[C@]2(C(=O)[O-])CC[C@@]3(C)C(=CC[C@H]4[C@]5(C)CC[C@@H](O)C(C)(C)[C@H]5CC[C@@]43C)[C@H]12
REMARK SMILES IDX 7 1 6 2 11 3 33 4 5 5 12 6 15 7 2 8 3 9 13 10 16 11 1 12
REMARK SMILES IDX 4 13 14 14 31 15 17 16 18 17 30 18 32 19 19 20 29 21 28 22
REMARK SMILES IDX 21 23 20 24 25 25 22 26 23 27 26 28 27 29 8 30 9 31 10 32
REMARK SMILES IDX 24 33
REMARK H PARENT 24 34
REMARK Flexibility Score: inf
ROOT
ATOM      1  C   UNL     1      47.988  -5.809 -45.237  1.00  0.00     0.017 C 
ATOM      2  C   UNL     1      48.704  -6.405 -43.982  1.00  0.00     0.014 C 
ATOM      3  C   UNL     1      48.959  -4.868 -46.028  1.00  0.00     0.014 C 
ATOM      4  C   UNL     1      46.667  -5.052 -44.839  1.00  0.00     0.030 C 
ATOM      5  C   UNL     1      48.792  -5.470 -42.775  1.00  0.00     0.004 C 
ATOM      6  C   UNL     1      48.310  -3.746 -46.890  1.00  0.00     0.013 C 
ATOM      7  C   UNL     1      46.011  -4.329 -46.029  1.00  0.00    -0.063 C 
ATOM      8  C   UNL     1      46.764  -4.159 -43.552  1.00  0.00    -0.003 C 
ATOM      9  C   UNL     1      47.397  -4.965 -42.388  1.00  0.00    -0.011 C 
ATOM     10  C   UNL     1      46.812  -3.953 -47.289  1.00  0.00    -0.006 C 
ATOM     11  C   UNL     1      44.668  -4.151 -46.000  1.00  0.00    -0.027 C 
ATOM     12  C   UNL     1      47.443  -2.791 -43.752  1.00  0.00     0.008 C 
ATOM     13  C   UNL     1      47.444  -4.190 -41.062  1.00  0.00     0.008 C 
ATOM     14  C   UNL     1      46.751  -5.173 -48.284  1.00  0.00     0.017 C 
ATOM     15  C   UNL     1      46.161  -2.628 -47.952  1.00  0.00    -0.020 C 
ATOM     16  C   UNL     1      43.854  -3.460 -47.074  1.00  0.00     0.032 C 
ATOM     17  C   UNL     1      44.664  -2.985 -48.318  1.00  0.00     0.006 C 
ATOM     18  C   UNL     1      46.964  -2.177 -49.222  1.00  0.00     0.008 C 
ATOM     19  C   UNL     1      46.182  -1.416 -46.965  1.00  0.00     0.012 C 
ATOM     20  C   UNL     1      43.899  -1.969 -49.273  1.00  0.00    -0.025 C 
ATOM     21  C   UNL     1      46.211  -1.203 -50.143  1.00  0.00     0.005 C 
ATOM     22  C   UNL     1      44.816  -1.755 -50.540  1.00  0.00     0.003 C 
ATOM     23  C   UNL     1      42.574  -2.651 -49.743  1.00  0.00     0.010 C 
ATOM     24  C   UNL     1      43.535  -0.629 -48.544  1.00  0.00     0.012 C 
ATOM     25  C   UNL     1      44.136  -1.032 -51.774  1.00  0.00    -0.006 C 
ATOM     26  C   UNL     1      41.875  -1.928 -50.902  1.00  0.00     0.033 C 
ATOM     27  C   UNL     1      42.800  -1.768 -52.116  1.00  0.00     0.120 C 
ATOM     28  C   UNL     1      45.052  -1.153 -53.024  1.00  0.00     0.014 C 
ATOM     29  C   UNL     1      43.889   0.481 -51.538  1.00  0.00     0.014 C 
ENDROOT
BRANCH   1  30
ATOM     30  C   UNL     1      47.662  -7.042 -46.087  1.00  0.00     0.048 C 
ATOM     31  O   UNL     1      48.523  -7.512 -46.879  1.00  0.00    -0.550 OA
ATOM     32  O   UNL     1      46.470  -7.740 -45.920  1.00  0.00    -0.550 OA
ENDBRANCH   1  30
BRANCH  27  33
ATOM     33  O   UNL     1      42.111  -1.085 -53.136  1.00  0.00    -0.393 OA
ATOM     34  H   UNL     1      42.243  -1.603 -53.973  1.00  0.00     0.210 HD
ENDBRANCH  27  33
TORSDOF 2
ENDMDL
MODEL 6
REMARK VINA RESULT:    -5.762      5.736      8.506
REMARK INTER + INTRA:          -6.420
REMARK INTER:                  -6.238
REMARK INTRA:                  -0.182
REMARK UNBOUND:                -0.153
REMARK SMILES C[C@@H]1[C@H](C)CC[C@]2(C(=O)[O-])CC[C@@]3(C)C(=CC[C@H]4[C@]5(C)CC[C@@H](O)C(C)(C)[C@H]5CC[C@@]43C)[C@H]12
REMARK SMILES IDX 7 1 6 2 11 3 33 4 5 5 12 6 15 7 2 8 3 9 13 10 16 11 1 12
REMARK SMILES IDX 4 13 14 14 31 15 17 16 18 17 30 18 32 19 19 20 29 21 28 22
REMARK SMILES IDX 21 23 20 24 25 25 22 26 23 27 26 28 27 29 8 30 9 31 10 32
REMARK SMILES IDX 24 33
REMARK H PARENT 24 34
REMARK Flexibility Score: inf
ROOT
ATOM      1  C   UNL     1      47.719  -4.142 -43.390  1.00  0.00     0.017 C 
ATOM      2  C   UNL     1      47.087  -4.057 -41.964  1.00  0.00     0.014 C 
ATOM      3  C   UNL     1      46.684  -4.718 -44.416  1.00  0.00     0.014 C 
ATOM      4  C   UNL     1      49.041  -4.996 -43.382  1.00  0.00     0.030 C 
ATOM      5  C   UNL     1      47.042  -5.374 -41.189  1.00  0.00     0.004 C 
ATOM      6  C   UNL     1      47.258  -5.438 -45.670  1.00  0.00     0.013 C 
ATOM      7  C   UNL     1      49.614  -5.223 -44.793  1.00  0.00    -0.063 C 
ATOM      8  C   UNL     1      48.993  -6.305 -42.517  1.00  0.00    -0.003 C 
ATOM      9  C   UNL     1      48.443  -5.990 -41.101  1.00  0.00    -0.011 C 
ATOM     10  C   UNL     1      48.737  -5.101 -46.052  1.00  0.00    -0.006 C 
ATOM     11  C   UNL     1      50.952  -5.402 -44.911  1.00  0.00    -0.027 C 
ATOM     12  C   UNL     1      48.272  -7.497 -43.171  1.00  0.00     0.008 C 
ATOM     13  C   UNL     1      48.450  -7.204 -40.159  1.00  0.00     0.008 C 
ATOM     14  C   UNL     1      48.773  -3.597 -46.522  1.00  0.00     0.017 C 
ATOM     15  C   UNL     1      49.319  -6.083 -47.198  1.00  0.00    -0.020 C 
ATOM     16  C   UNL     1      51.689  -5.643 -46.212  1.00  0.00     0.032 C 
ATOM     17  C   UNL     1      50.802  -5.618 -47.493  1.00  0.00     0.006 C 
ATOM     18  C   UNL     1      48.438  -6.026 -48.495  1.00  0.00     0.008 C 
ATOM     19  C   UNL     1      49.323  -7.576 -46.735  1.00  0.00     0.012 C 
ATOM     20  C   UNL     1      51.489  -6.206 -48.802  1.00  0.00    -0.025 C 
ATOM     21  C   UNL     1      49.116  -6.587 -49.755  1.00  0.00     0.005 C 
ATOM     22  C   UNL     1      50.500  -5.930 -50.000  1.00  0.00     0.003 C 
ATOM     23  C   UNL     1      52.803  -5.400 -49.062  1.00  0.00     0.010 C 
ATOM     24  C   UNL     1      51.861  -7.721 -48.647  1.00  0.00     0.012 C 
ATOM     25  C   UNL     1      51.095  -6.141 -51.452  1.00  0.00    -0.006 C 
ATOM     26  C   UNL     1      53.420  -5.640 -50.446  1.00  0.00     0.033 C 
ATOM     27  C   UNL     1      52.428  -5.333 -51.575  1.00  0.00     0.120 C 
ATOM     28  C   UNL     1      50.115  -5.560 -52.511  1.00  0.00     0.014 C 
ATOM     29  C   UNL     1      51.318  -7.634 -51.812  1.00  0.00     0.014 C 
ENDROOT
BRANCH   1  30
ATOM     30  C   UNL     1      48.027  -2.682 -43.737  1.00  0.00     0.048 C 
ATOM     31  O   UNL     1      47.120  -1.931 -44.187  1.00  0.00    -0.550 OA
ATOM     32  O   UNL     1      49.268  -2.118 -43.455  1.00  0.00    -0.550 OA
ENDBRANCH   1  30
BRANCH  27  33
ATOM     33  O   UNL     1      53.043  -5.587 -52.815  1.00  0.00    -0.393 OA
ATOM     34  H   UNL     1      52.416  -6.149 -53.341  1.00  0.00     0.210 HD
ENDBRANCH  27  33
TORSDOF 2
ENDMDL
MODEL 7
REMARK VINA RESULT:    -5.760      5.179     10.214
REMARK INTER + INTRA:          -6.417
REMARK INTER:                  -6.233
REMARK INTRA:                  -0.185
REMARK UNBOUND:                -0.153
REMARK SMILES C[C@@H]1[C@H](C)CC[C@]2(C(=O)[O-])CC[C@@]3(C)C(=CC[C@H]4[C@]5(C)CC[C@@H](O)C(C)(C)[C@H]5CC[C@@]43C)[C@H]12
REMARK SMILES IDX 7 1 6 2 11 3 33 4 5 5 12 6 15 7 2 8 3 9 13 10 16 11 1 12
REMARK SMILES IDX 4 13 14 14 31 15 17 16 18 17 30 18 32 19 19 20 29 21 28 22
REMARK SMILES IDX 21 23 20 24 25 25 22 26 23 27 26 28 27 29 8 30 9 31 10 32
REMARK SMILES IDX 24 33
REMARK H PARENT 24 34
REMARK Flexibility Score: inf
ROOT
ATOM      1  C   UNL     1      51.066  -6.644 -43.541  1.00  0.00     0.017 C 
ATOM      2  C   UNL     1      52.305  -7.488 -43.099  1.00  0.00     0.014 C 
ATOM      3  C   UNL     1      49.855  -7.582 -43.877  1.00  0.00     0.014 C 
ATOM      4  C   UNL     1      51.412  -5.711 -44.759  1.00  0.00     0.030 C 
ATOM      5  C   UNL     1      53.103  -8.122 -44.239  1.00  0.00     0.004 C 
ATOM      6  C   UNL     1      48.797  -7.037 -44.879  1.00  0.00     0.013 C 
ATOM      7  C   UNL     1      50.180  -4.972 -45.314  1.00  0.00    -0.063 C 
ATOM      8  C   UNL     1      52.297  -6.363 -45.879  1.00  0.00    -0.003 C 
ATOM      9  C   UNL     1      53.535  -7.052 -45.248  1.00  0.00    -0.011 C 
ATOM     10  C   UNL     1      48.750  -5.485 -45.068  1.00  0.00    -0.006 C 
ATOM     11  C   UNL     1      50.378  -3.774 -45.916  1.00  0.00    -0.027 C 
ATOM     12  C   UNL     1      51.545  -7.290 -46.852  1.00  0.00     0.008 C 
ATOM     13  C   UNL     1      54.504  -7.638 -46.287  1.00  0.00     0.008 C 
ATOM     14  C   UNL     1      48.237  -4.859 -43.716  1.00  0.00     0.017 C 
ATOM     15  C   UNL     1      47.809  -5.041 -46.307  1.00  0.00    -0.020 C 
ATOM     16  C   UNL     1      49.291  -2.911 -46.523  1.00  0.00     0.032 C 
ATOM     17  C   UNL     1      47.842  -3.461 -46.367  1.00  0.00     0.006 C 
ATOM     18  C   UNL     1      46.344  -5.572 -46.126  1.00  0.00     0.008 C 
ATOM     19  C   UNL     1      48.324  -5.626 -47.663  1.00  0.00     0.012 C 
ATOM     20  C   UNL     1      46.751  -2.757 -47.287  1.00  0.00    -0.025 C 
ATOM     21  C   UNL     1      45.297  -4.878 -47.012  1.00  0.00     0.005 C 
ATOM     22  C   UNL     1      45.347  -3.335 -46.853  1.00  0.00     0.003 C 
ATOM     23  C   UNL     1      46.764  -1.227 -46.969  1.00  0.00     0.010 C 
ATOM     24  C   UNL     1      47.050  -2.948 -48.814  1.00  0.00     0.012 C 
ATOM     25  C   UNL     1      44.080  -2.563 -47.405  1.00  0.00    -0.006 C 
ATOM     26  C   UNL     1      45.569  -0.457 -47.546  1.00  0.00     0.033 C 
ATOM     27  C   UNL     1      44.232  -1.043 -47.075  1.00  0.00     0.120 C 
ATOM     28  C   UNL     1      42.802  -3.060 -46.671  1.00  0.00     0.014 C 
ATOM     29  C   UNL     1      43.843  -2.778 -48.923  1.00  0.00     0.014 C 
ENDROOT
BRANCH   1  30
ATOM     30  C   UNL     1      50.737  -5.807 -42.301  1.00  0.00     0.048 C 
ATOM     31  O   UNL     1      50.052  -6.301 -41.364  1.00  0.00    -0.550 OA
ATOM     32  O   UNL     1      51.281  -4.539 -42.120  1.00  0.00    -0.550 OA
ENDBRANCH   1  30
BRANCH  27  33
ATOM     33  O   UNL     1      43.177  -0.308 -47.649  1.00  0.00    -0.393 OA
ATOM     34  H   UNL     1      43.528   0.600 -47.846  1.00  0.00     0.210 HD
ENDBRANCH  27  33
TORSDOF 2
ENDMDL
MODEL 8
REMARK VINA RESULT:    -5.625     12.402     14.144
REMARK INTER + INTRA:          -6.271
REMARK INTER:                  -6.103
REMARK INTRA:                  -0.168
REMARK UNBOUND:                -0.153
REMARK SMILES C[C@@H]1[C@H](C)CC[C@]2(C(=O)[O-])CC[C@@]3(C)C(=CC[C@H]4[C@]5(C)CC[C@@H](O)C(C)(C)[C@H]5CC[C@@]43C)[C@H]12
REMARK SMILES IDX 7 1 6 2 11 3 33 4 5 5 12 6 15 7 2 8 3 9 13 10 16 11 1 12
REMARK SMILES IDX 4 13 14 14 31 15 17 16 18 17 30 18 32 19 19 20 29 21 28 22
REMARK SMILES IDX 21 23 20 24 25 25 22 26 23 27 26 28 27 29 8 30 9 31 10 32
REMARK SMILES IDX 24 33
REMARK H PARENT 24 34
REMARK Flexibility Score: inf
ROOT
ATOM      1  C   UNL     1      52.505   7.145 -54.229  1.00  0.00     0.017 C 
ATOM      2  C   UNL     1      52.153   6.858 -55.724  1.00  0.00     0.014 C 
ATOM      3  C   UNL     1      54.029   6.891 -53.965  1.00  0.00     0.014 C 
ATOM      4  C   UNL     1      51.613   6.290 -53.255  1.00  0.00     0.030 C 
ATOM      5  C   UNL     1      51.976   5.382 -56.082  1.00  0.00     0.004 C 
ATOM      6  C   UNL     1      54.442   6.522 -52.511  1.00  0.00     0.013 C 
ATOM      7  C   UNL     1      52.028   6.437 -51.780  1.00  0.00    -0.063 C 
ATOM      8  C   UNL     1      51.384   4.798 -53.686  1.00  0.00    -0.003 C 
ATOM      9  C   UNL     1      50.931   4.733 -55.168  1.00  0.00    -0.011 C 
ATOM     10  C   UNL     1      53.435   6.914 -51.379  1.00  0.00    -0.006 C 
ATOM     11  C   UNL     1      51.074   6.266 -50.833  1.00  0.00    -0.027 C 
ATOM     12  C   UNL     1      52.555   3.843 -53.391  1.00  0.00     0.008 C 
ATOM     13  C   UNL     1      50.596   3.310 -55.643  1.00  0.00     0.008 C 
ATOM     14  C   UNL     1      53.407   8.488 -51.297  1.00  0.00     0.017 C 
ATOM     15  C   UNL     1      53.827   6.264 -49.951  1.00  0.00    -0.020 C 
ATOM     16  C   UNL     1      51.297   6.366 -49.339  1.00  0.00     0.032 C 
ATOM     17  C   UNL     1      52.743   6.756 -48.908  1.00  0.00     0.006 C 
ATOM     18  C   UNL     1      55.272   6.688 -49.511  1.00  0.00     0.008 C 
ATOM     19  C   UNL     1      53.826   4.701 -50.006  1.00  0.00     0.012 C 
ATOM     20  C   UNL     1      53.075   6.526 -47.370  1.00  0.00    -0.025 C 
ATOM     21  C   UNL     1      55.577   6.471 -48.020  1.00  0.00     0.005 C 
ATOM     22  C   UNL     1      54.507   7.138 -47.114  1.00  0.00     0.003 C 
ATOM     23  C   UNL     1      52.042   7.341 -46.526  1.00  0.00     0.010 C 
ATOM     24  C   UNL     1      52.968   5.016 -46.959  1.00  0.00     0.012 C 
ATOM     25  C   UNL     1      54.927   7.311 -45.598  1.00  0.00    -0.006 C 
ATOM     26  C   UNL     1      52.409   7.468 -45.041  1.00  0.00     0.033 C 
ATOM     27  C   UNL     1      53.798   8.090 -44.848  1.00  0.00     0.120 C 
ATOM     28  C   UNL     1      56.214   8.178 -45.505  1.00  0.00     0.014 C 
ATOM     29  C   UNL     1      55.234   5.965 -44.889  1.00  0.00     0.014 C 
ENDROOT
BRANCH   1  30
ATOM     30  C   UNL     1      52.198   8.637 -54.065  1.00  0.00     0.048 C 
ATOM     31  O   UNL     1      53.080   9.500 -54.328  1.00  0.00    -0.550 OA
ATOM     32  O   UNL     1      50.919   9.081 -53.744  1.00  0.00    -0.550 OA
ENDBRANCH   1  30
BRANCH  27  33
ATOM     33  O   UNL     1      54.084   8.165 -43.472  1.00  0.00    -0.393 OA
ATOM     34  H   UNL     1      54.218   7.234 -43.151  1.00  0.00     0.210 HD
ENDBRANCH  27  33
TORSDOF 2
ENDMDL
MODEL 9
REMARK VINA RESULT:    -5.560      2.311      4.388
REMARK INTER + INTRA:          -6.200
REMARK INTER:                  -6.015
REMARK INTRA:                  -0.185
REMARK UNBOUND:                -0.153
REMARK SMILES C[C@@H]1[C@H](C)CC[C@]2(C(=O)[O-])CC[C@@]3(C)C(=CC[C@H]4[C@]5(C)CC[C@@H](O)C(C)(C)[C@H]5CC[C@@]43C)[C@H]12
REMARK SMILES IDX 7 1 6 2 11 3 33 4 5 5 12 6 15 7 2 8 3 9 13 10 16 11 1 12
REMARK SMILES IDX 4 13 14 14 31 15 17 16 18 17 30 18 32 19 19 20 29 21 28 22
REMARK SMILES IDX 21 23 20 24 25 25 22 26 23 27 26 28 27 29 8 30 9 31 10 32
REMARK SMILES IDX 24 33
REMARK H PARENT 24 34
REMARK Flexibility Score: inf
ROOT
ATOM      1  C   UNL     1      51.941  -6.931 -45.853  1.00  0.00     0.017 C 
ATOM      2  C   UNL     1      50.670  -7.561 -45.198  1.00  0.00     0.014 C 
ATOM      3  C   UNL     1      53.176  -7.882 -45.679  1.00  0.00     0.014 C 
ATOM      4  C   UNL     1      52.242  -5.503 -45.265  1.00  0.00     0.030 C 
ATOM      5  C   UNL     1      50.578  -7.416 -43.678  1.00  0.00     0.004 C 
ATOM      6  C   UNL     1      54.584  -7.219 -45.690  1.00  0.00     0.013 C 
ATOM      7  C   UNL     1      53.567  -4.911 -45.780  1.00  0.00    -0.063 C 
ATOM      8  C   UNL     1      52.065  -5.362 -43.712  1.00  0.00    -0.003 C 
ATOM      9  C   UNL     1      50.695  -5.942 -43.274  1.00  0.00    -0.011 C 
ATOM     10  C   UNL     1      54.684  -5.804 -46.349  1.00  0.00    -0.006 C 
ATOM     11  C   UNL     1      53.674  -3.562 -45.848  1.00  0.00    -0.027 C 
ATOM     12  C   UNL     1      53.229  -5.912 -42.867  1.00  0.00     0.008 C 
ATOM     13  C   UNL     1      50.403  -5.759 -41.777  1.00  0.00     0.008 C 
ATOM     14  C   UNL     1      54.422  -5.983 -47.893  1.00  0.00     0.017 C 
ATOM     15  C   UNL     1      56.114  -5.097 -46.080  1.00  0.00    -0.020 C 
ATOM     16  C   UNL     1      54.898  -2.806 -46.322  1.00  0.00     0.032 C 
ATOM     17  C   UNL     1      56.079  -3.695 -46.814  1.00  0.00     0.006 C 
ATOM     18  C   UNL     1      57.295  -5.984 -46.608  1.00  0.00     0.008 C 
ATOM     19  C   UNL     1      56.375  -4.880 -44.554  1.00  0.00     0.012 C 
ATOM     20  C   UNL     1      57.469  -2.940 -46.979  1.00  0.00    -0.025 C 
ATOM     21  C   UNL     1      58.631  -5.241 -46.774  1.00  0.00     0.005 C 
ATOM     22  C   UNL     1      58.470  -3.965 -47.642  1.00  0.00     0.003 C 
ATOM     23  C   UNL     1      57.260  -1.754 -47.975  1.00  0.00     0.010 C 
ATOM     24  C   UNL     1      57.994  -2.358 -45.621  1.00  0.00     0.012 C 
ATOM     25  C   UNL     1      59.824  -3.355 -48.192  1.00  0.00    -0.006 C 
ATOM     26  C   UNL     1      58.564  -1.117 -48.473  1.00  0.00     0.033 C 
ATOM     27  C   UNL     1      59.489  -2.150 -49.130  1.00  0.00     0.120 C 
ATOM     28  C   UNL     1      60.562  -4.413 -49.061  1.00  0.00     0.014 C 
ATOM     29  C   UNL     1      60.805  -2.926 -47.070  1.00  0.00     0.014 C 
ENDROOT
BRANCH   1  30
ATOM     30  C   UNL     1      51.574  -6.834 -47.337  1.00  0.00     0.048 C 
ATOM     31  O   UNL     1      51.691  -7.840 -48.088  1.00  0.00    -0.550 OA
ATOM     32  O   UNL     1      50.991  -5.685 -47.863  1.00  0.00    -0.550 OA
ENDBRANCH   1  30
BRANCH  27  33
ATOM     33  O   UNL     1      60.672  -1.512 -49.549  1.00  0.00    -0.393 OA
ATOM     34  H   UNL     1      60.749  -1.657 -50.529  1.00  0.00     0.210 HD
ENDBRANCH  27  33
TORSDOF 2
ENDMDL
