MODEL 1
REMARK VINA RESULT:    -3.785      0.000      0.000
REMARK INTER + INTRA:         -12.969
REMARK INTER:                  -8.652
REMARK INTRA:                  -4.317
REMARK UNBOUND:                -4.317
REMARK SMILES CCCCCCCCCCCCCCCCCCCCCCCC(=O)[O-]
REMARK SMILES IDX 13 1 14 2 15 3 16 4 17 5 18 6 19 7 20 8 21 9 22 10 23 11
REMARK SMILES IDX 24 12 25 13 26 14 12 15 11 16 10 17 9 18 8 19 7 20 6 21 5 22
REMARK SMILES IDX 4 23 3 24 2 25 1 26
REMARK H PARENT
REMARK Flexibility Score: inf
ROOT
ATOM      1  C   UNL     1     164.183 162.136 182.426  1.00  0.00     0.000 C 
ENDROOT
BRANCH   1   2
ATOM      2  C   UNL     1     164.286 160.664 182.874  1.00  0.00     0.000 C 
BRANCH   2   3
ATOM      3  C   UNL     1     165.730 160.169 183.093  1.00  0.00     0.000 C 
BRANCH   3   4
ATOM      4  C   UNL     1     166.581 161.175 183.888  1.00  0.00     0.000 C 
BRANCH   4   5
ATOM      5  C   UNL     1     167.913 161.510 183.192  1.00  0.00     0.000 C 
BRANCH   5   6
ATOM      6  C   UNL     1     168.672 160.298 182.615  1.00  0.00     0.000 C 
BRANCH   6   7
ATOM      7  C   UNL     1     168.847 160.308 181.084  1.00  0.00     0.000 C 
BRANCH   7   8
ATOM      8  C   UNL     1     168.121 161.479 180.408  1.00  0.00     0.000 C 
BRANCH   8   9
ATOM      9  C   UNL     1     166.830 161.001 179.729  1.00  0.00     0.000 C 
BRANCH   9  10
ATOM     10  C   UNL     1     165.984 162.160 179.167  1.00  0.00     0.006 C 
BRANCH  10  11
ATOM     11  C   UNL     1     166.321 162.542 177.717  1.00  0.00     0.053 C 
BRANCH  11  12
ATOM     12  C   UNL     1     166.022 161.431 176.759  1.00  0.00     0.041 C 
ATOM     13  O   UNL     1     164.858 161.286 176.299  1.00  0.00    -0.550 OA
ATOM     14  O   UNL     1     167.036 160.579 176.343  1.00  0.00    -0.550 OA
ENDBRANCH  11  12
ENDBRANCH  10  11
ENDBRANCH   9  10
ENDBRANCH   8   9
ENDBRANCH   7   8
ENDBRANCH   6   7
ENDBRANCH   5   6
ENDBRANCH   4   5
ENDBRANCH   3   4
ENDBRANCH   2   3
ENDBRANCH   1   2
BRANCH   1  15
ATOM     15  C   UNL     1     163.365 163.029 183.379  1.00  0.00     0.000 C 
BRANCH  15  16
ATOM     16  C   UNL     1     161.873 163.073 183.003  1.00  0.00     0.000 C 
BRANCH  16  17
ATOM     17  C   UNL     1     161.043 162.001 183.728  1.00  0.00     0.000 C 
BRANCH  17  18
ATOM     18  C   UNL     1     160.289 161.080 182.755  1.00  0.00    -0.000 C 
BRANCH  18  19
ATOM     19  C   UNL     1     160.020 161.741 181.390  1.00  0.00    -0.000 C 
BRANCH  19  20
ATOM     20  C   UNL     1     160.311 160.857 180.160  1.00  0.00    -0.000 C 
BRANCH  20  21
ATOM     21  C   UNL     1     161.743 160.296 180.078  1.00  0.00    -0.000 C 
BRANCH  21  22
ATOM     22  C   UNL     1     162.670 161.149 179.201  1.00  0.00    -0.000 C 
BRANCH  22  23
ATOM     23  C   UNL     1     161.887 161.819 178.063  1.00  0.00    -0.000 C 
BRANCH  23  24
ATOM     24  C   UNL     1     162.127 163.343 178.007  1.00  0.00    -0.000 C 
BRANCH  24  25
ATOM     25  C   UNL     1     162.443 163.966 179.377  1.00  0.00    -0.003 C 
ATOM     26  C   UNL     1     161.390 164.971 179.834  1.00  0.00     0.004 C 
ENDBRANCH  24  25
ENDBRANCH  23  24
ENDBRANCH  22  23
ENDBRANCH  21  22
ENDBRANCH  20  21
ENDBRANCH  19  20
ENDBRANCH  18  19
ENDBRANCH  17  18
ENDBRANCH  16  17
ENDBRANCH  15  16
ENDBRANCH   1  15
TORSDOF 22
ENDMDL
MODEL 2
REMARK VINA RESULT:    -3.767      2.745      3.842
REMARK INTER + INTRA:         -12.929
REMARK INTER:                  -8.971
REMARK INTRA:                  -3.958
REMARK UNBOUND:                -4.317
REMARK SMILES CCCCCCCCCCCCCCCCCCCCCCCC(=O)[O-]
REMARK SMILES IDX 13 1 14 2 15 3 16 4 17 5 18 6 19 7 20 8 21 9 22 10 23 11
REMARK SMILES IDX 24 12 25 13 26 14 12 15 11 16 10 17 9 18 8 19 7 20 6 21 5 22
REMARK SMILES IDX 4 23 3 24 2 25 1 26
REMARK H PARENT
REMARK Flexibility Score: inf
ROOT
ATOM      1  C   UNL     1     163.119 164.186 182.454  1.00  0.00     0.000 C 
ENDROOT
BRANCH   1   2
ATOM      2  C   UNL     1     164.132 163.103 182.032  1.00  0.00     0.000 C 
BRANCH   2   3
ATOM      3  C   UNL     1     164.625 162.212 183.190  1.00  0.00     0.000 C 
BRANCH   3   4
ATOM      4  C   UNL     1     164.451 160.713 182.892  1.00  0.00     0.000 C 
BRANCH   4   5
ATOM      5  C   UNL     1     165.674 159.876 183.308  1.00  0.00     0.000 C 
BRANCH   5   6
ATOM      6  C   UNL     1     166.876 160.689 183.832  1.00  0.00     0.000 C 
BRANCH   6   7
ATOM      7  C   UNL     1     168.183 160.505 183.039  1.00  0.00     0.000 C 
BRANCH   7   8
ATOM      8  C   UNL     1     167.954 160.408 181.524  1.00  0.00     0.000 C 
BRANCH   8   9
ATOM      9  C   UNL     1     167.564 161.774 180.942  1.00  0.00     0.000 C 
BRANCH   9  10
ATOM     10  C   UNL     1     168.469 162.917 181.440  1.00  0.00     0.006 C 
BRANCH  10  11
ATOM     11  C   UNL     1     167.717 164.212 181.788  1.00  0.00     0.053 C 
BRANCH  11  12
ATOM     12  C   UNL     1     167.606 164.418 183.267  1.00  0.00     0.041 C 
ATOM     13  O   UNL     1     166.654 165.092 183.744  1.00  0.00    -0.550 OA
ATOM     14  O   UNL     1     168.530 163.833 184.122  1.00  0.00    -0.550 OA
ENDBRANCH  11  12
ENDBRANCH  10  11
ENDBRANCH   9  10
ENDBRANCH   8   9
ENDBRANCH   7   8
ENDBRANCH   6   7
ENDBRANCH   5   6
ENDBRANCH   4   5
ENDBRANCH   3   4
ENDBRANCH   2   3
ENDBRANCH   1   2
BRANCH   1  15
ATOM     15  C   UNL     1     161.780 164.127 181.692  1.00  0.00     0.000 C 
BRANCH  15  16
ATOM     16  C   UNL     1     160.611 163.696 182.595  1.00  0.00     0.000 C 
BRANCH  16  17
ATOM     17  C   UNL     1     161.034 162.694 183.682  1.00  0.00     0.000 C 
BRANCH  17  18
ATOM     18  C   UNL     1     160.258 161.369 183.598  1.00  0.00    -0.000 C 
BRANCH  18  19
ATOM     19  C   UNL     1     160.661 160.515 182.381  1.00  0.00    -0.000 C 
BRANCH  19  20
ATOM     20  C   UNL     1     159.943 160.866 181.061  1.00  0.00    -0.000 C 
BRANCH  20  21
ATOM     21  C   UNL     1     160.802 160.733 179.791  1.00  0.00    -0.000 C 
BRANCH  21  22
ATOM     22  C   UNL     1     162.305 160.643 180.093  1.00  0.00    -0.000 C 
BRANCH  22  23
ATOM     23  C   UNL     1     163.131 160.727 178.801  1.00  0.00    -0.000 C 
BRANCH  23  24
ATOM     24  C   UNL     1     164.650 160.699 179.077  1.00  0.00    -0.000 C 
BRANCH  24  25
ATOM     25  C   UNL     1     165.479 160.172 177.894  1.00  0.00    -0.003 C 
ATOM     26  C   UNL     1     164.666 160.032 176.609  1.00  0.00     0.004 C 
ENDBRANCH  24  25
ENDBRANCH  23  24
ENDBRANCH  22  23
ENDBRANCH  21  22
ENDBRANCH  20  21
ENDBRANCH  19  20
ENDBRANCH  18  19
ENDBRANCH  17  18
ENDBRANCH  16  17
ENDBRANCH  15  16
ENDBRANCH   1  15
TORSDOF 22
ENDMDL
MODEL 3
REMARK VINA RESULT:    -3.729      2.511      4.393
REMARK INTER + INTRA:         -12.841
REMARK INTER:                  -8.560
REMARK INTRA:                  -4.280
REMARK UNBOUND:                -4.317
REMARK SMILES CCCCCCCCCCCCCCCCCCCCCCCC(=O)[O-]
REMARK SMILES IDX 13 1 14 2 15 3 16 4 17 5 18 6 19 7 20 8 21 9 22 10 23 11
REMARK SMILES IDX 24 12 25 13 26 14 12 15 11 16 10 17 9 18 8 19 7 20 6 21 5 22
REMARK SMILES IDX 4 23 3 24 2 25 1 26
REMARK H PARENT
REMARK Flexibility Score: inf
ROOT
ATOM      1  C   UNL     1     163.041 162.061 179.055  1.00  0.00     0.000 C 
ENDROOT
BRANCH   1   2
ATOM      2  C   UNL     1     163.718 160.676 179.084  1.00  0.00     0.000 C 
BRANCH   2   3
ATOM      3  C   UNL     1     165.256 160.722 178.999  1.00  0.00     0.000 C 
BRANCH   3   4
ATOM      4  C   UNL     1     165.893 161.396 180.226  1.00  0.00     0.000 C 
BRANCH   4   5
ATOM      5  C   UNL     1     166.404 160.381 181.265  1.00  0.00     0.000 C 
BRANCH   5   6
ATOM      6  C   UNL     1     167.845 160.621 181.761  1.00  0.00     0.000 C 
BRANCH   6   7
ATOM      7  C   UNL     1     168.087 160.288 183.245  1.00  0.00     0.000 C 
BRANCH   7   8
ATOM      8  C   UNL     1     166.955 160.779 184.160  1.00  0.00     0.000 C 
BRANCH   8   9
ATOM      9  C   UNL     1     167.337 162.103 184.837  1.00  0.00     0.000 C 
BRANCH   9  10
ATOM     10  C   UNL     1     166.894 163.338 184.031  1.00  0.00     0.006 C 
BRANCH  10  11
ATOM     11  C   UNL     1     168.006 164.373 183.799  1.00  0.00     0.053 C 
BRANCH  11  12
ATOM     12  C   UNL     1     168.893 163.998 182.652  1.00  0.00     0.041 C 
ATOM     13  O   UNL     1     168.615 164.380 181.484  1.00  0.00    -0.550 OA
ATOM     14  O   UNL     1     170.047 163.259 182.878  1.00  0.00    -0.550 OA
ENDBRANCH  11  12
ENDBRANCH  10  11
ENDBRANCH   9  10
ENDBRANCH   8   9
ENDBRANCH   7   8
ENDBRANCH   6   7
ENDBRANCH   5   6
ENDBRANCH   4   5
ENDBRANCH   3   4
ENDBRANCH   2   3
ENDBRANCH   1   2
BRANCH   1  15
ATOM     15  C   UNL     1     161.553 162.045 179.457  1.00  0.00     0.000 C 
BRANCH  15  16
ATOM     16  C   UNL     1     161.057 160.631 179.806  1.00  0.00     0.000 C 
BRANCH  16  17
ATOM     17  C   UNL     1     160.104 160.614 181.011  1.00  0.00     0.000 C 
BRANCH  17  18
ATOM     18  C   UNL     1     160.131 161.931 181.805  1.00  0.00    -0.000 C 
BRANCH  18  19
ATOM     19  C   UNL     1     160.785 161.781 183.191  1.00  0.00    -0.000 C 
BRANCH  19  20
ATOM     20  C   UNL     1     162.104 160.982 183.216  1.00  0.00    -0.000 C 
BRANCH  20  21
ATOM     21  C   UNL     1     163.369 161.793 182.880  1.00  0.00    -0.000 C 
BRANCH  21  22
ATOM     22  C   UNL     1     163.240 163.280 183.245  1.00  0.00    -0.000 C 
BRANCH  22  23
ATOM     23  C   UNL     1     163.804 164.171 182.129  1.00  0.00    -0.000 C 
BRANCH  23  24
ATOM     24  C   UNL     1     162.993 165.473 181.954  1.00  0.00    -0.000 C 
BRANCH  24  25
ATOM     25  C   UNL     1     161.653 165.269 181.227  1.00  0.00    -0.003 C 
ATOM     26  C   UNL     1     160.444 165.597 182.098  1.00  0.00     0.004 C 
ENDBRANCH  24  25
ENDBRANCH  23  24
ENDBRANCH  22  23
ENDBRANCH  21  22
ENDBRANCH  20  21
ENDBRANCH  19  20
ENDBRANCH  18  19
ENDBRANCH  17  18
ENDBRANCH  16  17
ENDBRANCH  15  16
ENDBRANCH   1  15
TORSDOF 22
ENDMDL
MODEL 4
REMARK VINA RESULT:    -3.693      2.958      4.026
REMARK INTER + INTRA:         -12.760
REMARK INTER:                  -8.830
REMARK INTRA:                  -3.930
REMARK UNBOUND:                -4.317
REMARK SMILES CCCCCCCCCCCCCCCCCCCCCCCC(=O)[O-]
REMARK SMILES IDX 13 1 14 2 15 3 16 4 17 5 18 6 19 7 20 8 21 9 22 10 23 11
REMARK SMILES IDX 24 12 25 13 26 14 12 15 11 16 10 17 9 18 8 19 7 20 6 21 5 22
REMARK SMILES IDX 4 23 3 24 2 25 1 26
REMARK H PARENT
REMARK Flexibility Score: inf
ROOT
ATOM      1  C   UNL     1     162.530 162.513 183.220  1.00  0.00     0.000 C 
ENDROOT
BRANCH   1   2
ATOM      2  C   UNL     1     163.210 161.132 183.115  1.00  0.00     0.000 C 
BRANCH   2   3
ATOM      3  C   UNL     1     164.126 160.970 181.886  1.00  0.00     0.000 C 
BRANCH   3   4
ATOM      4  C   UNL     1     165.329 160.054 182.167  1.00  0.00     0.000 C 
BRANCH   4   5
ATOM      5  C   UNL     1     165.762 160.074 183.645  1.00  0.00     0.000 C 
BRANCH   5   6
ATOM      6  C   UNL     1     167.272 160.278 183.882  1.00  0.00     0.000 C 
BRANCH   6   7
ATOM      7  C   UNL     1     167.782 161.710 183.637  1.00  0.00     0.000 C 
BRANCH   7   8
ATOM      8  C   UNL     1     166.797 162.786 184.117  1.00  0.00     0.000 C 
BRANCH   8   9
ATOM      9  C   UNL     1     166.724 163.946 183.114  1.00  0.00     0.000 C 
BRANCH   9  10
ATOM     10  C   UNL     1     165.282 164.418 182.849  1.00  0.00     0.006 C 
BRANCH  10  11
ATOM     11  C   UNL     1     165.073 165.063 181.469  1.00  0.00     0.053 C 
BRANCH  11  12
ATOM     12  C   UNL     1     164.565 166.468 181.577  1.00  0.00     0.041 C 
ATOM     13  O   UNL     1     164.339 167.141 180.536  1.00  0.00    -0.550 OA
ATOM     14  O   UNL     1     164.305 167.020 182.824  1.00  0.00    -0.550 OA
ENDBRANCH  11  12
ENDBRANCH  10  11
ENDBRANCH   9  10
ENDBRANCH   8   9
ENDBRANCH   7   8
ENDBRANCH   6   7
ENDBRANCH   5   6
ENDBRANCH   4   5
ENDBRANCH   3   4
ENDBRANCH   2   3
ENDBRANCH   1   2
BRANCH   1  15
ATOM     15  C   UNL     1     160.990 162.457 183.243  1.00  0.00     0.000 C 
BRANCH  15  16
ATOM     16  C   UNL     1     160.460 161.051 183.574  1.00  0.00     0.000 C 
BRANCH  16  17
ATOM     17  C   UNL     1     159.882 160.328 182.347  1.00  0.00     0.000 C 
BRANCH  17  18
ATOM     18  C   UNL     1     159.876 161.212 181.088  1.00  0.00    -0.000 C 
BRANCH  18  19
ATOM     19  C   UNL     1     160.698 160.612 179.932  1.00  0.00    -0.000 C 
BRANCH  19  20
ATOM     20  C   UNL     1     161.707 161.575 179.272  1.00  0.00    -0.000 C 
BRANCH  20  21
ATOM     21  C   UNL     1     161.207 163.018 179.077  1.00  0.00    -0.000 C 
BRANCH  21  22
ATOM     22  C   UNL     1     161.981 164.037 179.926  1.00  0.00    -0.000 C 
BRANCH  22  23
ATOM     23  C   UNL     1     161.188 165.343 180.076  1.00  0.00    -0.000 C 
BRANCH  23  24
ATOM     24  C   UNL     1     160.446 165.423 181.428  1.00  0.00    -0.000 C 
BRANCH  24  25
ATOM     25  C   UNL     1     160.831 166.652 182.268  1.00  0.00    -0.003 C 
ATOM     26  C   UNL     1     160.546 167.974 181.561  1.00  0.00     0.004 C 
ENDBRANCH  24  25
ENDBRANCH  23  24
ENDBRANCH  22  23
ENDBRANCH  21  22
ENDBRANCH  20  21
ENDBRANCH  19  20
ENDBRANCH  18  19
ENDBRANCH  17  18
ENDBRANCH  16  17
ENDBRANCH  15  16
ENDBRANCH   1  15
TORSDOF 22
ENDMDL
MODEL 5
REMARK VINA RESULT:    -3.675      3.093      7.155
REMARK INTER + INTRA:         -12.717
REMARK INTER:                  -9.184
REMARK INTRA:                  -3.533
REMARK UNBOUND:                -4.317
REMARK SMILES CCCCCCCCCCCCCCCCCCCCCCCC(=O)[O-]
REMARK SMILES IDX 13 1 14 2 15 3 16 4 17 5 18 6 19 7 20 8 21 9 22 10 23 11
REMARK SMILES IDX 24 12 25 13 26 14 12 15 11 16 10 17 9 18 8 19 7 20 6 21 5 22
REMARK SMILES IDX 4 23 3 24 2 25 1 26
REMARK H PARENT
REMARK Flexibility Score: inf
ROOT
ATOM      1  C   UNL     1     163.336 162.164 182.737  1.00  0.00     0.000 C 
ENDROOT
BRANCH   1   2
ATOM      2  C   UNL     1     161.933 162.502 183.280  1.00  0.00     0.000 C 
BRANCH   2   3
ATOM      3  C   UNL     1     160.937 161.327 183.231  1.00  0.00     0.000 C 
BRANCH   3   4
ATOM      4  C   UNL     1     159.956 161.437 182.051  1.00  0.00     0.000 C 
BRANCH   4   5
ATOM      5  C   UNL     1     160.269 160.438 180.922  1.00  0.00     0.000 C 
BRANCH   5   6
ATOM      6  C   UNL     1     161.132 160.999 179.773  1.00  0.00     0.000 C 
BRANCH   6   7
ATOM      7  C   UNL     1     160.866 162.474 179.418  1.00  0.00     0.000 C 
BRANCH   7   8
ATOM      8  C   UNL     1     162.141 163.328 179.420  1.00  0.00     0.000 C 
BRANCH   8   9
ATOM      9  C   UNL     1     161.834 164.767 179.859  1.00  0.00     0.000 C 
BRANCH   9  10
ATOM     10  C   UNL     1     160.569 164.868 180.733  1.00  0.00     0.006 C 
BRANCH  10  11
ATOM     11  C   UNL     1     160.801 165.519 182.106  1.00  0.00     0.053 C 
BRANCH  11  12
ATOM     12  C   UNL     1     160.509 166.987 182.089  1.00  0.00     0.041 C 
ATOM     13  O   UNL     1     160.869 167.716 183.052  1.00  0.00    -0.550 OA
ATOM     14  O   UNL     1     159.875 167.558 180.994  1.00  0.00    -0.550 OA
ENDBRANCH  11  12
ENDBRANCH  10  11
ENDBRANCH   9  10
ENDBRANCH   8   9
ENDBRANCH   7   8
ENDBRANCH   6   7
ENDBRANCH   5   6
ENDBRANCH   4   5
ENDBRANCH   3   4
ENDBRANCH   2   3
ENDBRANCH   1   2
BRANCH   1  15
ATOM     15  C   UNL     1     163.737 160.685 182.904  1.00  0.00     0.000 C 
BRANCH  15  16
ATOM     16  C   UNL     1     164.775 160.239 181.860  1.00  0.00     0.000 C 
BRANCH  16  17
ATOM     17  C   UNL     1     164.730 161.082 180.576  1.00  0.00     0.000 C 
BRANCH  17  18
ATOM     18  C   UNL     1     165.772 160.634 179.537  1.00  0.00    -0.000 C 
BRANCH  18  19
ATOM     19  C   UNL     1     167.170 161.228 179.796  1.00  0.00    -0.000 C 
BRANCH  19  20
ATOM     20  C   UNL     1     168.151 160.304 180.546  1.00  0.00    -0.000 C 
BRANCH  20  21
ATOM     21  C   UNL     1     169.318 161.020 181.250  1.00  0.00    -0.000 C 
BRANCH  21  22
ATOM     22  C   UNL     1     169.011 161.366 182.715  1.00  0.00    -0.000 C 
BRANCH  22  23
ATOM     23  C   UNL     1     168.036 160.351 183.327  1.00  0.00    -0.000 C 
BRANCH  23  24
ATOM     24  C   UNL     1     167.309 160.913 184.568  1.00  0.00    -0.000 C 
BRANCH  24  25
ATOM     25  C   UNL     1     167.294 162.449 184.627  1.00  0.00    -0.003 C 
ATOM     26  C   UNL     1     166.643 163.088 183.403  1.00  0.00     0.004 C 
ENDBRANCH  24  25
ENDBRANCH  23  24
ENDBRANCH  22  23
ENDBRANCH  21  22
ENDBRANCH  20  21
ENDBRANCH  19  20
ENDBRANCH  18  19
ENDBRANCH  17  18
ENDBRANCH  16  17
ENDBRANCH  15  16
ENDBRANCH   1  15
TORSDOF 22
ENDMDL
MODEL 6
REMARK VINA RESULT:    -3.664      1.876      3.172
REMARK INTER + INTRA:         -12.692
REMARK INTER:                  -8.531
REMARK INTRA:                  -4.161
REMARK UNBOUND:                -4.317
REMARK SMILES CCCCCCCCCCCCCCCCCCCCCCCC(=O)[O-]
REMARK SMILES IDX 13 1 14 2 15 3 16 4 17 5 18 6 19 7 20 8 21 9 22 10 23 11
REMARK SMILES IDX 24 12 25 13 26 14 12 15 11 16 10 17 9 18 8 19 7 20 6 21 5 22
REMARK SMILES IDX 4 23 3 24 2 25 1 26
REMARK H PARENT
REMARK Flexibility Score: inf
ROOT
ATOM      1  C   UNL     1     166.788 163.988 183.659  1.00  0.00     0.000 C 
ENDROOT
BRANCH   1   2
ATOM      2  C   UNL     1     167.656 162.718 183.557  1.00  0.00     0.000 C 
BRANCH   2   3
ATOM      3  C   UNL     1     167.309 161.631 184.593  1.00  0.00     0.000 C 
BRANCH   3   4
ATOM      4  C   UNL     1     167.065 160.257 183.943  1.00  0.00     0.000 C 
BRANCH   4   5
ATOM      5  C   UNL     1     165.680 160.149 183.281  1.00  0.00     0.000 C 
BRANCH   5   6
ATOM      6  C   UNL     1     165.699 159.935 181.754  1.00  0.00     0.000 C 
BRANCH   6   7
ATOM      7  C   UNL     1     165.384 161.188 180.916  1.00  0.00     0.000 C 
BRANCH   7   8
ATOM      8  C   UNL     1     164.183 160.994 179.979  1.00  0.00     0.000 C 
BRANCH   8   9
ATOM      9  C   UNL     1     164.279 161.932 178.768  1.00  0.00     0.000 C 
BRANCH   9  10
ATOM     10  C   UNL     1     163.667 161.325 177.491  1.00  0.00     0.006 C 
BRANCH  10  11
ATOM     11  C   UNL     1     162.561 162.182 176.853  1.00  0.00     0.053 C 
BRANCH  11  12
ATOM     12  C   UNL     1     162.305 161.798 175.428  1.00  0.00     0.041 C 
ATOM     13  O   UNL     1     163.264 161.688 174.619  1.00  0.00    -0.550 OA
ATOM     14  O   UNL     1     161.012 161.526 175.003  1.00  0.00    -0.550 OA
ENDBRANCH  11  12
ENDBRANCH  10  11
ENDBRANCH   9  10
ENDBRANCH   8   9
ENDBRANCH   7   8
ENDBRANCH   6   7
ENDBRANCH   5   6
ENDBRANCH   4   5
ENDBRANCH   3   4
ENDBRANCH   2   3
ENDBRANCH   1   2
BRANCH   1  15
ATOM     15  C   UNL     1     165.987 164.308 182.381  1.00  0.00     0.000 C 
BRANCH  15  16
ATOM     16  C   UNL     1     164.474 164.403 182.647  1.00  0.00     0.000 C 
BRANCH  16  17
ATOM     17  C   UNL     1     163.958 163.283 183.564  1.00  0.00     0.000 C 
BRANCH  17  18
ATOM     18  C   UNL     1     162.497 162.904 183.269  1.00  0.00    -0.000 C 
BRANCH  18  19
ATOM     19  C   UNL     1     162.288 161.385 183.126  1.00  0.00    -0.000 C 
BRANCH  19  20
ATOM     20  C   UNL     1     160.906 160.955 182.594  1.00  0.00    -0.000 C 
BRANCH  20  21
ATOM     21  C   UNL     1     160.197 161.989 181.700  1.00  0.00    -0.000 C 
BRANCH  21  22
ATOM     22  C   UNL     1     160.622 161.898 180.227  1.00  0.00    -0.000 C 
BRANCH  22  23
ATOM     23  C   UNL     1     160.575 163.278 179.555  1.00  0.00    -0.000 C 
BRANCH  23  24
ATOM     24  C   UNL     1     161.636 164.243 180.126  1.00  0.00    -0.000 C 
BRANCH  24  25
ATOM     25  C   UNL     1     161.074 165.625 180.495  1.00  0.00    -0.003 C 
ATOM     26  C   UNL     1     160.469 165.671 181.896  1.00  0.00     0.004 C 
ENDBRANCH  24  25
ENDBRANCH  23  24
ENDBRANCH  22  23
ENDBRANCH  21  22
ENDBRANCH  20  21
ENDBRANCH  19  20
ENDBRANCH  18  19
ENDBRANCH  17  18
ENDBRANCH  16  17
ENDBRANCH  15  16
ENDBRANCH   1  15
TORSDOF 22
ENDMDL
MODEL 7
REMARK VINA RESULT:    -3.651      2.492      6.340
REMARK INTER + INTRA:         -12.664
REMARK INTER:                  -8.059
REMARK INTRA:                  -4.605
REMARK UNBOUND:                -4.317
REMARK SMILES CCCCCCCCCCCCCCCCCCCCCCCC(=O)[O-]
REMARK SMILES IDX 13 1 14 2 15 3 16 4 17 5 18 6 19 7 20 8 21 9 22 10 23 11
REMARK SMILES IDX 24 12 25 13 26 14 12 15 11 16 10 17 9 18 8 19 7 20 6 21 5 22
REMARK SMILES IDX 4 23 3 24 2 25 1 26
REMARK H PARENT
REMARK Flexibility Score: inf
ROOT
ATOM      1  C   UNL     1     162.928 161.940 183.237  1.00  0.00     0.000 C 
ENDROOT
BRANCH   1   2
ATOM      2  C   UNL     1     161.437 161.910 183.630  1.00  0.00     0.000 C 
BRANCH   2   3
ATOM      3  C   UNL     1     160.564 162.934 182.879  1.00  0.00     0.000 C 
BRANCH   3   4
ATOM      4  C   UNL     1     160.123 162.427 181.495  1.00  0.00     0.000 C 
BRANCH   4   5
ATOM      5  C   UNL     1     160.042 160.891 181.420  1.00  0.00     0.000 C 
BRANCH   5   6
ATOM      6  C   UNL     1     160.873 160.246 180.292  1.00  0.00     0.000 C 
BRANCH   6   7
ATOM      7  C   UNL     1     161.635 161.238 179.395  1.00  0.00     0.000 C 
BRANCH   7   8
ATOM      8  C   UNL     1     163.147 160.975 179.364  1.00  0.00     0.000 C 
BRANCH   8   9
ATOM      9  C   UNL     1     163.931 162.265 179.646  1.00  0.00     0.000 C 
BRANCH   9  10
ATOM     10  C   UNL     1     163.103 163.538 179.386  1.00  0.00     0.006 C 
BRANCH  10  11
ATOM     11  C   UNL     1     163.053 164.511 180.575  1.00  0.00     0.053 C 
BRANCH  11  12
ATOM     12  C   UNL     1     162.026 165.583 180.381  1.00  0.00     0.041 C 
ATOM     13  O   UNL     1     160.950 165.329 179.777  1.00  0.00    -0.550 OA
ATOM     14  O   UNL     1     162.240 166.854 180.899  1.00  0.00    -0.550 OA
ENDBRANCH  11  12
ENDBRANCH  10  11
ENDBRANCH   9  10
ENDBRANCH   8   9
ENDBRANCH   7   8
ENDBRANCH   6   7
ENDBRANCH   5   6
ENDBRANCH   4   5
ENDBRANCH   3   4
ENDBRANCH   2   3
ENDBRANCH   1   2
BRANCH   1  15
ATOM     15  C   UNL     1     163.537 160.551 182.967  1.00  0.00     0.000 C 
BRANCH  15  16
ATOM     16  C   UNL     1     165.070 160.597 182.844  1.00  0.00     0.000 C 
BRANCH  16  17
ATOM     17  C   UNL     1     165.656 161.969 183.214  1.00  0.00     0.000 C 
BRANCH  17  18
ATOM     18  C   UNL     1     167.078 161.867 183.794  1.00  0.00    -0.000 C 
BRANCH  18  19
ATOM     19  C   UNL     1     167.708 160.476 183.593  1.00  0.00    -0.000 C 
BRANCH  19  20
ATOM     20  C   UNL     1     168.819 160.402 182.525  1.00  0.00    -0.000 C 
BRANCH  20  21
ATOM     21  C   UNL     1     168.328 160.184 181.082  1.00  0.00    -0.000 C 
BRANCH  21  22
ATOM     22  C   UNL     1     168.684 161.349 180.147  1.00  0.00    -0.000 C 
BRANCH  22  23
ATOM     23  C   UNL     1     167.527 162.354 180.056  1.00  0.00    -0.000 C 
BRANCH  23  24
ATOM     24  C   UNL     1     167.923 163.751 180.579  1.00  0.00    -0.000 C 
BRANCH  24  25
ATOM     25  C   UNL     1     169.402 163.858 180.987  1.00  0.00    -0.003 C 
ATOM     26  C   UNL     1     169.592 164.153 182.472  1.00  0.00     0.004 C 
ENDBRANCH  24  25
ENDBRANCH  23  24
ENDBRANCH  22  23
ENDBRANCH  21  22
ENDBRANCH  20  21
ENDBRANCH  19  20
ENDBRANCH  18  19
ENDBRANCH  17  18
ENDBRANCH  16  17
ENDBRANCH  15  16
ENDBRANCH   1  15
TORSDOF 22
ENDMDL
MODEL 8
REMARK VINA RESULT:    -3.650      1.810      5.568
REMARK INTER + INTRA:         -12.660
REMARK INTER:                  -8.478
REMARK INTRA:                  -4.182
REMARK UNBOUND:                -4.317
REMARK SMILES CCCCCCCCCCCCCCCCCCCCCCCC(=O)[O-]
REMARK SMILES IDX 13 1 14 2 15 3 16 4 17 5 18 6 19 7 20 8 21 9 22 10 23 11
REMARK SMILES IDX 24 12 25 13 26 14 12 15 11 16 10 17 9 18 8 19 7 20 6 21 5 22
REMARK SMILES IDX 4 23 3 24 2 25 1 26
REMARK H PARENT
REMARK Flexibility Score: inf
ROOT
ATOM      1  C   UNL     1     164.454 163.761 182.227  1.00  0.00     0.000 C 
ENDROOT
BRANCH   1   2
ATOM      2  C   UNL     1     163.432 163.160 183.212  1.00  0.00     0.000 C 
BRANCH   2   3
ATOM      3  C   UNL     1     161.960 163.404 182.822  1.00  0.00     0.000 C 
BRANCH   3   4
ATOM      4  C   UNL     1     160.987 162.517 183.617  1.00  0.00     0.000 C 
BRANCH   4   5
ATOM      5  C   UNL     1     161.059 161.035 183.206  1.00  0.00     0.000 C 
BRANCH   5   6
ATOM      6  C   UNL     1     159.875 160.533 182.354  1.00  0.00     0.000 C 
BRANCH   6   7
ATOM      7  C   UNL     1     160.243 160.081 180.929  1.00  0.00     0.000 C 
BRANCH   7   8
ATOM      8  C   UNL     1     160.608 161.253 180.006  1.00  0.00     0.000 C 
BRANCH   8   9
ATOM      9  C   UNL     1     162.100 161.219 179.645  1.00  0.00     0.000 C 
BRANCH   9  10
ATOM     10  C   UNL     1     162.526 162.395 178.747  1.00  0.00     0.006 C 
BRANCH  10  11
ATOM     11  C   UNL     1     162.503 162.080 177.242  1.00  0.00     0.053 C 
BRANCH  11  12
ATOM     12  C   UNL     1     163.003 163.228 176.420  1.00  0.00     0.041 C 
ATOM     13  O   UNL     1     163.517 164.232 176.980  1.00  0.00    -0.550 OA
ATOM     14  O   UNL     1     162.936 163.172 175.034  1.00  0.00    -0.550 OA
ENDBRANCH  11  12
ENDBRANCH  10  11
ENDBRANCH   9  10
ENDBRANCH   8   9
ENDBRANCH   7   8
ENDBRANCH   6   7
ENDBRANCH   5   6
ENDBRANCH   4   5
ENDBRANCH   3   4
ENDBRANCH   2   3
ENDBRANCH   1   2
BRANCH   1  15
ATOM     15  C   UNL     1     165.855 163.983 182.830  1.00  0.00     0.000 C 
BRANCH  15  16
ATOM     16  C   UNL     1     166.021 163.292 184.195  1.00  0.00     0.000 C 
BRANCH  16  17
ATOM     17  C   UNL     1     167.405 162.647 184.373  1.00  0.00     0.000 C 
BRANCH  17  18
ATOM     18  C   UNL     1     167.319 161.165 184.773  1.00  0.00    -0.000 C 
BRANCH  18  19
ATOM     19  C   UNL     1     166.959 160.245 183.591  1.00  0.00    -0.000 C 
BRANCH  19  20
ATOM     20  C   UNL     1     165.453 159.964 183.407  1.00  0.00    -0.000 C 
BRANCH  20  21
ATOM     21  C   UNL     1     164.930 160.108 181.966  1.00  0.00    -0.000 C 
BRANCH  21  22
ATOM     22  C   UNL     1     166.028 159.914 180.910  1.00  0.00    -0.000 C 
BRANCH  22  23
ATOM     23  C   UNL     1     165.809 160.847 179.711  1.00  0.00    -0.000 C 
BRANCH  23  24
ATOM     24  C   UNL     1     166.710 162.100 179.774  1.00  0.00    -0.000 C 
BRANCH  24  25
ATOM     25  C   UNL     1     168.021 161.876 180.543  1.00  0.00    -0.003 C 
ATOM     26  C   UNL     1     168.841 163.152 180.713  1.00  0.00     0.004 C 
ENDBRANCH  24  25
ENDBRANCH  23  24
ENDBRANCH  22  23
ENDBRANCH  21  22
ENDBRANCH  20  21
ENDBRANCH  19  20
ENDBRANCH  18  19
ENDBRANCH  17  18
ENDBRANCH  16  17
ENDBRANCH  15  16
ENDBRANCH   1  15
TORSDOF 22
ENDMDL
MODEL 9
REMARK VINA RESULT:    -3.638      1.660      5.849
REMARK INTER + INTRA:         -12.634
REMARK INTER:                  -8.122
REMARK INTRA:                  -4.512
REMARK UNBOUND:                -4.317
REMARK SMILES CCCCCCCCCCCCCCCCCCCCCCCC(=O)[O-]
REMARK SMILES IDX 13 1 14 2 15 3 16 4 17 5 18 6 19 7 20 8 21 9 22 10 23 11
REMARK SMILES IDX 24 12 25 13 26 14 12 15 11 16 10 17 9 18 8 19 7 20 6 21 5 22
REMARK SMILES IDX 4 23 3 24 2 25 1 26
REMARK H PARENT
REMARK Flexibility Score: inf
ROOT
ATOM      1  C   UNL     1     163.914 165.024 182.049  1.00  0.00     0.000 C 
ENDROOT
BRANCH   1   2
ATOM      2  C   UNL     1     162.680 165.947 182.097  1.00  0.00     0.000 C 
BRANCH   2   3
ATOM      3  C   UNL     1     161.501 165.473 181.223  1.00  0.00     0.000 C 
BRANCH   3   4
ATOM      4  C   UNL     1     160.229 165.210 182.047  1.00  0.00     0.000 C 
BRANCH   4   5
ATOM      5  C   UNL     1     160.057 163.726 182.420  1.00  0.00     0.000 C 
BRANCH   5   6
ATOM      6  C   UNL     1     160.284 162.730 181.264  1.00  0.00     0.000 C 
BRANCH   6   7
ATOM      7  C   UNL     1     159.954 161.262 181.595  1.00  0.00     0.000 C 
BRANCH   7   8
ATOM      8  C   UNL     1     160.631 160.268 180.640  1.00  0.00     0.000 C 
BRANCH   8   9
ATOM      9  C   UNL     1     161.261 161.001 179.447  1.00  0.00     0.000 C 
BRANCH   9  10
ATOM     10  C   UNL     1     162.732 160.610 179.213  1.00  0.00     0.006 C 
BRANCH  10  11
ATOM     11  C   UNL     1     163.590 161.723 178.590  1.00  0.00     0.053 C 
BRANCH  11  12
ATOM     12  C   UNL     1     164.330 161.250 177.377  1.00  0.00     0.041 C 
ATOM     13  O   UNL     1     164.591 160.026 177.231  1.00  0.00    -0.550 OA
ATOM     14  O   UNL     1     164.698 162.154 176.390  1.00  0.00    -0.550 OA
ENDBRANCH  11  12
ENDBRANCH  10  11
ENDBRANCH   9  10
ENDBRANCH   8   9
ENDBRANCH   7   8
ENDBRANCH   6   7
ENDBRANCH   5   6
ENDBRANCH   4   5
ENDBRANCH   3   4
ENDBRANCH   2   3
ENDBRANCH   1   2
BRANCH   1  15
ATOM     15  C   UNL     1     163.818 163.795 182.975  1.00  0.00     0.000 C 
BRANCH  15  16
ATOM     16  C   UNL     1     163.837 162.470 182.193  1.00  0.00     0.000 C 
BRANCH  16  17
ATOM     17  C   UNL     1     163.288 161.288 183.008  1.00  0.00     0.000 C 
BRANCH  17  18
ATOM     18  C   UNL     1     164.323 160.166 183.193  1.00  0.00    -0.000 C 
BRANCH  18  19
ATOM     19  C   UNL     1     165.492 160.259 182.194  1.00  0.00    -0.000 C 
BRANCH  19  20
ATOM     20  C   UNL     1     166.894 160.369 182.829  1.00  0.00    -0.000 C 
BRANCH  20  21
ATOM     21  C   UNL     1     166.978 161.252 184.087  1.00  0.00    -0.000 C 
BRANCH  21  22
ATOM     22  C   UNL     1     167.275 162.725 183.765  1.00  0.00    -0.000 C 
BRANCH  22  23
ATOM     23  C   UNL     1     168.671 162.882 183.146  1.00  0.00    -0.000 C 
BRANCH  23  24
ATOM     24  C   UNL     1     168.619 163.514 181.739  1.00  0.00    -0.000 C 
BRANCH  24  25
ATOM     25  C   UNL     1     167.190 163.772 181.234  1.00  0.00    -0.003 C 
ATOM     26  C   UNL     1     166.838 162.960 179.991  1.00  0.00     0.004 C 
ENDBRANCH  24  25
ENDBRANCH  23  24
ENDBRANCH  22  23
ENDBRANCH  21  22
ENDBRANCH  20  21
ENDBRANCH  19  20
ENDBRANCH  18  19
ENDBRANCH  17  18
ENDBRANCH  16  17
ENDBRANCH  15  16
ENDBRANCH   1  15
TORSDOF 22
ENDMDL
