MODEL 1
REMARK VINA RESULT:    -5.829      0.000      0.000
REMARK INTER + INTRA:          -5.999
REMARK INTER:                  -5.999
REMARK INTRA:                   0.000
REMARK UNBOUND:                 0.000
REMARK SMILES O=c1ccc2ccc(O)cc2o1
REMARK SMILES IDX 6 1 7 2 8 3 10 4 11 5 5 6 4 7 3 8 2 9 1 10 12 11 9 12
REMARK H PARENT 9 13
REMARK Flexibility Score: inf
ROOT
ATOM      1  C   UNL     1      49.977  57.828  93.209  1.00  0.00     0.016 A 
ATOM      2  C   UNL     1      50.529  56.678  92.634  1.00  0.00     0.047 A 
ATOM      3  C   UNL     1      51.803  56.721  92.049  1.00  0.00     0.119 A 
ATOM      4  C   UNL     1      52.528  57.918  92.040  1.00  0.00     0.094 A 
ATOM      5  C   UNL     1      51.985  59.073  92.614  1.00  0.00     0.142 A 
ATOM      6  C   UNL     1      50.701  59.029  93.201  1.00  0.00     0.018 A 
ATOM      7  C   UNL     1      50.185  60.199  93.766  1.00  0.00     0.019 A 
ATOM      8  C   UNL     1      50.945  61.368  93.732  1.00  0.00     0.094 A 
ATOM      9  C   UNL     1      52.209  61.338  93.133  1.00  0.00     0.336 A 
ATOM     10  O   UNL     1      52.910  62.383  93.093  1.00  0.00    -0.246 OA
ATOM     11  O   UNL     1      52.677  60.210  92.603  1.00  0.00    -0.423 OA
ENDROOT
BRANCH   3  12
ATOM     12  O   UNL     1      52.358  55.579  91.475  1.00  0.00    -0.508 OA
ATOM     13  H   UNL     1      53.163  55.119  91.882  1.00  0.00     0.293 HD
ENDBRANCH   3  12
TORSDOF 1
ENDMDL
MODEL 2
REMARK VINA RESULT:    -5.814      1.598      2.278
REMARK INTER + INTRA:          -5.984
REMARK INTER:                  -5.984
REMARK INTRA:                   0.000
REMARK UNBOUND:                 0.000
REMARK SMILES O=c1ccc2ccc(O)cc2o1
REMARK SMILES IDX 6 1 7 2 8 3 10 4 11 5 5 6 4 7 3 8 2 9 1 10 12 11 9 12
REMARK H PARENT 9 13
REMARK Flexibility Score: inf
ROOT
ATOM      1  C   UNL     1      52.794  58.184  92.392  1.00  0.00     0.016 A 
ATOM      2  C   UNL     1      52.313  56.873  92.312  1.00  0.00     0.047 A 
ATOM      3  C   UNL     1      50.992  56.580  92.682  1.00  0.00     0.119 A 
ATOM      4  C   UNL     1      50.150  57.603  93.133  1.00  0.00     0.094 A 
ATOM      5  C   UNL     1      50.621  58.918  93.216  1.00  0.00     0.142 A 
ATOM      6  C   UNL     1      51.952  59.211  92.844  1.00  0.00     0.018 A 
ATOM      7  C   UNL     1      52.395  60.534  92.938  1.00  0.00     0.019 A 
ATOM      8  C   UNL     1      51.518  61.518  93.393  1.00  0.00     0.094 A 
ATOM      9  C   UNL     1      50.214  61.154  93.744  1.00  0.00     0.336 A 
ATOM     10  O   UNL     1      49.408  62.029  94.158  1.00  0.00    -0.246 OA
ATOM     11  O   UNL     1      49.818  59.888  93.646  1.00  0.00    -0.423 OA
ENDROOT
BRANCH   3  12
ATOM     12  O   UNL     1      50.507  55.276  92.604  1.00  0.00    -0.508 OA
ATOM     13  H   UNL     1      49.749  54.957  93.194  1.00  0.00     0.293 HD
ENDBRANCH   3  12
TORSDOF 1
ENDMDL
MODEL 3
REMARK VINA RESULT:    -5.654      2.312      5.121
REMARK INTER + INTRA:          -5.819
REMARK INTER:                  -5.819
REMARK INTRA:                   0.000
REMARK UNBOUND:                 0.000
REMARK SMILES O=c1ccc2ccc(O)cc2o1
REMARK SMILES IDX 6 1 7 2 8 3 10 4 11 5 5 6 4 7 3 8 2 9 1 10 12 11 9 12
REMARK H PARENT 9 13
REMARK Flexibility Score: inf
ROOT
ATOM      1  C   UNL     1      51.860  57.555  94.788  1.00  0.00     0.016 A 
ATOM      2  C   UNL     1      51.009  58.600  94.412  1.00  0.00     0.047 A 
ATOM      3  C   UNL     1      50.300  58.535  93.203  1.00  0.00     0.119 A 
ATOM      4  C   UNL     1      50.442  57.420  92.369  1.00  0.00     0.094 A 
ATOM      5  C   UNL     1      51.290  56.370  92.737  1.00  0.00     0.142 A 
ATOM      6  C   UNL     1      52.005  56.437  93.953  1.00  0.00     0.018 A 
ATOM      7  C   UNL     1      52.845  55.372  94.294  1.00  0.00     0.019 A 
ATOM      8  C   UNL     1      52.953  54.284  93.429  1.00  0.00     0.094 A 
ATOM      9  C   UNL     1      52.216  54.285  92.241  1.00  0.00     0.336 A 
ATOM     10  O   UNL     1      52.301  53.312  91.447  1.00  0.00    -0.246 OA
ATOM     11  O   UNL     1      51.424  55.311  91.941  1.00  0.00    -0.423 OA
ENDROOT
BRANCH   3  12
ATOM     12  O   UNL     1      49.451  59.572  92.824  1.00  0.00    -0.508 OA
ATOM     13  H   UNL     1      49.394  59.886  91.862  1.00  0.00     0.293 HD
ENDBRANCH   3  12
TORSDOF 1
ENDMDL
MODEL 4
REMARK VINA RESULT:    -5.635      8.097      8.666
REMARK INTER + INTRA:          -5.800
REMARK INTER:                  -5.800
REMARK INTRA:                   0.000
REMARK UNBOUND:                 0.000
REMARK SMILES O=c1ccc2ccc(O)cc2o1
REMARK SMILES IDX 6 1 7 2 8 3 10 4 11 5 5 6 4 7 3 8 2 9 1 10 12 11 9 12
REMARK H PARENT 9 13
REMARK Flexibility Score: inf
ROOT
ATOM      1  C   UNL     1      48.450  67.539  94.390  1.00  0.00     0.016 A 
ATOM      2  C   UNL     1      47.655  67.023  93.362  1.00  0.00     0.047 A 
ATOM      3  C   UNL     1      48.248  66.505  92.200  1.00  0.00     0.119 A 
ATOM      4  C   UNL     1      49.642  66.505  92.069  1.00  0.00     0.094 A 
ATOM      5  C   UNL     1      50.445  67.018  93.093  1.00  0.00     0.142 A 
ATOM      6  C   UNL     1      49.846  67.540  94.261  1.00  0.00     0.018 A 
ATOM      7  C   UNL     1      50.675  68.047  95.267  1.00  0.00     0.019 A 
ATOM      8  C   UNL     1      52.058  68.024  95.089  1.00  0.00     0.094 A 
ATOM      9  C   UNL     1      52.581  67.493  93.906  1.00  0.00     0.336 A 
ATOM     10  O   UNL     1      53.827  67.464  93.727  1.00  0.00    -0.246 OA
ATOM     11  O   UNL     1      51.770  67.017  92.964  1.00  0.00    -0.423 OA
ENDROOT
BRANCH   3  12
ATOM     12  O   UNL     1      47.462  65.989  91.173  1.00  0.00    -0.508 OA
ATOM     13  H   UNL     1      46.549  65.589  91.354  1.00  0.00     0.293 HD
ENDBRANCH   3  12
TORSDOF 1
ENDMDL
MODEL 5
REMARK VINA RESULT:    -5.635      7.823      8.599
REMARK INTER + INTRA:          -5.800
REMARK INTER:                  -5.800
REMARK INTRA:                   0.000
REMARK UNBOUND:                 0.000
REMARK SMILES O=c1ccc2ccc(O)cc2o1
REMARK SMILES IDX 6 1 7 2 8 3 10 4 11 5 5 6 4 7 3 8 2 9 1 10 12 11 9 12
REMARK H PARENT 9 13
REMARK Flexibility Score: inf
ROOT
ATOM      1  C   UNL     1      48.632  67.367  90.409  1.00  0.00     0.016 A 
ATOM      2  C   UNL     1      47.500  66.612  90.735  1.00  0.00     0.047 A 
ATOM      3  C   UNL     1      47.462  65.872  91.926  1.00  0.00     0.119 A 
ATOM      4  C   UNL     1      48.559  65.887  92.794  1.00  0.00     0.094 A 
ATOM      5  C   UNL     1      49.696  66.639  92.477  1.00  0.00     0.142 A 
ATOM      6  C   UNL     1      49.734  67.383  91.277  1.00  0.00     0.018 A 
ATOM      7  C   UNL     1      50.884  68.125  90.988  1.00  0.00     0.019 A 
ATOM      8  C   UNL     1      51.952  68.108  91.884  1.00  0.00     0.094 A 
ATOM      9  C   UNL     1      51.844  67.348  93.054  1.00  0.00     0.336 A 
ATOM     10  O   UNL     1      52.798  67.320  93.875  1.00  0.00    -0.246 OA
ATOM     11  O   UNL     1      50.739  66.651  93.305  1.00  0.00    -0.423 OA
ENDROOT
BRANCH   3  12
ATOM     12  O   UNL     1      46.337  65.119  92.255  1.00  0.00    -0.508 OA
ATOM     13  H   UNL     1      45.461  65.559  92.511  1.00  0.00     0.293 HD
ENDBRANCH   3  12
TORSDOF 1
ENDMDL
MODEL 6
REMARK VINA RESULT:    -5.634      8.622      9.284
REMARK INTER + INTRA:          -5.799
REMARK INTER:                  -5.799
REMARK INTRA:                   0.000
REMARK UNBOUND:                 0.000
REMARK SMILES O=c1ccc2ccc(O)cc2o1
REMARK SMILES IDX 6 1 7 2 8 3 10 4 11 5 5 6 4 7 3 8 2 9 1 10 12 11 9 12
REMARK H PARENT 9 13
REMARK Flexibility Score: inf
ROOT
ATOM      1  C   UNL     1      51.177  68.077  95.604  1.00  0.00     0.016 A 
ATOM      2  C   UNL     1      52.483  68.018  95.107  1.00  0.00     0.047 A 
ATOM      3  C   UNL     1      52.718  67.626  93.780  1.00  0.00     0.119 A 
ATOM      4  C   UNL     1      51.642  67.294  92.949  1.00  0.00     0.094 A 
ATOM      5  C   UNL     1      50.332  67.352  93.437  1.00  0.00     0.142 A 
ATOM      6  C   UNL     1      50.097  67.744  94.773  1.00  0.00     0.018 A 
ATOM      7  C   UNL     1      48.777  67.792  95.233  1.00  0.00     0.019 A 
ATOM      8  C   UNL     1      47.739  67.452  94.367  1.00  0.00     0.094 A 
ATOM      9  C   UNL     1      48.046  67.071  93.056  1.00  0.00     0.336 A 
ATOM     10  O   UNL     1      47.122  66.760  92.260  1.00  0.00    -0.246 OA
ATOM     11  O   UNL     1      49.310  67.034  92.644  1.00  0.00    -0.423 OA
ENDROOT
BRANCH   3  12
ATOM     12  O   UNL     1      54.016  67.565  93.279  1.00  0.00    -0.508 OA
ATOM     13  H   UNL     1      54.764  67.121  93.798  1.00  0.00     0.293 HD
ENDBRANCH   3  12
TORSDOF 1
ENDMDL
MODEL 7
REMARK VINA RESULT:    -5.628      2.441      4.539
REMARK INTER + INTRA:          -5.793
REMARK INTER:                  -5.793
REMARK INTRA:                   0.000
REMARK UNBOUND:                 0.000
REMARK SMILES O=c1ccc2ccc(O)cc2o1
REMARK SMILES IDX 6 1 7 2 8 3 10 4 11 5 5 6 4 7 3 8 2 9 1 10 12 11 9 12
REMARK H PARENT 9 13
REMARK Flexibility Score: inf
ROOT
ATOM      1  C   UNL     1      51.313  60.585  93.163  1.00  0.00     0.016 A 
ATOM      2  C   UNL     1      50.123  61.021  93.756  1.00  0.00     0.047 A 
ATOM      3  C   UNL     1      49.402  60.168  94.606  1.00  0.00     0.119 A 
ATOM      4  C   UNL     1      49.874  58.876  94.863  1.00  0.00     0.094 A 
ATOM      5  C   UNL     1      51.063  58.431  94.274  1.00  0.00     0.142 A 
ATOM      6  C   UNL     1      51.787  59.290  93.418  1.00  0.00     0.018 A 
ATOM      7  C   UNL     1      52.972  58.817  92.844  1.00  0.00     0.019 A 
ATOM      8  C   UNL     1      53.400  57.521  93.130  1.00  0.00     0.094 A 
ATOM      9  C   UNL     1      52.632  56.726  93.987  1.00  0.00     0.336 A 
ATOM     10  O   UNL     1      53.002  55.554  94.257  1.00  0.00    -0.246 OA
ATOM     11  O   UNL     1      51.508  57.201  94.520  1.00  0.00    -0.423 OA
ENDROOT
BRANCH   3  12
ATOM     12  O   UNL     1      48.218  60.597  95.200  1.00  0.00    -0.508 OA
ATOM     13  H   UNL     1      47.660  59.978  95.776  1.00  0.00     0.293 HD
ENDBRANCH   3  12
TORSDOF 1
ENDMDL
MODEL 8
REMARK VINA RESULT:    -5.532     11.154     11.834
REMARK INTER + INTRA:          -5.693
REMARK INTER:                  -5.693
REMARK INTRA:                   0.000
REMARK UNBOUND:                 0.000
REMARK SMILES O=c1ccc2ccc(O)cc2o1
REMARK SMILES IDX 6 1 7 2 8 3 10 4 11 5 5 6 4 7 3 8 2 9 1 10 12 11 9 12
REMARK H PARENT 9 13
REMARK Flexibility Score: inf
ROOT
ATOM      1  C   UNL     1      56.313  48.550  96.647  1.00  0.00     0.016 A 
ATOM      2  C   UNL     1      57.585  49.006  96.285  1.00  0.00     0.047 A 
ATOM      3  C   UNL     1      57.863  49.342  94.952  1.00  0.00     0.119 A 
ATOM      4  C   UNL     1      56.865  49.222  93.978  1.00  0.00     0.094 A 
ATOM      5  C   UNL     1      55.589  48.768  94.331  1.00  0.00     0.142 A 
ATOM      6  C   UNL     1      55.311  48.429  95.673  1.00  0.00     0.018 A 
ATOM      7  C   UNL     1      54.027  47.977  95.996  1.00  0.00     0.019 A 
ATOM      8  C   UNL     1      53.066  47.875  94.990  1.00  0.00     0.094 A 
ATOM      9  C   UNL     1      53.413  48.228  93.682  1.00  0.00     0.336 A 
ATOM     10  O   UNL     1      52.559  48.142  92.761  1.00  0.00    -0.246 OA
ATOM     11  O   UNL     1      54.642  48.655  93.403  1.00  0.00    -0.423 OA
ENDROOT
BRANCH   3  12
ATOM     12  O   UNL     1      59.128  49.797  94.585  1.00  0.00    -0.508 OA
ATOM     13  H   UNL     1      59.247  50.596  93.975  1.00  0.00     0.293 HD
ENDBRANCH   3  12
TORSDOF 1
ENDMDL
MODEL 9
REMARK VINA RESULT:    -5.486     10.847     11.376
REMARK INTER + INTRA:          -5.646
REMARK INTER:                  -5.646
REMARK INTRA:                   0.000
REMARK UNBOUND:                 0.000
REMARK SMILES O=c1ccc2ccc(O)cc2o1
REMARK SMILES IDX 6 1 7 2 8 3 10 4 11 5 5 6 4 7 3 8 2 9 1 10 12 11 9 12
REMARK H PARENT 9 13
REMARK Flexibility Score: inf
ROOT
ATOM      1  C   UNL     1      53.831  47.875  91.662  1.00  0.00     0.016 A 
ATOM      2  C   UNL     1      52.448  47.876  91.870  1.00  0.00     0.047 A 
ATOM      3  C   UNL     1      51.920  48.241  93.118  1.00  0.00     0.119 A 
ATOM      4  C   UNL     1      52.779  48.608  94.160  1.00  0.00     0.094 A 
ATOM      5  C   UNL     1      54.164  48.611  93.961  1.00  0.00     0.142 A 
ATOM      6  C   UNL     1      54.695  48.242  92.705  1.00  0.00     0.018 A 
ATOM      7  C   UNL     1      56.083  48.254  92.537  1.00  0.00     0.019 A 
ATOM      8  C   UNL     1      56.898  48.627  93.606  1.00  0.00     0.094 A 
ATOM      9  C   UNL     1      56.303  48.980  94.821  1.00  0.00     0.336 A 
ATOM     10  O   UNL     1      57.022  49.319  95.798  1.00  0.00    -0.246 OA
ATOM     11  O   UNL     1      54.979  48.960  94.955  1.00  0.00    -0.423 OA
ENDROOT
BRANCH   3  12
ATOM     12  O   UNL     1      50.543  48.244  93.330  1.00  0.00    -0.508 OA
ATOM     13  H   UNL     1      50.123  47.718  94.087  1.00  0.00     0.293 HD
ENDBRANCH   3  12
TORSDOF 1
ENDMDL
