MODEL 1
REMARK VINA RESULT:    -6.343      0.000      0.000
REMARK INTER + INTRA:          -6.714
REMARK INTER:                  -6.714
REMARK INTRA:                   0.000
REMARK UNBOUND:                 0.000
REMARK SMILES O=c1ccc2cc(O)c(O)cc2o1
REMARK SMILES IDX 4 1 3 2 2 3 1 4 13 5 12 6 11 7 9 8 7 9 6 10 5 11 8 12 10 14
REMARK H PARENT 8 13 10 15
REMARK Flexibility Score: inf
ROOT
ATOM      1  C   UNL     1     -36.347  -7.575 -13.350  1.00  0.00     0.019 A 
ATOM      2  C   UNL     1     -35.713  -6.334 -13.395  1.00  0.00     0.094 A 
ATOM      3  C   UNL     1     -36.496  -5.174 -13.426  1.00  0.00     0.336 A 
ATOM      4  O   UNL     1     -35.943  -4.045 -13.466  1.00  0.00    -0.246 OA
ATOM      5  O   UNL     1     -37.824  -5.257 -13.413  1.00  0.00    -0.423 OA
ATOM      6  C   UNL     1     -38.468  -6.421 -13.370  1.00  0.00     0.142 A 
ATOM      7  C   UNL     1     -39.866  -6.446 -13.357  1.00  0.00     0.098 A 
ATOM      8  C   UNL     1     -40.551  -7.670 -13.312  1.00  0.00     0.161 A 
ATOM      9  C   UNL     1     -39.829  -8.877 -13.279  1.00  0.00     0.158 A 
ATOM     10  C   UNL     1     -38.429  -8.855 -13.292  1.00  0.00     0.062 A 
ATOM     11  C   UNL     1     -37.744  -7.633 -13.337  1.00  0.00     0.022 A 
ENDROOT
BRANCH   9  12
ATOM     12  O   UNL     1     -40.485 -10.107 -13.235  1.00  0.00    -0.504 OA
ATOM     13  H   UNL     1     -41.250 -10.332 -13.861  1.00  0.00     0.293 HD
ENDBRANCH   9  12
BRANCH   8  14
ATOM     14  O   UNL     1     -41.945  -7.690 -13.300  1.00  0.00    -0.504 OA
ATOM     15  H   UNL     1     -42.471  -8.328 -13.886  1.00  0.00     0.293 HD
ENDBRANCH   8  14
TORSDOF 2
ENDMDL
MODEL 2
REMARK VINA RESULT:    -6.239      6.616      9.349
REMARK INTER + INTRA:          -6.604
REMARK INTER:                  -6.604
REMARK INTRA:                   0.000
REMARK UNBOUND:                 0.000
REMARK SMILES O=c1ccc2cc(O)c(O)cc2o1
REMARK SMILES IDX 4 1 3 2 2 3 1 4 13 5 12 6 11 7 9 8 7 9 6 10 5 11 8 12 10 14
REMARK H PARENT 8 13 10 15
REMARK Flexibility Score: inf
ROOT
ATOM      1  C   UNL     1     -31.525  -4.131 -16.395  1.00  0.00     0.019 A 
ATOM      2  C   UNL     1     -32.524  -4.682 -15.594  1.00  0.00     0.094 A 
ATOM      3  C   UNL     1     -33.849  -4.644 -16.042  1.00  0.00     0.336 A 
ATOM      4  O   UNL     1     -34.765  -5.136 -15.333  1.00  0.00    -0.246 OA
ATOM      5  O   UNL     1     -34.148  -4.089 -17.214  1.00  0.00    -0.423 OA
ATOM      6  C   UNL     1     -33.225  -3.552 -18.008  1.00  0.00     0.142 A 
ATOM      7  C   UNL     1     -33.600  -2.984 -19.229  1.00  0.00     0.098 A 
ATOM      8  C   UNL     1     -32.631  -2.417 -20.072  1.00  0.00     0.161 A 
ATOM      9  C   UNL     1     -31.278  -2.419 -19.686  1.00  0.00     0.158 A 
ATOM     10  C   UNL     1     -30.900  -2.987 -18.464  1.00  0.00     0.062 A 
ATOM     11  C   UNL     1     -31.868  -3.554 -17.622  1.00  0.00     0.022 A 
ENDROOT
BRANCH   9  12
ATOM     12  O   UNL     1     -30.296  -1.861 -20.504  1.00  0.00    -0.504 OA
ATOM     13  H   UNL     1     -30.161  -2.158 -21.463  1.00  0.00     0.293 HD
ENDBRANCH   9  12
BRANCH   8  14
ATOM     14  O   UNL     1     -33.009  -1.850 -21.289  1.00  0.00    -0.504 OA
ATOM     15  H   UNL     1     -32.389  -1.235 -21.803  1.00  0.00     0.293 HD
ENDBRANCH   8  14
TORSDOF 2
ENDMDL
MODEL 3
REMARK VINA RESULT:    -5.926      1.156      4.559
REMARK INTER + INTRA:          -6.273
REMARK INTER:                  -6.273
REMARK INTRA:                   0.000
REMARK UNBOUND:                 0.000
REMARK SMILES O=c1ccc2cc(O)c(O)cc2o1
REMARK SMILES IDX 4 1 3 2 2 3 1 4 13 5 12 6 11 7 9 8 7 9 6 10 5 11 8 12 10 14
REMARK H PARENT 8 13 10 15
REMARK Flexibility Score: inf
ROOT
ATOM      1  C   UNL     1     -37.291  -8.690 -13.549  1.00  0.00     0.019 A 
ATOM      2  C   UNL     1     -38.537  -9.315 -13.505  1.00  0.00     0.094 A 
ATOM      3  C   UNL     1     -39.680  -8.535 -13.304  1.00  0.00     0.336 A 
ATOM      4  O   UNL     1     -40.813  -9.081 -13.261  1.00  0.00    -0.246 OA
ATOM      5  O   UNL     1     -39.579  -7.217 -13.156  1.00  0.00    -0.423 OA
ATOM      6  C   UNL     1     -38.410  -6.580 -13.192  1.00  0.00     0.142 A 
ATOM      7  C   UNL     1     -38.366  -5.192 -13.031  1.00  0.00     0.098 A 
ATOM      8  C   UNL     1     -37.137  -4.516 -13.068  1.00  0.00     0.161 A 
ATOM      9  C   UNL     1     -35.945  -5.236 -13.267  1.00  0.00     0.158 A 
ATOM     10  C   UNL     1     -35.987  -6.626 -13.427  1.00  0.00     0.062 A 
ATOM     11  C   UNL     1     -37.214  -7.303 -13.391  1.00  0.00     0.022 A 
ENDROOT
BRANCH   9  12
ATOM     12  O   UNL     1     -34.710  -4.588 -13.306  1.00  0.00    -0.504 OA
ATOM     13  H   UNL     1     -33.916  -4.974 -13.802  1.00  0.00     0.293 HD
ENDBRANCH   9  12
BRANCH   8  14
ATOM     14  O   UNL     1     -37.096  -3.131 -12.907  1.00  0.00    -0.504 OA
ATOM     15  H   UNL     1     -36.535  -2.542 -13.511  1.00  0.00     0.293 HD
ENDBRANCH   8  14
TORSDOF 2
ENDMDL
MODEL 4
REMARK VINA RESULT:    -5.817      0.934      2.238
REMARK INTER + INTRA:          -6.157
REMARK INTER:                  -6.157
REMARK INTRA:                   0.000
REMARK UNBOUND:                 0.000
REMARK SMILES O=c1ccc2cc(O)c(O)cc2o1
REMARK SMILES IDX 4 1 3 2 2 3 1 4 13 5 12 6 11 7 9 8 7 9 6 10 5 11 8 12 10 14
REMARK H PARENT 8 13 10 15
REMARK Flexibility Score: inf
ROOT
ATOM      1  C   UNL     1     -38.601  -4.696 -13.402  1.00  0.00     0.019 A 
ATOM      2  C   UNL     1     -37.242  -4.383 -13.414  1.00  0.00     0.094 A 
ATOM      3  C   UNL     1     -36.307  -5.425 -13.410  1.00  0.00     0.336 A 
ATOM      4  O   UNL     1     -35.076  -5.163 -13.421  1.00  0.00    -0.246 OA
ATOM      5  O   UNL     1     -36.711  -6.692 -13.395  1.00  0.00    -0.423 OA
ATOM      6  C   UNL     1     -37.997  -7.034 -13.384  1.00  0.00     0.142 A 
ATOM      7  C   UNL     1     -38.362  -8.383 -13.369  1.00  0.00     0.098 A 
ATOM      8  C   UNL     1     -39.717  -8.749 -13.356  1.00  0.00     0.161 A 
ATOM      9  C   UNL     1     -40.712  -7.755 -13.359  1.00  0.00     0.158 A 
ATOM     10  C   UNL     1     -40.350  -6.403 -13.374  1.00  0.00     0.062 A 
ATOM     11  C   UNL     1     -38.997  -6.036 -13.386  1.00  0.00     0.022 A 
ENDROOT
BRANCH   9  12
ATOM     12  O   UNL     1     -42.065  -8.092 -13.346  1.00  0.00    -0.504 OA
ATOM     13  H   UNL     1     -42.795  -7.392 -13.414  1.00  0.00     0.293 HD
ENDBRANCH   9  12
BRANCH   8  14
ATOM     14  O   UNL     1     -40.076 -10.097 -13.341  1.00  0.00    -0.504 OA
ATOM     15  H   UNL     1     -39.380 -10.831 -13.291  1.00  0.00     0.293 HD
ENDBRANCH   8  14
TORSDOF 2
ENDMDL
MODEL 5
REMARK VINA RESULT:    -5.729      2.136      2.884
REMARK INTER + INTRA:          -6.064
REMARK INTER:                  -6.064
REMARK INTRA:                   0.000
REMARK UNBOUND:                 0.000
REMARK SMILES O=c1ccc2cc(O)c(O)cc2o1
REMARK SMILES IDX 4 1 3 2 2 3 1 4 13 5 12 6 11 7 9 8 7 9 6 10 5 11 8 12 10 14
REMARK H PARENT 8 13 10 15
REMARK Flexibility Score: inf
ROOT
ATOM      1  C   UNL     1     -36.815  -5.696 -16.360  1.00  0.00     0.019 A 
ATOM      2  C   UNL     1     -35.655  -4.955 -16.137  1.00  0.00     0.094 A 
ATOM      3  C   UNL     1     -34.878  -5.238 -15.008  1.00  0.00     0.336 A 
ATOM      4  O   UNL     1     -33.827  -4.581 -14.789  1.00  0.00    -0.246 OA
ATOM      5  O   UNL     1     -35.242  -6.199 -14.163  1.00  0.00    -0.423 OA
ATOM      6  C   UNL     1     -36.341  -6.929 -14.339  1.00  0.00     0.142 A 
ATOM      7  C   UNL     1     -36.672  -7.926 -13.417  1.00  0.00     0.098 A 
ATOM      8  C   UNL     1     -37.830  -8.699 -13.598  1.00  0.00     0.161 A 
ATOM      9  C   UNL     1     -38.659  -8.470 -14.710  1.00  0.00     0.158 A 
ATOM     10  C   UNL     1     -38.330  -7.472 -15.635  1.00  0.00     0.062 A 
ATOM     11  C   UNL     1     -37.174  -6.699 -15.455  1.00  0.00     0.022 A 
ENDROOT
BRANCH   9  12
ATOM     12  O   UNL     1     -39.816  -9.223 -14.913  1.00  0.00    -0.504 OA
ATOM     13  H   UNL     1     -39.844 -10.222 -14.745  1.00  0.00     0.293 HD
ENDBRANCH   9  12
BRANCH   8  14
ATOM     14  O   UNL     1     -38.158  -9.692 -12.675  1.00  0.00    -0.504 OA
ATOM     15  H   UNL     1     -39.105  -9.807 -12.334  1.00  0.00     0.293 HD
ENDBRANCH   8  14
TORSDOF 2
ENDMDL
MODEL 6
REMARK VINA RESULT:    -5.673      2.260      2.686
REMARK INTER + INTRA:          -6.005
REMARK INTER:                  -6.005
REMARK INTRA:                   0.000
REMARK UNBOUND:                 0.000
REMARK SMILES O=c1ccc2cc(O)c(O)cc2o1
REMARK SMILES IDX 4 1 3 2 2 3 1 4 13 5 12 6 11 7 9 8 7 9 6 10 5 11 8 12 10 14
REMARK H PARENT 8 13 10 15
REMARK Flexibility Score: inf
ROOT
ATOM      1  C   UNL     1     -35.298  -5.695 -13.725  1.00  0.00     0.019 A 
ATOM      2  C   UNL     1     -34.849  -4.654 -14.538  1.00  0.00     0.094 A 
ATOM      3  C   UNL     1     -35.449  -4.464 -15.788  1.00  0.00     0.336 A 
ATOM      4  O   UNL     1     -35.057  -3.530 -16.535  1.00  0.00    -0.246 OA
ATOM      5  O   UNL     1     -36.431  -5.264 -16.193  1.00  0.00    -0.423 OA
ATOM      6  C   UNL     1     -36.889  -6.268 -15.448  1.00  0.00     0.142 A 
ATOM      7  C   UNL     1     -37.925  -7.076 -15.927  1.00  0.00     0.098 A 
ATOM      8  C   UNL     1     -38.412  -8.136 -15.146  1.00  0.00     0.161 A 
ATOM      9  C   UNL     1     -37.857  -8.387 -13.879  1.00  0.00     0.158 A 
ATOM     10  C   UNL     1     -36.819  -7.579 -13.397  1.00  0.00     0.062 A 
ATOM     11  C   UNL     1     -36.332  -6.520 -14.176  1.00  0.00     0.022 A 
ENDROOT
BRANCH   9  12
ATOM     12  O   UNL     1     -38.322  -9.434 -13.084  1.00  0.00    -0.504 OA
ATOM     13  H   UNL     1     -37.986  -9.583 -12.139  1.00  0.00     0.293 HD
ENDBRANCH   9  12
BRANCH   8  14
ATOM     14  O   UNL     1     -39.445  -8.940 -15.627  1.00  0.00    -0.504 OA
ATOM     15  H   UNL     1     -39.858  -8.784 -16.539  1.00  0.00     0.293 HD
ENDBRANCH   8  14
TORSDOF 2
ENDMDL
MODEL 7
REMARK VINA RESULT:    -5.637      1.959      2.581
REMARK INTER + INTRA:          -5.967
REMARK INTER:                  -5.967
REMARK INTRA:                   0.000
REMARK UNBOUND:                 0.000
REMARK SMILES O=c1ccc2cc(O)c(O)cc2o1
REMARK SMILES IDX 4 1 3 2 2 3 1 4 13 5 12 6 11 7 9 8 7 9 6 10 5 11 8 12 10 14
REMARK H PARENT 8 13 10 15
REMARK Flexibility Score: inf
ROOT
ATOM      1  C   UNL     1     -35.966  -5.152 -12.648  1.00  0.00     0.019 A 
ATOM      2  C   UNL     1     -36.513  -4.034 -12.019  1.00  0.00     0.094 A 
ATOM      3  C   UNL     1     -37.904  -3.921 -11.927  1.00  0.00     0.336 A 
ATOM      4  O   UNL     1     -38.417  -2.919 -11.363  1.00  0.00    -0.246 OA
ATOM      5  O   UNL     1     -38.692  -4.865 -12.434  1.00  0.00    -0.423 OA
ATOM      6  C   UNL     1     -38.211  -5.948 -13.042  1.00  0.00     0.142 A 
ATOM      7  C   UNL     1     -39.088  -6.908 -13.555  1.00  0.00     0.098 A 
ATOM      8  C   UNL     1     -38.587  -8.051 -14.197  1.00  0.00     0.161 A 
ATOM      9  C   UNL     1     -37.198  -8.232 -14.326  1.00  0.00     0.158 A 
ATOM     10  C   UNL     1     -36.318  -7.271 -13.813  1.00  0.00     0.062 A 
ATOM     11  C   UNL     1     -36.817  -6.129 -13.172  1.00  0.00     0.022 A 
ENDROOT
BRANCH   9  12
ATOM     12  O   UNL     1     -36.675  -9.358 -14.960  1.00  0.00    -0.504 OA
ATOM     13  H   UNL     1     -37.093  -9.748 -15.797  1.00  0.00     0.293 HD
ENDBRANCH   9  12
BRANCH   8  14
ATOM     14  O   UNL     1     -39.466  -9.006 -14.708  1.00  0.00    -0.504 OA
ATOM     15  H   UNL     1     -39.655  -9.076 -15.701  1.00  0.00     0.293 HD
ENDBRANCH   8  14
TORSDOF 2
ENDMDL
MODEL 8
REMARK VINA RESULT:    -5.564      6.190      8.644
REMARK INTER + INTRA:          -5.889
REMARK INTER:                  -5.889
REMARK INTRA:                   0.000
REMARK UNBOUND:                 0.000
REMARK SMILES O=c1ccc2cc(O)c(O)cc2o1
REMARK SMILES IDX 4 1 3 2 2 3 1 4 13 5 12 6 11 7 9 8 7 9 6 10 5 11 8 12 10 14
REMARK H PARENT 8 13 10 15
REMARK Flexibility Score: inf
ROOT
ATOM      1  C   UNL     1     -34.273  -2.972 -18.626  1.00  0.00     0.019 A 
ATOM      2  C   UNL     1     -35.553  -3.520 -18.691  1.00  0.00     0.094 A 
ATOM      3  C   UNL     1     -35.784  -4.772 -18.108  1.00  0.00     0.336 A 
ATOM      4  O   UNL     1     -36.933  -5.283 -18.155  1.00  0.00    -0.246 OA
ATOM      5  O   UNL     1     -34.797  -5.426 -17.503  1.00  0.00    -0.423 OA
ATOM      6  C   UNL     1     -33.561  -4.938 -17.419  1.00  0.00     0.142 A 
ATOM      7  C   UNL     1     -32.563  -5.671 -16.770  1.00  0.00     0.098 A 
ATOM      8  C   UNL     1     -31.258  -5.162 -16.679  1.00  0.00     0.161 A 
ATOM      9  C   UNL     1     -30.953  -3.910 -17.242  1.00  0.00     0.158 A 
ATOM     10  C   UNL     1     -31.950  -3.173 -17.892  1.00  0.00     0.062 A 
ATOM     11  C   UNL     1     -33.254  -3.681 -17.984  1.00  0.00     0.022 A 
ENDROOT
BRANCH   9  12
ATOM     12  O   UNL     1     -29.664  -3.381 -17.166  1.00  0.00    -0.504 OA
ATOM     13  H   UNL     1     -28.910  -3.717 -17.753  1.00  0.00     0.293 HD
ENDBRANCH   9  12
BRANCH   8  14
ATOM     14  O   UNL     1     -30.266  -5.897 -16.031  1.00  0.00    -0.504 OA
ATOM     15  H   UNL     1     -30.491  -6.693 -15.446  1.00  0.00     0.293 HD
ENDBRANCH   8  14
TORSDOF 2
ENDMDL
MODEL 9
REMARK VINA RESULT:    -5.408      1.946      2.952
REMARK INTER + INTRA:          -5.724
REMARK INTER:                  -5.724
REMARK INTRA:                   0.000
REMARK UNBOUND:                 0.000
REMARK SMILES O=c1ccc2cc(O)c(O)cc2o1
REMARK SMILES IDX 4 1 3 2 2 3 1 4 13 5 12 6 11 7 9 8 7 9 6 10 5 11 8 12 10 14
REMARK H PARENT 8 13 10 15
REMARK Flexibility Score: inf
ROOT
ATOM      1  C   UNL     1     -40.122  -5.081 -11.859  1.00  0.00     0.019 A 
ATOM      2  C   UNL     1     -39.435  -3.922 -11.500  1.00  0.00     0.094 A 
ATOM      3  C   UNL     1     -38.106  -3.769 -11.910  1.00  0.00     0.336 A 
ATOM      4  O   UNL     1     -37.468  -2.730 -11.597  1.00  0.00    -0.246 OA
ATOM      5  O   UNL     1     -37.509  -4.715 -12.630  1.00  0.00    -0.423 OA
ATOM      6  C   UNL     1     -38.129  -5.835 -12.994  1.00  0.00     0.142 A 
ATOM      7  C   UNL     1     -37.451  -6.794 -13.751  1.00  0.00     0.098 A 
ATOM      8  C   UNL     1     -38.099  -7.978 -14.138  1.00  0.00     0.161 A 
ATOM      9  C   UNL     1     -39.436  -8.200 -13.761  1.00  0.00     0.158 A 
ATOM     10  C   UNL     1     -40.118  -7.241 -13.002  1.00  0.00     0.062 A 
ATOM     11  C   UNL     1     -39.471  -6.059 -12.616  1.00  0.00     0.022 A 
ENDROOT
BRANCH   9  12
ATOM     12  O   UNL     1     -40.103  -9.368 -14.131  1.00  0.00    -0.504 OA
ATOM     13  H   UNL     1     -40.070  -9.730 -15.077  1.00  0.00     0.293 HD
ENDBRANCH   9  12
BRANCH   8  14
ATOM     14  O   UNL     1     -37.419  -8.933 -14.893  1.00  0.00    -0.504 OA
ATOM     15  H   UNL     1     -37.912  -9.653 -15.407  1.00  0.00     0.293 HD
ENDBRANCH   8  14
TORSDOF 2
ENDMDL
