MODEL 1
REMARK VINA RESULT:    -7.165      0.000      0.000
REMARK INTER + INTRA:          -8.924
REMARK INTER:                  -8.631
REMARK INTRA:                  -0.293
REMARK UNBOUND:                -0.293
REMARK SMILES Oc1cc(O)c2cc(O)c(-c3ccc(O)c(O)c3)[o+]c2c1
REMARK SMILES IDX 10 1 19 2 20 3 21 4 2 5 3 6 4 7 6 8 7 9 8 10 11 11 12 12
REMARK SMILES IDX 13 13 14 14 18 15 16 16 15 17 17 19 9 21 1 23 5 25
REMARK H PARENT 15 18 17 20 9 22 1 24 5 26
REMARK Flexibility Score: inf
ROOT
ATOM      1  C   UNL     1      72.199  -2.923  24.444  1.00  0.00     0.402 A 
ATOM      2  O   UNL     1      71.627  -3.121  23.259  1.00  0.00    -0.202 OA
ATOM      3  C   UNL     1      72.283  -3.583  22.200  1.00  0.00     0.368 A 
ATOM      4  C   UNL     1      71.594  -3.760  20.997  1.00  0.00     0.162 A 
ATOM      5  C   UNL     1      72.256  -4.248  19.870  1.00  0.00     0.128 A 
ATOM      6  C   UNL     1      73.617  -4.565  19.944  1.00  0.00     0.093 A 
ATOM      7  C   UNL     1      74.330  -4.397  21.137  1.00  0.00     0.136 A 
ATOM      8  C   UNL     1      73.661  -3.899  22.285  1.00  0.00     0.125 A 
ATOM      9  C   UNL     1      74.297  -3.687  23.519  1.00  0.00     0.078 A 
ATOM     10  C   UNL     1      73.572  -3.187  24.605  1.00  0.00     0.223 A 
ENDROOT
BRANCH   1  11
ATOM     11  C   UNL     1      71.359  -2.412  25.550  1.00  0.00     0.087 A 
ATOM     12  C   UNL     1      71.433  -1.072  25.968  1.00  0.00     0.022 A 
ATOM     13  C   UNL     1      70.647  -0.618  27.030  1.00  0.00     0.051 A 
ATOM     14  C   UNL     1      69.784  -1.498  27.698  1.00  0.00     0.157 A 
ATOM     15  C   UNL     1      70.509  -3.294  26.237  1.00  0.00     0.068 A 
ATOM     16  C   UNL     1      69.718  -2.843  27.300  1.00  0.00     0.158 A 
BRANCH  14  17
ATOM     17  O   UNL     1      68.999  -1.042  28.756  1.00  0.00    -0.504 OA
ATOM     18  H   UNL     1      69.046  -1.468  29.675  1.00  0.00     0.293 HD
ENDBRANCH  14  17
BRANCH  16  19
ATOM     19  O   UNL     1      68.876  -3.746  27.949  1.00  0.00    -0.504 OA
ATOM     20  H   UNL     1      67.887  -3.567  28.070  1.00  0.00     0.293 HD
ENDBRANCH  16  19
ENDBRANCH   1  11
BRANCH  10  21
ATOM     21  O   UNL     1      74.214  -2.930  25.816  1.00  0.00    -0.500 OA
ATOM     22  H   UNL     1      74.157  -3.573  26.596  1.00  0.00     0.294 HD
ENDBRANCH  10  21
BRANCH   5  23
ATOM     23  O   UNL     1      71.552  -4.416  18.679  1.00  0.00    -0.507 OA
ATOM     24  H   UNL     1      71.706  -5.219  18.081  1.00  0.00     0.293 HD
ENDBRANCH   5  23
BRANCH   7  25
ATOM     25  O   UNL     1      75.685  -4.738  21.131  1.00  0.00    -0.507 OA
ATOM     26  H   UNL     1      76.393  -4.256  20.595  1.00  0.00     0.293 HD
ENDBRANCH   7  25
TORSDOF 6
ENDMDL
MODEL 2
REMARK VINA RESULT:    -7.082      2.983      4.492
REMARK INTER + INTRA:          -8.824
REMARK INTER:                  -8.770
REMARK INTRA:                  -0.054
REMARK UNBOUND:                -0.293
REMARK SMILES Oc1cc(O)c2cc(O)c(-c3ccc(O)c(O)c3)[o+]c2c1
REMARK SMILES IDX 10 1 19 2 20 3 21 4 2 5 3 6 4 7 6 8 7 9 8 10 11 11 12 12
REMARK SMILES IDX 13 13 14 14 18 15 16 16 15 17 17 19 9 21 1 23 5 25
REMARK H PARENT 15 18 17 20 9 22 1 24 5 26
REMARK Flexibility Score: inf
ROOT
ATOM      1  C   UNL     1      74.050  -2.667  24.321  1.00  0.00     0.402 A 
ATOM      2  O   UNL     1      74.755  -1.576  24.606  1.00  0.00    -0.202 OA
ATOM      3  C   UNL     1      75.913  -1.281  24.024  1.00  0.00     0.368 A 
ATOM      4  C   UNL     1      76.579  -0.108  24.389  1.00  0.00     0.162 A 
ATOM      5  C   UNL     1      77.794   0.228  23.791  1.00  0.00     0.128 A 
ATOM      6  C   UNL     1      78.348  -0.612  22.819  1.00  0.00     0.093 A 
ATOM      7  C   UNL     1      77.701  -1.793  22.435  1.00  0.00     0.136 A 
ATOM      8  C   UNL     1      76.466  -2.139  23.043  1.00  0.00     0.125 A 
ATOM      9  C   UNL     1      75.753  -3.308  22.730  1.00  0.00     0.078 A 
ATOM     10  C   UNL     1      74.544  -3.586  23.375  1.00  0.00     0.223 A 
ENDROOT
BRANCH   1  11
ATOM     11  C   UNL     1      72.769  -2.879  25.032  1.00  0.00     0.087 A 
ATOM     12  C   UNL     1      71.593  -3.213  24.339  1.00  0.00     0.022 A 
ATOM     13  C   UNL     1      70.391  -3.386  25.029  1.00  0.00     0.051 A 
ATOM     14  C   UNL     1      70.343  -3.215  26.419  1.00  0.00     0.157 A 
ATOM     15  C   UNL     1      72.711  -2.688  26.422  1.00  0.00     0.068 A 
ATOM     16  C   UNL     1      71.508  -2.861  27.117  1.00  0.00     0.158 A 
BRANCH  14  17
ATOM     17  O   UNL     1      69.142  -3.390  27.105  1.00  0.00    -0.504 OA
ATOM     18  H   UNL     1      68.974  -2.950  28.003  1.00  0.00     0.293 HD
ENDBRANCH  14  17
BRANCH  16  19
ATOM     19  O   UNL     1      71.493  -2.677  28.500  1.00  0.00    -0.504 OA
ATOM     20  H   UNL     1      70.878  -2.007  28.946  1.00  0.00     0.293 HD
ENDBRANCH  16  19
ENDBRANCH   1  11
BRANCH  10  21
ATOM     21  O   UNL     1      73.861  -4.770  23.102  1.00  0.00    -0.500 OA
ATOM     22  H   UNL     1      74.248  -5.675  23.340  1.00  0.00     0.294 HD
ENDBRANCH  10  21
BRANCH   5  23
ATOM     23  O   UNL     1      78.444   1.402  24.169  1.00  0.00    -0.507 OA
ATOM     24  H   UNL     1      79.431   1.412  24.396  1.00  0.00     0.293 HD
ENDBRANCH   5  23
BRANCH   7  25
ATOM     25  O   UNL     1      78.318  -2.576  21.456  1.00  0.00    -0.507 OA
ATOM     26  H   UNL     1      77.972  -3.471  21.139  1.00  0.00     0.293 HD
ENDBRANCH   7  25
TORSDOF 6
ENDMDL
MODEL 3
REMARK VINA RESULT:    -7.049     11.291     12.916
REMARK INTER + INTRA:          -8.785
REMARK INTER:                  -8.962
REMARK INTRA:                   0.177
REMARK UNBOUND:                -0.293
REMARK SMILES Oc1cc(O)c2cc(O)c(-c3ccc(O)c(O)c3)[o+]c2c1
REMARK SMILES IDX 10 1 19 2 20 3 21 4 2 5 3 6 4 7 6 8 7 9 8 10 11 11 12 12
REMARK SMILES IDX 13 13 14 14 18 15 16 16 15 17 17 19 9 21 1 23 5 25
REMARK H PARENT 15 18 17 20 9 22 1 24 5 26
REMARK Flexibility Score: inf
ROOT
ATOM      1  C   UNL     1      74.132  -8.711  13.785  1.00  0.00     0.402 A 
ATOM      2  O   UNL     1      73.469  -9.439  14.680  1.00  0.00    -0.202 OA
ATOM      3  C   UNL     1      72.440 -10.220  14.368  1.00  0.00     0.368 A 
ATOM      4  C   UNL     1      71.810 -10.949  15.379  1.00  0.00     0.162 A 
ATOM      5  C   UNL     1      70.730 -11.781  15.081  1.00  0.00     0.128 A 
ATOM      6  C   UNL     1      70.277 -11.887  13.761  1.00  0.00     0.093 A 
ATOM      7  C   UNL     1      70.892 -11.167  12.729  1.00  0.00     0.136 A 
ATOM      8  C   UNL     1      71.989 -10.319  13.030  1.00  0.00     0.125 A 
ATOM      9  C   UNL     1      72.658  -9.551  12.064  1.00  0.00     0.078 A 
ATOM     10  C   UNL     1      73.729  -8.732  12.437  1.00  0.00     0.223 A 
ENDROOT
BRANCH   1  11
ATOM     11  C   UNL     1      75.268  -7.887  14.256  1.00  0.00     0.087 A 
ATOM     12  C   UNL     1      76.132  -8.339  15.269  1.00  0.00     0.022 A 
ATOM     13  C   UNL     1      77.183  -7.534  15.712  1.00  0.00     0.051 A 
ATOM     14  C   UNL     1      77.381  -6.260  15.161  1.00  0.00     0.157 A 
ATOM     15  C   UNL     1      75.458  -6.602  13.722  1.00  0.00     0.068 A 
ATOM     16  C   UNL     1      76.511  -5.793  14.162  1.00  0.00     0.158 A 
BRANCH  14  17
ATOM     17  O   UNL     1      78.433  -5.460  15.604  1.00  0.00    -0.504 OA
ATOM     18  H   UNL     1      79.330  -5.857  15.862  1.00  0.00     0.293 HD
ENDBRANCH  14  17
BRANCH  16  19
ATOM     19  O   UNL     1      76.676  -4.528  13.598  1.00  0.00    -0.504 OA
ATOM     20  H   UNL     1      76.521  -3.678  14.127  1.00  0.00     0.293 HD
ENDBRANCH  16  19
ENDBRANCH   1  11
BRANCH  10  21
ATOM     21  O   UNL     1      74.362  -7.932  11.486  1.00  0.00    -0.500 OA
ATOM     22  H   UNL     1      74.063  -6.981  11.307  1.00  0.00     0.294 HD
ENDBRANCH  10  21
BRANCH   5  23
ATOM     23  O   UNL     1      70.113 -12.499  16.103  1.00  0.00    -0.507 OA
ATOM     24  H   UNL     1      69.858 -13.473  15.987  1.00  0.00     0.293 HD
ENDBRANCH   5  23
BRANCH   7  25
ATOM     25  O   UNL     1      70.382 -11.329  11.439  1.00  0.00    -0.507 OA
ATOM     26  H   UNL     1      70.737 -11.991  10.764  1.00  0.00     0.293 HD
ENDBRANCH   7  25
TORSDOF 6
ENDMDL
MODEL 4
REMARK VINA RESULT:    -6.999      1.698      6.624
REMARK INTER + INTRA:          -8.724
REMARK INTER:                  -8.512
REMARK INTRA:                  -0.212
REMARK UNBOUND:                -0.293
REMARK SMILES Oc1cc(O)c2cc(O)c(-c3ccc(O)c(O)c3)[o+]c2c1
REMARK SMILES IDX 10 1 19 2 20 3 21 4 2 5 3 6 4 7 6 8 7 9 8 10 11 11 12 12
REMARK SMILES IDX 13 13 14 14 18 15 16 16 15 17 17 19 9 21 1 23 5 25
REMARK H PARENT 15 18 17 20 9 22 1 24 5 26
REMARK Flexibility Score: inf
ROOT
ATOM      1  C   UNL     1      72.237  -2.775  23.654  1.00  0.00     0.402 A 
ATOM      2  O   UNL     1      71.109  -3.047  24.303  1.00  0.00    -0.202 OA
ATOM      3  C   UNL     1      70.986  -2.957  25.623  1.00  0.00     0.368 A 
ATOM      4  C   UNL     1      69.756  -3.261  26.214  1.00  0.00     0.162 A 
ATOM      5  C   UNL     1      69.597  -3.173  27.597  1.00  0.00     0.128 A 
ATOM      6  C   UNL     1      70.673  -2.775  28.398  1.00  0.00     0.093 A 
ATOM      7  C   UNL     1      71.916  -2.465  27.831  1.00  0.00     0.136 A 
ATOM      8  C   UNL     1      72.082  -2.556  26.425  1.00  0.00     0.125 A 
ATOM      9  C   UNL     1      73.293  -2.277  25.770  1.00  0.00     0.078 A 
ATOM     10  C   UNL     1      73.382  -2.395  24.380  1.00  0.00     0.223 A 
ENDROOT
BRANCH   1  11
ATOM     11  C   UNL     1      72.246  -2.903  22.179  1.00  0.00     0.087 A 
ATOM     12  C   UNL     1      72.484  -1.794  21.348  1.00  0.00     0.022 A 
ATOM     13  C   UNL     1      72.464  -1.934  19.959  1.00  0.00     0.051 A 
ATOM     14  C   UNL     1      72.193  -3.181  19.378  1.00  0.00     0.157 A 
ATOM     15  C   UNL     1      71.954  -4.144  21.591  1.00  0.00     0.068 A 
ATOM     16  C   UNL     1      71.934  -4.289  20.200  1.00  0.00     0.158 A 
BRANCH  14  17
ATOM     17  O   UNL     1      72.176  -3.318  17.991  1.00  0.00    -0.504 OA
ATOM     18  H   UNL     1      72.840  -3.914  17.508  1.00  0.00     0.293 HD
ENDBRANCH  14  17
BRANCH  16  19
ATOM     19  O   UNL     1      71.654  -5.542  19.653  1.00  0.00    -0.504 OA
ATOM     20  H   UNL     1      71.672  -6.388  20.209  1.00  0.00     0.293 HD
ENDBRANCH  16  19
ENDBRANCH   1  11
BRANCH  10  21
ATOM     21  O   UNL     1      74.597  -2.166  23.735  1.00  0.00    -0.500 OA
ATOM     22  H   UNL     1      75.404  -2.757  23.894  1.00  0.00     0.294 HD
ENDBRANCH  10  21
BRANCH   5  23
ATOM     23  O   UNL     1      68.364  -3.481  28.168  1.00  0.00    -0.507 OA
ATOM     24  H   UNL     1      67.577  -3.777  27.602  1.00  0.00     0.293 HD
ENDBRANCH   5  23
BRANCH   7  25
ATOM     25  O   UNL     1      72.939  -2.073  28.697  1.00  0.00    -0.507 OA
ATOM     26  H   UNL     1      73.535  -1.270  28.552  1.00  0.00     0.293 HD
ENDBRANCH   7  25
TORSDOF 6
ENDMDL
MODEL 5
REMARK VINA RESULT:    -6.833      8.982     11.324
REMARK INTER + INTRA:          -8.524
REMARK INTER:                  -8.330
REMARK INTRA:                  -0.194
REMARK UNBOUND:                -0.293
REMARK SMILES Oc1cc(O)c2cc(O)c(-c3ccc(O)c(O)c3)[o+]c2c1
REMARK SMILES IDX 10 1 19 2 20 3 21 4 2 5 3 6 4 7 6 8 7 9 8 10 11 11 12 12
REMARK SMILES IDX 13 13 14 14 18 15 16 16 15 17 17 19 9 21 1 23 5 25
REMARK H PARENT 15 18 17 20 9 22 1 24 5 26
REMARK Flexibility Score: inf
ROOT
ATOM      1  C   UNL     1      76.488  -8.064  17.328  1.00  0.00     0.402 A 
ATOM      2  O   UNL     1      76.800  -9.357  17.301  1.00  0.00    -0.202 OA
ATOM      3  C   UNL     1      77.395  -9.986  18.309  1.00  0.00     0.368 A 
ATOM      4  C   UNL     1      77.679 -11.349  18.187  1.00  0.00     0.162 A 
ATOM      5  C   UNL     1      78.299 -12.036  19.230  1.00  0.00     0.128 A 
ATOM      6  C   UNL     1      78.637 -11.359  20.407  1.00  0.00     0.093 A 
ATOM      7  C   UNL     1      78.362  -9.994  20.555  1.00  0.00     0.136 A 
ATOM      8  C   UNL     1      77.734  -9.291  19.495  1.00  0.00     0.125 A 
ATOM      9  C   UNL     1      77.432  -7.920  19.549  1.00  0.00     0.078 A 
ATOM     10  C   UNL     1      76.816  -7.294  18.461  1.00  0.00     0.223 A 
ENDROOT
BRANCH   1  11
ATOM     11  C   UNL     1      75.818  -7.479  16.145  1.00  0.00     0.087 A 
ATOM     12  C   UNL     1      74.532  -7.889  15.754  1.00  0.00     0.022 A 
ATOM     13  C   UNL     1      73.929  -7.340  14.621  1.00  0.00     0.051 A 
ATOM     14  C   UNL     1      74.606  -6.383  13.853  1.00  0.00     0.157 A 
ATOM     15  C   UNL     1      76.501  -6.536  15.360  1.00  0.00     0.068 A 
ATOM     16  C   UNL     1      75.899  -5.982  14.224  1.00  0.00     0.158 A 
BRANCH  14  17
ATOM     17  O   UNL     1      74.001  -5.835  12.723  1.00  0.00    -0.504 OA
ATOM     18  H   UNL     1      74.233  -6.153  11.788  1.00  0.00     0.293 HD
ENDBRANCH  14  17
BRANCH  16  19
ATOM     19  O   UNL     1      76.604  -5.038  13.477  1.00  0.00    -0.504 OA
ATOM     20  H   UNL     1      77.134  -4.294  13.913  1.00  0.00     0.293 HD
ENDBRANCH  16  19
ENDBRANCH   1  11
BRANCH  10  21
ATOM     21  O   UNL     1      76.561  -5.923  18.494  1.00  0.00    -0.500 OA
ATOM     22  H   UNL     1      77.252  -5.246  18.195  1.00  0.00     0.294 HD
ENDBRANCH  10  21
BRANCH   5  23
ATOM     23  O   UNL     1      78.575 -13.395  19.089  1.00  0.00    -0.507 OA
ATOM     24  H   UNL     1      78.935 -13.775  18.222  1.00  0.00     0.293 HD
ENDBRANCH   5  23
BRANCH   7  25
ATOM     25  O   UNL     1      78.728  -9.390  21.761  1.00  0.00    -0.507 OA
ATOM     26  H   UNL     1      78.095  -9.225  22.531  1.00  0.00     0.293 HD
ENDBRANCH   7  25
TORSDOF 6
ENDMDL
MODEL 6
REMARK VINA RESULT:    -6.828      3.827      8.115
REMARK INTER + INTRA:          -8.518
REMARK INTER:                  -8.394
REMARK INTRA:                  -0.124
REMARK UNBOUND:                -0.293
REMARK SMILES Oc1cc(O)c2cc(O)c(-c3ccc(O)c(O)c3)[o+]c2c1
REMARK SMILES IDX 10 1 19 2 20 3 21 4 2 5 3 6 4 7 6 8 7 9 8 10 11 11 12 12
REMARK SMILES IDX 13 13 14 14 18 15 16 16 15 17 17 19 9 21 1 23 5 25
REMARK H PARENT 15 18 17 20 9 22 1 24 5 26
REMARK Flexibility Score: inf
ROOT
ATOM      1  C   UNL     1      75.891  -2.007  23.541  1.00  0.00     0.402 A 
ATOM      2  O   UNL     1      75.947  -1.666  24.825  1.00  0.00    -0.202 OA
ATOM      3  C   UNL     1      74.962  -1.900  25.687  1.00  0.00     0.368 A 
ATOM      4  C   UNL     1      75.116  -1.507  27.018  1.00  0.00     0.162 A 
ATOM      5  C   UNL     1      74.101  -1.743  27.946  1.00  0.00     0.128 A 
ATOM      6  C   UNL     1      72.922  -2.379  27.541  1.00  0.00     0.093 A 
ATOM      7  C   UNL     1      72.743  -2.783  26.212  1.00  0.00     0.136 A 
ATOM      8  C   UNL     1      73.773  -2.543  25.266  1.00  0.00     0.125 A 
ATOM      9  C   UNL     1      73.676  -2.902  23.912  1.00  0.00     0.078 A 
ATOM     10  C   UNL     1      74.731  -2.627  23.037  1.00  0.00     0.223 A 
ENDROOT
BRANCH   1  11
ATOM     11  C   UNL     1      77.057  -1.701  22.683  1.00  0.00     0.087 A 
ATOM     12  C   UNL     1      77.690  -2.699  21.921  1.00  0.00     0.022 A 
ATOM     13  C   UNL     1      78.803  -2.391  21.137  1.00  0.00     0.051 A 
ATOM     14  C   UNL     1      79.311  -1.085  21.111  1.00  0.00     0.157 A 
ATOM     15  C   UNL     1      77.583  -0.399  22.670  1.00  0.00     0.068 A 
ATOM     16  C   UNL     1      78.698  -0.085  21.884  1.00  0.00     0.158 A 
BRANCH  14  17
ATOM     17  O   UNL     1      80.421  -0.779  20.325  1.00  0.00    -0.504 OA
ATOM     18  H   UNL     1      80.322  -0.425  19.381  1.00  0.00     0.293 HD
ENDBRANCH  14  17
BRANCH  16  19
ATOM     19  O   UNL     1      79.182   1.223  21.886  1.00  0.00    -0.504 OA
ATOM     20  H   UNL     1      80.100   1.456  22.245  1.00  0.00     0.293 HD
ENDBRANCH  16  19
ENDBRANCH   1  11
BRANCH  10  21
ATOM     21  O   UNL     1      74.616  -2.938  21.682  1.00  0.00    -0.500 OA
ATOM     22  H   UNL     1      74.042  -2.386  21.056  1.00  0.00     0.294 HD
ENDBRANCH  10  21
BRANCH   5  23
ATOM     23  O   UNL     1      74.273  -1.342  29.269  1.00  0.00    -0.507 OA
ATOM     24  H   UNL     1      74.027  -1.948  30.043  1.00  0.00     0.293 HD
ENDBRANCH   5  23
BRANCH   7  25
ATOM     25  O   UNL     1      71.540  -3.414  25.888  1.00  0.00    -0.507 OA
ATOM     26  H   UNL     1      71.427  -4.413  25.787  1.00  0.00     0.293 HD
ENDBRANCH   7  25
TORSDOF 6
ENDMDL
MODEL 7
REMARK VINA RESULT:    -6.800      4.374      6.507
REMARK INTER + INTRA:          -8.484
REMARK INTER:                  -8.169
REMARK INTRA:                  -0.315
REMARK UNBOUND:                -0.293
REMARK SMILES Oc1cc(O)c2cc(O)c(-c3ccc(O)c(O)c3)[o+]c2c1
REMARK SMILES IDX 10 1 19 2 20 3 21 4 2 5 3 6 4 7 6 8 7 9 8 10 11 11 12 12
REMARK SMILES IDX 13 13 14 14 18 15 16 16 15 17 17 19 9 21 1 23 5 25
REMARK H PARENT 15 18 17 20 9 22 1 24 5 26
REMARK Flexibility Score: inf
ROOT
ATOM      1  C   UNL     1      74.280  -4.970  18.824  1.00  0.00     0.402 A 
ATOM      2  O   UNL     1      74.067  -5.558  17.650  1.00  0.00    -0.202 OA
ATOM      3  C   UNL     1      75.038  -5.840  16.788  1.00  0.00     0.368 A 
ATOM      4  C   UNL     1      74.715  -6.463  15.579  1.00  0.00     0.162 A 
ATOM      5  C   UNL     1      75.714  -6.775  14.657  1.00  0.00     0.128 A 
ATOM      6  C   UNL     1      77.048  -6.464  14.943  1.00  0.00     0.093 A 
ATOM      7  C   UNL     1      77.399  -5.839  16.147  1.00  0.00     0.136 A 
ATOM      8  C   UNL     1      76.384  -5.519  17.087  1.00  0.00     0.125 A 
ATOM      9  C   UNL     1      76.640  -4.883  18.312  1.00  0.00     0.078 A 
ATOM     10  C   UNL     1      75.587  -4.594  19.185  1.00  0.00     0.223 A 
ENDROOT
BRANCH   1  11
ATOM     11  C   UNL     1      73.115  -4.717  19.702  1.00  0.00     0.087 A 
ATOM     12  C   UNL     1      72.532  -3.442  19.797  1.00  0.00     0.022 A 
ATOM     13  C   UNL     1      71.448  -3.222  20.649  1.00  0.00     0.051 A 
ATOM     14  C   UNL     1      70.938  -4.269  21.430  1.00  0.00     0.157 A 
ATOM     15  C   UNL     1      72.614  -5.757  20.501  1.00  0.00     0.068 A 
ATOM     16  C   UNL     1      71.527  -5.541  21.356  1.00  0.00     0.158 A 
BRANCH  14  17
ATOM     17  O   UNL     1      69.854  -4.047  22.278  1.00  0.00    -0.504 OA
ATOM     18  H   UNL     1      69.519  -4.765  22.911  1.00  0.00     0.293 HD
ENDBRANCH  14  17
BRANCH  16  19
ATOM     19  O   UNL     1      71.048  -6.602  22.125  1.00  0.00    -0.504 OA
ATOM     20  H   UNL     1      70.218  -6.519  22.699  1.00  0.00     0.293 HD
ENDBRANCH  16  19
ENDBRANCH   1  11
BRANCH  10  21
ATOM     21  O   UNL     1      75.834  -3.918  20.380  1.00  0.00    -0.500 OA
ATOM     22  H   UNL     1      75.089  -3.693  21.028  1.00  0.00     0.294 HD
ENDBRANCH  10  21
BRANCH   5  23
ATOM     23  O   UNL     1      75.372  -7.395  13.457  1.00  0.00    -0.507 OA
ATOM     24  H   UNL     1      74.709  -8.160  13.426  1.00  0.00     0.293 HD
ENDBRANCH   5  23
BRANCH   7  25
ATOM     25  O   UNL     1      78.752  -5.565  16.360  1.00  0.00    -0.507 OA
ATOM     26  H   UNL     1      79.115  -5.073  17.164  1.00  0.00     0.293 HD
ENDBRANCH   7  25
TORSDOF 6
ENDMDL
MODEL 8
REMARK VINA RESULT:    -6.735      4.216      5.136
REMARK INTER + INTRA:          -8.406
REMARK INTER:                  -8.061
REMARK INTRA:                  -0.345
REMARK UNBOUND:                -0.293
REMARK SMILES Oc1cc(O)c2cc(O)c(-c3ccc(O)c(O)c3)[o+]c2c1
REMARK SMILES IDX 10 1 19 2 20 3 21 4 2 5 3 6 4 7 6 8 7 9 8 10 11 11 12 12
REMARK SMILES IDX 13 13 14 14 18 15 16 16 15 17 17 19 9 21 1 23 5 25
REMARK H PARENT 15 18 17 20 9 22 1 24 5 26
REMARK Flexibility Score: inf
ROOT
ATOM      1  C   UNL     1      75.830  -0.698  24.859  1.00  0.00     0.402 A 
ATOM      2  O   UNL     1      76.162  -1.545  23.889  1.00  0.00    -0.202 OA
ATOM      3  C   UNL     1      77.078  -1.272  22.964  1.00  0.00     0.368 A 
ATOM      4  C   UNL     1      77.361  -2.229  21.986  1.00  0.00     0.162 A 
ATOM      5  C   UNL     1      78.319  -1.972  21.005  1.00  0.00     0.128 A 
ATOM      6  C   UNL     1      79.003  -0.752  21.002  1.00  0.00     0.093 A 
ATOM      7  C   UNL     1      78.739   0.223  21.972  1.00  0.00     0.136 A 
ATOM      8  C   UNL     1      77.763  -0.033  22.969  1.00  0.00     0.125 A 
ATOM      9  C   UNL     1      77.423   0.889  23.972  1.00  0.00     0.078 A 
ATOM     10  C   UNL     1      76.445   0.567  24.919  1.00  0.00     0.223 A 
ENDROOT
BRANCH   1  11
ATOM     11  C   UNL     1      74.801  -1.121  25.836  1.00  0.00     0.087 A 
ATOM     12  C   UNL     1      75.153  -1.638  27.095  1.00  0.00     0.022 A 
ATOM     13  C   UNL     1      74.166  -2.053  27.991  1.00  0.00     0.051 A 
ATOM     14  C   UNL     1      72.812  -1.969  27.639  1.00  0.00     0.157 A 
ATOM     15  C   UNL     1      73.444  -1.060  25.480  1.00  0.00     0.068 A 
ATOM     16  C   UNL     1      72.451  -1.473  26.376  1.00  0.00     0.158 A 
BRANCH  14  17
ATOM     17  O   UNL     1      71.828  -2.381  28.536  1.00  0.00    -0.504 OA
ATOM     18  H   UNL     1      70.841  -2.317  28.310  1.00  0.00     0.293 HD
ENDBRANCH  14  17
BRANCH  16  19
ATOM     19  O   UNL     1      71.113  -1.384  25.992  1.00  0.00    -0.504 OA
ATOM     20  H   UNL     1      70.837  -1.279  25.023  1.00  0.00     0.293 HD
ENDBRANCH  16  19
ENDBRANCH   1  11
BRANCH  10  21
ATOM     21  O   UNL     1      76.072   1.501  25.886  1.00  0.00    -0.500 OA
ATOM     22  H   UNL     1      75.941   1.240  26.855  1.00  0.00     0.294 HD
ENDBRANCH  10  21
BRANCH   5  23
ATOM     23  O   UNL     1      78.587  -2.938  20.037  1.00  0.00    -0.507 OA
ATOM     24  H   UNL     1      79.242  -3.692  20.207  1.00  0.00     0.293 HD
ENDBRANCH   5  23
BRANCH   7  25
ATOM     25  O   UNL     1      79.465   1.414  21.903  1.00  0.00    -0.507 OA
ATOM     26  H   UNL     1      79.914   1.762  21.067  1.00  0.00     0.293 HD
ENDBRANCH   7  25
TORSDOF 6
ENDMDL
MODEL 9
REMARK VINA RESULT:    -6.726      3.127      4.206
REMARK INTER + INTRA:          -8.395
REMARK INTER:                  -8.465
REMARK INTRA:                   0.070
REMARK UNBOUND:                -0.293
REMARK SMILES Oc1cc(O)c2cc(O)c(-c3ccc(O)c(O)c3)[o+]c2c1
REMARK SMILES IDX 10 1 19 2 20 3 21 4 2 5 3 6 4 7 6 8 7 9 8 10 11 11 12 12
REMARK SMILES IDX 13 13 14 14 18 15 16 16 15 17 17 19 9 21 1 23 5 25
REMARK H PARENT 15 18 17 20 9 22 1 24 5 26
REMARK Flexibility Score: inf
ROOT
ATOM      1  C   UNL     1      73.969  -0.891  25.705  1.00  0.00     0.402 A 
ATOM      2  O   UNL     1      74.436  -1.687  24.747  1.00  0.00    -0.202 OA
ATOM      3  C   UNL     1      75.594  -1.483  24.127  1.00  0.00     0.368 A 
ATOM      4  C   UNL     1      76.000  -2.379  23.135  1.00  0.00     0.162 A 
ATOM      5  C   UNL     1      77.213  -2.193  22.470  1.00  0.00     0.128 A 
ATOM      6  C   UNL     1      78.027  -1.104  22.800  1.00  0.00     0.093 A 
ATOM      7  C   UNL     1      77.643  -0.192  23.791  1.00  0.00     0.136 A 
ATOM      8  C   UNL     1      76.410  -0.378  24.467  1.00  0.00     0.125 A 
ATOM      9  C   UNL     1      75.938   0.491  25.464  1.00  0.00     0.078 A 
ATOM     10  C   UNL     1      74.708   0.247  26.083  1.00  0.00     0.223 A 
ENDROOT
BRANCH   1  11
ATOM     11  C   UNL     1      72.670  -1.229  26.327  1.00  0.00     0.087 A 
ATOM     12  C   UNL     1      71.702  -0.243  26.587  1.00  0.00     0.022 A 
ATOM     13  C   UNL     1      70.492  -0.583  27.195  1.00  0.00     0.051 A 
ATOM     14  C   UNL     1      70.234  -1.911  27.564  1.00  0.00     0.157 A 
ATOM     15  C   UNL     1      72.415  -2.554  26.718  1.00  0.00     0.068 A 
ATOM     16  C   UNL     1      71.203  -2.899  27.327  1.00  0.00     0.158 A 
BRANCH  14  17
ATOM     17  O   UNL     1      69.024  -2.248  28.169  1.00  0.00    -0.504 OA
ATOM     18  H   UNL     1      68.725  -3.213  28.258  1.00  0.00     0.293 HD
ENDBRANCH  14  17
BRANCH  16  19
ATOM     19  O   UNL     1      70.981  -4.228  27.689  1.00  0.00    -0.504 OA
ATOM     20  H   UNL     1      71.605  -4.974  27.406  1.00  0.00     0.293 HD
ENDBRANCH  16  19
ENDBRANCH   1  11
BRANCH  10  21
ATOM     21  O   UNL     1      74.216   1.136  27.038  1.00  0.00    -0.500 OA
ATOM     22  H   UNL     1      74.629   2.051  27.177  1.00  0.00     0.294 HD
ENDBRANCH  10  21
BRANCH   5  23
ATOM     23  O   UNL     1      77.600  -3.096  21.483  1.00  0.00    -0.507 OA
ATOM     24  H   UNL     1      78.380  -3.728  21.619  1.00  0.00     0.293 HD
ENDBRANCH   5  23
BRANCH   7  25
ATOM     25  O   UNL     1      78.513   0.867  24.064  1.00  0.00    -0.507 OA
ATOM     26  H   UNL     1      79.450   0.946  23.695  1.00  0.00     0.293 HD
ENDBRANCH   7  25
TORSDOF 6
ENDMDL
