MODEL 1
REMARK VINA RESULT:    -3.774      0.000      0.000
REMARK INTER + INTRA:         -12.356
REMARK INTER:                  -8.627
REMARK INTRA:                  -3.729
REMARK UNBOUND:                -3.729
REMARK SMILES CCCCCCCCCCCCCCCCCCCCCCCC(=O)[O-]
REMARK SMILES IDX 13 1 14 2 15 3 16 4 17 5 18 6 19 7 20 8 21 9 22 10 23 11
REMARK SMILES IDX 24 12 25 13 26 14 12 15 11 16 10 17 9 18 8 19 7 20 6 21 5 22
REMARK SMILES IDX 4 23 3 24 2 25 1 26
REMARK H PARENT
REMARK Flexibility Score: inf
ROOT
ATOM      1  C   UNL     1       3.540  -4.421   0.058  1.00  0.00     0.000 C 
ENDROOT
BRANCH   1   2
ATOM      2  C   UNL     1       2.191  -4.939   0.579  1.00  0.00     0.000 C 
BRANCH   2   3
ATOM      3  C   UNL     1       1.867  -4.431   1.996  1.00  0.00     0.000 C 
BRANCH   3   4
ATOM      4  C   UNL     1       0.911  -5.373   2.758  1.00  0.00     0.000 C 
BRANCH   4   5
ATOM      5  C   UNL     1       0.859  -6.808   2.196  1.00  0.00     0.000 C 
BRANCH   5   6
ATOM      6  C   UNL     1       1.672  -7.853   2.981  1.00  0.00     0.000 C 
BRANCH   6   7
ATOM      7  C   UNL     1       1.856  -7.476   4.461  1.00  0.00     0.000 C 
BRANCH   7   8
ATOM      8  C   UNL     1       3.334  -7.290   4.851  1.00  0.00     0.000 C 
BRANCH   8   9
ATOM      9  C   UNL     1       3.847  -5.838   4.818  1.00  0.00     0.000 C 
BRANCH   9  10
ATOM     10  C   UNL     1       4.975  -5.557   3.807  1.00  0.00     0.006 C 
BRANCH  10  11
ATOM     11  C   UNL     1       5.052  -6.576   2.653  1.00  0.00     0.053 C 
BRANCH  11  12
ATOM     12  C   UNL     1       6.235  -6.343   1.762  1.00  0.00     0.041 C 
ATOM     13  O   UNL     1       6.578  -7.214   0.920  1.00  0.00    -0.550 OA
ATOM     14  O   UNL     1       6.982  -5.176   1.884  1.00  0.00    -0.550 OA
ENDBRANCH  11  12
ENDBRANCH  10  11
ENDBRANCH   9  10
ENDBRANCH   8   9
ENDBRANCH   7   8
ENDBRANCH   6   7
ENDBRANCH   5   6
ENDBRANCH   4   5
ENDBRANCH   3   4
ENDBRANCH   2   3
ENDBRANCH   1   2
BRANCH   1  15
ATOM     15  C   UNL     1       4.098  -3.260   0.902  1.00  0.00     0.000 C 
BRANCH  15  16
ATOM     16  C   UNL     1       5.261  -2.528   0.213  1.00  0.00     0.000 C 
BRANCH  16  17
ATOM     17  C   UNL     1       5.690  -3.203  -1.102  1.00  0.00     0.000 C 
BRANCH  17  18
ATOM     18  C   UNL     1       5.961  -2.187  -2.223  1.00  0.00    -0.000 C 
BRANCH  18  19
ATOM     19  C   UNL     1       5.342  -0.807  -1.935  1.00  0.00    -0.000 C 
BRANCH  19  20
ATOM     20  C   UNL     1       6.388   0.323  -1.923  1.00  0.00    -0.000 C 
BRANCH  20  21
ATOM     21  C   UNL     1       7.840  -0.147  -1.718  1.00  0.00    -0.000 C 
BRANCH  21  22
ATOM     22  C   UNL     1       8.670   0.831  -0.869  1.00  0.00    -0.000 C 
BRANCH  22  23
ATOM     23  C   UNL     1       9.341   0.147   0.332  1.00  0.00    -0.000 C 
BRANCH  23  24
ATOM     24  C   UNL     1       8.758  -1.244   0.620  1.00  0.00    -0.000 C 
BRANCH  24  25
ATOM     25  C   UNL     1       8.117  -1.293   2.012  1.00  0.00    -0.003 C 
ATOM     26  C   UNL     1       7.467   0.043   2.367  1.00  0.00     0.004 C 
ENDBRANCH  24  25
ENDBRANCH  23  24
ENDBRANCH  22  23
ENDBRANCH  21  22
ENDBRANCH  20  21
ENDBRANCH  19  20
ENDBRANCH  18  19
ENDBRANCH  17  18
ENDBRANCH  16  17
ENDBRANCH  15  16
ENDBRANCH   1  15
TORSDOF 22
ENDMDL
MODEL 2
REMARK VINA RESULT:    -3.745      2.548      7.135
REMARK INTER + INTRA:         -12.291
REMARK INTER:                  -7.922
REMARK INTRA:                  -4.369
REMARK UNBOUND:                -3.729
REMARK SMILES CCCCCCCCCCCCCCCCCCCCCCCC(=O)[O-]
REMARK SMILES IDX 13 1 14 2 15 3 16 4 17 5 18 6 19 7 20 8 21 9 22 10 23 11
REMARK SMILES IDX 24 12 25 13 26 14 12 15 11 16 10 17 9 18 8 19 7 20 6 21 5 22
REMARK SMILES IDX 4 23 3 24 2 25 1 26
REMARK H PARENT
REMARK Flexibility Score: inf
ROOT
ATOM      1  C   UNL     1       5.660  -5.158   0.423  1.00  0.00     0.000 C 
ENDROOT
BRANCH   1   2
ATOM      2  C   UNL     1       5.723  -3.853   1.231  1.00  0.00     0.000 C 
BRANCH   2   3
ATOM      3  C   UNL     1       7.142  -3.538   1.740  1.00  0.00     0.000 C 
BRANCH   3   4
ATOM      4  C   UNL     1       7.489  -2.038   1.633  1.00  0.00     0.000 C 
BRANCH   4   5
ATOM      5  C   UNL     1       6.334  -1.159   1.110  1.00  0.00     0.000 C 
BRANCH   5   6
ATOM      6  C   UNL     1       6.502  -0.638  -0.329  1.00  0.00     0.000 C 
BRANCH   6   7
ATOM      7  C   UNL     1       5.386  -1.122  -1.271  1.00  0.00     0.000 C 
BRANCH   7   8
ATOM      8  C   UNL     1       5.848  -2.248  -2.216  1.00  0.00     0.000 C 
BRANCH   8   9
ATOM      9  C   UNL     1       7.361  -2.539  -2.202  1.00  0.00     0.000 C 
BRANCH   9  10
ATOM     10  C   UNL     1       7.752  -4.018  -2.389  1.00  0.00     0.006 C 
BRANCH  10  11
ATOM     11  C   UNL     1       6.779  -4.818  -3.277  1.00  0.00     0.053 C 
BRANCH  11  12
ATOM     12  C   UNL     1       7.441  -5.361  -4.507  1.00  0.00     0.041 C 
ATOM     13  O   UNL     1       7.019  -6.420  -5.042  1.00  0.00    -0.550 OA
ATOM     14  O   UNL     1       8.550  -4.716  -5.045  1.00  0.00    -0.550 OA
ENDBRANCH  11  12
ENDBRANCH  10  11
ENDBRANCH   9  10
ENDBRANCH   8   9
ENDBRANCH   7   8
ENDBRANCH   6   7
ENDBRANCH   5   6
ENDBRANCH   4   5
ENDBRANCH   3   4
ENDBRANCH   2   3
ENDBRANCH   1   2
BRANCH   1  15
ATOM     15  C   UNL     1       4.333  -5.323  -0.340  1.00  0.00     0.000 C 
BRANCH  15  16
ATOM     16  C   UNL     1       3.292  -4.257   0.038  1.00  0.00     0.000 C 
BRANCH  16  17
ATOM     17  C   UNL     1       1.878  -4.844   0.205  1.00  0.00     0.000 C 
BRANCH  17  18
ATOM     18  C   UNL     1       1.570  -5.230   1.661  1.00  0.00    -0.000 C 
BRANCH  18  19
ATOM     19  C   UNL     1       2.319  -4.350   2.677  1.00  0.00    -0.000 C 
BRANCH  19  20
ATOM     20  C   UNL     1       3.028  -5.174   3.768  1.00  0.00    -0.000 C 
BRANCH  20  21
ATOM     21  C   UNL     1       3.394  -6.610   3.352  1.00  0.00    -0.000 C 
BRANCH  21  22
ATOM     22  C   UNL     1       4.911  -6.864   3.353  1.00  0.00    -0.000 C 
BRANCH  22  23
ATOM     23  C   UNL     1       5.661  -5.953   4.338  1.00  0.00    -0.000 C 
BRANCH  23  24
ATOM     24  C   UNL     1       6.194  -6.716   5.560  1.00  0.00    -0.000 C 
BRANCH  24  25
ATOM     25  C   UNL     1       5.252  -6.560   6.758  1.00  0.00    -0.003 C 
ATOM     26  C   UNL     1       5.247  -5.122   7.274  1.00  0.00     0.004 C 
ENDBRANCH  24  25
ENDBRANCH  23  24
ENDBRANCH  22  23
ENDBRANCH  21  22
ENDBRANCH  20  21
ENDBRANCH  19  20
ENDBRANCH  18  19
ENDBRANCH  17  18
ENDBRANCH  16  17
ENDBRANCH  15  16
ENDBRANCH   1  15
TORSDOF 22
ENDMDL
MODEL 3
REMARK VINA RESULT:    -3.720      2.184      7.334
REMARK INTER + INTRA:         -12.234
REMARK INTER:                  -7.588
REMARK INTRA:                  -4.646
REMARK UNBOUND:                -3.729
REMARK SMILES CCCCCCCCCCCCCCCCCCCCCCCC(=O)[O-]
REMARK SMILES IDX 13 1 14 2 15 3 16 4 17 5 18 6 19 7 20 8 21 9 22 10 23 11
REMARK SMILES IDX 24 12 25 13 26 14 12 15 11 16 10 17 9 18 8 19 7 20 6 21 5 22
REMARK SMILES IDX 4 23 3 24 2 25 1 26
REMARK H PARENT
REMARK Flexibility Score: inf
ROOT
ATOM      1  C   UNL     1       6.274  -2.064   1.042  1.00  0.00     0.000 C 
ENDROOT
BRANCH   1   2
ATOM      2  C   UNL     1       5.297  -1.283   0.151  1.00  0.00     0.000 C 
BRANCH   2   3
ATOM      3  C   UNL     1       5.177  -1.878  -1.264  1.00  0.00     0.000 C 
BRANCH   3   4
ATOM      4  C   UNL     1       5.612  -0.886  -2.363  1.00  0.00     0.000 C 
BRANCH   4   5
ATOM      5  C   UNL     1       6.217   0.427  -1.823  1.00  0.00     0.000 C 
BRANCH   5   6
ATOM      6  C   UNL     1       7.708   0.644  -2.139  1.00  0.00     0.000 C 
BRANCH   6   7
ATOM      7  C   UNL     1       8.628   0.243  -0.974  1.00  0.00     0.000 C 
BRANCH   7   8
ATOM      8  C   UNL     1       9.239  -1.160  -1.150  1.00  0.00     0.000 C 
BRANCH   8   9
ATOM      9  C   UNL     1       9.315  -1.667  -2.602  1.00  0.00     0.000 C 
BRANCH   9  10
ATOM     10  C   UNL     1       8.818  -3.109  -2.827  1.00  0.00     0.006 C 
BRANCH  10  11
ATOM     11  C   UNL     1       8.276  -3.792  -1.556  1.00  0.00     0.053 C 
BRANCH  11  12
ATOM     12  C   UNL     1       7.589  -5.090  -1.853  1.00  0.00     0.041 C 
ATOM     13  O   UNL     1       6.348  -5.120  -2.063  1.00  0.00    -0.550 OA
ATOM     14  O   UNL     1       8.314  -6.277  -1.864  1.00  0.00    -0.550 OA
ENDBRANCH  11  12
ENDBRANCH  10  11
ENDBRANCH   9  10
ENDBRANCH   8   9
ENDBRANCH   7   8
ENDBRANCH   6   7
ENDBRANCH   5   6
ENDBRANCH   4   5
ENDBRANCH   3   4
ENDBRANCH   2   3
ENDBRANCH   1   2
BRANCH   1  15
ATOM     15  C   UNL     1       7.195  -1.145   1.865  1.00  0.00     0.000 C 
BRANCH  15  16
ATOM     16  C   UNL     1       8.369  -1.899   2.509  1.00  0.00     0.000 C 
BRANCH  16  17
ATOM     17  C   UNL     1       8.427  -3.378   2.084  1.00  0.00     0.000 C 
BRANCH  17  18
ATOM     18  C   UNL     1       8.241  -4.338   3.271  1.00  0.00    -0.000 C 
BRANCH  18  19
ATOM     19  C   UNL     1       6.970  -5.196   3.147  1.00  0.00    -0.000 C 
BRANCH  19  20
ATOM     20  C   UNL     1       6.714  -5.674   1.706  1.00  0.00    -0.000 C 
BRANCH  20  21
ATOM     21  C   UNL     1       5.237  -5.648   1.273  1.00  0.00    -0.000 C 
BRANCH  21  22
ATOM     22  C   UNL     1       4.330  -4.928   2.286  1.00  0.00    -0.000 C 
BRANCH  22  23
ATOM     23  C   UNL     1       3.256  -4.064   1.605  1.00  0.00    -0.000 C 
BRANCH  23  24
ATOM     24  C   UNL     1       2.999  -4.479   0.150  1.00  0.00    -0.000 C 
BRANCH  24  25
ATOM     25  C   UNL     1       1.587  -5.051  -0.016  1.00  0.00    -0.003 C 
ATOM     26  C   UNL     1       1.624  -6.441  -0.649  1.00  0.00     0.004 C 
ENDBRANCH  24  25
ENDBRANCH  23  24
ENDBRANCH  22  23
ENDBRANCH  21  22
ENDBRANCH  20  21
ENDBRANCH  19  20
ENDBRANCH  18  19
ENDBRANCH  17  18
ENDBRANCH  16  17
ENDBRANCH  15  16
ENDBRANCH   1  15
TORSDOF 22
ENDMDL
MODEL 4
REMARK VINA RESULT:    -3.710      1.129      2.926
REMARK INTER + INTRA:         -12.211
REMARK INTER:                  -8.212
REMARK INTRA:                  -3.999
REMARK UNBOUND:                -3.729
REMARK SMILES CCCCCCCCCCCCCCCCCCCCCCCC(=O)[O-]
REMARK SMILES IDX 13 1 14 2 15 3 16 4 17 5 18 6 19 7 20 8 21 9 22 10 23 11
REMARK SMILES IDX 24 12 25 13 26 14 12 15 11 16 10 17 9 18 8 19 7 20 6 21 5 22
REMARK SMILES IDX 4 23 3 24 2 25 1 26
REMARK H PARENT
REMARK Flexibility Score: inf
ROOT
ATOM      1  C   UNL     1       5.588  -1.424   0.200  1.00  0.00     0.000 C 
ENDROOT
BRANCH   1   2
ATOM      2  C   UNL     1       5.534  -2.920   0.545  1.00  0.00     0.000 C 
BRANCH   2   3
ATOM      3  C   UNL     1       4.149  -3.362   1.055  1.00  0.00     0.000 C 
BRANCH   3   4
ATOM      4  C   UNL     1       3.454  -4.352   0.097  1.00  0.00     0.000 C 
BRANCH   4   5
ATOM      5  C   UNL     1       2.045  -4.785   0.551  1.00  0.00     0.000 C 
BRANCH   5   6
ATOM      6  C   UNL     1       1.710  -4.496   2.025  1.00  0.00     0.000 C 
BRANCH   6   7
ATOM      7  C   UNL     1       1.106  -5.712   2.748  1.00  0.00     0.000 C 
BRANCH   7   8
ATOM      8  C   UNL     1       2.133  -6.458   3.622  1.00  0.00     0.000 C 
BRANCH   8   9
ATOM      9  C   UNL     1       3.430  -5.683   3.920  1.00  0.00     0.000 C 
BRANCH   9  10
ATOM     10  C   UNL     1       4.737  -6.457   3.663  1.00  0.00     0.006 C 
BRANCH  10  11
ATOM     11  C   UNL     1       5.959  -5.555   3.397  1.00  0.00     0.053 C 
BRANCH  11  12
ATOM     12  C   UNL     1       6.820  -6.070   2.284  1.00  0.00     0.041 C 
ATOM     13  O   UNL     1       8.062  -6.192   2.444  1.00  0.00    -0.550 OA
ATOM     14  O   UNL     1       6.253  -6.386   1.052  1.00  0.00    -0.550 OA
ENDBRANCH  11  12
ENDBRANCH  10  11
ENDBRANCH   9  10
ENDBRANCH   8   9
ENDBRANCH   7   8
ENDBRANCH   6   7
ENDBRANCH   5   6
ENDBRANCH   4   5
ENDBRANCH   3   4
ENDBRANCH   2   3
ENDBRANCH   1   2
BRANCH   1  15
ATOM     15  C   UNL     1       5.223  -1.139  -1.268  1.00  0.00     0.000 C 
BRANCH  15  16
ATOM     16  C   UNL     1       6.213  -0.183  -1.954  1.00  0.00     0.000 C 
BRANCH  16  17
ATOM     17  C   UNL     1       7.339   0.278  -1.010  1.00  0.00     0.000 C 
BRANCH  17  18
ATOM     18  C   UNL     1       8.727  -0.183  -1.484  1.00  0.00    -0.000 C 
BRANCH  18  19
ATOM     19  C   UNL     1       8.699  -1.577  -2.134  1.00  0.00    -0.000 C 
BRANCH  19  20
ATOM     20  C   UNL     1       8.925  -2.712  -1.119  1.00  0.00    -0.000 C 
BRANCH  20  21
ATOM     21  C   UNL     1       9.572  -2.269   0.207  1.00  0.00    -0.000 C 
BRANCH  21  22
ATOM     22  C   UNL     1       9.039  -3.048   1.421  1.00  0.00    -0.000 C 
BRANCH  22  23
ATOM     23  C   UNL     1       8.575  -2.124   2.558  1.00  0.00    -0.000 C 
BRANCH  23  24
ATOM     24  C   UNL     1       8.917  -0.650   2.297  1.00  0.00    -0.000 C 
BRANCH  24  25
ATOM     25  C   UNL     1       7.713   0.253   2.587  1.00  0.00    -0.003 C 
ATOM     26  C   UNL     1       8.079   1.728   2.433  1.00  0.00     0.004 C 
ENDBRANCH  24  25
ENDBRANCH  23  24
ENDBRANCH  22  23
ENDBRANCH  21  22
ENDBRANCH  20  21
ENDBRANCH  19  20
ENDBRANCH  18  19
ENDBRANCH  17  18
ENDBRANCH  16  17
ENDBRANCH  15  16
ENDBRANCH   1  15
TORSDOF 22
ENDMDL
MODEL 5
REMARK VINA RESULT:    -3.667      1.953      2.921
REMARK INTER + INTRA:         -12.112
REMARK INTER:                  -7.542
REMARK INTRA:                  -4.570
REMARK UNBOUND:                -3.729
REMARK SMILES CCCCCCCCCCCCCCCCCCCCCCCC(=O)[O-]
REMARK SMILES IDX 13 1 14 2 15 3 16 4 17 5 18 6 19 7 20 8 21 9 22 10 23 11
REMARK SMILES IDX 24 12 25 13 26 14 12 15 11 16 10 17 9 18 8 19 7 20 6 21 5 22
REMARK SMILES IDX 4 23 3 24 2 25 1 26
REMARK H PARENT
REMARK Flexibility Score: inf
ROOT
ATOM      1  C   UNL     1       5.973  -5.565  -0.638  1.00  0.00     0.000 C 
ENDROOT
BRANCH   1   2
ATOM      2  C   UNL     1       4.927  -6.599  -1.080  1.00  0.00     0.000 C 
BRANCH   2   3
ATOM      3  C   UNL     1       4.136  -7.187   0.104  1.00  0.00     0.000 C 
BRANCH   3   4
ATOM      4  C   UNL     1       2.613  -7.187  -0.142  1.00  0.00     0.000 C 
BRANCH   4   5
ATOM      5  C   UNL     1       1.946  -5.808   0.033  1.00  0.00     0.000 C 
BRANCH   5   6
ATOM      6  C   UNL     1       1.315  -5.552   1.413  1.00  0.00     0.000 C 
BRANCH   6   7
ATOM      7  C   UNL     1       1.947  -4.354   2.144  1.00  0.00     0.000 C 
BRANCH   7   8
ATOM      8  C   UNL     1       2.702  -4.765   3.422  1.00  0.00     0.000 C 
BRANCH   8   9
ATOM      9  C   UNL     1       2.729  -6.277   3.713  1.00  0.00     0.000 C 
BRANCH   9  10
ATOM     10  C   UNL     1       4.130  -6.916   3.769  1.00  0.00     0.006 C 
BRANCH  10  11
ATOM     11  C   UNL     1       4.640  -7.186   5.199  1.00  0.00     0.053 C 
BRANCH  11  12
ATOM     12  C   UNL     1       5.414  -6.031   5.758  1.00  0.00     0.041 C 
ATOM     13  O   UNL     1       4.919  -5.314   6.667  1.00  0.00    -0.550 OA
ATOM     14  O   UNL     1       6.672  -5.722   5.250  1.00  0.00    -0.550 OA
ENDBRANCH  11  12
ENDBRANCH  10  11
ENDBRANCH   9  10
ENDBRANCH   8   9
ENDBRANCH   7   8
ENDBRANCH   6   7
ENDBRANCH   5   6
ENDBRANCH   4   5
ENDBRANCH   3   4
ENDBRANCH   2   3
ENDBRANCH   1   2
BRANCH   1  15
ATOM     15  C   UNL     1       6.013  -5.373   0.889  1.00  0.00     0.000 C 
BRANCH  15  16
ATOM     16  C   UNL     1       5.520  -3.986   1.330  1.00  0.00     0.000 C 
BRANCH  16  17
ATOM     17  C   UNL     1       4.760  -3.246   0.213  1.00  0.00     0.000 C 
BRANCH  17  18
ATOM     18  C   UNL     1       4.907  -1.719   0.315  1.00  0.00    -0.000 C 
BRANCH  18  19
ATOM     19  C   UNL     1       5.349  -1.076  -1.011  1.00  0.00    -0.000 C 
BRANCH  19  20
ATOM     20  C   UNL     1       6.093  -2.062  -1.931  1.00  0.00    -0.000 C 
BRANCH  20  21
ATOM     21  C   UNL     1       7.622  -1.881  -1.964  1.00  0.00    -0.000 C 
BRANCH  21  22
ATOM     22  C   UNL     1       8.344  -2.702  -0.881  1.00  0.00    -0.000 C 
BRANCH  22  23
ATOM     23  C   UNL     1       8.947  -1.820   0.224  1.00  0.00    -0.000 C 
BRANCH  23  24
ATOM     24  C   UNL     1       8.626  -2.338   1.633  1.00  0.00    -0.000 C 
BRANCH  24  25
ATOM     25  C   UNL     1       8.180  -1.193   2.550  1.00  0.00    -0.003 C 
ATOM     26  C   UNL     1       7.701   0.009   1.739  1.00  0.00     0.004 C 
ENDBRANCH  24  25
ENDBRANCH  23  24
ENDBRANCH  22  23
ENDBRANCH  21  22
ENDBRANCH  20  21
ENDBRANCH  19  20
ENDBRANCH  18  19
ENDBRANCH  17  18
ENDBRANCH  16  17
ENDBRANCH  15  16
ENDBRANCH   1  15
TORSDOF 22
ENDMDL
MODEL 6
REMARK VINA RESULT:    -3.623      3.174      4.775
REMARK INTER + INTRA:         -12.012
REMARK INTER:                  -7.276
REMARK INTRA:                  -4.735
REMARK UNBOUND:                -3.729
REMARK SMILES CCCCCCCCCCCCCCCCCCCCCCCC(=O)[O-]
REMARK SMILES IDX 13 1 14 2 15 3 16 4 17 5 18 6 19 7 20 8 21 9 22 10 23 11
REMARK SMILES IDX 24 12 25 13 26 14 12 15 11 16 10 17 9 18 8 19 7 20 6 21 5 22
REMARK SMILES IDX 4 23 3 24 2 25 1 26
REMARK H PARENT
REMARK Flexibility Score: inf
ROOT
ATOM      1  C   UNL     1       3.423  -3.930   0.905  1.00  0.00     0.000 C 
ENDROOT
BRANCH   1   2
ATOM      2  C   UNL     1       1.983  -4.420   1.119  1.00  0.00     0.000 C 
BRANCH   2   3
ATOM      3  C   UNL     1       1.630  -4.598   2.607  1.00  0.00     0.000 C 
BRANCH   3   4
ATOM      4  C   UNL     1       2.875  -4.850   3.484  1.00  0.00     0.000 C 
BRANCH   4   5
ATOM      5  C   UNL     1       3.089  -6.329   3.865  1.00  0.00     0.000 C 
BRANCH   5   6
ATOM      6  C   UNL     1       4.122  -7.087   3.011  1.00  0.00     0.000 C 
BRANCH   6   7
ATOM      7  C   UNL     1       3.536  -8.341   2.341  1.00  0.00     0.000 C 
BRANCH   7   8
ATOM      8  C   UNL     1       2.519  -8.007   1.233  1.00  0.00     0.000 C 
BRANCH   8   9
ATOM      9  C   UNL     1       1.107  -8.586   1.440  1.00  0.00     0.000 C 
BRANCH   9  10
ATOM     10  C   UNL     1       0.021  -7.563   1.824  1.00  0.00     0.006 C 
BRANCH  10  11
ATOM     11  C   UNL     1      -0.440  -7.657   3.292  1.00  0.00     0.053 C 
BRANCH  11  12
ATOM     12  C   UNL     1      -1.885  -8.035   3.415  1.00  0.00     0.041 C 
ATOM     13  O   UNL     1      -2.398  -8.859   2.613  1.00  0.00    -0.550 OA
ATOM     14  O   UNL     1      -2.678  -7.451   4.398  1.00  0.00    -0.550 OA
ENDBRANCH  11  12
ENDBRANCH  10  11
ENDBRANCH   9  10
ENDBRANCH   8   9
ENDBRANCH   7   8
ENDBRANCH   6   7
ENDBRANCH   5   6
ENDBRANCH   4   5
ENDBRANCH   3   4
ENDBRANCH   2   3
ENDBRANCH   1   2
BRANCH   1  15
ATOM     15  C   UNL     1       4.242  -4.865  -0.003  1.00  0.00     0.000 C 
BRANCH  15  16
ATOM     16  C   UNL     1       5.709  -4.991   0.439  1.00  0.00     0.000 C 
BRANCH  16  17
ATOM     17  C   UNL     1       6.031  -4.128   1.673  1.00  0.00     0.000 C 
BRANCH  17  18
ATOM     18  C   UNL     1       7.537  -3.860   1.824  1.00  0.00    -0.000 C 
BRANCH  18  19
ATOM     19  C   UNL     1       7.921  -2.413   1.466  1.00  0.00    -0.000 C 
BRANCH  19  20
ATOM     20  C   UNL     1       6.701  -1.478   1.383  1.00  0.00    -0.000 C 
BRANCH  20  21
ATOM     21  C   UNL     1       6.532  -0.761   0.031  1.00  0.00    -0.000 C 
BRANCH  21  22
ATOM     22  C   UNL     1       5.279  -1.219  -0.735  1.00  0.00    -0.000 C 
BRANCH  22  23
ATOM     23  C   UNL     1       5.622  -1.980  -2.026  1.00  0.00    -0.000 C 
BRANCH  23  24
ATOM     24  C   UNL     1       7.123  -2.277  -2.154  1.00  0.00    -0.000 C 
BRANCH  24  25
ATOM     25  C   UNL     1       7.361  -3.746  -2.521  1.00  0.00    -0.003 C 
ATOM     26  C   UNL     1       8.587  -4.303  -1.799  1.00  0.00     0.004 C 
ENDBRANCH  24  25
ENDBRANCH  23  24
ENDBRANCH  22  23
ENDBRANCH  21  22
ENDBRANCH  20  21
ENDBRANCH  19  20
ENDBRANCH  18  19
ENDBRANCH  17  18
ENDBRANCH  16  17
ENDBRANCH  15  16
ENDBRANCH   1  15
TORSDOF 22
ENDMDL
MODEL 7
REMARK VINA RESULT:    -3.618      2.221      4.793
REMARK INTER + INTRA:         -12.000
REMARK INTER:                  -7.341
REMARK INTRA:                  -4.658
REMARK UNBOUND:                -3.729
REMARK SMILES CCCCCCCCCCCCCCCCCCCCCCCC(=O)[O-]
REMARK SMILES IDX 13 1 14 2 15 3 16 4 17 5 18 6 19 7 20 8 21 9 22 10 23 11
REMARK SMILES IDX 24 12 25 13 26 14 12 15 11 16 10 17 9 18 8 19 7 20 6 21 5 22
REMARK SMILES IDX 4 23 3 24 2 25 1 26
REMARK H PARENT
REMARK Flexibility Score: inf
ROOT
ATOM      1  C   UNL     1       5.627  -1.430   0.253  1.00  0.00     0.000 C 
ENDROOT
BRANCH   1   2
ATOM      2  C   UNL     1       6.279  -2.624   0.966  1.00  0.00     0.000 C 
BRANCH   2   3
ATOM      3  C   UNL     1       7.496  -2.216   1.816  1.00  0.00     0.000 C 
BRANCH   3   4
ATOM      4  C   UNL     1       8.136  -3.414   2.549  1.00  0.00     0.000 C 
BRANCH   4   5
ATOM      5  C   UNL     1       7.494  -4.775   2.210  1.00  0.00     0.000 C 
BRANCH   5   6
ATOM      6  C   UNL     1       6.577  -5.360   3.299  1.00  0.00     0.000 C 
BRANCH   6   7
ATOM      7  C   UNL     1       5.309  -6.014   2.722  1.00  0.00     0.000 C 
BRANCH   7   8
ATOM      8  C   UNL     1       4.024  -5.241   3.074  1.00  0.00     0.000 C 
BRANCH   8   9
ATOM      9  C   UNL     1       3.477  -4.331   1.958  1.00  0.00     0.000 C 
BRANCH   9  10
ATOM     10  C   UNL     1       2.002  -4.563   1.578  1.00  0.00     0.006 C 
BRANCH  10  11
ATOM     11  C   UNL     1       1.770  -4.778   0.069  1.00  0.00     0.053 C 
BRANCH  11  12
ATOM     12  C   UNL     1       1.638  -6.227  -0.289  1.00  0.00     0.041 C 
ATOM     13  O   UNL     1       2.099  -7.116   0.475  1.00  0.00    -0.550 OA
ATOM     14  O   UNL     1       1.035  -6.598  -1.487  1.00  0.00    -0.550 OA
ENDBRANCH  11  12
ENDBRANCH  10  11
ENDBRANCH   9  10
ENDBRANCH   8   9
ENDBRANCH   7   8
ENDBRANCH   6   7
ENDBRANCH   5   6
ENDBRANCH   4   5
ENDBRANCH   3   4
ENDBRANCH   2   3
ENDBRANCH   1   2
BRANCH   1  15
ATOM     15  C   UNL     1       5.049  -1.802  -1.124  1.00  0.00     0.000 C 
BRANCH  15  16
ATOM     16  C   UNL     1       5.571  -0.900  -2.254  1.00  0.00     0.000 C 
BRANCH  16  17
ATOM     17  C   UNL     1       6.174   0.416  -1.728  1.00  0.00     0.000 C 
BRANCH  17  18
ATOM     18  C   UNL     1       7.637   0.605  -2.160  1.00  0.00    -0.000 C 
BRANCH  18  19
ATOM     19  C   UNL     1       8.625  -0.150  -1.254  1.00  0.00    -0.000 C 
BRANCH  19  20
ATOM     20  C   UNL     1       9.285  -1.348  -1.961  1.00  0.00    -0.000 C 
BRANCH  20  21
ATOM     21  C   UNL     1       9.617  -2.535  -1.038  1.00  0.00    -0.000 C 
BRANCH  21  22
ATOM     22  C   UNL     1       8.860  -3.819  -1.420  1.00  0.00    -0.000 C 
BRANCH  22  23
ATOM     23  C   UNL     1       7.958  -3.628  -2.650  1.00  0.00    -0.000 C 
BRANCH  23  24
ATOM     24  C   UNL     1       6.760  -4.588  -2.658  1.00  0.00    -0.000 C 
BRANCH  24  25
ATOM     25  C   UNL     1       6.766  -5.484  -1.414  1.00  0.00    -0.003 C 
ATOM     26  C   UNL     1       5.347  -5.739  -0.910  1.00  0.00     0.004 C 
ENDBRANCH  24  25
ENDBRANCH  23  24
ENDBRANCH  22  23
ENDBRANCH  21  22
ENDBRANCH  20  21
ENDBRANCH  19  20
ENDBRANCH  18  19
ENDBRANCH  17  18
ENDBRANCH  16  17
ENDBRANCH  15  16
ENDBRANCH   1  15
TORSDOF 22
ENDMDL
MODEL 8
REMARK VINA RESULT:    -3.598      1.184      6.903
REMARK INTER + INTRA:         -11.955
REMARK INTER:                  -8.485
REMARK INTRA:                  -3.471
REMARK UNBOUND:                -3.729
REMARK SMILES CCCCCCCCCCCCCCCCCCCCCCCC(=O)[O-]
REMARK SMILES IDX 13 1 14 2 15 3 16 4 17 5 18 6 19 7 20 8 21 9 22 10 23 11
REMARK SMILES IDX 24 12 25 13 26 14 12 15 11 16 10 17 9 18 8 19 7 20 6 21 5 22
REMARK SMILES IDX 4 23 3 24 2 25 1 26
REMARK H PARENT
REMARK Flexibility Score: inf
ROOT
ATOM      1  C   UNL     1       5.628  -0.471  -1.554  1.00  0.00     0.000 C 
ENDROOT
BRANCH   1   2
ATOM      2  C   UNL     1       6.712   0.557  -1.910  1.00  0.00     0.000 C 
BRANCH   2   3
ATOM      3  C   UNL     1       8.133  -0.033  -1.849  1.00  0.00     0.000 C 
BRANCH   3   4
ATOM      4  C   UNL     1       8.615  -0.269  -0.402  1.00  0.00     0.000 C 
BRANCH   4   5
ATOM      5  C   UNL     1       8.634   1.002   0.471  1.00  0.00     0.000 C 
BRANCH   5   6
ATOM      6  C   UNL     1       7.893   0.890   1.815  1.00  0.00     0.000 C 
BRANCH   6   7
ATOM      7  C   UNL     1       7.685  -0.567   2.261  1.00  0.00     0.000 C 
BRANCH   7   8
ATOM      8  C   UNL     1       8.812  -1.078   3.178  1.00  0.00     0.000 C 
BRANCH   8   9
ATOM      9  C   UNL     1       9.358  -2.477   2.834  1.00  0.00     0.000 C 
BRANCH   9  10
ATOM     10  C   UNL     1       8.549  -3.264   1.785  1.00  0.00     0.006 C 
BRANCH  10  11
ATOM     11  C   UNL     1       7.640  -4.356   2.382  1.00  0.00     0.053 C 
BRANCH  11  12
ATOM     12  C   UNL     1       7.647  -5.615   1.569  1.00  0.00     0.041 C 
ATOM     13  O   UNL     1       8.661  -6.361   1.559  1.00  0.00    -0.550 OA
ATOM     14  O   UNL     1       6.542  -5.949   0.791  1.00  0.00    -0.550 OA
ENDBRANCH  11  12
ENDBRANCH  10  11
ENDBRANCH   9  10
ENDBRANCH   8   9
ENDBRANCH   7   8
ENDBRANCH   6   7
ENDBRANCH   5   6
ENDBRANCH   4   5
ENDBRANCH   3   4
ENDBRANCH   2   3
ENDBRANCH   1   2
BRANCH   1  15
ATOM     15  C   UNL     1       5.916  -1.866  -2.137  1.00  0.00     0.000 C 
BRANCH  15  16
ATOM     16  C   UNL     1       5.467  -3.006  -1.209  1.00  0.00     0.000 C 
BRANCH  16  17
ATOM     17  C   UNL     1       5.254  -2.537   0.243  1.00  0.00     0.000 C 
BRANCH  17  18
ATOM     18  C   UNL     1       4.146  -3.327   0.958  1.00  0.00    -0.000 C 
BRANCH  18  19
ATOM     19  C   UNL     1       3.420  -4.310   0.022  1.00  0.00    -0.000 C 
BRANCH  19  20
ATOM     20  C   UNL     1       2.086  -4.810   0.605  1.00  0.00    -0.000 C 
BRANCH  20  21
ATOM     21  C   UNL     1       1.863  -4.465   2.089  1.00  0.00    -0.000 C 
BRANCH  21  22
ATOM     22  C   UNL     1       1.973  -5.693   3.010  1.00  0.00    -0.000 C 
BRANCH  22  23
ATOM     23  C   UNL     1       3.018  -5.504   4.121  1.00  0.00    -0.000 C 
BRANCH  23  24
ATOM     24  C   UNL     1       4.453  -5.737   3.626  1.00  0.00    -0.000 C 
BRANCH  24  25
ATOM     25  C   UNL     1       5.383  -6.095   4.790  1.00  0.00    -0.003 C 
ATOM     26  C   UNL     1       4.784  -5.666   6.128  1.00  0.00     0.004 C 
ENDBRANCH  24  25
ENDBRANCH  23  24
ENDBRANCH  22  23
ENDBRANCH  21  22
ENDBRANCH  20  21
ENDBRANCH  19  20
ENDBRANCH  18  19
ENDBRANCH  17  18
ENDBRANCH  16  17
ENDBRANCH  15  16
ENDBRANCH   1  15
TORSDOF 22
ENDMDL
MODEL 9
REMARK VINA RESULT:    -3.597      1.921      4.229
REMARK INTER + INTRA:         -11.953
REMARK INTER:                  -7.933
REMARK INTRA:                  -4.020
REMARK UNBOUND:                -3.729
REMARK SMILES CCCCCCCCCCCCCCCCCCCCCCCC(=O)[O-]
REMARK SMILES IDX 13 1 14 2 15 3 16 4 17 5 18 6 19 7 20 8 21 9 22 10 23 11
REMARK SMILES IDX 24 12 25 13 26 14 12 15 11 16 10 17 9 18 8 19 7 20 6 21 5 22
REMARK SMILES IDX 4 23 3 24 2 25 1 26
REMARK H PARENT
REMARK Flexibility Score: inf
ROOT
ATOM      1  C   UNL     1       5.339  -5.820   5.581  1.00  0.00     0.000 C 
ENDROOT
BRANCH   1   2
ATOM      2  C   UNL     1       3.875  -5.838   5.115  1.00  0.00     0.000 C 
BRANCH   2   3
ATOM      3  C   UNL     1       3.107  -7.074   5.618  1.00  0.00     0.000 C 
BRANCH   3   4
ATOM      4  C   UNL     1       3.078  -8.216   4.581  1.00  0.00     0.000 C 
BRANCH   4   5
ATOM      5  C   UNL     1       2.482  -7.813   3.216  1.00  0.00     0.000 C 
BRANCH   5   6
ATOM      6  C   UNL     1       1.001  -7.395   3.241  1.00  0.00     0.000 C 
BRANCH   6   7
ATOM      7  C   UNL     1       0.699  -6.216   2.300  1.00  0.00     0.000 C 
BRANCH   7   8
ATOM      8  C   UNL     1       1.292  -4.885   2.801  1.00  0.00     0.000 C 
BRANCH   8   9
ATOM      9  C   UNL     1       2.416  -4.296   1.929  1.00  0.00     0.000 C 
BRANCH   9  10
ATOM     10  C   UNL     1       2.277  -4.541   0.414  1.00  0.00     0.006 C 
BRANCH  10  11
ATOM     11  C   UNL     1       3.469  -5.292  -0.213  1.00  0.00     0.053 C 
BRANCH  11  12
ATOM     12  C   UNL     1       3.221  -6.765  -0.329  1.00  0.00     0.041 C 
ATOM     13  O   UNL     1       2.145  -7.192  -0.823  1.00  0.00    -0.550 OA
ATOM     14  O   UNL     1       4.166  -7.671   0.142  1.00  0.00    -0.550 OA
ENDBRANCH  11  12
ENDBRANCH  10  11
ENDBRANCH   9  10
ENDBRANCH   8   9
ENDBRANCH   7   8
ENDBRANCH   6   7
ENDBRANCH   5   6
ENDBRANCH   4   5
ENDBRANCH   3   4
ENDBRANCH   2   3
ENDBRANCH   1   2
BRANCH   1  15
ATOM     15  C   UNL     1       6.331  -6.092   4.436  1.00  0.00     0.000 C 
BRANCH  15  16
ATOM     16  C   UNL     1       5.711  -5.877   3.045  1.00  0.00     0.000 C 
BRANCH  16  17
ATOM     17  C   UNL     1       6.724  -6.096   1.906  1.00  0.00     0.000 C 
BRANCH  17  18
ATOM     18  C   UNL     1       6.787  -4.903   0.939  1.00  0.00    -0.000 C 
BRANCH  18  19
ATOM     19  C   UNL     1       6.741  -3.547   1.667  1.00  0.00    -0.000 C 
BRANCH  19  20
ATOM     20  C   UNL     1       5.611  -2.636   1.155  1.00  0.00    -0.000 C 
BRANCH  20  21
ATOM     21  C   UNL     1       6.088  -1.398   0.373  1.00  0.00    -0.000 C 
BRANCH  21  22
ATOM     22  C   UNL     1       5.228  -1.109  -0.870  1.00  0.00    -0.000 C 
BRANCH  22  23
ATOM     23  C   UNL     1       5.980  -1.377  -2.183  1.00  0.00    -0.000 C 
BRANCH  23  24
ATOM     24  C   UNL     1       5.972  -2.862  -2.575  1.00  0.00    -0.000 C 
BRANCH  24  25
ATOM     25  C   UNL     1       7.345  -3.500  -2.337  1.00  0.00    -0.003 C 
ATOM     26  C   UNL     1       8.453  -2.449  -2.359  1.00  0.00     0.004 C 
ENDBRANCH  24  25
ENDBRANCH  23  24
ENDBRANCH  22  23
ENDBRANCH  21  22
ENDBRANCH  20  21
ENDBRANCH  19  20
ENDBRANCH  18  19
ENDBRANCH  17  18
ENDBRANCH  16  17
ENDBRANCH  15  16
ENDBRANCH   1  15
TORSDOF 22
ENDMDL
