MODEL 1
REMARK VINA RESULT:    -5.665      0.000      0.000
REMARK INTER + INTRA:         -18.844
REMARK INTER:                 -14.276
REMARK INTRA:                  -4.567
REMARK UNBOUND:                -4.567
REMARK SMILES CCCCCCCCCCCCCCCCCCCCCCCCCCCC(=O)[O-]
REMARK SMILES IDX 15 1 16 2 17 3 18 4 19 5 20 6 21 7 22 8 23 9 24 10 25 11
REMARK SMILES IDX 26 12 27 13 28 14 29 15 30 16 14 17 13 18 12 19 11 20 10 21
REMARK SMILES IDX 9 22 8 23 7 24 6 25 5 26 4 27 3 28 2 29 1 30
REMARK H PARENT
REMARK Flexibility Score: inf
ROOT
ATOM      1  C   UNL     1     -23.550 -30.785  22.689  1.00  0.00     0.000 C 
ENDROOT
BRANCH   1   2
ATOM      2  C   UNL     1     -25.014 -30.896  22.228  1.00  0.00     0.000 C 
BRANCH   2   3
ATOM      3  C   UNL     1     -25.502 -29.642  21.480  1.00  0.00     0.000 C 
BRANCH   3   4
ATOM      4  C   UNL     1     -26.168 -28.566  22.363  1.00  0.00     0.000 C 
BRANCH   4   5
ATOM      5  C   UNL     1     -26.421 -28.970  23.827  1.00  0.00     0.000 C 
BRANCH   5   6
ATOM      6  C   UNL     1     -26.141 -27.833  24.823  1.00  0.00     0.000 C 
BRANCH   6   7
ATOM      7  C   UNL     1     -24.695 -27.310  24.747  1.00  0.00     0.000 C 
BRANCH   7   8
ATOM      8  C   UNL     1     -23.644 -28.171  25.472  1.00  0.00     0.000 C 
BRANCH   8   9
ATOM      9  C   UNL     1     -22.243 -28.056  24.849  1.00  0.00     0.000 C 
BRANCH   9  10
ATOM     10  C   UNL     1     -21.113 -28.346  25.855  1.00  0.00     0.000 C 
BRANCH  10  11
ATOM     11  C   UNL     1     -20.171 -29.507  25.476  1.00  0.00     0.000 C 
BRANCH  11  12
ATOM     12  C   UNL     1     -20.024 -29.775  23.965  1.00  0.00     0.006 C 
BRANCH  12  13
ATOM     13  C   UNL     1     -18.582 -29.640  23.445  1.00  0.00     0.053 C 
BRANCH  13  14
ATOM     14  C   UNL     1     -17.866 -30.956  23.392  1.00  0.00     0.041 C 
ATOM     15  O   UNL     1     -18.491 -32.007  23.091  1.00  0.00    -0.550 OA
ATOM     16  O   UNL     1     -16.515 -31.027  23.710  1.00  0.00    -0.550 OA
ENDBRANCH  13  14
ENDBRANCH  12  13
ENDBRANCH  11  12
ENDBRANCH  10  11
ENDBRANCH   9  10
ENDBRANCH   8   9
ENDBRANCH   7   8
ENDBRANCH   6   7
ENDBRANCH   5   6
ENDBRANCH   4   5
ENDBRANCH   3   4
ENDBRANCH   2   3
ENDBRANCH   1   2
BRANCH   1  17
ATOM     17  C   UNL     1     -23.239 -31.688  23.903  1.00  0.00     0.000 C 
BRANCH  17  18
ATOM     18  C   UNL     1     -24.314 -31.660  25.007  1.00  0.00     0.000 C 
BRANCH  18  19
ATOM     19  C   UNL     1     -24.370 -32.902  25.916  1.00  0.00     0.000 C 
BRANCH  19  20
ATOM     20  C   UNL     1     -25.737 -33.177  26.569  1.00  0.00     0.000 C 
BRANCH  20  21
ATOM     21  C   UNL     1     -26.864 -32.299  25.997  1.00  0.00     0.000 C 
BRANCH  21  22
ATOM     22  C   UNL     1     -27.814 -33.092  25.085  1.00  0.00    -0.000 C 
BRANCH  22  23
ATOM     23  C   UNL     1     -27.308 -33.179  23.634  1.00  0.00    -0.000 C 
BRANCH  23  24
ATOM     24  C   UNL     1     -28.394 -32.829  22.598  1.00  0.00    -0.000 C 
BRANCH  24  25
ATOM     25  C   UNL     1     -28.740 -31.333  22.490  1.00  0.00    -0.000 C 
BRANCH  25  26
ATOM     26  C   UNL     1     -30.253 -31.064  22.560  1.00  0.00    -0.000 C 
BRANCH  26  27
ATOM     27  C   UNL     1     -30.656 -30.211  23.778  1.00  0.00    -0.000 C 
BRANCH  27  28
ATOM     28  C   UNL     1     -29.557 -30.025  24.841  1.00  0.00    -0.000 C 
BRANCH  28  29
ATOM     29  C   UNL     1     -29.834 -28.850  25.791  1.00  0.00    -0.003 C 
ATOM     30  C   UNL     1     -31.332 -28.575  25.899  1.00  0.00     0.004 C 
ENDBRANCH  28  29
ENDBRANCH  27  28
ENDBRANCH  26  27
ENDBRANCH  25  26
ENDBRANCH  24  25
ENDBRANCH  23  24
ENDBRANCH  22  23
ENDBRANCH  21  22
ENDBRANCH  20  21
ENDBRANCH  19  20
ENDBRANCH  18  19
ENDBRANCH  17  18
ENDBRANCH   1  17
TORSDOF 26
ENDMDL
MODEL 2
REMARK VINA RESULT:    -5.555      3.168      7.456
REMARK INTER + INTRA:         -18.566
REMARK INTER:                 -14.255
REMARK INTRA:                  -4.311
REMARK UNBOUND:                -4.567
REMARK SMILES CCCCCCCCCCCCCCCCCCCCCCCCCCCC(=O)[O-]
REMARK SMILES IDX 15 1 16 2 17 3 18 4 19 5 20 6 21 7 22 8 23 9 24 10 25 11
REMARK SMILES IDX 26 12 27 13 28 14 29 15 30 16 14 17 13 18 12 19 11 20 10 21
REMARK SMILES IDX 9 22 8 23 7 24 6 25 5 26 4 27 3 28 2 29 1 30
REMARK H PARENT
REMARK Flexibility Score: inf
ROOT
ATOM      1  C   UNL     1     -28.112 -32.874  22.278  1.00  0.00     0.000 C 
ENDROOT
BRANCH   1   2
ATOM      2  C   UNL     1     -27.796 -33.627  23.582  1.00  0.00     0.000 C 
BRANCH   2   3
ATOM      3  C   UNL     1     -28.051 -32.777  24.840  1.00  0.00     0.000 C 
BRANCH   3   4
ATOM      4  C   UNL     1     -26.798 -32.446  25.677  1.00  0.00     0.000 C 
BRANCH   4   5
ATOM      5  C   UNL     1     -26.681 -30.985  26.149  1.00  0.00     0.000 C 
BRANCH   5   6
ATOM      6  C   UNL     1     -25.502 -30.237  25.504  1.00  0.00     0.000 C 
BRANCH   6   7
ATOM      7  C   UNL     1     -25.678 -28.708  25.525  1.00  0.00     0.000 C 
BRANCH   7   8
ATOM      8  C   UNL     1     -25.526 -28.008  24.162  1.00  0.00     0.000 C 
BRANCH   8   9
ATOM      9  C   UNL     1     -24.118 -27.435  23.936  1.00  0.00     0.000 C 
BRANCH   9  10
ATOM     10  C   UNL     1     -23.538 -27.790  22.554  1.00  0.00     0.000 C 
BRANCH  10  11
ATOM     11  C   UNL     1     -24.562 -27.847  21.401  1.00  0.00     0.000 C 
BRANCH  11  12
ATOM     12  C   UNL     1     -23.999 -27.537  20.000  1.00  0.00     0.006 C 
BRANCH  12  13
ATOM     13  C   UNL     1     -23.313 -26.163  19.892  1.00  0.00     0.053 C 
BRANCH  13  14
ATOM     14  C   UNL     1     -24.238 -25.032  20.229  1.00  0.00     0.041 C 
ATOM     15  O   UNL     1     -24.005 -24.298  21.226  1.00  0.00    -0.550 OA
ATOM     16  O   UNL     1     -25.375 -24.810  19.464  1.00  0.00    -0.550 OA
ENDBRANCH  13  14
ENDBRANCH  12  13
ENDBRANCH  11  12
ENDBRANCH  10  11
ENDBRANCH   9  10
ENDBRANCH   8   9
ENDBRANCH   7   8
ENDBRANCH   6   7
ENDBRANCH   5   6
ENDBRANCH   4   5
ENDBRANCH   3   4
ENDBRANCH   2   3
ENDBRANCH   1   2
BRANCH   1  17
ATOM     17  C   UNL     1     -28.317 -31.360  22.500  1.00  0.00     0.000 C 
BRANCH  17  18
ATOM     18  C   UNL     1     -27.082 -30.498  22.174  1.00  0.00     0.000 C 
BRANCH  18  19
ATOM     19  C   UNL     1     -25.850 -31.266  21.658  1.00  0.00     0.000 C 
BRANCH  19  20
ATOM     20  C   UNL     1     -24.742 -31.508  22.701  1.00  0.00     0.000 C 
BRANCH  20  21
ATOM     21  C   UNL     1     -23.326 -31.374  22.115  1.00  0.00     0.000 C 
BRANCH  21  22
ATOM     22  C   UNL     1     -22.263 -32.042  23.001  1.00  0.00    -0.000 C 
BRANCH  22  23
ATOM     23  C   UNL     1     -21.343 -31.022  23.695  1.00  0.00    -0.000 C 
BRANCH  23  24
ATOM     24  C   UNL     1     -22.005 -30.348  24.913  1.00  0.00    -0.000 C 
BRANCH  24  25
ATOM     25  C   UNL     1     -21.254 -29.129  25.478  1.00  0.00    -0.000 C 
BRANCH  25  26
ATOM     26  C   UNL     1     -19.731 -29.222  25.282  1.00  0.00    -0.000 C 
BRANCH  26  27
ATOM     27  C   UNL     1     -19.226 -28.384  24.092  1.00  0.00    -0.000 C 
BRANCH  27  28
ATOM     28  C   UNL     1     -18.118 -29.043  23.249  1.00  0.00    -0.000 C 
BRANCH  28  29
ATOM     29  C   UNL     1     -17.819 -30.488  23.675  1.00  0.00    -0.003 C 
ATOM     30  C   UNL     1     -16.542 -31.000  23.015  1.00  0.00     0.004 C 
ENDBRANCH  28  29
ENDBRANCH  27  28
ENDBRANCH  26  27
ENDBRANCH  25  26
ENDBRANCH  24  25
ENDBRANCH  23  24
ENDBRANCH  22  23
ENDBRANCH  21  22
ENDBRANCH  20  21
ENDBRANCH  19  20
ENDBRANCH  18  19
ENDBRANCH  17  18
ENDBRANCH   1  17
TORSDOF 26
ENDMDL
MODEL 3
REMARK VINA RESULT:    -5.545      1.964      4.686
REMARK INTER + INTRA:         -18.541
REMARK INTER:                 -14.739
REMARK INTRA:                  -3.802
REMARK UNBOUND:                -4.567
REMARK SMILES CCCCCCCCCCCCCCCCCCCCCCCCCCCC(=O)[O-]
REMARK SMILES IDX 15 1 16 2 17 3 18 4 19 5 20 6 21 7 22 8 23 9 24 10 25 11
REMARK SMILES IDX 26 12 27 13 28 14 29 15 30 16 14 17 13 18 12 19 11 20 10 21
REMARK SMILES IDX 9 22 8 23 7 24 6 25 5 26 4 27 3 28 2 29 1 30
REMARK H PARENT
REMARK Flexibility Score: inf
ROOT
ATOM      1  C   UNL     1     -25.289 -31.540  25.352  1.00  0.00     0.000 C 
ENDROOT
BRANCH   1   2
ATOM      2  C   UNL     1     -23.875 -32.118  25.164  1.00  0.00     0.000 C 
BRANCH   2   3
ATOM      3  C   UNL     1     -22.935 -31.163  24.407  1.00  0.00     0.000 C 
BRANCH   3   4
ATOM      4  C   UNL     1     -23.102 -29.667  24.744  1.00  0.00     0.000 C 
BRANCH   4   5
ATOM      5  C   UNL     1     -21.797 -28.856  24.835  1.00  0.00     0.000 C 
BRANCH   5   6
ATOM      6  C   UNL     1     -20.664 -29.617  25.545  1.00  0.00     0.000 C 
BRANCH   6   7
ATOM      7  C   UNL     1     -19.421 -29.807  24.657  1.00  0.00     0.000 C 
BRANCH   7   8
ATOM      8  C   UNL     1     -19.532 -30.915  23.594  1.00  0.00     0.000 C 
BRANCH   8   9
ATOM      9  C   UNL     1     -18.207 -31.660  23.364  1.00  0.00     0.000 C 
BRANCH   9  10
ATOM     10  C   UNL     1     -16.972 -30.757  23.537  1.00  0.00     0.000 C 
BRANCH  10  11
ATOM     11  C   UNL     1     -16.110 -30.563  22.273  1.00  0.00     0.000 C 
BRANCH  11  12
ATOM     12  C   UNL     1     -16.022 -29.116  21.747  1.00  0.00     0.006 C 
BRANCH  12  13
ATOM     13  C   UNL     1     -17.311 -28.299  21.948  1.00  0.00     0.053 C 
BRANCH  13  14
ATOM     14  C   UNL     1     -17.433 -27.171  20.969  1.00  0.00     0.041 C 
ATOM     15  O   UNL     1     -16.519 -26.959  20.128  1.00  0.00    -0.550 OA
ATOM     16  O   UNL     1     -18.539 -26.331  21.007  1.00  0.00    -0.550 OA
ENDBRANCH  13  14
ENDBRANCH  12  13
ENDBRANCH  11  12
ENDBRANCH  10  11
ENDBRANCH   9  10
ENDBRANCH   8   9
ENDBRANCH   7   8
ENDBRANCH   6   7
ENDBRANCH   5   6
ENDBRANCH   4   5
ENDBRANCH   3   4
ENDBRANCH   2   3
ENDBRANCH   1   2
BRANCH   1  17
ATOM     17  C   UNL     1     -26.324 -32.616  25.747  1.00  0.00     0.000 C 
BRANCH  17  18
ATOM     18  C   UNL     1     -27.243 -33.066  24.594  1.00  0.00     0.000 C 
BRANCH  18  19
ATOM     19  C   UNL     1     -26.825 -32.600  23.187  1.00  0.00     0.000 C 
BRANCH  19  20
ATOM     20  C   UNL     1     -27.889 -32.787  22.089  1.00  0.00     0.000 C 
BRANCH  20  21
ATOM     21  C   UNL     1     -29.316 -32.486  22.579  1.00  0.00     0.000 C 
BRANCH  21  22
ATOM     22  C   UNL     1     -29.726 -31.028  22.319  1.00  0.00    -0.000 C 
BRANCH  22  23
ATOM     23  C   UNL     1     -30.612 -30.452  23.439  1.00  0.00    -0.000 C 
BRANCH  23  24
ATOM     24  C   UNL     1     -29.863 -30.299  24.777  1.00  0.00    -0.000 C 
BRANCH  24  25
ATOM     25  C   UNL     1     -29.033 -29.011  24.921  1.00  0.00    -0.000 C 
BRANCH  25  26
ATOM     26  C   UNL     1     -27.528 -29.243  24.710  1.00  0.00    -0.000 C 
BRANCH  26  27
ATOM     27  C   UNL     1     -26.755 -27.945  24.411  1.00  0.00    -0.000 C 
BRANCH  27  28
ATOM     28  C   UNL     1     -26.067 -27.892  23.035  1.00  0.00    -0.000 C 
BRANCH  28  29
ATOM     29  C   UNL     1     -26.427 -29.085  22.137  1.00  0.00    -0.003 C 
ATOM     30  C   UNL     1     -25.172 -29.806  21.654  1.00  0.00     0.004 C 
ENDBRANCH  28  29
ENDBRANCH  27  28
ENDBRANCH  26  27
ENDBRANCH  25  26
ENDBRANCH  24  25
ENDBRANCH  23  24
ENDBRANCH  22  23
ENDBRANCH  21  22
ENDBRANCH  20  21
ENDBRANCH  19  20
ENDBRANCH  18  19
ENDBRANCH  17  18
ENDBRANCH   1  17
TORSDOF 26
ENDMDL
MODEL 4
REMARK VINA RESULT:    -5.466      3.665      8.892
REMARK INTER + INTRA:         -18.343
REMARK INTER:                 -14.094
REMARK INTRA:                  -4.248
REMARK UNBOUND:                -4.567
REMARK SMILES CCCCCCCCCCCCCCCCCCCCCCCCCCCC(=O)[O-]
REMARK SMILES IDX 15 1 16 2 17 3 18 4 19 5 20 6 21 7 22 8 23 9 24 10 25 11
REMARK SMILES IDX 26 12 27 13 28 14 29 15 30 16 14 17 13 18 12 19 11 20 10 21
REMARK SMILES IDX 9 22 8 23 7 24 6 25 5 26 4 27 3 28 2 29 1 30
REMARK H PARENT
REMARK Flexibility Score: inf
ROOT
ATOM      1  C   UNL     1     -23.727 -31.237  22.762  1.00  0.00     0.000 C 
ENDROOT
BRANCH   1   2
ATOM      2  C   UNL     1     -23.328 -32.085  23.982  1.00  0.00     0.000 C 
BRANCH   2   3
ATOM      3  C   UNL     1     -24.064 -31.666  25.268  1.00  0.00     0.000 C 
BRANCH   3   4
ATOM      4  C   UNL     1     -24.992 -32.737  25.877  1.00  0.00     0.000 C 
BRANCH   4   5
ATOM      5  C   UNL     1     -26.435 -32.282  26.159  1.00  0.00     0.000 C 
BRANCH   5   6
ATOM      6  C   UNL     1     -27.478 -33.027  25.310  1.00  0.00     0.000 C 
BRANCH   6   7
ATOM      7  C   UNL     1     -27.138 -33.030  23.808  1.00  0.00     0.000 C 
BRANCH   7   8
ATOM      8  C   UNL     1     -28.175 -33.715  22.899  1.00  0.00     0.000 C 
BRANCH   8   9
ATOM      9  C   UNL     1     -28.950 -32.721  22.019  1.00  0.00     0.000 C 
BRANCH   9  10
ATOM     10  C   UNL     1     -28.701 -31.252  22.409  1.00  0.00     0.000 C 
BRANCH  10  11
ATOM     11  C   UNL     1     -29.767 -30.621  23.328  1.00  0.00     0.000 C 
BRANCH  11  12
ATOM     12  C   UNL     1     -29.219 -29.810  24.520  1.00  0.00     0.006 C 
BRANCH  12  13
ATOM     13  C   UNL     1     -30.143 -29.808  25.751  1.00  0.00     0.053 C 
BRANCH  13  14
ATOM     14  C   UNL     1     -30.711 -28.452  26.039  1.00  0.00     0.041 C 
ATOM     15  O   UNL     1     -30.020 -27.418  25.836  1.00  0.00    -0.550 OA
ATOM     16  O   UNL     1     -31.991 -28.329  26.565  1.00  0.00    -0.550 OA
ENDBRANCH  13  14
ENDBRANCH  12  13
ENDBRANCH  11  12
ENDBRANCH  10  11
ENDBRANCH   9  10
ENDBRANCH   8   9
ENDBRANCH   7   8
ENDBRANCH   6   7
ENDBRANCH   5   6
ENDBRANCH   4   5
ENDBRANCH   3   4
ENDBRANCH   2   3
ENDBRANCH   1   2
BRANCH   1  17
ATOM     17  C   UNL     1     -24.967 -30.357  23.029  1.00  0.00     0.000 C 
BRANCH  17  18
ATOM     18  C   UNL     1     -25.525 -29.651  21.777  1.00  0.00     0.000 C 
BRANCH  18  19
ATOM     19  C   UNL     1     -26.072 -28.229  22.002  1.00  0.00     0.000 C 
BRANCH  19  20
ATOM     20  C   UNL     1     -25.036 -27.097  21.868  1.00  0.00     0.000 C 
BRANCH  20  21
ATOM     21  C   UNL     1     -23.673 -27.589  21.350  1.00  0.00     0.000 C 
BRANCH  21  22
ATOM     22  C   UNL     1     -22.549 -27.378  22.378  1.00  0.00    -0.000 C 
BRANCH  22  23
ATOM     23  C   UNL     1     -23.083 -27.014  23.775  1.00  0.00    -0.000 C 
BRANCH  23  24
ATOM     24  C   UNL     1     -22.847 -28.126  24.815  1.00  0.00    -0.000 C 
BRANCH  24  25
ATOM     25  C   UNL     1     -21.395 -28.269  25.306  1.00  0.00    -0.000 C 
BRANCH  25  26
ATOM     26  C   UNL     1     -20.929 -29.733  25.374  1.00  0.00    -0.000 C 
BRANCH  26  27
ATOM     27  C   UNL     1     -19.677 -30.006  24.519  1.00  0.00    -0.000 C 
BRANCH  27  28
ATOM     28  C   UNL     1     -19.716 -31.305  23.694  1.00  0.00    -0.000 C 
BRANCH  28  29
ATOM     29  C   UNL     1     -18.332 -31.732  23.182  1.00  0.00    -0.003 C 
ATOM     30  C   UNL     1     -17.242 -30.807  23.714  1.00  0.00     0.004 C 
ENDBRANCH  28  29
ENDBRANCH  27  28
ENDBRANCH  26  27
ENDBRANCH  25  26
ENDBRANCH  24  25
ENDBRANCH  23  24
ENDBRANCH  22  23
ENDBRANCH  21  22
ENDBRANCH  20  21
ENDBRANCH  19  20
ENDBRANCH  18  19
ENDBRANCH  17  18
ENDBRANCH   1  17
TORSDOF 26
ENDMDL
MODEL 5
REMARK VINA RESULT:    -5.464      3.403      8.543
REMARK INTER + INTRA:         -18.336
REMARK INTER:                 -15.040
REMARK INTRA:                  -3.296
REMARK UNBOUND:                -4.567
REMARK SMILES CCCCCCCCCCCCCCCCCCCCCCCCCCCC(=O)[O-]
REMARK SMILES IDX 15 1 16 2 17 3 18 4 19 5 20 6 21 7 22 8 23 9 24 10 25 11
REMARK SMILES IDX 26 12 27 13 28 14 29 15 30 16 14 17 13 18 12 19 11 20 10 21
REMARK SMILES IDX 9 22 8 23 7 24 6 25 5 26 4 27 3 28 2 29 1 30
REMARK H PARENT
REMARK Flexibility Score: inf
ROOT
ATOM      1  C   UNL     1     -24.439 -31.886  24.811  1.00  0.00     0.000 C 
ENDROOT
BRANCH   1   2
ATOM      2  C   UNL     1     -24.634 -32.898  25.953  1.00  0.00     0.000 C 
BRANCH   2   3
ATOM      3  C   UNL     1     -26.117 -33.162  26.272  1.00  0.00     0.000 C 
BRANCH   3   4
ATOM      4  C   UNL     1     -27.068 -31.974  26.018  1.00  0.00     0.000 C 
BRANCH   4   5
ATOM      5  C   UNL     1     -28.135 -32.199  24.931  1.00  0.00     0.000 C 
BRANCH   5   6
ATOM      6  C   UNL     1     -27.730 -33.266  23.901  1.00  0.00     0.000 C 
BRANCH   6   7
ATOM      7  C   UNL     1     -27.820 -32.763  22.449  1.00  0.00     0.000 C 
BRANCH   7   8
ATOM      8  C   UNL     1     -27.506 -31.269  22.248  1.00  0.00     0.000 C 
BRANCH   8   9
ATOM      9  C   UNL     1     -26.107 -31.025  21.659  1.00  0.00     0.000 C 
BRANCH   9  10
ATOM     10  C   UNL     1     -25.736 -29.531  21.590  1.00  0.00     0.000 C 
BRANCH  10  11
ATOM     11  C   UNL     1     -24.324 -29.176  22.099  1.00  0.00     0.000 C 
BRANCH  11  12
ATOM     12  C   UNL     1     -23.930 -27.691  21.976  1.00  0.00     0.006 C 
BRANCH  12  13
ATOM     13  C   UNL     1     -23.894 -27.172  20.527  1.00  0.00     0.053 C 
BRANCH  13  14
ATOM     14  C   UNL     1     -24.837 -26.030  20.303  1.00  0.00     0.041 C 
ATOM     15  O   UNL     1     -24.509 -25.073  19.553  1.00  0.00    -0.550 OA
ATOM     16  O   UNL     1     -26.066 -26.004  20.951  1.00  0.00    -0.550 OA
ENDBRANCH  13  14
ENDBRANCH  12  13
ENDBRANCH  11  12
ENDBRANCH  10  11
ENDBRANCH   9  10
ENDBRANCH   8   9
ENDBRANCH   7   8
ENDBRANCH   6   7
ENDBRANCH   5   6
ENDBRANCH   4   5
ENDBRANCH   3   4
ENDBRANCH   2   3
ENDBRANCH   1   2
BRANCH   1  17
ATOM     17  C   UNL     1     -22.993 -31.352  24.730  1.00  0.00     0.000 C 
BRANCH  17  18
ATOM     18  C   UNL     1     -22.220 -31.803  23.475  1.00  0.00     0.000 C 
BRANCH  18  19
ATOM     19  C   UNL     1     -20.718 -31.457  23.456  1.00  0.00     0.000 C 
BRANCH  19  20
ATOM     20  C   UNL     1     -20.294 -30.321  24.405  1.00  0.00     0.000 C 
BRANCH  20  21
ATOM     21  C   UNL     1     -18.769 -30.127  24.465  1.00  0.00     0.000 C 
BRANCH  21  22
ATOM     22  C   UNL     1     -18.017 -31.150  23.598  1.00  0.00    -0.000 C 
BRANCH  22  23
ATOM     23  C   UNL     1     -16.610 -30.669  23.199  1.00  0.00    -0.000 C 
BRANCH  23  24
ATOM     24  C   UNL     1     -16.272 -30.961  21.724  1.00  0.00    -0.000 C 
BRANCH  24  25
ATOM     25  C   UNL     1     -16.201 -29.726  20.809  1.00  0.00    -0.000 C 
BRANCH  25  26
ATOM     26  C   UNL     1     -16.516 -28.415  21.550  1.00  0.00    -0.000 C 
BRANCH  26  27
ATOM     27  C   UNL     1     -17.252 -27.388  20.668  1.00  0.00    -0.000 C 
BRANCH  27  28
ATOM     28  C   UNL     1     -18.120 -26.371  21.431  1.00  0.00    -0.000 C 
BRANCH  28  29
ATOM     29  C   UNL     1     -18.752 -26.956  22.703  1.00  0.00    -0.003 C 
ATOM     30  C   UNL     1     -20.258 -27.138  22.533  1.00  0.00     0.004 C 
ENDBRANCH  28  29
ENDBRANCH  27  28
ENDBRANCH  26  27
ENDBRANCH  25  26
ENDBRANCH  24  25
ENDBRANCH  23  24
ENDBRANCH  22  23
ENDBRANCH  21  22
ENDBRANCH  20  21
ENDBRANCH  19  20
ENDBRANCH  18  19
ENDBRANCH  17  18
ENDBRANCH   1  17
TORSDOF 26
ENDMDL
MODEL 6
REMARK VINA RESULT:    -5.462      3.389      7.063
REMARK INTER + INTRA:         -18.332
REMARK INTER:                 -13.023
REMARK INTRA:                  -5.309
REMARK UNBOUND:                -4.567
REMARK SMILES CCCCCCCCCCCCCCCCCCCCCCCCCCCC(=O)[O-]
REMARK SMILES IDX 15 1 16 2 17 3 18 4 19 5 20 6 21 7 22 8 23 9 24 10 25 11
REMARK SMILES IDX 26 12 27 13 28 14 29 15 30 16 14 17 13 18 12 19 11 20 10 21
REMARK SMILES IDX 9 22 8 23 7 24 6 25 5 26 4 27 3 28 2 29 1 30
REMARK H PARENT
REMARK Flexibility Score: inf
ROOT
ATOM      1  C   UNL     1     -22.205 -31.609  23.326  1.00  0.00     0.000 C 
ENDROOT
BRANCH   1   2
ATOM      2  C   UNL     1     -23.001 -31.261  22.056  1.00  0.00     0.000 C 
BRANCH   2   3
ATOM      3  C   UNL     1     -24.416 -30.736  22.363  1.00  0.00     0.000 C 
BRANCH   3   4
ATOM      4  C   UNL     1     -25.570 -31.539  21.727  1.00  0.00     0.000 C 
BRANCH   4   5
ATOM      5  C   UNL     1     -26.988 -31.111  22.147  1.00  0.00     0.000 C 
BRANCH   5   6
ATOM      6  C   UNL     1     -27.933 -32.302  22.377  1.00  0.00     0.000 C 
BRANCH   6   7
ATOM      7  C   UNL     1     -27.409 -33.289  23.435  1.00  0.00     0.000 C 
BRANCH   7   8
ATOM      8  C   UNL     1     -28.080 -33.192  24.818  1.00  0.00     0.000 C 
BRANCH   8   9
ATOM      9  C   UNL     1     -27.081 -32.900  25.949  1.00  0.00     0.000 C 
BRANCH   9  10
ATOM     10  C   UNL     1     -25.665 -32.578  25.434  1.00  0.00     0.000 C 
BRANCH  10  11
ATOM     11  C   UNL     1     -25.268 -31.088  25.477  1.00  0.00     0.000 C 
BRANCH  11  12
ATOM     12  C   UNL     1     -26.334 -30.134  26.052  1.00  0.00     0.006 C 
BRANCH  12  13
ATOM     13  C   UNL     1     -26.797 -29.048  25.064  1.00  0.00     0.053 C 
BRANCH  13  14
ATOM     14  C   UNL     1     -28.282 -28.845  25.091  1.00  0.00     0.041 C 
ATOM     15  O   UNL     1     -28.763 -27.721  25.392  1.00  0.00    -0.550 OA
ATOM     16  O   UNL     1     -29.136 -29.906  24.815  1.00  0.00    -0.550 OA
ENDBRANCH  13  14
ENDBRANCH  12  13
ENDBRANCH  11  12
ENDBRANCH  10  11
ENDBRANCH   9  10
ENDBRANCH   8   9
ENDBRANCH   7   8
ENDBRANCH   6   7
ENDBRANCH   5   6
ENDBRANCH   4   5
ENDBRANCH   3   4
ENDBRANCH   2   3
ENDBRANCH   1   2
BRANCH   1  17
ATOM     17  C   UNL     1     -20.910 -32.392  23.019  1.00  0.00     0.000 C 
BRANCH  17  18
ATOM     18  C   UNL     1     -19.615 -31.659  23.420  1.00  0.00     0.000 C 
BRANCH  18  19
ATOM     19  C   UNL     1     -19.756 -30.145  23.670  1.00  0.00     0.000 C 
BRANCH  19  20
ATOM     20  C   UNL     1     -19.062 -29.621  24.941  1.00  0.00     0.000 C 
BRANCH  20  21
ATOM     21  C   UNL     1     -20.055 -29.229  26.049  1.00  0.00     0.000 C 
BRANCH  21  22
ATOM     22  C   UNL     1     -21.039 -28.140  25.590  1.00  0.00    -0.000 C 
BRANCH  22  23
ATOM     23  C   UNL     1     -22.491 -28.647  25.517  1.00  0.00    -0.000 C 
BRANCH  23  24
ATOM     24  C   UNL     1     -23.359 -27.841  24.531  1.00  0.00    -0.000 C 
BRANCH  24  25
ATOM     25  C   UNL     1     -22.578 -26.990  23.513  1.00  0.00    -0.000 C 
BRANCH  25  26
ATOM     26  C   UNL     1     -22.345 -27.719  22.179  1.00  0.00    -0.000 C 
BRANCH  26  27
ATOM     27  C   UNL     1     -23.077 -27.057  20.996  1.00  0.00    -0.000 C 
BRANCH  27  28
ATOM     28  C   UNL     1     -24.412 -26.375  21.349  1.00  0.00    -0.000 C 
BRANCH  28  29
ATOM     29  C   UNL     1     -25.569 -27.372  21.511  1.00  0.00    -0.003 C 
ATOM     30  C   UNL     1     -25.912 -28.035  20.179  1.00  0.00     0.004 C 
ENDBRANCH  28  29
ENDBRANCH  27  28
ENDBRANCH  26  27
ENDBRANCH  25  26
ENDBRANCH  24  25
ENDBRANCH  23  24
ENDBRANCH  22  23
ENDBRANCH  21  22
ENDBRANCH  20  21
ENDBRANCH  19  20
ENDBRANCH  18  19
ENDBRANCH  17  18
ENDBRANCH   1  17
TORSDOF 26
ENDMDL
MODEL 7
REMARK VINA RESULT:    -5.430      2.693      5.649
REMARK INTER + INTRA:         -18.251
REMARK INTER:                 -14.157
REMARK INTRA:                  -4.094
REMARK UNBOUND:                -4.567
REMARK SMILES CCCCCCCCCCCCCCCCCCCCCCCCCCCC(=O)[O-]
REMARK SMILES IDX 15 1 16 2 17 3 18 4 19 5 20 6 21 7 22 8 23 9 24 10 25 11
REMARK SMILES IDX 26 12 27 13 28 14 29 15 30 16 14 17 13 18 12 19 11 20 10 21
REMARK SMILES IDX 9 22 8 23 7 24 6 25 5 26 4 27 3 28 2 29 1 30
REMARK H PARENT
REMARK Flexibility Score: inf
ROOT
ATOM      1  C   UNL     1     -20.564 -31.255  23.714  1.00  0.00     0.000 C 
ENDROOT
BRANCH   1   2
ATOM      2  C   UNL     1     -19.140 -31.648  23.286  1.00  0.00     0.000 C 
BRANCH   2   3
ATOM      3  C   UNL     1     -18.056 -30.758  23.923  1.00  0.00     0.000 C 
BRANCH   3   4
ATOM      4  C   UNL     1     -16.617 -31.018  23.432  1.00  0.00     0.000 C 
BRANCH   4   5
ATOM      5  C   UNL     1     -16.331 -30.621  21.972  1.00  0.00     0.000 C 
BRANCH   5   6
ATOM      6  C   UNL     1     -15.875 -29.160  21.824  1.00  0.00     0.000 C 
BRANCH   6   7
ATOM      7  C   UNL     1     -16.542 -28.441  20.637  1.00  0.00     0.000 C 
BRANCH   7   8
ATOM      8  C   UNL     1     -17.523 -27.316  21.015  1.00  0.00     0.000 C 
BRANCH   8   9
ATOM      9  C   UNL     1     -17.709 -27.169  22.534  1.00  0.00     0.000 C 
BRANCH   9  10
ATOM     10  C   UNL     1     -19.067 -27.705  23.028  1.00  0.00     0.000 C 
BRANCH  10  11
ATOM     11  C   UNL     1     -19.938 -26.692  23.797  1.00  0.00     0.000 C 
BRANCH  11  12
ATOM     12  C   UNL     1     -21.324 -26.408  23.184  1.00  0.00     0.006 C 
BRANCH  12  13
ATOM     13  C   UNL     1     -21.764 -27.442  22.131  1.00  0.00     0.053 C 
BRANCH  13  14
ATOM     14  C   UNL     1     -23.248 -27.454  21.925  1.00  0.00     0.041 C 
ATOM     15  O   UNL     1     -23.982 -26.640  22.546  1.00  0.00    -0.550 OA
ATOM     16  O   UNL     1     -23.826 -28.388  21.073  1.00  0.00    -0.550 OA
ENDBRANCH  13  14
ENDBRANCH  12  13
ENDBRANCH  11  12
ENDBRANCH  10  11
ENDBRANCH   9  10
ENDBRANCH   8   9
ENDBRANCH   7   8
ENDBRANCH   6   7
ENDBRANCH   5   6
ENDBRANCH   4   5
ENDBRANCH   3   4
ENDBRANCH   2   3
ENDBRANCH   1   2
BRANCH   1  17
ATOM     17  C   UNL     1     -21.651 -32.085  22.997  1.00  0.00     0.000 C 
BRANCH  17  18
ATOM     18  C   UNL     1     -23.033 -31.405  22.938  1.00  0.00     0.000 C 
BRANCH  18  19
ATOM     19  C   UNL     1     -23.381 -30.496  24.132  1.00  0.00     0.000 C 
BRANCH  19  20
ATOM     20  C   UNL     1     -24.491 -31.025  25.060  1.00  0.00     0.000 C 
BRANCH  20  21
ATOM     21  C   UNL     1     -24.287 -32.496  25.460  1.00  0.00     0.000 C 
BRANCH  21  22
ATOM     22  C   UNL     1     -25.561 -33.121  26.052  1.00  0.00    -0.000 C 
BRANCH  22  23
ATOM     23  C   UNL     1     -26.739 -32.131  26.101  1.00  0.00    -0.000 C 
BRANCH  23  24
ATOM     24  C   UNL     1     -27.889 -32.520  25.152  1.00  0.00    -0.000 C 
BRANCH  24  25
ATOM     25  C   UNL     1     -27.474 -33.344  23.920  1.00  0.00    -0.000 C 
BRANCH  25  26
ATOM     26  C   UNL     1     -27.041 -32.467  22.733  1.00  0.00    -0.000 C 
BRANCH  26  27
ATOM     27  C   UNL     1     -27.692 -31.071  22.748  1.00  0.00    -0.000 C 
BRANCH  27  28
ATOM     28  C   UNL     1     -26.803 -29.926  22.226  1.00  0.00    -0.000 C 
BRANCH  28  29
ATOM     29  C   UNL     1     -26.706 -28.748  23.206  1.00  0.00    -0.003 C 
ATOM     30  C   UNL     1     -27.656 -28.937  24.386  1.00  0.00     0.004 C 
ENDBRANCH  28  29
ENDBRANCH  27  28
ENDBRANCH  26  27
ENDBRANCH  25  26
ENDBRANCH  24  25
ENDBRANCH  23  24
ENDBRANCH  22  23
ENDBRANCH  21  22
ENDBRANCH  20  21
ENDBRANCH  19  20
ENDBRANCH  18  19
ENDBRANCH  17  18
ENDBRANCH   1  17
TORSDOF 26
ENDMDL
MODEL 8
REMARK VINA RESULT:    -5.344      3.321      7.861
REMARK INTER + INTRA:         -18.035
REMARK INTER:                 -13.309
REMARK INTRA:                  -4.725
REMARK UNBOUND:                -4.567
REMARK SMILES CCCCCCCCCCCCCCCCCCCCCCCCCCCC(=O)[O-]
REMARK SMILES IDX 15 1 16 2 17 3 18 4 19 5 20 6 21 7 22 8 23 9 24 10 25 11
REMARK SMILES IDX 26 12 27 13 28 14 29 15 30 16 14 17 13 18 12 19 11 20 10 21
REMARK SMILES IDX 9 22 8 23 7 24 6 25 5 26 4 27 3 28 2 29 1 30
REMARK H PARENT
REMARK Flexibility Score: inf
ROOT
ATOM      1  C   UNL     1     -23.459 -31.734  24.710  1.00  0.00     0.000 C 
ENDROOT
BRANCH   1   2
ATOM      2  C   UNL     1     -24.867 -31.986  24.143  1.00  0.00     0.000 C 
BRANCH   2   3
ATOM      3  C   UNL     1     -24.956 -31.733  22.627  1.00  0.00     0.000 C 
BRANCH   3   4
ATOM      4  C   UNL     1     -26.259 -31.061  22.145  1.00  0.00     0.000 C 
BRANCH   4   5
ATOM      5  C   UNL     1     -27.071 -30.332  23.232  1.00  0.00     0.000 C 
BRANCH   5   6
ATOM      6  C   UNL     1     -26.727 -28.838  23.338  1.00  0.00     0.000 C 
BRANCH   6   7
ATOM      7  C   UNL     1     -26.008 -28.479  24.651  1.00  0.00     0.000 C 
BRANCH   7   8
ATOM      8  C   UNL     1     -24.486 -28.276  24.535  1.00  0.00     0.000 C 
BRANCH   8   9
ATOM      9  C   UNL     1     -24.081 -27.489  23.278  1.00  0.00     0.000 C 
BRANCH   9  10
ATOM     10  C   UNL     1     -23.123 -28.273  22.360  1.00  0.00     0.000 C 
BRANCH  10  11
ATOM     11  C   UNL     1     -23.709 -28.694  20.998  1.00  0.00     0.000 C 
BRANCH  11  12
ATOM     12  C   UNL     1     -24.328 -27.557  20.161  1.00  0.00     0.006 C 
BRANCH  12  13
ATOM     13  C   UNL     1     -23.369 -26.382  19.899  1.00  0.00     0.053 C 
BRANCH  13  14
ATOM     14  C   UNL     1     -23.915 -25.075  20.390  1.00  0.00     0.041 C 
ATOM     15  O   UNL     1     -23.363 -24.478  21.353  1.00  0.00    -0.550 OA
ATOM     16  O   UNL     1     -25.054 -24.533  19.808  1.00  0.00    -0.550 OA
ENDBRANCH  13  14
ENDBRANCH  12  13
ENDBRANCH  11  12
ENDBRANCH  10  11
ENDBRANCH   9  10
ENDBRANCH   8   9
ENDBRANCH   7   8
ENDBRANCH   6   7
ENDBRANCH   5   6
ENDBRANCH   4   5
ENDBRANCH   3   4
ENDBRANCH   2   3
ENDBRANCH   1   2
BRANCH   1  17
ATOM     17  C   UNL     1     -22.382 -31.641  23.607  1.00  0.00     0.000 C 
BRANCH  17  18
ATOM     18  C   UNL     1     -21.137 -30.823  24.003  1.00  0.00     0.000 C 
BRANCH  18  19
ATOM     19  C   UNL     1     -19.782 -31.429  23.593  1.00  0.00     0.000 C 
BRANCH  19  20
ATOM     20  C   UNL     1     -18.553 -30.543  23.874  1.00  0.00     0.000 C 
BRANCH  20  21
ATOM     21  C   UNL     1     -17.221 -31.259  23.595  1.00  0.00     0.000 C 
BRANCH  21  22
ATOM     22  C   UNL     1     -16.255 -30.391  22.772  1.00  0.00    -0.000 C 
BRANCH  22  23
ATOM     23  C   UNL     1     -16.979 -29.533  21.718  1.00  0.00    -0.000 C 
BRANCH  23  24
ATOM     24  C   UNL     1     -16.832 -28.021  21.972  1.00  0.00    -0.000 C 
BRANCH  24  25
ATOM     25  C   UNL     1     -17.780 -27.123  21.156  1.00  0.00    -0.000 C 
BRANCH  25  26
ATOM     26  C   UNL     1     -18.772 -26.346  22.037  1.00  0.00    -0.000 C 
BRANCH  26  27
ATOM     27  C   UNL     1     -19.725 -27.265  22.824  1.00  0.00    -0.000 C 
BRANCH  27  28
ATOM     28  C   UNL     1     -20.261 -26.680  24.144  1.00  0.00    -0.000 C 
BRANCH  28  29
ATOM     29  C   UNL     1     -19.473 -27.157  25.374  1.00  0.00    -0.003 C 
ATOM     30  C   UNL     1     -20.319 -28.086  26.240  1.00  0.00     0.004 C 
ENDBRANCH  28  29
ENDBRANCH  27  28
ENDBRANCH  26  27
ENDBRANCH  25  26
ENDBRANCH  24  25
ENDBRANCH  23  24
ENDBRANCH  22  23
ENDBRANCH  21  22
ENDBRANCH  20  21
ENDBRANCH  19  20
ENDBRANCH  18  19
ENDBRANCH  17  18
ENDBRANCH   1  17
TORSDOF 26
ENDMDL
MODEL 9
REMARK VINA RESULT:    -5.330      3.418      7.219
REMARK INTER + INTRA:         -17.999
REMARK INTER:                 -12.970
REMARK INTRA:                  -5.030
REMARK UNBOUND:                -4.567
REMARK SMILES CCCCCCCCCCCCCCCCCCCCCCCCCCCC(=O)[O-]
REMARK SMILES IDX 15 1 16 2 17 3 18 4 19 5 20 6 21 7 22 8 23 9 24 10 25 11
REMARK SMILES IDX 26 12 27 13 28 14 29 15 30 16 14 17 13 18 12 19 11 20 10 21
REMARK SMILES IDX 9 22 8 23 7 24 6 25 5 26 4 27 3 28 2 29 1 30
REMARK H PARENT
REMARK Flexibility Score: inf
ROOT
ATOM      1  C   UNL     1     -23.719 -30.540  24.725  1.00  0.00     0.000 C 
ENDROOT
BRANCH   1   2
ATOM      2  C   UNL     1     -25.076 -30.932  25.334  1.00  0.00     0.000 C 
BRANCH   2   3
ATOM      3  C   UNL     1     -25.310 -32.454  25.345  1.00  0.00     0.000 C 
BRANCH   3   4
ATOM      4  C   UNL     1     -26.711 -32.902  25.811  1.00  0.00     0.000 C 
BRANCH   4   5
ATOM      5  C   UNL     1     -27.855 -32.653  24.812  1.00  0.00     0.000 C 
BRANCH   5   6
ATOM      6  C   UNL     1     -27.786 -33.565  23.576  1.00  0.00     0.000 C 
BRANCH   6   7
ATOM      7  C   UNL     1     -28.046 -32.813  22.259  1.00  0.00     0.000 C 
BRANCH   7   8
ATOM      8  C   UNL     1     -27.461 -31.391  22.184  1.00  0.00     0.000 C 
BRANCH   8   9
ATOM      9  C   UNL     1     -25.965 -31.377  21.831  1.00  0.00     0.000 C 
BRANCH   9  10
ATOM     10  C   UNL     1     -25.437 -29.967  21.503  1.00  0.00     0.000 C 
BRANCH  10  11
ATOM     11  C   UNL     1     -26.339 -28.801  21.957  1.00  0.00     0.000 C 
BRANCH  11  12
ATOM     12  C   UNL     1     -25.914 -28.105  23.266  1.00  0.00     0.006 C 
BRANCH  12  13
ATOM     13  C   UNL     1     -26.703 -26.819  23.573  1.00  0.00     0.053 C 
BRANCH  13  14
ATOM     14  C   UNL     1     -27.337 -26.846  24.931  1.00  0.00     0.041 C 
ATOM     15  O   UNL     1     -28.285 -27.639  25.173  1.00  0.00    -0.550 OA
ATOM     16  O   UNL     1     -26.904 -25.971  25.920  1.00  0.00    -0.550 OA
ENDBRANCH  13  14
ENDBRANCH  12  13
ENDBRANCH  11  12
ENDBRANCH  10  11
ENDBRANCH   9  10
ENDBRANCH   8   9
ENDBRANCH   7   8
ENDBRANCH   6   7
ENDBRANCH   5   6
ENDBRANCH   4   5
ENDBRANCH   3   4
ENDBRANCH   2   3
ENDBRANCH   1   2
BRANCH   1  17
ATOM     17  C   UNL     1     -22.995 -31.735  24.067  1.00  0.00     0.000 C 
BRANCH  17  18
ATOM     18  C   UNL     1     -21.876 -31.336  23.085  1.00  0.00     0.000 C 
BRANCH  18  19
ATOM     19  C   UNL     1     -20.438 -31.482  23.616  1.00  0.00     0.000 C 
BRANCH  19  20
ATOM     20  C   UNL     1     -19.678 -30.159  23.830  1.00  0.00     0.000 C 
BRANCH  20  21
ATOM     21  C   UNL     1     -19.837 -29.599  25.254  1.00  0.00     0.000 C 
BRANCH  21  22
ATOM     22  C   UNL     1     -20.650 -28.294  25.279  1.00  0.00    -0.000 C 
BRANCH  22  23
ATOM     23  C   UNL     1     -20.974 -27.770  23.868  1.00  0.00    -0.000 C 
BRANCH  23  24
ATOM     24  C   UNL     1     -22.423 -27.265  23.734  1.00  0.00    -0.000 C 
BRANCH  24  25
ATOM     25  C   UNL     1     -22.723 -26.464  22.454  1.00  0.00    -0.000 C 
BRANCH  25  26
ATOM     26  C   UNL     1     -22.935 -27.361  21.223  1.00  0.00    -0.000 C 
BRANCH  26  27
ATOM     27  C   UNL     1     -23.591 -26.618  20.044  1.00  0.00    -0.000 C 
BRANCH  27  28
ATOM     28  C   UNL     1     -24.775 -25.707  20.417  1.00  0.00    -0.000 C 
BRANCH  28  29
ATOM     29  C   UNL     1     -26.018 -25.954  19.550  1.00  0.00    -0.003 C 
ATOM     30  C   UNL     1     -27.028 -24.820  19.705  1.00  0.00     0.004 C 
ENDBRANCH  28  29
ENDBRANCH  27  28
ENDBRANCH  26  27
ENDBRANCH  25  26
ENDBRANCH  24  25
ENDBRANCH  23  24
ENDBRANCH  22  23
ENDBRANCH  21  22
ENDBRANCH  20  21
ENDBRANCH  19  20
ENDBRANCH  18  19
ENDBRANCH  17  18
ENDBRANCH   1  17
TORSDOF 26
ENDMDL
