MODEL 1
REMARK VINA RESULT:    -4.501      0.000      0.000
REMARK INTER + INTRA:          -8.519
REMARK INTER:                  -7.659
REMARK INTRA:                  -0.860
REMARK UNBOUND:                -0.860
REMARK SMILES CCCCCCCCCCCCCC(=O)[O-]
REMARK SMILES IDX 8 1 9 2 10 3 11 4 12 5 13 6 14 7 15 8 16 9 7 10 6 11 5 12
REMARK SMILES IDX 4 13 3 14 2 15 1 16
REMARK H PARENT
REMARK Flexibility Score: inf
ROOT
ATOM      1  C   UNL     1     -11.546   3.215 -40.285  1.00  0.00     0.000 C 
ENDROOT
BRANCH   1   2
ATOM      2  C   UNL     1     -12.433   4.472 -40.317  1.00  0.00     0.000 C 
BRANCH   2   3
ATOM      3  C   UNL     1     -13.833   4.201 -40.886  1.00  0.00     0.000 C 
BRANCH   3   4
ATOM      4  C   UNL     1     -14.694   5.471 -40.854  1.00  0.00     0.000 C 
BRANCH   4   5
ATOM      5  C   UNL     1     -16.145   5.199 -40.416  1.00  0.00     0.006 C 
BRANCH   5   6
ATOM      6  C   UNL     1     -17.074   4.744 -41.553  1.00  0.00     0.053 C 
BRANCH   6   7
ATOM      7  C   UNL     1     -18.014   3.664 -41.111  1.00  0.00     0.041 C 
ATOM      8  O   UNL     1     -19.218   3.683 -41.477  1.00  0.00    -0.550 OA
ATOM      9  O   UNL     1     -17.567   2.657 -40.265  1.00  0.00    -0.550 OA
ENDBRANCH   6   7
ENDBRANCH   5   6
ENDBRANCH   4   5
ENDBRANCH   3   4
ENDBRANCH   2   3
ENDBRANCH   1   2
BRANCH   1  10
ATOM     10  C   UNL     1     -12.058   2.031 -41.129  1.00  0.00     0.000 C 
BRANCH  10  11
ATOM     11  C   UNL     1     -11.173   0.772 -41.094  1.00  0.00    -0.000 C 
BRANCH  11  12
ATOM     12  C   UNL     1     -10.624   0.466 -39.692  1.00  0.00    -0.000 C 
BRANCH  12  13
ATOM     13  C   UNL     1     -11.062  -0.930 -39.225  1.00  0.00    -0.000 C 
BRANCH  13  14
ATOM     14  C   UNL     1     -12.020  -1.612 -40.215  1.00  0.00    -0.000 C 
BRANCH  14  15
ATOM     15  C   UNL     1     -13.394  -1.910 -39.599  1.00  0.00    -0.003 C 
ATOM     16  C   UNL     1     -14.506  -1.200 -40.367  1.00  0.00     0.004 C 
ENDBRANCH  14  15
ENDBRANCH  13  14
ENDBRANCH  12  13
ENDBRANCH  11  12
ENDBRANCH  10  11
ENDBRANCH   1  10
TORSDOF 12
ENDMDL
MODEL 2
REMARK VINA RESULT:    -4.307      1.391      1.730
REMARK INTER + INTRA:          -8.188
REMARK INTER:                  -7.424
REMARK INTRA:                  -0.764
REMARK UNBOUND:                -0.860
REMARK SMILES CCCCCCCCCCCCCC(=O)[O-]
REMARK SMILES IDX 8 1 9 2 10 3 11 4 12 5 13 6 14 7 15 8 16 9 7 10 6 11 5 12
REMARK SMILES IDX 4 13 3 14 2 15 1 16
REMARK H PARENT
REMARK Flexibility Score: inf
ROOT
ATOM      1  C   UNL     1     -12.631   3.684 -40.440  1.00  0.00     0.000 C 
ENDROOT
BRANCH   1   2
ATOM      2  C   UNL     1     -13.420   4.912 -40.928  1.00  0.00     0.000 C 
BRANCH   2   3
ATOM      3  C   UNL     1     -13.837   4.808 -42.402  1.00  0.00     0.000 C 
BRANCH   3   4
ATOM      4  C   UNL     1     -14.918   5.844 -42.741  1.00  0.00     0.000 C 
BRANCH   4   5
ATOM      5  C   UNL     1     -16.207   5.204 -43.291  1.00  0.00     0.006 C 
BRANCH   5   6
ATOM      6  C   UNL     1     -17.445   5.413 -42.404  1.00  0.00     0.053 C 
BRANCH   6   7
ATOM      7  C   UNL     1     -17.206   4.962 -40.995  1.00  0.00     0.041 C 
ATOM      8  O   UNL     1     -17.120   3.735 -40.728  1.00  0.00    -0.550 OA
ATOM      9  O   UNL     1     -17.114   5.898 -39.973  1.00  0.00    -0.550 OA
ENDBRANCH   6   7
ENDBRANCH   5   6
ENDBRANCH   4   5
ENDBRANCH   3   4
ENDBRANCH   2   3
ENDBRANCH   1   2
BRANCH   1  10
ATOM     10  C   UNL     1     -11.847   2.934 -41.536  1.00  0.00     0.000 C 
BRANCH  10  11
ATOM     11  C   UNL     1     -10.773   1.959 -41.019  1.00  0.00    -0.000 C 
BRANCH  11  12
ATOM     12  C   UNL     1     -11.068   0.497 -41.384  1.00  0.00    -0.000 C 
BRANCH  12  13
ATOM     13  C   UNL     1     -12.377   0.023 -40.733  1.00  0.00    -0.000 C 
BRANCH  13  14
ATOM     14  C   UNL     1     -12.245  -1.363 -40.083  1.00  0.00    -0.000 C 
BRANCH  14  15
ATOM     15  C   UNL     1     -13.604  -1.978 -39.720  1.00  0.00    -0.003 C 
ATOM     16  C   UNL     1     -14.745  -1.238 -40.415  1.00  0.00     0.004 C 
ENDBRANCH  14  15
ENDBRANCH  13  14
ENDBRANCH  12  13
ENDBRANCH  11  12
ENDBRANCH  10  11
ENDBRANCH   1  10
TORSDOF 12
ENDMDL
MODEL 3
REMARK VINA RESULT:    -4.275      4.446      6.558
REMARK INTER + INTRA:          -8.134
REMARK INTER:                  -6.255
REMARK INTRA:                  -1.878
REMARK UNBOUND:                -0.860
REMARK SMILES CCCCCCCCCCCCCC(=O)[O-]
REMARK SMILES IDX 8 1 9 2 10 3 11 4 12 5 13 6 14 7 15 8 16 9 7 10 6 11 5 12
REMARK SMILES IDX 4 13 3 14 2 15 1 16
REMARK H PARENT
REMARK Flexibility Score: inf
ROOT
ATOM      1  C   UNL     1     -10.683   1.526 -35.283  1.00  0.00     0.000 C 
ENDROOT
BRANCH   1   2
ATOM      2  C   UNL     1     -10.814   0.062 -35.738  1.00  0.00     0.000 C 
BRANCH   2   3
ATOM      3  C   UNL     1      -9.477  -0.547 -36.185  1.00  0.00     0.000 C 
BRANCH   3   4
ATOM      4  C   UNL     1      -9.616  -1.228 -37.554  1.00  0.00     0.000 C 
BRANCH   4   5
ATOM      5  C   UNL     1     -10.960  -0.923 -38.240  1.00  0.00     0.006 C 
BRANCH   5   6
ATOM      6  C   UNL     1     -11.249  -1.786 -39.478  1.00  0.00     0.053 C 
BRANCH   6   7
ATOM      7  C   UNL     1     -12.704  -1.787 -39.833  1.00  0.00     0.041 C 
ATOM      8  O   UNL     1     -13.186  -0.862 -40.538  1.00  0.00    -0.550 OA
ATOM      9  O   UNL     1     -13.535  -2.793 -39.356  1.00  0.00    -0.550 OA
ENDBRANCH   6   7
ENDBRANCH   5   6
ENDBRANCH   4   5
ENDBRANCH   3   4
ENDBRANCH   2   3
ENDBRANCH   1   2
BRANCH   1  10
ATOM     10  C   UNL     1      -9.796   2.413 -36.180  1.00  0.00     0.000 C 
BRANCH  10  11
ATOM     11  C   UNL     1     -10.417   2.799 -37.535  1.00  0.00    -0.000 C 
BRANCH  11  12
ATOM     12  C   UNL     1      -9.524   2.429 -38.728  1.00  0.00    -0.000 C 
BRANCH  12  13
ATOM     13  C   UNL     1     -10.343   2.362 -40.027  1.00  0.00    -0.000 C 
BRANCH  13  14
ATOM     14  C   UNL     1      -9.834   1.280 -40.992  1.00  0.00    -0.000 C 
BRANCH  14  15
ATOM     15  C   UNL     1      -8.337   0.989 -40.818  1.00  0.00    -0.003 C 
ATOM     16  C   UNL     1      -8.040  -0.496 -41.015  1.00  0.00     0.004 C 
ENDBRANCH  14  15
ENDBRANCH  13  14
ENDBRANCH  12  13
ENDBRANCH  11  12
ENDBRANCH  10  11
ENDBRANCH   1  10
TORSDOF 12
ENDMDL
MODEL 4
REMARK VINA RESULT:    -4.234      4.440      5.851
REMARK INTER + INTRA:          -8.064
REMARK INTER:                  -6.144
REMARK INTRA:                  -1.920
REMARK UNBOUND:                -0.860
REMARK SMILES CCCCCCCCCCCCCC(=O)[O-]
REMARK SMILES IDX 8 1 9 2 10 3 11 4 12 5 13 6 14 7 15 8 16 9 7 10 6 11 5 12
REMARK SMILES IDX 4 13 3 14 2 15 1 16
REMARK H PARENT
REMARK Flexibility Score: inf
ROOT
ATOM      1  C   UNL     1      -7.455   0.596 -40.922  1.00  0.00     0.000 C 
ENDROOT
BRANCH   1   2
ATOM      2  C   UNL     1      -8.444   1.501 -40.166  1.00  0.00     0.000 C 
BRANCH   2   3
ATOM      3  C   UNL     1      -9.805   1.615 -40.867  1.00  0.00     0.000 C 
BRANCH   3   4
ATOM      4  C   UNL     1     -10.902   0.914 -40.053  1.00  0.00     0.000 C 
BRANCH   4   5
ATOM      5  C   UNL     1     -11.517  -0.288 -40.792  1.00  0.00     0.006 C 
BRANCH   5   6
ATOM      6  C   UNL     1     -11.773  -1.514 -39.901  1.00  0.00     0.053 C 
BRANCH   6   7
ATOM      7  C   UNL     1     -13.229  -1.859 -39.827  1.00  0.00     0.041 C 
ATOM      8  O   UNL     1     -13.598  -2.943 -39.305  1.00  0.00    -0.550 OA
ATOM      9  O   UNL     1     -14.176  -0.997 -40.366  1.00  0.00    -0.550 OA
ENDBRANCH   6   7
ENDBRANCH   5   6
ENDBRANCH   4   5
ENDBRANCH   3   4
ENDBRANCH   2   3
ENDBRANCH   1   2
BRANCH   1  10
ATOM     10  C   UNL     1      -7.541  -0.903 -40.571  1.00  0.00     0.000 C 
BRANCH  10  11
ATOM     11  C   UNL     1      -7.399  -1.234 -39.075  1.00  0.00    -0.000 C 
BRANCH  11  12
ATOM     12  C   UNL     1      -8.417  -2.279 -38.594  1.00  0.00    -0.000 C 
BRANCH  12  13
ATOM     13  C   UNL     1      -9.244  -1.738 -37.417  1.00  0.00    -0.000 C 
BRANCH  13  14
ATOM     14  C   UNL     1      -8.712  -0.397 -36.888  1.00  0.00    -0.000 C 
BRANCH  14  15
ATOM     15  C   UNL     1      -9.831   0.619 -36.623  1.00  0.00    -0.003 C 
ATOM     16  C   UNL     1     -10.971  -0.013 -35.829  1.00  0.00     0.004 C 
ENDBRANCH  14  15
ENDBRANCH  13  14
ENDBRANCH  12  13
ENDBRANCH  11  12
ENDBRANCH  10  11
ENDBRANCH   1  10
TORSDOF 12
ENDMDL
MODEL 5
REMARK VINA RESULT:    -4.176      4.252      7.352
REMARK INTER + INTRA:          -7.966
REMARK INTER:                  -6.081
REMARK INTRA:                  -1.884
REMARK UNBOUND:                -0.860
REMARK SMILES CCCCCCCCCCCCCC(=O)[O-]
REMARK SMILES IDX 8 1 9 2 10 3 11 4 12 5 13 6 14 7 15 8 16 9 7 10 6 11 5 12
REMARK SMILES IDX 4 13 3 14 2 15 1 16
REMARK H PARENT
REMARK Flexibility Score: inf
ROOT
ATOM      1  C   UNL     1     -15.634   5.278 -44.591  1.00  0.00     0.000 C 
ENDROOT
BRANCH   1   2
ATOM      2  C   UNL     1     -14.433   5.105 -43.643  1.00  0.00     0.000 C 
BRANCH   2   3
ATOM      3  C   UNL     1     -14.252   6.291 -42.685  1.00  0.00     0.000 C 
BRANCH   3   4
ATOM      4  C   UNL     1     -14.051   5.805 -41.243  1.00  0.00     0.000 C 
BRANCH   4   5
ATOM      5  C   UNL     1     -15.014   4.667 -40.856  1.00  0.00     0.006 C 
BRANCH   5   6
ATOM      6  C   UNL     1     -16.439   5.133 -40.517  1.00  0.00     0.053 C 
BRANCH   6   7
ATOM      7  C   UNL     1     -17.472   4.145 -40.966  1.00  0.00     0.041 C 
ATOM      8  O   UNL     1     -18.325   4.471 -41.833  1.00  0.00    -0.550 OA
ATOM      9  O   UNL     1     -17.513   2.877 -40.402  1.00  0.00    -0.550 OA
ENDBRANCH   6   7
ENDBRANCH   5   6
ENDBRANCH   4   5
ENDBRANCH   3   4
ENDBRANCH   2   3
ENDBRANCH   1   2
BRANCH   1  10
ATOM     10  C   UNL     1     -16.149   6.724 -44.736  1.00  0.00     0.000 C 
BRANCH  10  11
ATOM     11  C   UNL     1     -17.594   6.954 -44.257  1.00  0.00    -0.000 C 
BRANCH  11  12
ATOM     12  C   UNL     1     -17.749   8.229 -43.416  1.00  0.00    -0.000 C 
BRANCH  12  13
ATOM     13  C   UNL     1     -17.640   7.914 -41.916  1.00  0.00    -0.000 C 
BRANCH  13  14
ATOM     14  C   UNL     1     -16.687   8.867 -41.179  1.00  0.00    -0.000 C 
BRANCH  14  15
ATOM     15  C   UNL     1     -15.822   9.697 -42.137  1.00  0.00    -0.003 C 
ATOM     16  C   UNL     1     -14.369   9.736 -41.672  1.00  0.00     0.004 C 
ENDBRANCH  14  15
ENDBRANCH  13  14
ENDBRANCH  12  13
ENDBRANCH  11  12
ENDBRANCH  10  11
ENDBRANCH   1  10
TORSDOF 12
ENDMDL
MODEL 6
REMARK VINA RESULT:    -4.174      4.153      6.750
REMARK INTER + INTRA:          -7.963
REMARK INTER:                  -6.135
REMARK INTRA:                  -1.828
REMARK UNBOUND:                -0.860
REMARK SMILES CCCCCCCCCCCCCC(=O)[O-]
REMARK SMILES IDX 8 1 9 2 10 3 11 4 12 5 13 6 14 7 15 8 16 9 7 10 6 11 5 12
REMARK SMILES IDX 4 13 3 14 2 15 1 16
REMARK H PARENT
REMARK Flexibility Score: inf
ROOT
ATOM      1  C   UNL     1     -17.175   6.134 -44.575  1.00  0.00     0.000 C 
ENDROOT
BRANCH   1   2
ATOM      2  C   UNL     1     -16.233   5.000 -44.134  1.00  0.00     0.000 C 
BRANCH   2   3
ATOM      3  C   UNL     1     -14.980   4.888 -45.015  1.00  0.00     0.000 C 
BRANCH   3   4
ATOM      4  C   UNL     1     -13.781   5.581 -44.355  1.00  0.00     0.000 C 
BRANCH   4   5
ATOM      5  C   UNL     1     -13.252   4.818 -43.126  1.00  0.00     0.006 C 
BRANCH   5   6
ATOM      6  C   UNL     1     -13.371   5.591 -41.803  1.00  0.00     0.053 C 
BRANCH   6   7
ATOM      7  C   UNL     1     -12.940   4.764 -40.630  1.00  0.00     0.041 C 
ATOM      8  O   UNL     1     -13.247   3.545 -40.568  1.00  0.00    -0.550 OA
ATOM      9  O   UNL     1     -12.228   5.349 -39.591  1.00  0.00    -0.550 OA
ENDBRANCH   6   7
ENDBRANCH   5   6
ENDBRANCH   4   5
ENDBRANCH   3   4
ENDBRANCH   2   3
ENDBRANCH   1   2
BRANCH   1  10
ATOM     10  C   UNL     1     -17.598   7.105 -43.455  1.00  0.00     0.000 C 
BRANCH  10  11
ATOM     11  C   UNL     1     -16.539   7.346 -42.364  1.00  0.00    -0.000 C 
BRANCH  11  12
ATOM     12  C   UNL     1     -17.150   7.510 -40.964  1.00  0.00    -0.000 C 
BRANCH  12  13
ATOM     13  C   UNL     1     -17.688   6.169 -40.441  1.00  0.00    -0.000 C 
BRANCH  13  14
ATOM     14  C   UNL     1     -16.612   5.073 -40.407  1.00  0.00    -0.000 C 
BRANCH  14  15
ATOM     15  C   UNL     1     -17.184   3.673 -40.671  1.00  0.00    -0.003 C 
ATOM     16  C   UNL     1     -18.447   3.748 -41.526  1.00  0.00     0.004 C 
ENDBRANCH  14  15
ENDBRANCH  13  14
ENDBRANCH  12  13
ENDBRANCH  11  12
ENDBRANCH  10  11
ENDBRANCH   1  10
TORSDOF 12
ENDMDL
MODEL 7
REMARK VINA RESULT:    -4.162      3.589      6.971
REMARK INTER + INTRA:          -7.943
REMARK INTER:                  -7.148
REMARK INTRA:                  -0.795
REMARK UNBOUND:                -0.860
REMARK SMILES CCCCCCCCCCCCCC(=O)[O-]
REMARK SMILES IDX 8 1 9 2 10 3 11 4 12 5 13 6 14 7 15 8 16 9 7 10 6 11 5 12
REMARK SMILES IDX 4 13 3 14 2 15 1 16
REMARK H PARENT
REMARK Flexibility Score: inf
ROOT
ATOM      1  C   UNL     1     -12.194   3.028 -41.379  1.00  0.00     0.000 C 
ENDROOT
BRANCH   1   2
ATOM      2  C   UNL     1     -11.331   2.188 -40.422  1.00  0.00     0.000 C 
BRANCH   2   3
ATOM      3  C   UNL     1     -10.307   1.310 -41.155  1.00  0.00     0.000 C 
BRANCH   3   4
ATOM      4  C   UNL     1     -10.891  -0.077 -41.458  1.00  0.00     0.000 C 
BRANCH   4   5
ATOM      5  C   UNL     1     -12.048  -0.457 -40.516  1.00  0.00     0.006 C 
BRANCH   5   6
ATOM      6  C   UNL     1     -11.858  -1.798 -39.789  1.00  0.00     0.053 C 
BRANCH   6   7
ATOM      7  C   UNL     1     -10.523  -1.884 -39.114  1.00  0.00     0.041 C 
ATOM      8  O   UNL     1     -10.239  -1.103 -38.169  1.00  0.00    -0.550 OA
ATOM      9  O   UNL     1      -9.582  -2.806 -39.552  1.00  0.00    -0.550 OA
ENDBRANCH   6   7
ENDBRANCH   5   6
ENDBRANCH   4   5
ENDBRANCH   3   4
ENDBRANCH   2   3
ENDBRANCH   1   2
BRANCH   1  10
ATOM     10  C   UNL     1     -13.419   3.706 -40.732  1.00  0.00     0.000 C 
BRANCH  10  11
ATOM     11  C   UNL     1     -13.483   5.235 -40.896  1.00  0.00    -0.000 C 
BRANCH  11  12
ATOM     12  C   UNL     1     -14.901   5.745 -41.193  1.00  0.00    -0.000 C 
BRANCH  12  13
ATOM     13  C   UNL     1     -15.958   4.741 -40.706  1.00  0.00    -0.000 C 
BRANCH  13  14
ATOM     14  C   UNL     1     -17.165   4.649 -41.653  1.00  0.00    -0.000 C 
BRANCH  14  15
ATOM     15  C   UNL     1     -18.103   3.486 -41.302  1.00  0.00    -0.003 C 
ATOM     16  C   UNL     1     -17.455   2.541 -40.293  1.00  0.00     0.004 C 
ENDBRANCH  14  15
ENDBRANCH  13  14
ENDBRANCH  12  13
ENDBRANCH  11  12
ENDBRANCH  10  11
ENDBRANCH   1  10
TORSDOF 12
ENDMDL
MODEL 8
REMARK VINA RESULT:    -4.126      4.196      6.827
REMARK INTER + INTRA:          -7.880
REMARK INTER:                  -6.409
REMARK INTRA:                  -1.471
REMARK UNBOUND:                -0.860
REMARK SMILES CCCCCCCCCCCCCC(=O)[O-]
REMARK SMILES IDX 8 1 9 2 10 3 11 4 12 5 13 6 14 7 15 8 16 9 7 10 6 11 5 12
REMARK SMILES IDX 4 13 3 14 2 15 1 16
REMARK H PARENT
REMARK Flexibility Score: inf
ROOT
ATOM      1  C   UNL     1     -15.636   9.505 -42.061  1.00  0.00     0.000 C 
ENDROOT
BRANCH   1   2
ATOM      2  C   UNL     1     -14.161   9.133 -41.828  1.00  0.00     0.000 C 
BRANCH   2   3
ATOM      3  C   UNL     1     -13.915   7.618 -41.856  1.00  0.00     0.000 C 
BRANCH   3   4
ATOM      4  C   UNL     1     -14.177   7.046 -43.257  1.00  0.00     0.000 C 
BRANCH   4   5
ATOM      5  C   UNL     1     -14.174   5.507 -43.284  1.00  0.00     0.006 C 
BRANCH   5   6
ATOM      6  C   UNL     1     -13.644   4.853 -41.998  1.00  0.00     0.053 C 
BRANCH   6   7
ATOM      7  C   UNL     1     -12.440   3.999 -42.258  1.00  0.00     0.041 C 
ATOM      8  O   UNL     1     -11.960   3.919 -43.419  1.00  0.00    -0.550 OA
ATOM      9  O   UNL     1     -11.871   3.267 -41.225  1.00  0.00    -0.550 OA
ENDBRANCH   6   7
ENDBRANCH   5   6
ENDBRANCH   4   5
ENDBRANCH   3   4
ENDBRANCH   2   3
ENDBRANCH   1   2
BRANCH   1  10
ATOM     10  C   UNL     1     -16.620   8.977 -40.998  1.00  0.00     0.000 C 
BRANCH  10  11
ATOM     11  C   UNL     1     -17.574   7.871 -41.482  1.00  0.00    -0.000 C 
BRANCH  11  12
ATOM     12  C   UNL     1     -17.913   6.851 -40.384  1.00  0.00    -0.000 C 
BRANCH  12  13
ATOM     13  C   UNL     1     -17.051   5.587 -40.524  1.00  0.00    -0.000 C 
BRANCH  13  14
ATOM     14  C   UNL     1     -17.390   4.778 -41.786  1.00  0.00    -0.000 C 
BRANCH  14  15
ATOM     15  C   UNL     1     -18.343   3.609 -41.501  1.00  0.00    -0.003 C 
ATOM     16  C   UNL     1     -17.756   2.665 -40.453  1.00  0.00     0.004 C 
ENDBRANCH  14  15
ENDBRANCH  13  14
ENDBRANCH  12  13
ENDBRANCH  11  12
ENDBRANCH  10  11
ENDBRANCH   1  10
TORSDOF 12
ENDMDL
MODEL 9
REMARK VINA RESULT:    -4.074      2.490      3.983
REMARK INTER + INTRA:          -7.792
REMARK INTER:                  -6.931
REMARK INTRA:                  -0.860
REMARK UNBOUND:                -0.860
REMARK SMILES CCCCCCCCCCCCCC(=O)[O-]
REMARK SMILES IDX 8 1 9 2 10 3 11 4 12 5 13 6 14 7 15 8 16 9 7 10 6 11 5 12
REMARK SMILES IDX 4 13 3 14 2 15 1 16
REMARK H PARENT
REMARK Flexibility Score: inf
ROOT
ATOM      1  C   UNL     1     -15.192   4.982 -40.933  1.00  0.00     0.000 C 
ENDROOT
BRANCH   1   2
ATOM      2  C   UNL     1     -16.452   4.259 -40.424  1.00  0.00     0.000 C 
BRANCH   2   3
ATOM      3  C   UNL     1     -17.593   4.251 -41.452  1.00  0.00     0.000 C 
BRANCH   3   4
ATOM      4  C   UNL     1     -17.382   5.340 -42.513  1.00  0.00     0.000 C 
BRANCH   4   5
ATOM      5  C   UNL     1     -18.425   6.470 -42.425  1.00  0.00     0.006 C 
BRANCH   5   6
ATOM      6  C   UNL     1     -17.826   7.886 -42.449  1.00  0.00     0.053 C 
BRANCH   6   7
ATOM      7  C   UNL     1     -17.103   8.210 -41.178  1.00  0.00     0.041 C 
ATOM      8  O   UNL     1     -15.993   8.804 -41.214  1.00  0.00    -0.550 OA
ATOM      9  O   UNL     1     -17.640   7.827 -39.956  1.00  0.00    -0.550 OA
ENDBRANCH   6   7
ENDBRANCH   5   6
ENDBRANCH   4   5
ENDBRANCH   3   4
ENDBRANCH   2   3
ENDBRANCH   1   2
BRANCH   1  10
ATOM     10  C   UNL     1     -13.886   4.171 -40.829  1.00  0.00     0.000 C 
BRANCH  10  11
ATOM     11  C   UNL     1     -12.833   4.485 -41.908  1.00  0.00    -0.000 C 
BRANCH  11  12
ATOM     12  C   UNL     1     -11.791   3.368 -42.069  1.00  0.00    -0.000 C 
BRANCH  12  13
ATOM     13  C   UNL     1     -12.145   2.157 -41.192  1.00  0.00    -0.000 C 
BRANCH  13  14
ATOM     14  C   UNL     1     -10.996   1.141 -41.095  1.00  0.00    -0.000 C 
BRANCH  14  15
ATOM     15  C   UNL     1     -11.483  -0.270 -40.739  1.00  0.00    -0.003 C 
ATOM     16  C   UNL     1     -10.462  -1.325 -41.157  1.00  0.00     0.004 C 
ENDBRANCH  14  15
ENDBRANCH  13  14
ENDBRANCH  12  13
ENDBRANCH  11  12
ENDBRANCH  10  11
ENDBRANCH   1  10
TORSDOF 12
ENDMDL
