MODEL 1
REMARK VINA RESULT:    -3.910      0.000      0.000
REMARK INTER + INTRA:          -9.442
REMARK INTER:                  -7.568
REMARK INTRA:                  -1.875
REMARK UNBOUND:                -1.875
REMARK SMILES CCCCCCCCCCCCCCCCCC(=O)[O-]
REMARK SMILES IDX 10 1 11 2 12 3 13 4 14 5 15 6 16 7 17 8 18 9 19 10 20 11
REMARK SMILES IDX 9 12 8 13 7 14 6 15 5 16 4 17 3 18 2 19 1 20
REMARK H PARENT
REMARK Flexibility Score: inf
ROOT
ATOM      1  C   UNL     1      -1.965  -7.364  36.140  1.00  0.00     0.000 C 
ENDROOT
BRANCH   1   2
ATOM      2  C   UNL     1      -0.671  -7.768  36.867  1.00  0.00     0.000 C 
BRANCH   2   3
ATOM      3  C   UNL     1      -0.864  -8.965  37.815  1.00  0.00     0.000 C 
BRANCH   3   4
ATOM      4  C   UNL     1      -0.348  -8.753  39.250  1.00  0.00     0.000 C 
BRANCH   4   5
ATOM      5  C   UNL     1      -1.447  -8.302  40.224  1.00  0.00     0.000 C 
BRANCH   5   6
ATOM      6  C   UNL     1      -2.750  -9.075  39.974  1.00  0.00     0.000 C 
BRANCH   6   7
ATOM      7  C   UNL     1      -3.275  -9.776  41.237  1.00  0.00     0.006 C 
BRANCH   7   8
ATOM      8  C   UNL     1      -2.155 -10.431  42.057  1.00  0.00     0.053 C 
BRANCH   8   9
ATOM      9  C   UNL     1      -2.170 -11.915  41.868  1.00  0.00     0.041 C 
ATOM     10  O   UNL     1      -2.963 -12.440  41.044  1.00  0.00    -0.550 OA
ATOM     11  O   UNL     1      -1.272 -12.714  42.565  1.00  0.00    -0.550 OA
ENDBRANCH   8   9
ENDBRANCH   7   8
ENDBRANCH   6   7
ENDBRANCH   5   6
ENDBRANCH   4   5
ENDBRANCH   3   4
ENDBRANCH   2   3
ENDBRANCH   1   2
BRANCH   1  12
ATOM     12  C   UNL     1      -2.967  -6.657  37.068  1.00  0.00     0.000 C 
BRANCH  12  13
ATOM     13  C   UNL     1      -4.360  -7.310  37.043  1.00  0.00    -0.000 C 
BRANCH  13  14
ATOM     14  C   UNL     1      -5.480  -6.298  36.752  1.00  0.00    -0.000 C 
BRANCH  14  15
ATOM     15  C   UNL     1      -4.946  -4.881  36.494  1.00  0.00    -0.000 C 
BRANCH  15  16
ATOM     16  C   UNL     1      -5.229  -4.442  35.053  1.00  0.00    -0.000 C 
BRANCH  16  17
ATOM     17  C   UNL     1      -3.964  -3.875  34.390  1.00  0.00    -0.000 C 
BRANCH  17  18
ATOM     18  C   UNL     1      -3.182  -4.952  33.608  1.00  0.00    -0.000 C 
BRANCH  18  19
ATOM     19  C   UNL     1      -4.035  -5.695  32.567  1.00  0.00    -0.003 C 
ATOM     20  C   UNL     1      -3.276  -5.993  31.275  1.00  0.00     0.004 C 
ENDBRANCH  18  19
ENDBRANCH  17  18
ENDBRANCH  16  17
ENDBRANCH  15  16
ENDBRANCH  14  15
ENDBRANCH  13  14
ENDBRANCH  12  13
ENDBRANCH   1  12
TORSDOF 16
ENDMDL
MODEL 2
REMARK VINA RESULT:    -3.887      0.873      1.497
REMARK INTER + INTRA:          -9.397
REMARK INTER:                  -7.294
REMARK INTRA:                  -2.103
REMARK UNBOUND:                -1.875
REMARK SMILES CCCCCCCCCCCCCCCCCC(=O)[O-]
REMARK SMILES IDX 10 1 11 2 12 3 13 4 14 5 15 6 16 7 17 8 18 9 19 10 20 11
REMARK SMILES IDX 9 12 8 13 7 14 6 15 5 16 4 17 3 18 2 19 1 20
REMARK H PARENT
REMARK Flexibility Score: inf
ROOT
ATOM      1  C   UNL     1      -2.237  -8.862  36.362  1.00  0.00     0.000 C 
ENDROOT
BRANCH   1   2
ATOM      2  C   UNL     1      -1.435  -9.744  37.333  1.00  0.00     0.000 C 
BRANCH   2   3
ATOM      3  C   UNL     1      -0.250  -9.002  37.978  1.00  0.00     0.000 C 
BRANCH   3   4
ATOM      4  C   UNL     1      -0.274  -8.946  39.517  1.00  0.00     0.000 C 
BRANCH   4   5
ATOM      5  C   UNL     1      -1.674  -8.670  40.086  1.00  0.00     0.000 C 
BRANCH   5   6
ATOM      6  C   UNL     1      -2.035  -9.693  41.173  1.00  0.00     0.000 C 
BRANCH   6   7
ATOM      7  C   UNL     1      -1.284 -11.024  41.008  1.00  0.00     0.006 C 
BRANCH   7   8
ATOM      8  C   UNL     1      -1.224 -11.833  42.310  1.00  0.00     0.053 C 
BRANCH   8   9
ATOM      9  C   UNL     1      -2.086 -13.051  42.206  1.00  0.00     0.041 C 
ATOM     10  O   UNL     1      -3.048 -13.080  41.394  1.00  0.00    -0.550 OA
ATOM     11  O   UNL     1      -1.796 -14.176  42.970  1.00  0.00    -0.550 OA
ENDBRANCH   8   9
ENDBRANCH   7   8
ENDBRANCH   6   7
ENDBRANCH   5   6
ENDBRANCH   4   5
ENDBRANCH   3   4
ENDBRANCH   2   3
ENDBRANCH   1   2
BRANCH   1  12
ATOM     12  C   UNL     1      -1.898  -7.369  36.504  1.00  0.00     0.000 C 
BRANCH  12  13
ATOM     13  C   UNL     1      -2.950  -6.597  37.321  1.00  0.00    -0.000 C 
BRANCH  13  14
ATOM     14  C   UNL     1      -4.345  -7.237  37.241  1.00  0.00    -0.000 C 
BRANCH  14  15
ATOM     15  C   UNL     1      -5.409  -6.273  36.697  1.00  0.00    -0.000 C 
BRANCH  15  16
ATOM     16  C   UNL     1      -4.816  -4.879  36.458  1.00  0.00    -0.000 C 
BRANCH  16  17
ATOM     17  C   UNL     1      -5.189  -4.351  35.065  1.00  0.00    -0.000 C 
BRANCH  17  18
ATOM     18  C   UNL     1      -3.947  -3.959  34.237  1.00  0.00    -0.000 C 
BRANCH  18  19
ATOM     19  C   UNL     1      -3.108  -5.164  33.780  1.00  0.00    -0.003 C 
ATOM     20  C   UNL     1      -3.920  -6.198  33.002  1.00  0.00     0.004 C 
ENDBRANCH  18  19
ENDBRANCH  17  18
ENDBRANCH  16  17
ENDBRANCH  15  16
ENDBRANCH  14  15
ENDBRANCH  13  14
ENDBRANCH  12  13
ENDBRANCH   1  12
TORSDOF 16
ENDMDL
MODEL 3
REMARK VINA RESULT:    -3.817      1.536      2.547
REMARK INTER + INTRA:          -9.262
REMARK INTER:                  -6.812
REMARK INTRA:                  -2.450
REMARK UNBOUND:                -1.875
REMARK SMILES CCCCCCCCCCCCCCCCCC(=O)[O-]
REMARK SMILES IDX 10 1 11 2 12 3 13 4 14 5 15 6 16 7 17 8 18 9 19 10 20 11
REMARK SMILES IDX 9 12 8 13 7 14 6 15 5 16 4 17 3 18 2 19 1 20
REMARK H PARENT
REMARK Flexibility Score: inf
ROOT
ATOM      1  C   UNL     1      -3.822  -7.470  36.992  1.00  0.00     0.000 C 
ENDROOT
BRANCH   1   2
ATOM      2  C   UNL     1      -2.530  -6.640  37.075  1.00  0.00     0.000 C 
BRANCH   2   3
ATOM      3  C   UNL     1      -1.257  -7.504  37.017  1.00  0.00     0.000 C 
BRANCH   3   4
ATOM      4  C   UNL     1      -1.325  -8.823  37.809  1.00  0.00     0.000 C 
BRANCH   4   5
ATOM      5  C   UNL     1      -0.518  -8.781  39.115  1.00  0.00     0.000 C 
BRANCH   5   6
ATOM      6  C   UNL     1      -1.362  -8.210  40.263  1.00  0.00     0.000 C 
BRANCH   6   7
ATOM      7  C   UNL     1      -2.134  -9.296  41.029  1.00  0.00     0.006 C 
BRANCH   7   8
ATOM      8  C   UNL     1      -3.642  -9.259  40.746  1.00  0.00     0.053 C 
BRANCH   8   9
ATOM      9  C   UNL     1      -4.405  -9.790  41.919  1.00  0.00     0.041 C 
ATOM     10  O   UNL     1      -5.459  -9.217  42.301  1.00  0.00    -0.550 OA
ATOM     11  O   UNL     1      -3.980 -10.948  42.558  1.00  0.00    -0.550 OA
ENDBRANCH   8   9
ENDBRANCH   7   8
ENDBRANCH   6   7
ENDBRANCH   5   6
ENDBRANCH   4   5
ENDBRANCH   3   4
ENDBRANCH   2   3
ENDBRANCH   1   2
BRANCH   1  12
ATOM     12  C   UNL     1      -5.030  -6.637  36.532  1.00  0.00     0.000 C 
BRANCH  12  13
ATOM     13  C   UNL     1      -4.737  -5.126  36.515  1.00  0.00    -0.000 C 
BRANCH  13  14
ATOM     14  C   UNL     1      -5.162  -4.457  35.199  1.00  0.00    -0.000 C 
BRANCH  14  15
ATOM     15  C   UNL     1      -3.982  -3.825  34.447  1.00  0.00    -0.000 C 
BRANCH  15  16
ATOM     16  C   UNL     1      -3.157  -4.894  33.721  1.00  0.00    -0.000 C 
BRANCH  16  17
ATOM     17  C   UNL     1      -4.036  -5.714  32.764  1.00  0.00    -0.000 C 
BRANCH  17  18
ATOM     18  C   UNL     1      -3.912  -7.232  33.015  1.00  0.00    -0.000 C 
BRANCH  18  19
ATOM     19  C   UNL     1      -2.491  -7.678  33.395  1.00  0.00    -0.003 C 
ATOM     20  C   UNL     1      -2.436  -9.108  33.929  1.00  0.00     0.004 C 
ENDBRANCH  18  19
ENDBRANCH  17  18
ENDBRANCH  16  17
ENDBRANCH  15  16
ENDBRANCH  14  15
ENDBRANCH  13  14
ENDBRANCH  12  13
ENDBRANCH   1  12
TORSDOF 16
ENDMDL
MODEL 4
REMARK VINA RESULT:    -3.811      1.414      2.915
REMARK INTER + INTRA:          -9.250
REMARK INTER:                  -7.766
REMARK INTRA:                  -1.484
REMARK UNBOUND:                -1.875
REMARK SMILES CCCCCCCCCCCCCCCCCC(=O)[O-]
REMARK SMILES IDX 10 1 11 2 12 3 13 4 14 5 15 6 16 7 17 8 18 9 19 10 20 11
REMARK SMILES IDX 9 12 8 13 7 14 6 15 5 16 4 17 3 18 2 19 1 20
REMARK H PARENT
REMARK Flexibility Score: inf
ROOT
ATOM      1  C   UNL     1      -0.714  -9.156  37.714  1.00  0.00     0.000 C 
ENDROOT
BRANCH   1   2
ATOM      2  C   UNL     1      -0.272  -9.074  39.184  1.00  0.00     0.000 C 
BRANCH   2   3
ATOM      3  C   UNL     1      -1.376  -8.539  40.114  1.00  0.00     0.000 C 
BRANCH   3   4
ATOM      4  C   UNL     1      -2.315  -9.610  40.698  1.00  0.00     0.000 C 
BRANCH   4   5
ATOM      5  C   UNL     1      -1.653 -10.992  40.812  1.00  0.00     0.000 C 
BRANCH   5   6
ATOM      6  C   UNL     1      -1.230 -11.279  42.260  1.00  0.00     0.000 C 
BRANCH   6   7
ATOM      7  C   UNL     1      -1.352 -12.766  42.629  1.00  0.00     0.006 C 
BRANCH   7   8
ATOM      8  C   UNL     1      -2.710 -13.362  42.235  1.00  0.00     0.053 C 
BRANCH   8   9
ATOM      9  C   UNL     1      -2.896 -14.702  42.875  1.00  0.00     0.041 C 
ATOM     10  O   UNL     1      -1.911 -15.307  43.375  1.00  0.00    -0.550 OA
ATOM     11  O   UNL     1      -4.165 -15.260  42.965  1.00  0.00    -0.550 OA
ENDBRANCH   8   9
ENDBRANCH   7   8
ENDBRANCH   6   7
ENDBRANCH   5   6
ENDBRANCH   4   5
ENDBRANCH   3   4
ENDBRANCH   2   3
ENDBRANCH   1   2
BRANCH   1  12
ATOM     12  C   UNL     1      -0.623  -7.799  36.994  1.00  0.00     0.000 C 
BRANCH  12  13
ATOM     13  C   UNL     1      -1.964  -7.367  36.373  1.00  0.00    -0.000 C 
BRANCH  13  14
ATOM     14  C   UNL     1      -2.874  -6.644  37.379  1.00  0.00    -0.000 C 
BRANCH  14  15
ATOM     15  C   UNL     1      -4.272  -7.273  37.471  1.00  0.00    -0.000 C 
BRANCH  15  16
ATOM     16  C   UNL     1      -5.300  -6.442  36.693  1.00  0.00    -0.000 C 
BRANCH  16  17
ATOM     17  C   UNL     1      -4.841  -4.983  36.557  1.00  0.00    -0.000 C 
BRANCH  17  18
ATOM     18  C   UNL     1      -5.194  -4.386  35.177  1.00  0.00    -0.000 C 
BRANCH  18  19
ATOM     19  C   UNL     1      -3.965  -3.938  34.369  1.00  0.00    -0.003 C 
ATOM     20  C   UNL     1      -3.262  -5.093  33.659  1.00  0.00     0.004 C 
ENDBRANCH  18  19
ENDBRANCH  17  18
ENDBRANCH  16  17
ENDBRANCH  15  16
ENDBRANCH  14  15
ENDBRANCH  13  14
ENDBRANCH  12  13
ENDBRANCH   1  12
TORSDOF 16
ENDMDL
MODEL 5
REMARK VINA RESULT:    -3.809      3.674      7.816
REMARK INTER + INTRA:          -9.246
REMARK INTER:                  -6.909
REMARK INTRA:                  -2.337
REMARK UNBOUND:                -1.875
REMARK SMILES CCCCCCCCCCCCCCCCCC(=O)[O-]
REMARK SMILES IDX 10 1 11 2 12 3 13 4 14 5 15 6 16 7 17 8 18 9 19 10 20 11
REMARK SMILES IDX 9 12 8 13 7 14 6 15 5 16 4 17 3 18 2 19 1 20
REMARK H PARENT
REMARK Flexibility Score: inf
ROOT
ATOM      1  C   UNL     1      -1.471  -8.022  39.746  1.00  0.00     0.000 C 
ENDROOT
BRANCH   1   2
ATOM      2  C   UNL     1      -1.375  -8.466  38.276  1.00  0.00     0.000 C 
BRANCH   2   3
ATOM      3  C   UNL     1      -1.429  -7.286  37.289  1.00  0.00     0.000 C 
BRANCH   3   4
ATOM      4  C   UNL     1      -2.742  -7.159  36.493  1.00  0.00     0.000 C 
BRANCH   4   5
ATOM      5  C   UNL     1      -3.614  -5.983  36.958  1.00  0.00     0.000 C 
BRANCH   5   6
ATOM      6  C   UNL     1      -4.872  -5.857  36.088  1.00  0.00     0.000 C 
BRANCH   6   7
ATOM      7  C   UNL     1      -5.056  -4.443  35.512  1.00  0.00     0.006 C 
BRANCH   7   8
ATOM      8  C   UNL     1      -3.909  -4.033  34.579  1.00  0.00     0.053 C 
BRANCH   8   9
ATOM      9  C   UNL     1      -3.749  -5.034  33.479  1.00  0.00     0.041 C 
ATOM     10  O   UNL     1      -2.643  -5.606  33.298  1.00  0.00    -0.550 OA
ATOM     11  O   UNL     1      -4.838  -5.372  32.683  1.00  0.00    -0.550 OA
ENDBRANCH   8   9
ENDBRANCH   7   8
ENDBRANCH   6   7
ENDBRANCH   5   6
ENDBRANCH   4   5
ENDBRANCH   3   4
ENDBRANCH   2   3
ENDBRANCH   1   2
BRANCH   1  12
ATOM     12  C   UNL     1      -1.691  -9.204  40.705  1.00  0.00     0.000 C 
BRANCH  12  13
ATOM     13  C   UNL     1      -1.902 -10.537  39.966  1.00  0.00    -0.000 C 
BRANCH  13  14
ATOM     14  C   UNL     1      -2.636 -11.578  40.826  1.00  0.00    -0.000 C 
BRANCH  14  15
ATOM     15  C   UNL     1      -2.925 -11.075  42.248  1.00  0.00    -0.000 C 
BRANCH  15  16
ATOM     16  C   UNL     1      -4.434 -11.012  42.512  1.00  0.00    -0.000 C 
BRANCH  16  17
ATOM     17  C   UNL     1      -4.982  -9.601  42.250  1.00  0.00    -0.000 C 
BRANCH  17  18
ATOM     18  C   UNL     1      -5.778  -9.520  40.930  1.00  0.00    -0.000 C 
BRANCH  18  19
ATOM     19  C   UNL     1      -5.168  -8.553  39.903  1.00  0.00    -0.003 C 
ATOM     20  C   UNL     1      -5.025  -9.169  38.513  1.00  0.00     0.004 C 
ENDBRANCH  18  19
ENDBRANCH  17  18
ENDBRANCH  16  17
ENDBRANCH  15  16
ENDBRANCH  14  15
ENDBRANCH  13  14
ENDBRANCH  12  13
ENDBRANCH   1  12
TORSDOF 16
ENDMDL
MODEL 6
REMARK VINA RESULT:    -3.785      3.634      7.383
REMARK INTER + INTRA:          -9.201
REMARK INTER:                  -6.608
REMARK INTRA:                  -2.593
REMARK UNBOUND:                -1.875
REMARK SMILES CCCCCCCCCCCCCCCCCC(=O)[O-]
REMARK SMILES IDX 10 1 11 2 12 3 13 4 14 5 15 6 16 7 17 8 18 9 19 10 20 11
REMARK SMILES IDX 9 12 8 13 7 14 6 15 5 16 4 17 3 18 2 19 1 20
REMARK H PARENT
REMARK Flexibility Score: inf
ROOT
ATOM      1  C   UNL     1      -0.953  -7.516  37.131  1.00  0.00     0.000 C 
ENDROOT
BRANCH   1   2
ATOM      2  C   UNL     1      -2.364  -7.413  36.528  1.00  0.00     0.000 C 
BRANCH   2   3
ATOM      3  C   UNL     1      -3.306  -6.519  37.354  1.00  0.00     0.000 C 
BRANCH   3   4
ATOM      4  C   UNL     1      -4.769  -6.995  37.420  1.00  0.00     0.000 C 
BRANCH   4   5
ATOM      5  C   UNL     1      -5.710  -6.173  36.525  1.00  0.00     0.000 C 
BRANCH   5   6
ATOM      6  C   UNL     1      -5.136  -4.771  36.271  1.00  0.00     0.000 C 
BRANCH   6   7
ATOM      7  C   UNL     1      -5.143  -4.390  34.782  1.00  0.00     0.006 C 
BRANCH   7   8
ATOM      8  C   UNL     1      -3.735  -4.120  34.236  1.00  0.00     0.053 C 
BRANCH   8   9
ATOM      9  C   UNL     1      -3.321  -5.213  33.302  1.00  0.00     0.041 C 
ATOM     10  O   UNL     1      -4.063  -5.539  32.338  1.00  0.00    -0.550 OA
ATOM     11  O   UNL     1      -2.091  -5.839  33.465  1.00  0.00    -0.550 OA
ENDBRANCH   8   9
ENDBRANCH   7   8
ENDBRANCH   6   7
ENDBRANCH   5   6
ENDBRANCH   4   5
ENDBRANCH   3   4
ENDBRANCH   2   3
ENDBRANCH   1   2
BRANCH   1  12
ATOM     12  C   UNL     1      -0.652  -8.917  37.689  1.00  0.00     0.000 C 
BRANCH  12  13
ATOM     13  C   UNL     1      -0.285  -8.893  39.184  1.00  0.00    -0.000 C 
BRANCH  13  14
ATOM     14  C   UNL     1      -1.383  -8.256  40.050  1.00  0.00    -0.000 C 
BRANCH  14  15
ATOM     15  C   UNL     1      -2.123  -9.284  40.919  1.00  0.00    -0.000 C 
BRANCH  15  16
ATOM     16  C   UNL     1      -3.629  -9.267  40.627  1.00  0.00    -0.000 C 
BRANCH  16  17
ATOM     17  C   UNL     1      -3.939  -9.953  39.288  1.00  0.00    -0.000 C 
BRANCH  17  18
ATOM     18  C   UNL     1      -3.252 -11.331  39.166  1.00  0.00    -0.000 C 
BRANCH  18  19
ATOM     19  C   UNL     1      -2.979 -11.754  37.713  1.00  0.00    -0.003 C 
ATOM     20  C   UNL     1      -3.691 -10.872  36.689  1.00  0.00     0.004 C 
ENDBRANCH  18  19
ENDBRANCH  17  18
ENDBRANCH  16  17
ENDBRANCH  15  16
ENDBRANCH  14  15
ENDBRANCH  13  14
ENDBRANCH  12  13
ENDBRANCH   1  12
TORSDOF 16
ENDMDL
MODEL 7
REMARK VINA RESULT:    -3.778      1.393      2.559
REMARK INTER + INTRA:          -9.185
REMARK INTER:                  -6.486
REMARK INTRA:                  -2.700
REMARK UNBOUND:                -1.875
REMARK SMILES CCCCCCCCCCCCCCCCCC(=O)[O-]
REMARK SMILES IDX 10 1 11 2 12 3 13 4 14 5 15 6 16 7 17 8 18 9 19 10 20 11
REMARK SMILES IDX 9 12 8 13 7 14 6 15 5 16 4 17 3 18 2 19 1 20
REMARK H PARENT
REMARK Flexibility Score: inf
ROOT
ATOM      1  C   UNL     1      -4.745  -8.486  36.001  1.00  0.00     0.000 C 
ENDROOT
BRANCH   1   2
ATOM      2  C   UNL     1      -3.850  -8.596  34.756  1.00  0.00     0.000 C 
BRANCH   2   3
ATOM      3  C   UNL     1      -2.349  -8.640  35.098  1.00  0.00     0.000 C 
BRANCH   3   4
ATOM      4  C   UNL     1      -1.803  -7.386  35.805  1.00  0.00     0.000 C 
BRANCH   4   5
ATOM      5  C   UNL     1      -1.198  -7.691  37.185  1.00  0.00     0.000 C 
BRANCH   5   6
ATOM      6  C   UNL     1      -2.176  -7.311  38.306  1.00  0.00     0.000 C 
BRANCH   6   7
ATOM      7  C   UNL     1      -1.904  -8.073  39.613  1.00  0.00     0.006 C 
BRANCH   7   8
ATOM      8  C   UNL     1      -2.823  -9.289  39.789  1.00  0.00     0.053 C 
BRANCH   8   9
ATOM      9  C   UNL     1      -2.932  -9.654  41.236  1.00  0.00     0.041 C 
ATOM     10  O   UNL     1      -4.035  -9.548  41.834  1.00  0.00    -0.550 OA
ATOM     11  O   UNL     1      -1.828 -10.159  41.911  1.00  0.00    -0.550 OA
ENDBRANCH   8   9
ENDBRANCH   7   8
ENDBRANCH   6   7
ENDBRANCH   5   6
ENDBRANCH   4   5
ENDBRANCH   3   4
ENDBRANCH   2   3
ENDBRANCH   1   2
BRANCH   1  12
ATOM     12  C   UNL     1      -5.749  -7.325  35.905  1.00  0.00     0.000 C 
BRANCH  12  13
ATOM     13  C   UNL     1      -5.522  -6.254  36.988  1.00  0.00    -0.000 C 
BRANCH  13  14
ATOM     14  C   UNL     1      -4.595  -5.123  36.514  1.00  0.00    -0.000 C 
BRANCH  14  15
ATOM     15  C   UNL     1      -5.096  -4.446  35.230  1.00  0.00    -0.000 C 
BRANCH  15  16
ATOM     16  C   UNL     1      -3.930  -3.852  34.431  1.00  0.00    -0.000 C 
BRANCH  16  17
ATOM     17  C   UNL     1      -3.255  -4.923  33.560  1.00  0.00    -0.000 C 
BRANCH  17  18
ATOM     18  C   UNL     1      -4.263  -5.648  32.641  1.00  0.00    -0.000 C 
BRANCH  18  19
ATOM     19  C   UNL     1      -3.597  -6.562  31.600  1.00  0.00    -0.003 C 
ATOM     20  C   UNL     1      -2.096  -6.732  31.827  1.00  0.00     0.004 C 
ENDBRANCH  18  19
ENDBRANCH  17  18
ENDBRANCH  16  17
ENDBRANCH  15  16
ENDBRANCH  14  15
ENDBRANCH  13  14
ENDBRANCH  12  13
ENDBRANCH   1  12
TORSDOF 16
ENDMDL
MODEL 8
REMARK VINA RESULT:    -3.736      1.678      3.275
REMARK INTER + INTRA:          -9.104
REMARK INTER:                  -6.462
REMARK INTRA:                  -2.642
REMARK UNBOUND:                -1.875
REMARK SMILES CCCCCCCCCCCCCCCCCC(=O)[O-]
REMARK SMILES IDX 10 1 11 2 12 3 13 4 14 5 15 6 16 7 17 8 18 9 19 10 20 11
REMARK SMILES IDX 9 12 8 13 7 14 6 15 5 16 4 17 3 18 2 19 1 20
REMARK H PARENT
REMARK Flexibility Score: inf
ROOT
ATOM      1  C   UNL     1      -4.632  -6.368  36.959  1.00  0.00     0.000 C 
ENDROOT
BRANCH   1   2
ATOM      2  C   UNL     1      -3.119  -6.580  37.139  1.00  0.00     0.000 C 
BRANCH   2   3
ATOM      3  C   UNL     1      -2.628  -7.921  36.565  1.00  0.00     0.000 C 
BRANCH   3   4
ATOM      4  C   UNL     1      -1.237  -7.879  35.904  1.00  0.00     0.000 C 
BRANCH   4   5
ATOM      5  C   UNL     1      -0.179  -8.675  36.682  1.00  0.00     0.000 C 
BRANCH   5   6
ATOM      6  C   UNL     1      -0.822  -9.466  37.830  1.00  0.00     0.000 C 
BRANCH   6   7
ATOM      7  C   UNL     1      -0.261  -9.077  39.206  1.00  0.00     0.006 C 
BRANCH   7   8
ATOM      8  C   UNL     1      -1.204  -8.154  39.989  1.00  0.00     0.053 C 
BRANCH   8   9
ATOM      9  C   UNL     1      -2.388  -8.920  40.487  1.00  0.00     0.041 C 
ATOM     10  O   UNL     1      -2.251  -9.771  41.406  1.00  0.00    -0.550 OA
ATOM     11  O   UNL     1      -3.652  -8.660  39.973  1.00  0.00    -0.550 OA
ENDBRANCH   8   9
ENDBRANCH   7   8
ENDBRANCH   6   7
ENDBRANCH   5   6
ENDBRANCH   4   5
ENDBRANCH   3   4
ENDBRANCH   2   3
ENDBRANCH   1   2
BRANCH   1  12
ATOM     12  C   UNL     1      -4.976  -4.947  36.482  1.00  0.00     0.000 C 
BRANCH  12  13
ATOM     13  C   UNL     1      -5.948  -4.941  35.289  1.00  0.00    -0.000 C 
BRANCH  13  14
ATOM     14  C   UNL     1      -5.300  -4.403  34.003  1.00  0.00    -0.000 C 
BRANCH  14  15
ATOM     15  C   UNL     1      -3.828  -4.013  34.201  1.00  0.00    -0.000 C 
BRANCH  15  16
ATOM     16  C   UNL     1      -2.894  -5.073  33.605  1.00  0.00    -0.000 C 
BRANCH  16  17
ATOM     17  C   UNL     1      -3.593  -5.856  32.483  1.00  0.00    -0.000 C 
BRANCH  17  18
ATOM     18  C   UNL     1      -3.454  -7.383  32.663  1.00  0.00    -0.000 C 
BRANCH  18  19
ATOM     19  C   UNL     1      -4.536  -7.995  33.568  1.00  0.00    -0.003 C 
ATOM     20  C   UNL     1      -4.496  -9.522  33.599  1.00  0.00     0.004 C 
ENDBRANCH  18  19
ENDBRANCH  17  18
ENDBRANCH  16  17
ENDBRANCH  15  16
ENDBRANCH  14  15
ENDBRANCH  13  14
ENDBRANCH  12  13
ENDBRANCH   1  12
TORSDOF 16
ENDMDL
MODEL 9
REMARK VINA RESULT:    -3.711      1.370      2.925
REMARK INTER + INTRA:          -9.057
REMARK INTER:                  -6.867
REMARK INTRA:                  -2.191
REMARK UNBOUND:                -1.875
REMARK SMILES CCCCCCCCCCCCCCCCCC(=O)[O-]
REMARK SMILES IDX 10 1 11 2 12 3 13 4 14 5 15 6 16 7 17 8 18 9 19 10 20 11
REMARK SMILES IDX 9 12 8 13 7 14 6 15 5 16 4 17 3 18 2 19 1 20
REMARK H PARENT
REMARK Flexibility Score: inf
ROOT
ATOM      1  C   UNL     1      -3.041  -8.589  35.126  1.00  0.00     0.000 C 
ENDROOT
BRANCH   1   2
ATOM      2  C   UNL     1      -1.675  -9.234  35.413  1.00  0.00     0.000 C 
BRANCH   2   3
ATOM      3  C   UNL     1      -1.164  -8.949  36.837  1.00  0.00     0.000 C 
BRANCH   3   4
ATOM      4  C   UNL     1      -1.603  -7.598  37.432  1.00  0.00     0.000 C 
BRANCH   4   5
ATOM      5  C   UNL     1      -2.208  -7.730  38.838  1.00  0.00     0.000 C 
BRANCH   5   6
ATOM      6  C   UNL     1      -1.260  -8.496  39.772  1.00  0.00     0.000 C 
BRANCH   6   7
ATOM      7  C   UNL     1      -1.975  -9.604  40.562  1.00  0.00     0.006 C 
BRANCH   7   8
ATOM      8  C   UNL     1      -1.117 -10.866  40.717  1.00  0.00     0.053 C 
BRANCH   8   9
ATOM      9  C   UNL     1      -1.436 -11.558  42.004  1.00  0.00     0.041 C 
ATOM     10  O   UNL     1      -0.538 -11.732  42.869  1.00  0.00    -0.550 OA
ATOM     11  O   UNL     1      -2.737 -11.968  42.270  1.00  0.00    -0.550 OA
ENDBRANCH   8   9
ENDBRANCH   7   8
ENDBRANCH   6   7
ENDBRANCH   5   6
ENDBRANCH   4   5
ENDBRANCH   3   4
ENDBRANCH   2   3
ENDBRANCH   1   2
BRANCH   1  12
ATOM     12  C   UNL     1      -3.085  -7.881  33.761  1.00  0.00     0.000 C 
BRANCH  12  13
ATOM     13  C   UNL     1      -2.105  -6.697  33.675  1.00  0.00    -0.000 C 
BRANCH  13  14
ATOM     14  C   UNL     1      -2.745  -5.446  33.052  1.00  0.00    -0.000 C 
BRANCH  14  15
ATOM     15  C   UNL     1      -4.207  -5.255  33.479  1.00  0.00    -0.000 C 
BRANCH  15  16
ATOM     16  C   UNL     1      -4.361  -4.019  34.374  1.00  0.00    -0.000 C 
BRANCH  16  17
ATOM     17  C   UNL     1      -5.153  -4.355  35.647  1.00  0.00    -0.000 C 
BRANCH  17  18
ATOM     18  C   UNL     1      -4.404  -5.354  36.554  1.00  0.00    -0.000 C 
BRANCH  18  19
ATOM     19  C   UNL     1      -5.292  -6.497  37.072  1.00  0.00    -0.003 C 
ATOM     20  C   UNL     1      -6.285  -7.004  36.028  1.00  0.00     0.004 C 
ENDBRANCH  18  19
ENDBRANCH  17  18
ENDBRANCH  16  17
ENDBRANCH  15  16
ENDBRANCH  14  15
ENDBRANCH  13  14
ENDBRANCH  12  13
ENDBRANCH   1  12
TORSDOF 16
ENDMDL
