MODEL 1
REMARK VINA RESULT:    -5.547      0.000      0.000
REMARK INTER + INTRA:          -6.800
REMARK INTER:                  -6.520
REMARK INTRA:                  -0.280
REMARK UNBOUND:                -0.280
REMARK SMILES O=c1cc(-c2ccc(O)c(O)c2)oc2cc(O)cc(O)c12
REMARK SMILES IDX 4 1 3 2 2 3 1 4 21 5 19 6 18 7 16 8 15 9 14 10 13 11 5 12
REMARK SMILES IDX 6 13 7 14 8 15 12 16 10 17 9 18 11 20 20 22 17 24
REMARK H PARENT 9 19 11 21 20 23 17 25
REMARK Flexibility Score: inf
ROOT
ATOM      1  C   UNL     1      -8.420  91.680 -13.504  1.00  0.00     0.138 A 
ATOM      2  C   UNL     1      -7.724  92.258 -12.430  1.00  0.00     0.100 A 
ATOM      3  C   UNL     1      -6.337  92.398 -12.505  1.00  0.00     0.197 A 
ATOM      4  O   UNL     1      -5.721  92.918 -11.536  1.00  0.00    -0.289 OA
ATOM      5  C   UNL     1      -5.656  91.960 -13.658  1.00  0.00     0.107 A 
ATOM      6  C   UNL     1      -4.253  92.063 -13.816  1.00  0.00     0.134 A 
ATOM      7  C   UNL     1      -3.652  91.608 -14.999  1.00  0.00     0.093 A 
ATOM      8  C   UNL     1      -4.425  91.054 -16.025  1.00  0.00     0.123 A 
ATOM      9  C   UNL     1      -5.810  90.951 -15.874  1.00  0.00     0.094 A 
ATOM     10  C   UNL     1      -6.429  91.397 -14.703  1.00  0.00     0.146 A 
ATOM     11  O   UNL     1      -7.748  91.286 -14.584  1.00  0.00    -0.456 OA
ENDROOT
BRANCH   1  12
ATOM     12  C   UNL     1      -9.895  91.509 -13.480  1.00  0.00     0.021 A 
ATOM     13  C   UNL     1     -10.763  92.601 -13.303  1.00  0.00     0.016 A 
ATOM     14  C   UNL     1     -12.146  92.408 -13.274  1.00  0.00     0.051 A 
ATOM     15  C   UNL     1     -12.692  91.128 -13.412  1.00  0.00     0.157 A 
ATOM     16  C   UNL     1     -10.445  90.222 -13.604  1.00  0.00     0.062 A 
ATOM     17  C   UNL     1     -11.830  90.020 -13.577  1.00  0.00     0.158 A 
BRANCH  15  18
ATOM     18  O   UNL     1     -14.083  91.005 -13.377  1.00  0.00    -0.504 OA
ATOM     19  H   UNL     1     -14.569  90.172 -13.081  1.00  0.00     0.293 HD
ENDBRANCH  15  18
BRANCH  17  20
ATOM     20  O   UNL     1     -12.301  88.712 -13.715  1.00  0.00    -0.504 OA
ATOM     21  H   UNL     1     -13.227  88.477 -14.043  1.00  0.00     0.293 HD
ENDBRANCH  17  20
ENDBRANCH   1  12
BRANCH   6  22
ATOM     22  O   UNL     1      -3.457  92.610 -12.810  1.00  0.00    -0.507 OA
ATOM     23  H   UNL     1      -3.139  93.571 -12.846  1.00  0.00     0.293 HD
ENDBRANCH   6  22
BRANCH   8  24
ATOM     24  O   UNL     1      -3.828  90.603 -17.200  1.00  0.00    -0.508 OA
ATOM     25  H   UNL     1      -4.290  90.695 -18.098  1.00  0.00     0.293 HD
ENDBRANCH   8  24
TORSDOF 5
ENDMDL
MODEL 2
REMARK VINA RESULT:    -5.433      7.012      8.939
REMARK INTER + INTRA:          -6.665
REMARK INTER:                  -6.387
REMARK INTRA:                  -0.278
REMARK UNBOUND:                -0.280
REMARK SMILES O=c1cc(-c2ccc(O)c(O)c2)oc2cc(O)cc(O)c12
REMARK SMILES IDX 4 1 3 2 2 3 1 4 21 5 19 6 18 7 16 8 15 9 14 10 13 11 5 12
REMARK SMILES IDX 6 13 7 14 8 15 12 16 10 17 9 18 11 20 20 22 17 24
REMARK H PARENT 9 19 11 21 20 23 17 25
REMARK Flexibility Score: inf
ROOT
ATOM      1  C   UNL     1      -4.929  88.007  -9.073  1.00  0.00     0.138 A 
ATOM      2  C   UNL     1      -6.126  87.503  -9.606  1.00  0.00     0.100 A 
ATOM      3  C   UNL     1      -6.281  86.124  -9.764  1.00  0.00     0.197 A 
ATOM      4  O   UNL     1      -7.360  85.681 -10.242  1.00  0.00    -0.289 OA
ATOM      5  C   UNL     1      -5.236  85.259  -9.383  1.00  0.00     0.107 A 
ATOM      6  C   UNL     1      -5.310  83.852  -9.509  1.00  0.00     0.134 A 
ATOM      7  C   UNL     1      -4.226  83.060  -9.101  1.00  0.00     0.093 A 
ATOM      8  C   UNL     1      -3.073  83.648  -8.570  1.00  0.00     0.123 A 
ATOM      9  C   UNL     1      -2.996  85.036  -8.442  1.00  0.00     0.094 A 
ATOM     10  C   UNL     1      -4.064  85.844  -8.844  1.00  0.00     0.146 A 
ATOM     11  O   UNL     1      -3.965  87.163  -8.714  1.00  0.00    -0.456 OA
ENDROOT
BRANCH   1  12
ATOM     12  C   UNL     1      -4.710  89.464  -8.881  1.00  0.00     0.021 A 
ATOM     13  C   UNL     1      -4.121  89.974  -7.711  1.00  0.00     0.016 A 
ATOM     14  C   UNL     1      -3.937  91.349  -7.553  1.00  0.00     0.051 A 
ATOM     15  C   UNL     1      -4.339  92.244  -8.550  1.00  0.00     0.157 A 
ATOM     16  C   UNL     1      -5.126  90.364  -9.876  1.00  0.00     0.062 A 
ATOM     17  C   UNL     1      -4.944  91.745  -9.727  1.00  0.00     0.158 A 
BRANCH  15  18
ATOM     18  O   UNL     1      -4.123  93.606  -8.331  1.00  0.00    -0.504 OA
ATOM     19  H   UNL     1      -3.253  93.992  -7.994  1.00  0.00     0.293 HD
ENDBRANCH  15  18
BRANCH  17  20
ATOM     20  O   UNL     1      -5.376  92.575 -10.763  1.00  0.00    -0.504 OA
ATOM     21  H   UNL     1      -5.723  93.513 -10.627  1.00  0.00     0.293 HD
ENDBRANCH  17  20
ENDBRANCH   1  12
BRANCH   6  22
ATOM     22  O   UNL     1      -6.447  83.238 -10.036  1.00  0.00    -0.507 OA
ATOM     23  H   UNL     1      -7.053  82.661  -9.466  1.00  0.00     0.293 HD
ENDBRANCH   6  22
BRANCH   8  24
ATOM     24  O   UNL     1      -1.998  82.861  -8.163  1.00  0.00    -0.508 OA
ATOM     25  H   UNL     1      -2.133  81.921  -7.808  1.00  0.00     0.293 HD
ENDBRANCH   8  24
TORSDOF 5
ENDMDL
MODEL 3
REMARK VINA RESULT:    -5.372      6.359     10.003
REMARK INTER + INTRA:          -6.594
REMARK INTER:                  -6.300
REMARK INTRA:                  -0.294
REMARK UNBOUND:                -0.280
REMARK SMILES O=c1cc(-c2ccc(O)c(O)c2)oc2cc(O)cc(O)c12
REMARK SMILES IDX 4 1 3 2 2 3 1 4 21 5 19 6 18 7 16 8 15 9 14 10 13 11 5 12
REMARK SMILES IDX 6 13 7 14 8 15 12 16 10 17 9 18 11 20 20 22 17 24
REMARK H PARENT 9 19 11 21 20 23 17 25
REMARK Flexibility Score: inf
ROOT
ATOM      1  C   UNL     1      -3.745  93.025 -21.519  1.00  0.00     0.138 A 
ATOM      2  C   UNL     1      -2.915  91.911 -21.315  1.00  0.00     0.100 A 
ATOM      3  C   UNL     1      -2.620  91.503 -20.013  1.00  0.00     0.197 A 
ATOM      4  O   UNL     1      -1.875  90.501 -19.840  1.00  0.00    -0.289 OA
ATOM      5  C   UNL     1      -3.161  92.213 -18.923  1.00  0.00     0.107 A 
ATOM      6  C   UNL     1      -2.912  91.868 -17.573  1.00  0.00     0.134 A 
ATOM      7  C   UNL     1      -3.495  92.623 -16.544  1.00  0.00     0.093 A 
ATOM      8  C   UNL     1      -4.320  93.714 -16.839  1.00  0.00     0.123 A 
ATOM      9  C   UNL     1      -4.569  94.058 -18.170  1.00  0.00     0.094 A 
ATOM     10  C   UNL     1      -3.997  93.319 -19.210  1.00  0.00     0.146 A 
ATOM     11  O   UNL     1      -4.248  93.668 -20.468  1.00  0.00    -0.456 OA
ENDROOT
BRANCH   1  12
ATOM     12  C   UNL     1      -4.094  93.503 -22.882  1.00  0.00     0.021 A 
ATOM     13  C   UNL     1      -4.772  94.718 -23.087  1.00  0.00     0.016 A 
ATOM     14  C   UNL     1      -5.096  95.137 -24.379  1.00  0.00     0.051 A 
ATOM     15  C   UNL     1      -4.761  94.356 -25.489  1.00  0.00     0.157 A 
ATOM     16  C   UNL     1      -3.771  92.712 -23.997  1.00  0.00     0.062 A 
ATOM     17  C   UNL     1      -4.091  93.126 -25.296  1.00  0.00     0.158 A 
BRANCH  15  18
ATOM     18  O   UNL     1      -5.112  94.834 -26.754  1.00  0.00    -0.504 OA
ATOM     19  H   UNL     1      -6.041  95.143 -27.003  1.00  0.00     0.293 HD
ENDBRANCH  15  18
BRANCH  17  20
ATOM     20  O   UNL     1      -3.729  92.289 -26.354  1.00  0.00    -0.504 OA
ATOM     21  H   UNL     1      -3.492  92.619 -27.278  1.00  0.00     0.293 HD
ENDBRANCH  17  20
ENDBRANCH   1  12
BRANCH   6  22
ATOM     22  O   UNL     1      -2.094  90.785 -17.249  1.00  0.00    -0.507 OA
ATOM     23  H   UNL     1      -1.176  90.915 -16.840  1.00  0.00     0.293 HD
ENDBRANCH   6  22
BRANCH   8  24
ATOM     24  O   UNL     1      -4.899  94.464 -15.818  1.00  0.00    -0.508 OA
ATOM     25  H   UNL     1      -4.703  95.453 -15.710  1.00  0.00     0.293 HD
ENDBRANCH   8  24
TORSDOF 5
ENDMDL
MODEL 4
REMARK VINA RESULT:    -5.350      3.801      6.423
REMARK INTER + INTRA:          -6.568
REMARK INTER:                  -6.259
REMARK INTRA:                  -0.309
REMARK UNBOUND:                -0.280
REMARK SMILES O=c1cc(-c2ccc(O)c(O)c2)oc2cc(O)cc(O)c12
REMARK SMILES IDX 4 1 3 2 2 3 1 4 21 5 19 6 18 7 16 8 15 9 14 10 13 11 5 12
REMARK SMILES IDX 6 13 7 14 8 15 12 16 10 17 9 18 11 20 20 22 17 24
REMARK H PARENT 9 19 11 21 20 23 17 25
REMARK Flexibility Score: inf
ROOT
ATOM      1  C   UNL     1      -4.688  92.048 -15.067  1.00  0.00     0.138 A 
ATOM      2  C   UNL     1      -4.106  92.855 -14.076  1.00  0.00     0.100 A 
ATOM      3  C   UNL     1      -4.324  92.555 -12.730  1.00  0.00     0.197 A 
ATOM      4  O   UNL     1      -3.797  93.284 -11.848  1.00  0.00    -0.289 OA
ATOM      5  C   UNL     1      -5.121  91.445 -12.386  1.00  0.00     0.107 A 
ATOM      6  C   UNL     1      -5.393  91.072 -11.048  1.00  0.00     0.134 A 
ATOM      7  C   UNL     1      -6.193  89.948 -10.789  1.00  0.00     0.093 A 
ATOM      8  C   UNL     1      -6.724  89.193 -11.841  1.00  0.00     0.123 A 
ATOM      9  C   UNL     1      -6.458  89.558 -13.163  1.00  0.00     0.094 A 
ATOM     10  C   UNL     1      -5.664  90.674 -13.442  1.00  0.00     0.146 A 
ATOM     11  O   UNL     1      -5.428  91.001 -14.709  1.00  0.00    -0.456 OA
ENDROOT
BRANCH   1  12
ATOM     12  C   UNL     1      -4.490  92.319 -16.515  1.00  0.00     0.021 A 
ATOM     13  C   UNL     1      -3.360  93.010 -16.988  1.00  0.00     0.016 A 
ATOM     14  C   UNL     1      -3.205  93.259 -18.353  1.00  0.00     0.051 A 
ATOM     15  C   UNL     1      -4.170  92.835 -19.272  1.00  0.00     0.157 A 
ATOM     16  C   UNL     1      -5.466  91.906 -17.437  1.00  0.00     0.062 A 
ATOM     17  C   UNL     1      -5.318  92.151 -18.808  1.00  0.00     0.158 A 
BRANCH  15  18
ATOM     18  O   UNL     1      -3.953  93.114 -20.623  1.00  0.00    -0.504 OA
ATOM     19  H   UNL     1      -3.384  92.544 -21.233  1.00  0.00     0.293 HD
ENDBRANCH  15  18
BRANCH  17  20
ATOM     20  O   UNL     1      -6.326  91.702 -19.663  1.00  0.00    -0.504 OA
ATOM     21  H   UNL     1      -6.283  90.837 -20.181  1.00  0.00     0.293 HD
ENDBRANCH  17  20
ENDBRANCH   1  12
BRANCH   6  22
ATOM     22  O   UNL     1      -4.877  91.806  -9.980  1.00  0.00    -0.507 OA
ATOM     23  H   UNL     1      -5.478  92.318  -9.346  1.00  0.00     0.293 HD
ENDBRANCH   6  22
BRANCH   8  24
ATOM     24  O   UNL     1      -7.517  88.077 -11.584  1.00  0.00    -0.508 OA
ATOM     25  H   UNL     1      -8.438  87.976 -11.995  1.00  0.00     0.293 HD
ENDBRANCH   8  24
TORSDOF 5
ENDMDL
MODEL 5
REMARK VINA RESULT:    -5.336      6.839      8.397
REMARK INTER + INTRA:          -6.552
REMARK INTER:                  -6.261
REMARK INTRA:                  -0.291
REMARK UNBOUND:                -0.280
REMARK SMILES O=c1cc(-c2ccc(O)c(O)c2)oc2cc(O)cc(O)c12
REMARK SMILES IDX 4 1 3 2 2 3 1 4 21 5 19 6 18 7 16 8 15 9 14 10 13 11 5 12
REMARK SMILES IDX 6 13 7 14 8 15 12 16 10 17 9 18 11 20 20 22 17 24
REMARK H PARENT 9 19 11 21 20 23 17 25
REMARK Flexibility Score: inf
ROOT
ATOM      1  C   UNL     1      -4.584  88.468  -8.772  1.00  0.00     0.138 A 
ATOM      2  C   UNL     1      -3.426  88.264  -8.005  1.00  0.00     0.100 A 
ATOM      3  C   UNL     1      -2.916  86.973  -7.859  1.00  0.00     0.197 A 
ATOM      4  O   UNL     1      -1.875  86.801  -7.169  1.00  0.00    -0.289 OA
ATOM      5  C   UNL     1      -3.569  85.893  -8.485  1.00  0.00     0.107 A 
ATOM      6  C   UNL     1      -3.120  84.554  -8.388  1.00  0.00     0.134 A 
ATOM      7  C   UNL     1      -3.824  83.536  -9.048  1.00  0.00     0.093 A 
ATOM      8  C   UNL     1      -4.966  83.831  -9.802  1.00  0.00     0.123 A 
ATOM      9  C   UNL     1      -5.412  85.151  -9.901  1.00  0.00     0.094 A 
ATOM     10  C   UNL     1      -4.725  86.180  -9.251  1.00  0.00     0.146 A 
ATOM     11  O   UNL     1      -5.172  87.427  -9.359  1.00  0.00    -0.456 OA
ENDROOT
BRANCH   1  12
ATOM     12  C   UNL     1      -5.171  89.819  -8.963  1.00  0.00     0.021 A 
ATOM     13  C   UNL     1      -6.509  89.995  -9.358  1.00  0.00     0.016 A 
ATOM     14  C   UNL     1      -7.029  91.277  -9.540  1.00  0.00     0.051 A 
ATOM     15  C   UNL     1      -6.232  92.408  -9.341  1.00  0.00     0.157 A 
ATOM     16  C   UNL     1      -4.366  90.956  -8.777  1.00  0.00     0.062 A 
ATOM     17  C   UNL     1      -4.881  92.246  -8.956  1.00  0.00     0.158 A 
BRANCH  15  18
ATOM     18  O   UNL     1      -6.815  93.662  -9.538  1.00  0.00    -0.504 OA
ATOM     19  H   UNL     1      -7.492  94.074  -8.911  1.00  0.00     0.293 HD
ENDBRANCH  15  18
BRANCH  17  20
ATOM     20  O   UNL     1      -4.021  93.326  -8.745  1.00  0.00    -0.504 OA
ATOM     21  H   UNL     1      -3.311  93.350  -8.028  1.00  0.00     0.293 HD
ENDBRANCH  17  20
ENDBRANCH   1  12
BRANCH   6  22
ATOM     22  O   UNL     1      -1.986  84.231  -7.644  1.00  0.00    -0.507 OA
ATOM     23  H   UNL     1      -1.243  84.901  -7.485  1.00  0.00     0.293 HD
ENDBRANCH   6  22
BRANCH   8  24
ATOM     24  O   UNL     1      -5.665  82.820 -10.457  1.00  0.00    -0.508 OA
ATOM     25  H   UNL     1      -6.244  82.160  -9.950  1.00  0.00     0.293 HD
ENDBRANCH   8  24
TORSDOF 5
ENDMDL
MODEL 6
REMARK VINA RESULT:    -5.285      8.863     11.362
REMARK INTER + INTRA:          -6.491
REMARK INTER:                  -6.187
REMARK INTRA:                  -0.304
REMARK UNBOUND:                -0.280
REMARK SMILES O=c1cc(-c2ccc(O)c(O)c2)oc2cc(O)cc(O)c12
REMARK SMILES IDX 4 1 3 2 2 3 1 4 21 5 19 6 18 7 16 8 15 9 14 10 13 11 5 12
REMARK SMILES IDX 6 13 7 14 8 15 12 16 10 17 9 18 11 20 20 22 17 24
REMARK H PARENT 9 19 11 21 20 23 17 25
REMARK Flexibility Score: inf
ROOT
ATOM      1  C   UNL     1      -7.906  84.146  -8.634  1.00  0.00     0.138 A 
ATOM      2  C   UNL     1      -8.568  85.254  -8.082  1.00  0.00     0.100 A 
ATOM      3  C   UNL     1      -9.961  85.329  -8.155  1.00  0.00     0.197 A 
ATOM      4  O   UNL     1     -10.546  86.327  -7.656  1.00  0.00    -0.289 OA
ATOM      5  C   UNL     1     -10.681  84.290  -8.777  1.00  0.00     0.107 A 
ATOM      6  C   UNL     1     -12.091  84.287  -8.894  1.00  0.00     0.134 A 
ATOM      7  C   UNL     1     -12.733  83.210  -9.524  1.00  0.00     0.093 A 
ATOM      8  C   UNL     1     -11.993  82.139 -10.037  1.00  0.00     0.123 A 
ATOM      9  C   UNL     1     -10.601  82.137  -9.923  1.00  0.00     0.094 A 
ATOM     10  C   UNL     1      -9.942  83.201  -9.300  1.00  0.00     0.146 A 
ATOM     11  O   UNL     1      -8.616  83.176  -9.206  1.00  0.00    -0.456 OA
ENDROOT
BRANCH   1  12
ATOM     12  C   UNL     1      -6.427  84.013  -8.585  1.00  0.00     0.021 A 
ATOM     13  C   UNL     1      -5.673  84.538  -7.520  1.00  0.00     0.016 A 
ATOM     14  C   UNL     1      -4.283  84.407  -7.506  1.00  0.00     0.051 A 
ATOM     15  C   UNL     1      -3.615  83.759  -8.549  1.00  0.00     0.157 A 
ATOM     16  C   UNL     1      -5.753  83.375  -9.640  1.00  0.00     0.062 A 
ATOM     17  C   UNL     1      -4.360  83.238  -9.633  1.00  0.00     0.158 A 
BRANCH  15  18
ATOM     18  O   UNL     1      -2.224  83.660  -8.472  1.00  0.00    -0.504 OA
ATOM     19  H   UNL     1      -1.614  83.633  -9.276  1.00  0.00     0.293 HD
ENDBRANCH  15  18
BRANCH  17  20
ATOM     20  O   UNL     1      -3.763  82.584 -10.713  1.00  0.00    -0.504 OA
ATOM     21  H   UNL     1      -2.996  81.934 -10.625  1.00  0.00     0.293 HD
ENDBRANCH  17  20
ENDBRANCH   1  12
BRANCH   6  22
ATOM     22  O   UNL     1     -12.854  85.341  -8.392  1.00  0.00    -0.507 OA
ATOM     23  H   UNL     1     -13.610  85.186  -7.736  1.00  0.00     0.293 HD
ENDBRANCH   6  22
BRANCH   8  24
ATOM     24  O   UNL     1     -12.631  81.069 -10.661  1.00  0.00    -0.508 OA
ATOM     25  H   UNL     1     -13.642  81.013 -10.715  1.00  0.00     0.293 HD
ENDBRANCH   8  24
TORSDOF 5
ENDMDL
MODEL 7
REMARK VINA RESULT:    -5.258      2.961      4.667
REMARK INTER + INTRA:          -6.460
REMARK INTER:                  -6.142
REMARK INTRA:                  -0.319
REMARK UNBOUND:                -0.280
REMARK SMILES O=c1cc(-c2ccc(O)c(O)c2)oc2cc(O)cc(O)c12
REMARK SMILES IDX 4 1 3 2 2 3 1 4 21 5 19 6 18 7 16 8 15 9 14 10 13 11 5 12
REMARK SMILES IDX 6 13 7 14 8 15 12 16 10 17 9 18 11 20 20 22 17 24
REMARK H PARENT 9 19 11 21 20 23 17 25
REMARK Flexibility Score: inf
ROOT
ATOM      1  C   UNL     1      -5.381  90.900 -15.297  1.00  0.00     0.138 A 
ATOM      2  C   UNL     1      -3.978  90.908 -15.238  1.00  0.00     0.100 A 
ATOM      3  C   UNL     1      -3.249  91.449 -16.298  1.00  0.00     0.197 A 
ATOM      4  O   UNL     1      -1.990  91.452 -16.236  1.00  0.00    -0.289 OA
ATOM      5  C   UNL     1      -3.930  91.984 -17.410  1.00  0.00     0.107 A 
ATOM      6  C   UNL     1      -3.269  92.550 -18.525  1.00  0.00     0.134 A 
ATOM      7  C   UNL     1      -4.021  93.067 -19.590  1.00  0.00     0.093 A 
ATOM      8  C   UNL     1      -5.420  93.027 -19.561  1.00  0.00     0.123 A 
ATOM      9  C   UNL     1      -6.077  92.470 -18.462  1.00  0.00     0.094 A 
ATOM     10  C   UNL     1      -5.345  91.949 -17.390  1.00  0.00     0.146 A 
ATOM     11  O   UNL     1      -5.995  91.422 -16.357  1.00  0.00    -0.456 OA
ENDROOT
BRANCH   1  12
ATOM     12  C   UNL     1      -6.209  90.339 -14.198  1.00  0.00     0.021 A 
ATOM     13  C   UNL     1      -5.629  89.839 -13.019  1.00  0.00     0.016 A 
ATOM     14  C   UNL     1      -6.431  89.308 -12.007  1.00  0.00     0.051 A 
ATOM     15  C   UNL     1      -7.821  89.255 -12.150  1.00  0.00     0.157 A 
ATOM     16  C   UNL     1      -7.604  90.272 -14.347  1.00  0.00     0.062 A 
ATOM     17  C   UNL     1      -8.416  89.742 -13.337  1.00  0.00     0.158 A 
BRANCH  15  18
ATOM     18  O   UNL     1      -8.565  88.714 -11.099  1.00  0.00    -0.504 OA
ATOM     19  H   UNL     1      -9.520  88.397 -11.188  1.00  0.00     0.293 HD
ENDBRANCH  15  18
BRANCH  17  20
ATOM     20  O   UNL     1      -9.795  89.717 -13.554  1.00  0.00    -0.504 OA
ATOM     21  H   UNL     1     -10.461  90.249 -13.013  1.00  0.00     0.293 HD
ENDBRANCH  17  20
ENDBRANCH   1  12
BRANCH   6  22
ATOM     22  O   UNL     1      -1.876  92.602 -18.582  1.00  0.00    -0.507 OA
ATOM     23  H   UNL     1      -1.311  91.762 -18.591  1.00  0.00     0.293 HD
ENDBRANCH   6  22
BRANCH   8  24
ATOM     24  O   UNL     1      -6.167  93.541 -20.618  1.00  0.00    -0.508 OA
ATOM     25  H   UNL     1      -7.025  94.057 -20.459  1.00  0.00     0.293 HD
ENDBRANCH   8  24
TORSDOF 5
ENDMDL
MODEL 8
REMARK VINA RESULT:    -5.248      4.388      6.679
REMARK INTER + INTRA:          -6.448
REMARK INTER:                  -6.167
REMARK INTRA:                  -0.280
REMARK UNBOUND:                -0.280
REMARK SMILES O=c1cc(-c2ccc(O)c(O)c2)oc2cc(O)cc(O)c12
REMARK SMILES IDX 4 1 3 2 2 3 1 4 21 5 19 6 18 7 16 8 15 9 14 10 13 11 5 12
REMARK SMILES IDX 6 13 7 14 8 15 12 16 10 17 9 18 11 20 20 22 17 24
REMARK H PARENT 9 19 11 21 20 23 17 25
REMARK Flexibility Score: inf
ROOT
ATOM      1  C   UNL     1      -4.635  92.083 -15.008  1.00  0.00     0.138 A 
ATOM      2  C   UNL     1      -5.203  90.902 -14.504  1.00  0.00     0.100 A 
ATOM      3  C   UNL     1      -5.346  90.743 -13.124  1.00  0.00     0.197 A 
ATOM      4  O   UNL     1      -5.858  89.679 -12.681  1.00  0.00    -0.289 OA
ATOM      5  C   UNL     1      -4.923  91.770 -12.259  1.00  0.00     0.107 A 
ATOM      6  C   UNL     1      -5.030  91.690 -10.850  1.00  0.00     0.134 A 
ATOM      7  C   UNL     1      -4.590  92.761 -10.057  1.00  0.00     0.093 A 
ATOM      8  C   UNL     1      -4.045  93.907 -10.647  1.00  0.00     0.123 A 
ATOM      9  C   UNL     1      -3.937  93.991 -12.036  1.00  0.00     0.094 A 
ATOM     10  C   UNL     1      -4.370  92.935 -12.844  1.00  0.00     0.146 A 
ATOM     11  O   UNL     1      -4.254  93.039 -14.164  1.00  0.00    -0.456 OA
ENDROOT
BRANCH   1  12
ATOM     12  C   UNL     1      -4.459  92.307 -16.467  1.00  0.00     0.021 A 
ATOM     13  C   UNL     1      -3.326  92.960 -16.982  1.00  0.00     0.016 A 
ATOM     14  C   UNL     1      -3.193  93.166 -18.356  1.00  0.00     0.051 A 
ATOM     15  C   UNL     1      -4.184  92.736 -19.244  1.00  0.00     0.157 A 
ATOM     16  C   UNL     1      -5.462  91.889 -17.357  1.00  0.00     0.062 A 
ATOM     17  C   UNL     1      -5.336  92.091 -18.737  1.00  0.00     0.158 A 
BRANCH  15  18
ATOM     18  O   UNL     1      -3.987  92.971 -20.606  1.00  0.00    -0.504 OA
ATOM     19  H   UNL     1      -3.591  93.821 -20.981  1.00  0.00     0.293 HD
ENDBRANCH  15  18
BRANCH  17  20
ATOM     20  O   UNL     1      -6.370  91.639 -19.560  1.00  0.00    -0.504 OA
ATOM     21  H   UNL     1      -6.265  90.908 -20.248  1.00  0.00     0.293 HD
ENDBRANCH  17  20
ENDBRANCH   1  12
BRANCH   6  22
ATOM     22  O   UNL     1      -5.569  90.560 -10.235  1.00  0.00    -0.507 OA
ATOM     23  H   UNL     1      -6.478  90.578  -9.788  1.00  0.00     0.293 HD
ENDBRANCH   6  22
BRANCH   8  24
ATOM     24  O   UNL     1      -3.608  94.971  -9.860  1.00  0.00    -0.508 OA
ATOM     25  H   UNL     1      -2.687  95.376  -9.980  1.00  0.00     0.293 HD
ENDBRANCH   8  24
TORSDOF 5
ENDMDL
MODEL 9
REMARK VINA RESULT:    -5.232      8.058      9.707
REMARK INTER + INTRA:          -6.429
REMARK INTER:                  -6.145
REMARK INTRA:                  -0.284
REMARK UNBOUND:                -0.280
REMARK SMILES O=c1cc(-c2ccc(O)c(O)c2)oc2cc(O)cc(O)c12
REMARK SMILES IDX 4 1 3 2 2 3 1 4 21 5 19 6 18 7 16 8 15 9 14 10 13 11 5 12
REMARK SMILES IDX 6 13 7 14 8 15 12 16 10 17 9 18 11 20 20 22 17 24
REMARK H PARENT 9 19 11 21 20 23 17 25
REMARK Flexibility Score: inf
ROOT
ATOM      1  C   UNL     1      -4.635  85.748  -9.113  1.00  0.00     0.138 A 
ATOM      2  C   UNL     1      -5.739  85.945  -9.957  1.00  0.00     0.100 A 
ATOM      3  C   UNL     1      -6.207  87.240 -10.187  1.00  0.00     0.197 A 
ATOM      4  O   UNL     1      -7.199  87.406 -10.947  1.00  0.00    -0.289 OA
ATOM      5  C   UNL     1      -5.562  88.331  -9.573  1.00  0.00     0.107 A 
ATOM      6  C   UNL     1      -5.970  89.674  -9.751  1.00  0.00     0.134 A 
ATOM      7  C   UNL     1      -5.270  90.705  -9.107  1.00  0.00     0.093 A 
ATOM      8  C   UNL     1      -4.171  90.418  -8.290  1.00  0.00     0.123 A 
ATOM      9  C   UNL     1      -3.763  89.095  -8.112  1.00  0.00     0.094 A 
ATOM     10  C   UNL     1      -4.448  88.053  -8.744  1.00  0.00     0.146 A 
ATOM     11  O   UNL     1      -4.041  86.801  -8.555  1.00  0.00    -0.456 OA
ENDROOT
BRANCH   1  12
ATOM     12  C   UNL     1      -4.093  84.393  -8.833  1.00  0.00     0.021 A 
ATOM     13  C   UNL     1      -3.487  84.080  -7.604  1.00  0.00     0.016 A 
ATOM     14  C   UNL     1      -2.977  82.800  -7.373  1.00  0.00     0.051 A 
ATOM     15  C   UNL     1      -3.053  81.811  -8.359  1.00  0.00     0.157 A 
ATOM     16  C   UNL     1      -4.156  83.403  -9.828  1.00  0.00     0.062 A 
ATOM     17  C   UNL     1      -3.649  82.117  -9.604  1.00  0.00     0.158 A 
BRANCH  15  18
ATOM     18  O   UNL     1      -2.527  80.552  -8.062  1.00  0.00    -0.504 OA
ATOM     19  H   UNL     1      -3.018  79.846  -7.534  1.00  0.00     0.293 HD
ENDBRANCH  15  18
BRANCH  17  20
ATOM     20  O   UNL     1      -3.756  81.185 -10.638  1.00  0.00    -0.504 OA
ATOM     21  H   UNL     1      -3.045  80.503 -10.859  1.00  0.00     0.293 HD
ENDBRANCH  17  20
ENDBRANCH   1  12
BRANCH   6  22
ATOM     22  O   UNL     1      -7.063  89.989 -10.560  1.00  0.00    -0.507 OA
ATOM     23  H   UNL     1      -6.986  90.025 -11.569  1.00  0.00     0.293 HD
ENDBRANCH   6  22
BRANCH   8  24
ATOM     24  O   UNL     1      -3.475  91.442  -7.651  1.00  0.00    -0.508 OA
ATOM     25  H   UNL     1      -3.794  91.832  -6.772  1.00  0.00     0.293 HD
ENDBRANCH   8  24
TORSDOF 5
ENDMDL
