MODEL 1
REMARK VINA RESULT:    -4.825      0.000      0.000
REMARK INTER + INTRA:          -5.177
REMARK INTER:                  -5.671
REMARK INTRA:                   0.494
REMARK UNBOUND:                 0.494
REMARK SMILES O=c1c(O)c(-c2ccc(O)cc2)oc2cc(O)cc(O)c12
REMARK SMILES IDX 5 1 3 2 2 3 1 4 21 5 19 6 18 7 16 8 15 9 14 10 13 11 6 12
REMARK SMILES IDX 7 13 8 14 9 15 12 16 11 17 10 18 4 20 20 22 17 24
REMARK H PARENT 10 19 4 21 20 23 17 25
REMARK Flexibility Score: inf
ROOT
ATOM      1  C   UNL     1     -19.541  27.110  16.017  1.00  0.00     0.180 A 
ATOM      2  C   UNL     1     -20.181  28.361  16.028  1.00  0.00     0.208 A 
ATOM      3  C   UNL     1     -19.401  29.527  15.963  1.00  0.00     0.238 A 
ATOM      4  O   UNL     1     -19.984  30.640  15.898  1.00  0.00    -0.285 OA
ATOM      5  C   UNL     1     -17.989  29.429  15.945  1.00  0.00     0.111 A 
ATOM      6  C   UNL     1     -17.097  30.545  15.925  1.00  0.00     0.134 A 
ATOM      7  C   UNL     1     -15.720  30.326  15.801  1.00  0.00     0.093 A 
ATOM      8  C   UNL     1     -15.196  29.032  15.760  1.00  0.00     0.123 A 
ATOM      9  C   UNL     1     -16.053  27.937  15.834  1.00  0.00     0.094 A 
ATOM     10  C   UNL     1     -17.435  28.123  15.920  1.00  0.00     0.146 A 
ATOM     11  O   UNL     1     -18.216  27.050  15.966  1.00  0.00    -0.452 OA
ENDROOT
BRANCH   1  12
ATOM     12  C   UNL     1     -20.295  25.837  16.067  1.00  0.00     0.021 A 
ATOM     13  C   UNL     1     -21.702  25.817  16.061  1.00  0.00     0.016 A 
ATOM     14  C   UNL     1     -22.392  24.601  16.084  1.00  0.00     0.047 A 
ATOM     15  C   UNL     1     -21.689  23.393  16.100  1.00  0.00     0.115 A 
ATOM     16  C   UNL     1     -19.596  24.618  16.062  1.00  0.00     0.016 A 
ATOM     17  C   UNL     1     -20.288  23.405  16.086  1.00  0.00     0.047 A 
BRANCH  15  18
ATOM     18  O   UNL     1     -22.389  22.189  16.125  1.00  0.00    -0.508 OA
ATOM     19  H   UNL     1     -22.330  21.526  15.360  1.00  0.00     0.293 HD
ENDBRANCH  15  18
ENDBRANCH   1  12
BRANCH   2  20
ATOM     20  O   UNL     1     -21.574  28.438  16.123  1.00  0.00    -0.502 OA
ATOM     21  H   UNL     1     -22.046  28.688  16.983  1.00  0.00     0.293 HD
ENDBRANCH   2  20
BRANCH   6  22
ATOM     22  O   UNL     1     -17.506  31.876  16.049  1.00  0.00    -0.507 OA
ATOM     23  H   UNL     1     -18.462  32.194  15.995  1.00  0.00     0.293 HD
ENDBRANCH   6  22
BRANCH   8  24
ATOM     24  O   UNL     1     -13.822  28.824  15.653  1.00  0.00    -0.508 OA
ATOM     25  H   UNL     1     -13.440  28.113  15.040  1.00  0.00     0.293 HD
ENDBRANCH   8  24
TORSDOF 5
ENDMDL
MODEL 2
REMARK VINA RESULT:    -4.037      2.347      7.412
REMARK INTER + INTRA:          -4.251
REMARK INTER:                  -3.964
REMARK INTRA:                  -0.287
REMARK UNBOUND:                 0.494
REMARK SMILES O=c1c(O)c(-c2ccc(O)cc2)oc2cc(O)cc(O)c12
REMARK SMILES IDX 5 1 3 2 2 3 1 4 21 5 19 6 18 7 16 8 15 9 14 10 13 11 6 12
REMARK SMILES IDX 7 13 8 14 9 15 12 16 11 17 10 18 4 20 20 22 17 24
REMARK H PARENT 10 19 4 21 20 23 17 25
REMARK Flexibility Score: inf
ROOT
ATOM      1  C   UNL     1     -16.650  29.628  15.241  1.00  0.00     0.180 A 
ATOM      2  C   UNL     1     -16.603  28.223  15.270  1.00  0.00     0.208 A 
ATOM      3  C   UNL     1     -17.793  27.505  15.464  1.00  0.00     0.238 A 
ATOM      4  O   UNL     1     -17.754  26.248  15.415  1.00  0.00    -0.285 OA
ATOM      5  C   UNL     1     -19.008  28.200  15.683  1.00  0.00     0.111 A 
ATOM      6  C   UNL     1     -20.267  27.575  15.935  1.00  0.00     0.134 A 
ATOM      7  C   UNL     1     -21.422  28.361  16.030  1.00  0.00     0.093 A 
ATOM      8  C   UNL     1     -21.354  29.754  15.946  1.00  0.00     0.123 A 
ATOM      9  C   UNL     1     -20.123  30.376  15.755  1.00  0.00     0.094 A 
ATOM     10  C   UNL     1     -18.958  29.617  15.618  1.00  0.00     0.146 A 
ATOM     11  O   UNL     1     -17.809  30.251  15.416  1.00  0.00    -0.452 OA
ENDROOT
BRANCH   1  12
ATOM     12  C   UNL     1     -15.440  30.453  15.026  1.00  0.00     0.021 A 
ATOM     13  C   UNL     1     -14.665  30.914  16.105  1.00  0.00     0.016 A 
ATOM     14  C   UNL     1     -13.512  31.672  15.875  1.00  0.00     0.047 A 
ATOM     15  C   UNL     1     -13.113  31.967  14.568  1.00  0.00     0.115 A 
ATOM     16  C   UNL     1     -15.021  30.737  13.714  1.00  0.00     0.016 A 
ATOM     17  C   UNL     1     -13.869  31.495  13.487  1.00  0.00     0.047 A 
BRANCH  15  18
ATOM     18  O   UNL     1     -11.963  32.724  14.354  1.00  0.00    -0.508 OA
ATOM     19  H   UNL     1     -11.564  32.831  13.428  1.00  0.00     0.293 HD
ENDBRANCH  15  18
ENDBRANCH   1  12
BRANCH   2  20
ATOM     20  O   UNL     1     -15.381  27.557  15.129  1.00  0.00    -0.502 OA
ATOM     21  H   UNL     1     -14.893  27.147  15.915  1.00  0.00     0.293 HD
ENDBRANCH   2  20
BRANCH   6  22
ATOM     22  O   UNL     1     -20.435  26.199  16.124  1.00  0.00    -0.507 OA
ATOM     23  H   UNL     1     -19.695  25.517  16.084  1.00  0.00     0.293 HD
ENDBRANCH   6  22
BRANCH   8  24
ATOM     24  O   UNL     1     -22.505  30.530  16.059  1.00  0.00    -0.508 OA
ATOM     25  H   UNL     1     -23.247  30.482  15.371  1.00  0.00     0.293 HD
ENDBRANCH   8  24
TORSDOF 5
ENDMDL
MODEL 3
REMARK VINA RESULT:    -4.022      5.166      9.241
REMARK INTER + INTRA:          -4.233
REMARK INTER:                  -4.478
REMARK INTRA:                   0.244
REMARK UNBOUND:                 0.494
REMARK SMILES O=c1c(O)c(-c2ccc(O)cc2)oc2cc(O)cc(O)c12
REMARK SMILES IDX 5 1 3 2 2 3 1 4 21 5 19 6 18 7 16 8 15 9 14 10 13 11 6 12
REMARK SMILES IDX 7 13 8 14 9 15 12 16 11 17 10 18 4 20 20 22 17 24
REMARK H PARENT 10 19 4 21 20 23 17 25
REMARK Flexibility Score: inf
ROOT
ATOM      1  C   UNL     1     -13.866  30.485  11.468  1.00  0.00     0.180 A 
ATOM      2  C   UNL     1     -12.964  29.497  11.899  1.00  0.00     0.208 A 
ATOM      3  C   UNL     1     -13.164  28.893  13.151  1.00  0.00     0.238 A 
ATOM      4  O   UNL     1     -12.397  27.958  13.498  1.00  0.00    -0.285 OA
ATOM      5  C   UNL     1     -14.228  29.323  13.980  1.00  0.00     0.111 A 
ATOM      6  C   UNL     1     -14.497  28.814  15.287  1.00  0.00     0.134 A 
ATOM      7  C   UNL     1     -15.642  29.239  15.972  1.00  0.00     0.093 A 
ATOM      8  C   UNL     1     -16.492  30.203  15.425  1.00  0.00     0.123 A 
ATOM      9  C   UNL     1     -16.207  30.747  14.176  1.00  0.00     0.094 A 
ATOM     10  C   UNL     1     -15.094  30.315  13.451  1.00  0.00     0.146 A 
ATOM     11  O   UNL     1     -14.874  30.845  12.253  1.00  0.00    -0.452 OA
ENDROOT
BRANCH   1  12
ATOM     12  C   UNL     1     -13.731  31.157  10.155  1.00  0.00     0.021 A 
ATOM     13  C   UNL     1     -12.469  31.435   9.600  1.00  0.00     0.016 A 
ATOM     14  C   UNL     1     -12.367  32.048   8.346  1.00  0.00     0.047 A 
ATOM     15  C   UNL     1     -13.521  32.378   7.629  1.00  0.00     0.115 A 
ATOM     16  C   UNL     1     -14.885  31.472   9.418  1.00  0.00     0.016 A 
ATOM     17  C   UNL     1     -14.781  32.085   8.167  1.00  0.00     0.047 A 
BRANCH  15  18
ATOM     18  O   UNL     1     -13.405  32.989   6.383  1.00  0.00    -0.508 OA
ATOM     19  H   UNL     1     -13.751  33.927   6.219  1.00  0.00     0.293 HD
ENDBRANCH  15  18
ENDBRANCH   1  12
BRANCH   2  20
ATOM     20  O   UNL     1     -11.875  29.140  11.099  1.00  0.00    -0.502 OA
ATOM     21  H   UNL     1     -10.937  29.475  11.278  1.00  0.00     0.293 HD
ENDBRANCH   2  20
BRANCH   6  22
ATOM     22  O   UNL     1     -13.667  27.914  15.963  1.00  0.00    -0.507 OA
ATOM     23  H   UNL     1     -13.755  27.668  16.937  1.00  0.00     0.293 HD
ENDBRANCH   6  22
BRANCH   8  24
ATOM     24  O   UNL     1     -17.620  30.634  16.122  1.00  0.00    -0.508 OA
ATOM     25  H   UNL     1     -18.076  30.045  16.808  1.00  0.00     0.293 HD
ENDBRANCH   8  24
TORSDOF 5
ENDMDL
MODEL 4
REMARK VINA RESULT:    -3.941      5.514      8.972
REMARK INTER + INTRA:          -4.138
REMARK INTER:                  -4.236
REMARK INTRA:                   0.099
REMARK UNBOUND:                 0.494
REMARK SMILES O=c1c(O)c(-c2ccc(O)cc2)oc2cc(O)cc(O)c12
REMARK SMILES IDX 5 1 3 2 2 3 1 4 21 5 19 6 18 7 16 8 15 9 14 10 13 11 6 12
REMARK SMILES IDX 7 13 8 14 9 15 12 16 11 17 10 18 4 20 20 22 17 24
REMARK H PARENT 10 19 4 21 20 23 17 25
REMARK Flexibility Score: inf
ROOT
ATOM      1  C   UNL     1     -13.838  30.512  11.588  1.00  0.00     0.180 A 
ATOM      2  C   UNL     1     -14.858  31.018  12.412  1.00  0.00     0.208 A 
ATOM      3  C   UNL     1     -15.112  30.394  13.644  1.00  0.00     0.238 A 
ATOM      4  O   UNL     1     -15.975  30.896  14.408  1.00  0.00    -0.285 OA
ATOM      5  C   UNL     1     -14.381  29.238  14.011  1.00  0.00     0.111 A 
ATOM      6  C   UNL     1     -14.584  28.497  15.215  1.00  0.00     0.134 A 
ATOM      7  C   UNL     1     -13.729  27.432  15.524  1.00  0.00     0.093 A 
ATOM      8  C   UNL     1     -12.718  27.041  14.643  1.00  0.00     0.123 A 
ATOM      9  C   UNL     1     -12.548  27.722  13.441  1.00  0.00     0.094 A 
ATOM     10  C   UNL     1     -13.360  28.812  13.122  1.00  0.00     0.146 A 
ATOM     11  O   UNL     1     -13.147  29.446  11.975  1.00  0.00    -0.452 OA
ENDROOT
BRANCH   1  12
ATOM     12  C   UNL     1     -13.502  31.125  10.283  1.00  0.00     0.021 A 
ATOM     13  C   UNL     1     -12.169  31.375   9.911  1.00  0.00     0.016 A 
ATOM     14  C   UNL     1     -11.875  31.932   8.661  1.00  0.00     0.047 A 
ATOM     15  C   UNL     1     -12.906  32.234   7.766  1.00  0.00     0.115 A 
ATOM     16  C   UNL     1     -14.530  31.411   9.368  1.00  0.00     0.016 A 
ATOM     17  C   UNL     1     -14.235  31.969   8.122  1.00  0.00     0.047 A 
BRANCH  15  18
ATOM     18  O   UNL     1     -12.599  32.789   6.526  1.00  0.00    -0.508 OA
ATOM     19  H   UNL     1     -12.622  32.236   5.678  1.00  0.00     0.293 HD
ENDBRANCH  15  18
ENDBRANCH   1  12
BRANCH   2  20
ATOM     20  O   UNL     1     -15.620  32.114  11.995  1.00  0.00    -0.502 OA
ATOM     21  H   UNL     1     -15.401  32.642  11.160  1.00  0.00     0.293 HD
ENDBRANCH   2  20
BRANCH   6  22
ATOM     22  O   UNL     1     -15.618  28.747  16.124  1.00  0.00    -0.507 OA
ATOM     23  H   UNL     1     -15.677  28.357  17.052  1.00  0.00     0.293 HD
ENDBRANCH   6  22
BRANCH   8  24
ATOM     24  O   UNL     1     -11.883  25.969  14.950  1.00  0.00    -0.508 OA
ATOM     25  H   UNL     1     -11.757  25.651  15.904  1.00  0.00     0.293 HD
ENDBRANCH   8  24
TORSDOF 5
ENDMDL
MODEL 5
REMARK VINA RESULT:    -3.850      2.749      4.490
REMARK INTER + INTRA:          -4.031
REMARK INTER:                  -4.507
REMARK INTRA:                   0.476
REMARK UNBOUND:                 0.494
REMARK SMILES O=c1c(O)c(-c2ccc(O)cc2)oc2cc(O)cc(O)c12
REMARK SMILES IDX 5 1 3 2 2 3 1 4 21 5 19 6 18 7 16 8 15 9 14 10 13 11 6 12
REMARK SMILES IDX 7 13 8 14 9 15 12 16 11 17 10 18 4 20 20 22 17 24
REMARK H PARENT 10 19 4 21 20 23 17 25
REMARK Flexibility Score: inf
ROOT
ATOM      1  C   UNL     1     -17.121  29.477  15.880  1.00  0.00     0.180 A 
ATOM      2  C   UNL     1     -16.444  30.708  15.941  1.00  0.00     0.208 A 
ATOM      3  C   UNL     1     -15.044  30.721  15.838  1.00  0.00     0.238 A 
ATOM      4  O   UNL     1     -14.451  31.830  15.819  1.00  0.00    -0.285 OA
ATOM      5  C   UNL     1     -14.333  29.500  15.733  1.00  0.00     0.111 A 
ATOM      6  C   UNL     1     -12.911  29.391  15.669  1.00  0.00     0.134 A 
ATOM      7  C   UNL     1     -12.323  28.138  15.458  1.00  0.00     0.093 A 
ATOM      8  C   UNL     1     -13.102  26.981  15.374  1.00  0.00     0.123 A 
ATOM      9  C   UNL     1     -14.487  27.071  15.491  1.00  0.00     0.094 A 
ATOM     10  C   UNL     1     -15.105  28.311  15.663  1.00  0.00     0.146 A 
ATOM     11  O   UNL     1     -16.430  28.352  15.747  1.00  0.00    -0.452 OA
ENDROOT
BRANCH   1  12
ATOM     12  C   UNL     1     -18.596  29.384  15.965  1.00  0.00     0.021 A 
ATOM     13  C   UNL     1     -19.408  30.532  15.922  1.00  0.00     0.016 A 
ATOM     14  C   UNL     1     -20.801  30.417  15.980  1.00  0.00     0.047 A 
ATOM     15  C   UNL     1     -21.398  29.156  16.067  1.00  0.00     0.115 A 
ATOM     16  C   UNL     1     -19.206  28.120  16.032  1.00  0.00     0.016 A 
ATOM     17  C   UNL     1     -20.598  28.007  16.090  1.00  0.00     0.047 A 
BRANCH  15  18
ATOM     18  O   UNL     1     -22.787  29.056  16.125  1.00  0.00    -0.508 OA
ATOM     19  H   UNL     1     -23.383  29.855  15.944  1.00  0.00     0.293 HD
ENDBRANCH  15  18
ENDBRANCH   1  12
BRANCH   2  20
ATOM     20  O   UNL     1     -17.158  31.896  16.122  1.00  0.00    -0.502 OA
ATOM     21  H   UNL     1     -17.453  32.476  15.347  1.00  0.00     0.293 HD
ENDBRANCH   2  20
BRANCH   6  22
ATOM     22  O   UNL     1     -12.034  30.469  15.829  1.00  0.00    -0.507 OA
ATOM     23  H   UNL     1     -11.217  30.636  15.264  1.00  0.00     0.293 HD
ENDBRANCH   6  22
BRANCH   8  24
ATOM     24  O   UNL     1     -12.508  25.736  15.181  1.00  0.00    -0.508 OA
ATOM     25  H   UNL     1     -12.949  25.019  14.618  1.00  0.00     0.293 HD
ENDBRANCH   8  24
TORSDOF 5
ENDMDL
MODEL 6
REMARK VINA RESULT:    -3.560      3.328      5.130
REMARK INTER + INTRA:          -3.690
REMARK INTER:                  -3.663
REMARK INTRA:                  -0.027
REMARK UNBOUND:                 0.494
REMARK SMILES O=c1c(O)c(-c2ccc(O)cc2)oc2cc(O)cc(O)c12
REMARK SMILES IDX 5 1 3 2 2 3 1 4 21 5 19 6 18 7 16 8 15 9 14 10 13 11 6 12
REMARK SMILES IDX 7 13 8 14 9 15 12 16 11 17 10 18 4 20 20 22 17 24
REMARK H PARENT 10 19 4 21 20 23 17 25
REMARK Flexibility Score: inf
ROOT
ATOM      1  C   UNL     1     -17.069  29.441  15.365  1.00  0.00     0.180 A 
ATOM      2  C   UNL     1     -16.557  28.185  15.734  1.00  0.00     0.208 A 
ATOM      3  C   UNL     1     -15.170  27.975  15.689  1.00  0.00     0.238 A 
ATOM      4  O   UNL     1     -14.713  26.874  16.092  1.00  0.00    -0.285 OA
ATOM      5  C   UNL     1     -14.316  29.004  15.222  1.00  0.00     0.111 A 
ATOM      6  C   UNL     1     -12.899  28.887  15.092  1.00  0.00     0.134 A 
ATOM      7  C   UNL     1     -12.145  30.007  14.720  1.00  0.00     0.093 A 
ATOM      8  C   UNL     1     -12.762  31.222  14.413  1.00  0.00     0.123 A 
ATOM      9  C   UNL     1     -14.148  31.330  14.483  1.00  0.00     0.094 A 
ATOM     10  C   UNL     1     -14.925  30.242  14.888  1.00  0.00     0.146 A 
ATOM     11  O   UNL     1     -16.241  30.397  14.963  1.00  0.00    -0.452 OA
ENDROOT
BRANCH   1  12
ATOM     12  C   UNL     1     -18.518  29.743  15.401  1.00  0.00     0.021 A 
ATOM     13  C   UNL     1     -19.023  30.838  16.125  1.00  0.00     0.016 A 
ATOM     14  C   UNL     1     -20.394  31.117  16.123  1.00  0.00     0.047 A 
ATOM     15  C   UNL     1     -21.273  30.315  15.389  1.00  0.00     0.115 A 
ATOM     16  C   UNL     1     -19.407  28.955  14.649  1.00  0.00     0.016 A 
ATOM     17  C   UNL     1     -20.776  29.235  14.649  1.00  0.00     0.047 A 
BRANCH  15  18
ATOM     18  O   UNL     1     -22.636  30.604  15.397  1.00  0.00    -0.508 OA
ATOM     19  H   UNL     1     -23.011  31.372  15.942  1.00  0.00     0.293 HD
ENDBRANCH  15  18
ENDBRANCH   1  12
BRANCH   2  20
ATOM     20  O   UNL     1     -17.423  27.157  16.119  1.00  0.00    -0.502 OA
ATOM     21  H   UNL     1     -17.426  26.771  17.055  1.00  0.00     0.293 HD
ENDBRANCH   2  20
BRANCH   6  22
ATOM     22  O   UNL     1     -12.189  27.698  15.289  1.00  0.00    -0.507 OA
ATOM     23  H   UNL     1     -12.596  26.827  15.591  1.00  0.00     0.293 HD
ENDBRANCH   6  22
BRANCH   8  24
ATOM     24  O   UNL     1     -12.005  32.326  14.027  1.00  0.00    -0.508 OA
ATOM     25  H   UNL     1     -11.077  32.222  13.634  1.00  0.00     0.293 HD
ENDBRANCH   8  24
TORSDOF 5
ENDMDL
MODEL 7
REMARK VINA RESULT:    -3.502      5.846      9.763
REMARK INTER + INTRA:          -3.622
REMARK INTER:                  -3.583
REMARK INTRA:                  -0.039
REMARK UNBOUND:                 0.494
REMARK SMILES O=c1c(O)c(-c2ccc(O)cc2)oc2cc(O)cc(O)c12
REMARK SMILES IDX 5 1 3 2 2 3 1 4 21 5 19 6 18 7 16 8 15 9 14 10 13 11 6 12
REMARK SMILES IDX 7 13 8 14 9 15 12 16 11 17 10 18 4 20 20 22 17 24
REMARK H PARENT 10 19 4 21 20 23 17 25
REMARK Flexibility Score: inf
ROOT
ATOM      1  C   UNL     1     -13.150  31.063  11.077  1.00  0.00     0.180 A 
ATOM      2  C   UNL     1     -12.512  31.742  12.130  1.00  0.00     0.208 A 
ATOM      3  C   UNL     1     -12.545  31.184  13.418  1.00  0.00     0.238 A 
ATOM      4  O   UNL     1     -11.910  31.758  14.340  1.00  0.00    -0.285 OA
ATOM      5  C   UNL     1     -13.262  29.985  13.649  1.00  0.00     0.111 A 
ATOM      6  C   UNL     1     -13.401  29.354  14.922  1.00  0.00     0.134 A 
ATOM      7  C   UNL     1     -14.044  28.113  15.012  1.00  0.00     0.093 A 
ATOM      8  C   UNL     1     -14.609  27.511  13.885  1.00  0.00     0.123 A 
ATOM      9  C   UNL     1     -14.527  28.146  12.648  1.00  0.00     0.094 A 
ATOM     10  C   UNL     1     -13.859  29.365  12.520  1.00  0.00     0.146 A 
ATOM     11  O   UNL     1     -13.786  29.924  11.317  1.00  0.00    -0.452 OA
ENDROOT
BRANCH   1  12
ATOM     12  C   UNL     1     -13.145  31.580   9.689  1.00  0.00     0.021 A 
ATOM     13  C   UNL     1     -14.342  31.882   9.015  1.00  0.00     0.016 A 
ATOM     14  C   UNL     1     -14.311  32.393   7.713  1.00  0.00     0.047 A 
ATOM     15  C   UNL     1     -13.087  32.620   7.075  1.00  0.00     0.115 A 
ATOM     16  C   UNL     1     -11.919  31.831   9.049  1.00  0.00     0.016 A 
ATOM     17  C   UNL     1     -11.891  32.341   7.748  1.00  0.00     0.047 A 
BRANCH  15  18
ATOM     18  O   UNL     1     -13.072  33.128   5.778  1.00  0.00    -0.508 OA
ATOM     19  H   UNL     1     -13.372  32.569   4.987  1.00  0.00     0.293 HD
ENDBRANCH  15  18
ENDBRANCH   1  12
BRANCH   2  20
ATOM     20  O   UNL     1     -11.875  32.964  11.896  1.00  0.00    -0.502 OA
ATOM     21  H   UNL     1     -12.044  33.514  11.063  1.00  0.00     0.293 HD
ENDBRANCH   2  20
BRANCH   6  22
ATOM     22  O   UNL     1     -12.952  29.908  16.125  1.00  0.00    -0.507 OA
ATOM     23  H   UNL     1     -13.450  30.601  16.662  1.00  0.00     0.293 HD
ENDBRANCH   6  22
BRANCH   8  24
ATOM     24  O   UNL     1     -15.262  26.284  13.986  1.00  0.00    -0.508 OA
ATOM     25  H   UNL     1     -15.886  26.078  14.758  1.00  0.00     0.293 HD
ENDBRANCH   8  24
TORSDOF 5
ENDMDL
MODEL 8
REMARK VINA RESULT:    -3.423      1.609      6.697
REMARK INTER + INTRA:          -3.529
REMARK INTER:                  -3.478
REMARK INTRA:                  -0.050
REMARK UNBOUND:                 0.494
REMARK SMILES O=c1c(O)c(-c2ccc(O)cc2)oc2cc(O)cc(O)c12
REMARK SMILES IDX 5 1 3 2 2 3 1 4 21 5 19 6 18 7 16 8 15 9 14 10 13 11 6 12
REMARK SMILES IDX 7 13 8 14 9 15 12 16 11 17 10 18 4 20 20 22 17 24
REMARK H PARENT 10 19 4 21 20 23 17 25
REMARK Flexibility Score: inf
ROOT
ATOM      1  C   UNL     1     -17.144  29.188  15.449  1.00  0.00     0.180 A 
ATOM      2  C   UNL     1     -18.254  30.028  15.636  1.00  0.00     0.208 A 
ATOM      3  C   UNL     1     -19.513  29.452  15.871  1.00  0.00     0.238 A 
ATOM      4  O   UNL     1     -20.488  30.210  16.111  1.00  0.00    -0.285 OA
ATOM      5  C   UNL     1     -19.656  28.043  15.858  1.00  0.00     0.111 A 
ATOM      6  C   UNL     1     -20.892  27.351  16.039  1.00  0.00     0.134 A 
ATOM      7  C   UNL     1     -20.896  25.953  16.115  1.00  0.00     0.093 A 
ATOM      8  C   UNL     1     -19.719  25.219  15.952  1.00  0.00     0.123 A 
ATOM      9  C   UNL     1     -18.518  25.883  15.719  1.00  0.00     0.094 A 
ATOM     10  C   UNL     1     -18.475  27.278  15.677  1.00  0.00     0.146 A 
ATOM     11  O   UNL     1     -17.303  27.870  15.476  1.00  0.00    -0.452 OA
ENDROOT
BRANCH   1  12
ATOM     12  C   UNL     1     -15.783  29.720  15.212  1.00  0.00     0.021 A 
ATOM     13  C   UNL     1     -14.705  29.378  16.048  1.00  0.00     0.016 A 
ATOM     14  C   UNL     1     -13.423  29.875  15.789  1.00  0.00     0.047 A 
ATOM     15  C   UNL     1     -13.200  30.707  14.688  1.00  0.00     0.115 A 
ATOM     16  C   UNL     1     -15.546  30.540  14.095  1.00  0.00     0.016 A 
ATOM     17  C   UNL     1     -14.265  31.036  13.839  1.00  0.00     0.047 A 
BRANCH  15  18
ATOM     18  O   UNL     1     -11.919  31.195  14.443  1.00  0.00    -0.508 OA
ATOM     19  H   UNL     1     -11.162  30.580  14.165  1.00  0.00     0.293 HD
ENDBRANCH  15  18
ENDBRANCH   1  12
BRANCH   2  20
ATOM     20  O   UNL     1     -18.105  31.417  15.568  1.00  0.00    -0.502 OA
ATOM     21  H   UNL     1     -18.832  32.056  15.865  1.00  0.00     0.293 HD
ENDBRANCH   2  20
BRANCH   6  22
ATOM     22  O   UNL     1     -22.138  27.981  16.125  1.00  0.00    -0.507 OA
ATOM     23  H   UNL     1     -22.873  27.902  15.440  1.00  0.00     0.293 HD
ENDBRANCH   6  22
BRANCH   8  24
ATOM     24  O   UNL     1     -19.735  23.827  16.011  1.00  0.00    -0.508 OA
ATOM     25  H   UNL     1     -19.547  23.331  16.874  1.00  0.00     0.293 HD
ENDBRANCH   8  24
TORSDOF 5
ENDMDL
MODEL 9
REMARK VINA RESULT:    -3.121      7.019      9.941
REMARK INTER + INTRA:          -3.175
REMARK INTER:                  -3.025
REMARK INTRA:                  -0.149
REMARK UNBOUND:                 0.494
REMARK SMILES O=c1c(O)c(-c2ccc(O)cc2)oc2cc(O)cc(O)c12
REMARK SMILES IDX 5 1 3 2 2 3 1 4 21 5 19 6 18 7 16 8 15 9 14 10 13 11 6 12
REMARK SMILES IDX 7 13 8 14 9 15 12 16 11 17 10 18 4 20 20 22 17 24
REMARK H PARENT 10 19 4 21 20 23 17 25
REMARK Flexibility Score: inf
ROOT
ATOM      1  C   UNL     1     -13.399  31.492  10.703  1.00  0.00     0.180 A 
ATOM      2  C   UNL     1     -13.995  30.266  11.044  1.00  0.00     0.208 A 
ATOM      3  C   UNL     1     -14.058  29.892  12.397  1.00  0.00     0.238 A 
ATOM      4  O   UNL     1     -14.659  28.830  12.701  1.00  0.00    -0.285 OA
ATOM      5  C   UNL     1     -13.475  30.722  13.385  1.00  0.00     0.111 A 
ATOM      6  C   UNL     1     -13.440  30.421  14.780  1.00  0.00     0.134 A 
ATOM      7  C   UNL     1     -12.930  31.367  15.678  1.00  0.00     0.093 A 
ATOM      8  C   UNL     1     -12.396  32.576  15.226  1.00  0.00     0.123 A 
ATOM      9  C   UNL     1     -12.375  32.854  13.862  1.00  0.00     0.094 A 
ATOM     10  C   UNL     1     -12.911  31.948  12.944  1.00  0.00     0.146 A 
ATOM     11  O   UNL     1     -12.890  32.265  11.655  1.00  0.00    -0.452 OA
ENDROOT
BRANCH   1  12
ATOM     12  C   UNL     1     -13.309  31.962   9.302  1.00  0.00     0.021 A 
ATOM     13  C   UNL     1     -14.461  32.249   8.548  1.00  0.00     0.016 A 
ATOM     14  C   UNL     1     -14.349  32.715   7.234  1.00  0.00     0.047 A 
ATOM     15  C   UNL     1     -13.088  32.911   6.662  1.00  0.00     0.115 A 
ATOM     16  C   UNL     1     -12.045  32.182   8.727  1.00  0.00     0.016 A 
ATOM     17  C   UNL     1     -11.936  32.646   7.413  1.00  0.00     0.047 A 
BRANCH  15  18
ATOM     18  O   UNL     1     -12.992  33.375   5.352  1.00  0.00    -0.508 OA
ATOM     19  H   UNL     1     -13.227  34.330   5.110  1.00  0.00     0.293 HD
ENDBRANCH  15  18
ENDBRANCH   1  12
BRANCH   2  20
ATOM     20  O   UNL     1     -14.497  29.425  10.046  1.00  0.00    -0.502 OA
ATOM     21  H   UNL     1     -14.828  28.489  10.241  1.00  0.00     0.293 HD
ENDBRANCH   2  20
BRANCH   6  22
ATOM     22  O   UNL     1     -13.866  29.208  15.331  1.00  0.00    -0.507 OA
ATOM     23  H   UNL     1     -14.644  29.104  15.964  1.00  0.00     0.293 HD
ENDBRANCH   6  22
BRANCH   8  24
ATOM     24  O   UNL     1     -11.875  33.504  16.125  1.00  0.00    -0.508 OA
ATOM     25  H   UNL     1     -12.470  34.172  16.601  1.00  0.00     0.293 HD
ENDBRANCH   8  24
TORSDOF 5
ENDMDL
