MODEL 1
REMARK VINA RESULT:    -4.403      0.000      0.000
REMARK INTER + INTRA:          -5.715
REMARK INTER:                  -5.304
REMARK INTRA:                  -0.411
REMARK UNBOUND:                -0.411
REMARK SMILES O=c1c(O)c(-c2ccc(O)cc2O)oc2cc(O)cc(O)c12
REMARK SMILES IDX 5 1 3 2 2 3 1 4 22 5 20 6 19 7 17 8 16 9 15 10 14 11 6 12
REMARK SMILES IDX 8 13 7 14 9 15 11 16 12 17 10 18 13 20 4 22 21 24 18 26
REMARK H PARENT 10 19 13 21 4 23 21 25 18 27
REMARK Flexibility Score: inf
ROOT
ATOM      1  C   UNL     1       2.980  -4.268  -7.592  1.00  0.00     0.184 A 
ATOM      2  C   UNL     1       2.949  -3.007  -8.213  1.00  0.00     0.208 A 
ATOM      3  C   UNL     1       1.764  -2.585  -8.835  1.00  0.00     0.238 A 
ATOM      4  O   UNL     1       1.721  -1.452  -9.386  1.00  0.00    -0.285 OA
ATOM      5  C   UNL     1       0.640  -3.438  -8.840  1.00  0.00     0.111 A 
ATOM      6  C   UNL     1      -0.593  -3.091  -9.446  1.00  0.00     0.134 A 
ATOM      7  C   UNL     1      -1.662  -3.998  -9.416  1.00  0.00     0.093 A 
ATOM      8  C   UNL     1      -1.524  -5.242  -8.794  1.00  0.00     0.123 A 
ATOM      9  C   UNL     1      -0.310  -5.590  -8.193  1.00  0.00     0.094 A 
ATOM     10  C   UNL     1       0.767  -4.699  -8.211  1.00  0.00     0.146 A 
ATOM     11  O   UNL     1       1.907  -5.053  -7.629  1.00  0.00    -0.451 OA
ENDROOT
BRANCH   1  12
ATOM     12  C   UNL     1       4.192  -4.767  -6.910  1.00  0.00     0.063 A 
ATOM     13  C   UNL     1       5.519  -4.915  -4.878  1.00  0.00     0.047 A 
ATOM     14  C   UNL     1       4.381  -4.463  -5.553  1.00  0.00     0.020 A 
ATOM     15  C   UNL     1       6.489  -5.662  -5.557  1.00  0.00     0.119 A 
ATOM     16  C   UNL     1       6.320  -5.947  -6.915  1.00  0.00     0.093 A 
ATOM     17  C   UNL     1       5.183  -5.494  -7.601  1.00  0.00     0.130 A 
BRANCH  15  18
ATOM     18  O   UNL     1       7.625  -6.119  -4.894  1.00  0.00    -0.508 OA
ATOM     19  H   UNL     1       8.199  -6.862  -5.277  1.00  0.00     0.293 HD
ENDBRANCH  15  18
BRANCH  17  20
ATOM     20  O   UNL     1       5.052  -5.744  -8.967  1.00  0.00    -0.507 OA
ATOM     21  H   UNL     1       5.227  -6.661  -9.359  1.00  0.00     0.293 HD
ENDBRANCH  17  20
ENDBRANCH   1  12
BRANCH   2  22
ATOM     22  O   UNL     1       4.094  -2.205  -8.231  1.00  0.00    -0.502 OA
ATOM     23  H   UNL     1       4.051  -1.198  -8.126  1.00  0.00     0.293 HD
ENDBRANCH   2  22
BRANCH   6  24
ATOM     24  O   UNL     1      -0.761  -1.857 -10.075  1.00  0.00    -0.507 OA
ATOM     25  H   UNL     1      -0.029  -1.441 -10.638  1.00  0.00     0.293 HD
ENDBRANCH   6  24
BRANCH   8  26
ATOM     26  O   UNL     1      -2.602  -6.124  -8.781  1.00  0.00    -0.508 OA
ATOM     27  H   UNL     1      -3.440  -5.929  -8.244  1.00  0.00     0.293 HD
ENDBRANCH   8  26
TORSDOF 6
ENDMDL
MODEL 2
REMARK VINA RESULT:    -4.402      3.373      7.427
REMARK INTER + INTRA:          -5.714
REMARK INTER:                  -5.303
REMARK INTRA:                  -0.411
REMARK UNBOUND:                -0.411
REMARK SMILES O=c1c(O)c(-c2ccc(O)cc2O)oc2cc(O)cc(O)c12
REMARK SMILES IDX 5 1 3 2 2 3 1 4 22 5 20 6 19 7 17 8 16 9 15 10 14 11 6 12
REMARK SMILES IDX 8 13 7 14 9 15 11 16 12 17 10 18 13 20 4 22 21 24 18 26
REMARK H PARENT 10 19 13 21 4 23 21 25 18 27
REMARK Flexibility Score: inf
ROOT
ATOM      1  C   UNL     1       3.113  -0.890  -7.822  1.00  0.00     0.184 A 
ATOM      2  C   UNL     1       3.710   0.100  -8.624  1.00  0.00     0.208 A 
ATOM      3  C   UNL     1       4.989   0.567  -8.285  1.00  0.00     0.238 A 
ATOM      4  O   UNL     1       5.540   1.446  -9.001  1.00  0.00    -0.285 OA
ATOM      5  C   UNL     1       5.638   0.051  -7.142  1.00  0.00     0.111 A 
ATOM      6  C   UNL     1       6.926   0.469  -6.729  1.00  0.00     0.134 A 
ATOM      7  C   UNL     1       7.500  -0.086  -5.575  1.00  0.00     0.093 A 
ATOM      8  C   UNL     1       6.814  -1.047  -4.829  1.00  0.00     0.123 A 
ATOM      9  C   UNL     1       5.542  -1.465  -5.233  1.00  0.00     0.094 A 
ATOM     10  C   UNL     1       4.953  -0.925  -6.380  1.00  0.00     0.146 A 
ATOM     11  O   UNL     1       3.746  -1.343  -6.744  1.00  0.00    -0.451 OA
ENDROOT
BRANCH   1  12
ATOM     12  C   UNL     1       1.774  -1.432  -8.131  1.00  0.00     0.063 A 
ATOM     13  C   UNL     1       0.383  -2.860  -9.524  1.00  0.00     0.047 A 
ATOM     14  C   UNL     1       1.636  -2.331  -9.200  1.00  0.00     0.020 A 
ATOM     15  C   UNL     1      -0.749  -2.485  -8.790  1.00  0.00     0.119 A 
ATOM     16  C   UNL     1      -0.624  -1.571  -7.739  1.00  0.00     0.093 A 
ATOM     17  C   UNL     1       0.630  -1.032  -7.412  1.00  0.00     0.130 A 
BRANCH  15  18
ATOM     18  O   UNL     1      -2.002  -3.007  -9.101  1.00  0.00    -0.508 OA
ATOM     19  H   UNL     1      -2.375  -2.965 -10.042  1.00  0.00     0.293 HD
ENDBRANCH  15  18
BRANCH  17  20
ATOM     20  O   UNL     1       0.732  -0.085  -6.393  1.00  0.00    -0.507 OA
ATOM     21  H   UNL     1       1.545   0.511  -6.300  1.00  0.00     0.293 HD
ENDBRANCH  17  20
ENDBRANCH   1  12
BRANCH   2  22
ATOM     22  O   UNL     1       3.023   0.623  -9.722  1.00  0.00    -0.502 OA
ATOM     23  H   UNL     1       2.810   0.069 -10.542  1.00  0.00     0.293 HD
ENDBRANCH   2  22
BRANCH   6  24
ATOM     24  O   UNL     1       7.637   1.428  -7.452  1.00  0.00    -0.507 OA
ATOM     25  H   UNL     1       7.805   1.329  -8.446  1.00  0.00     0.293 HD
ENDBRANCH   6  24
BRANCH   8  26
ATOM     26  O   UNL     1       7.407  -1.580  -3.687  1.00  0.00    -0.508 OA
ATOM     27  H   UNL     1       7.363  -2.572  -3.482  1.00  0.00     0.293 HD
ENDBRANCH   8  26
TORSDOF 6
ENDMDL
MODEL 3
REMARK VINA RESULT:    -4.385      4.731      8.143
REMARK INTER + INTRA:          -5.693
REMARK INTER:                  -5.271
REMARK INTRA:                  -0.422
REMARK UNBOUND:                -0.411
REMARK SMILES O=c1c(O)c(-c2ccc(O)cc2O)oc2cc(O)cc(O)c12
REMARK SMILES IDX 5 1 3 2 2 3 1 4 22 5 20 6 19 7 17 8 16 9 15 10 14 11 6 12
REMARK SMILES IDX 8 13 7 14 9 15 11 16 12 17 10 18 13 20 4 22 21 24 18 26
REMARK H PARENT 10 19 13 21 4 23 21 25 18 27
REMARK Flexibility Score: inf
ROOT
ATOM      1  C   UNL     1       2.395   0.533  -8.930  1.00  0.00     0.184 A 
ATOM      2  C   UNL     1       3.736   0.111  -8.935  1.00  0.00     0.208 A 
ATOM      3  C   UNL     1       4.752   1.079  -8.946  1.00  0.00     0.238 A 
ATOM      4  O   UNL     1       5.959   0.713  -8.939  1.00  0.00    -0.285 OA
ATOM      5  C   UNL     1       4.409   2.447  -8.971  1.00  0.00     0.111 A 
ATOM      6  C   UNL     1       5.371   3.487  -8.986  1.00  0.00     0.134 A 
ATOM      7  C   UNL     1       4.948   4.824  -9.020  1.00  0.00     0.093 A 
ATOM      8  C   UNL     1       3.589   5.142  -9.040  1.00  0.00     0.123 A 
ATOM      9  C   UNL     1       2.634   4.120  -9.024  1.00  0.00     0.094 A 
ATOM     10  C   UNL     1       3.034   2.781  -8.989  1.00  0.00     0.146 A 
ATOM     11  O   UNL     1       2.107   1.830  -8.970  1.00  0.00    -0.451 OA
ENDROOT
BRANCH   1  12
ATOM     12  C   UNL     1       1.278  -0.434  -8.908  1.00  0.00     0.063 A 
ATOM     13  C   UNL     1      -0.171  -1.961 -10.125  1.00  0.00     0.047 A 
ATOM     14  C   UNL     1       0.884  -1.045 -10.109  1.00  0.00     0.020 A 
ATOM     15  C   UNL     1      -0.855  -2.266  -8.942  1.00  0.00     0.119 A 
ATOM     16  C   UNL     1      -0.485  -1.643  -7.746  1.00  0.00     0.093 A 
ATOM     17  C   UNL     1       0.570  -0.720  -7.723  1.00  0.00     0.130 A 
BRANCH  15  18
ATOM     18  O   UNL     1      -1.907  -3.179  -8.945  1.00  0.00    -0.508 OA
ATOM     19  H   UNL     1      -2.166  -3.685  -9.784  1.00  0.00     0.293 HD
ENDBRANCH  15  18
BRANCH  17  20
ATOM     20  O   UNL     1       0.896  -0.070  -6.532  1.00  0.00    -0.507 OA
ATOM     21  H   UNL     1       0.794   0.932  -6.426  1.00  0.00     0.293 HD
ENDBRANCH  17  20
ENDBRANCH   1  12
BRANCH   2  22
ATOM     22  O   UNL     1       4.044  -1.252  -8.956  1.00  0.00    -0.502 OA
ATOM     23  H   UNL     1       4.997  -1.592  -8.971  1.00  0.00     0.293 HD
ENDBRANCH   2  22
BRANCH   6  24
ATOM     24  O   UNL     1       6.736   3.202  -8.968  1.00  0.00    -0.507 OA
ATOM     25  H   UNL     1       7.271   3.211  -8.108  1.00  0.00     0.293 HD
ENDBRANCH   6  24
BRANCH   8  26
ATOM     26  O   UNL     1       3.197   6.478  -9.075  1.00  0.00    -0.508 OA
ATOM     27  H   UNL     1       2.419   6.817  -8.521  1.00  0.00     0.293 HD
ENDBRANCH   8  26
TORSDOF 6
ENDMDL
MODEL 4
REMARK VINA RESULT:    -4.381      2.293      3.738
REMARK INTER + INTRA:          -5.688
REMARK INTER:                  -5.270
REMARK INTRA:                  -0.418
REMARK UNBOUND:                -0.411
REMARK SMILES O=c1c(O)c(-c2ccc(O)cc2O)oc2cc(O)cc(O)c12
REMARK SMILES IDX 5 1 3 2 2 3 1 4 22 5 20 6 19 7 17 8 16 9 15 10 14 11 6 12
REMARK SMILES IDX 8 13 7 14 9 15 11 16 12 17 10 18 13 20 4 22 21 24 18 26
REMARK H PARENT 10 19 13 21 4 23 21 25 18 27
REMARK Flexibility Score: inf
ROOT
ATOM      1  C   UNL     1       4.278  -3.820  -6.439  1.00  0.00     0.184 A 
ATOM      2  C   UNL     1       3.555  -4.740  -7.218  1.00  0.00     0.208 A 
ATOM      3  C   UNL     1       2.655  -4.255  -8.180  1.00  0.00     0.238 A 
ATOM      4  O   UNL     1       2.009  -5.071  -8.892  1.00  0.00    -0.285 OA
ATOM      5  C   UNL     1       2.482  -2.863  -8.331  1.00  0.00     0.111 A 
ATOM      6  C   UNL     1       1.593  -2.292  -9.274  1.00  0.00     0.134 A 
ATOM      7  C   UNL     1       1.471  -0.897  -9.357  1.00  0.00     0.093 A 
ATOM      8  C   UNL     1       2.217  -0.065  -8.519  1.00  0.00     0.123 A 
ATOM      9  C   UNL     1       3.096  -0.623  -7.586  1.00  0.00     0.094 A 
ATOM     10  C   UNL     1       3.234  -2.010  -7.488  1.00  0.00     0.146 A 
ATOM     11  O   UNL     1       4.080  -2.515  -6.597  1.00  0.00    -0.451 OA
ENDROOT
BRANCH   1  12
ATOM     12  C   UNL     1       5.250  -4.264  -5.418  1.00  0.00     0.063 A 
ATOM     13  C   UNL     1       5.660  -5.253  -3.235  1.00  0.00     0.047 A 
ATOM     14  C   UNL     1       4.770  -4.827  -4.225  1.00  0.00     0.020 A 
ATOM     15  C   UNL     1       7.040  -5.107  -3.420  1.00  0.00     0.119 A 
ATOM     16  C   UNL     1       7.525  -4.524  -4.595  1.00  0.00     0.093 A 
ATOM     17  C   UNL     1       6.638  -4.090  -5.591  1.00  0.00     0.130 A 
BRANCH  15  18
ATOM     18  O   UNL     1       7.937  -5.531  -2.442  1.00  0.00    -0.508 OA
ATOM     19  H   UNL     1       7.961  -6.494  -2.128  1.00  0.00     0.293 HD
ENDBRANCH  15  18
BRANCH  17  20
ATOM     20  O   UNL     1       7.133  -3.466  -6.736  1.00  0.00    -0.507 OA
ATOM     21  H   UNL     1       7.747  -2.663  -6.682  1.00  0.00     0.293 HD
ENDBRANCH  17  20
ENDBRANCH   1  12
BRANCH   2  22
ATOM     22  O   UNL     1       3.715  -6.113  -7.012  1.00  0.00    -0.502 OA
ATOM     23  H   UNL     1       3.633  -6.786  -7.764  1.00  0.00     0.293 HD
ENDBRANCH   2  22
BRANCH   6  24
ATOM     24  O   UNL     1       0.835  -3.096 -10.125  1.00  0.00    -0.507 OA
ATOM     25  H   UNL     1       1.267  -3.749 -10.768  1.00  0.00     0.293 HD
ENDBRANCH   6  24
BRANCH   8  26
ATOM     26  O   UNL     1       2.074   1.317  -8.622  1.00  0.00    -0.508 OA
ATOM     27  H   UNL     1       1.822   1.760  -9.498  1.00  0.00     0.293 HD
ENDBRANCH   8  26
TORSDOF 6
ENDMDL
MODEL 5
REMARK VINA RESULT:    -4.320      1.813      2.410
REMARK INTER + INTRA:          -5.615
REMARK INTER:                  -5.284
REMARK INTRA:                  -0.331
REMARK UNBOUND:                -0.411
REMARK SMILES O=c1c(O)c(-c2ccc(O)cc2O)oc2cc(O)cc(O)c12
REMARK SMILES IDX 5 1 3 2 2 3 1 4 22 5 20 6 19 7 17 8 16 9 15 10 14 11 6 12
REMARK SMILES IDX 8 13 7 14 9 15 11 16 12 17 10 18 13 20 4 22 21 24 18 26
REMARK H PARENT 10 19 13 21 4 23 21 25 18 27
REMARK Flexibility Score: inf
ROOT
ATOM      1  C   UNL     1       4.365  -3.922  -6.281  1.00  0.00     0.184 A 
ATOM      2  C   UNL     1       4.266  -2.554  -6.589  1.00  0.00     0.208 A 
ATOM      3  C   UNL     1       3.340  -2.143  -7.561  1.00  0.00     0.238 A 
ATOM      4  O   UNL     1       3.234  -0.917  -7.837  1.00  0.00    -0.285 OA
ATOM      5  C   UNL     1       2.548  -3.107  -8.218  1.00  0.00     0.111 A 
ATOM      6  C   UNL     1       1.593  -2.778  -9.212  1.00  0.00     0.134 A 
ATOM      7  C   UNL     1       0.850  -3.796  -9.826  1.00  0.00     0.093 A 
ATOM      8  C   UNL     1       1.041  -5.133  -9.469  1.00  0.00     0.123 A 
ATOM      9  C   UNL     1       1.981  -5.465  -8.488  1.00  0.00     0.094 A 
ATOM     10  C   UNL     1       2.731  -4.465  -7.863  1.00  0.00     0.146 A 
ATOM     11  O   UNL     1       3.614  -4.806  -6.931  1.00  0.00    -0.451 OA
ENDROOT
BRANCH   1  12
ATOM     12  C   UNL     1       5.311  -4.420  -5.260  1.00  0.00     0.063 A 
ATOM     13  C   UNL     1       5.673  -5.338  -3.038  1.00  0.00     0.047 A 
ATOM     14  C   UNL     1       4.807  -4.866  -4.029  1.00  0.00     0.020 A 
ATOM     15  C   UNL     1       7.055  -5.356  -3.263  1.00  0.00     0.119 A 
ATOM     16  C   UNL     1       7.566  -4.890  -4.478  1.00  0.00     0.093 A 
ATOM     17  C   UNL     1       6.704  -4.411  -5.475  1.00  0.00     0.130 A 
BRANCH  15  18
ATOM     18  O   UNL     1       7.927  -5.827  -2.285  1.00  0.00    -0.508 OA
ATOM     19  H   UNL     1       8.872  -6.114  -2.511  1.00  0.00     0.293 HD
ENDBRANCH  15  18
BRANCH  17  20
ATOM     20  O   UNL     1       7.232  -3.904  -6.663  1.00  0.00    -0.507 OA
ATOM     21  H   UNL     1       8.221  -3.712  -6.766  1.00  0.00     0.293 HD
ENDBRANCH  17  20
ENDBRANCH   1  12
BRANCH   2  22
ATOM     22  O   UNL     1       5.097  -1.628  -5.953  1.00  0.00    -0.502 OA
ATOM     23  H   UNL     1       5.869  -1.177  -6.428  1.00  0.00     0.293 HD
ENDBRANCH   2  22
BRANCH   6  24
ATOM     24  O   UNL     1       1.380  -1.452  -9.591  1.00  0.00    -0.507 OA
ATOM     25  H   UNL     1       1.392  -0.696  -8.917  1.00  0.00     0.293 HD
ENDBRANCH   6  24
BRANCH   8  26
ATOM     26  O   UNL     1       0.290  -6.125 -10.096  1.00  0.00    -0.508 OA
ATOM     27  H   UNL     1      -0.557  -6.493  -9.677  1.00  0.00     0.293 HD
ENDBRANCH   8  26
TORSDOF 6
ENDMDL
MODEL 6
REMARK VINA RESULT:    -4.249      3.095      4.400
REMARK INTER + INTRA:          -5.529
REMARK INTER:                  -5.203
REMARK INTRA:                  -0.326
REMARK UNBOUND:                -0.411
REMARK SMILES O=c1c(O)c(-c2ccc(O)cc2O)oc2cc(O)cc(O)c12
REMARK SMILES IDX 5 1 3 2 2 3 1 4 22 5 20 6 19 7 17 8 16 9 15 10 14 11 6 12
REMARK SMILES IDX 8 13 7 14 9 15 11 16 12 17 10 18 13 20 4 22 21 24 18 26
REMARK H PARENT 10 19 13 21 4 23 21 25 18 27
REMARK Flexibility Score: inf
ROOT
ATOM      1  C   UNL     1       3.858  -1.660  -7.601  1.00  0.00     0.184 A 
ATOM      2  C   UNL     1       4.200  -2.985  -7.924  1.00  0.00     0.208 A 
ATOM      3  C   UNL     1       3.203  -3.844  -8.413  1.00  0.00     0.238 A 
ATOM      4  O   UNL     1       3.500  -5.031  -8.716  1.00  0.00    -0.285 OA
ATOM      5  C   UNL     1       1.882  -3.368  -8.550  1.00  0.00     0.111 A 
ATOM      6  C   UNL     1       0.817  -4.168  -9.032  1.00  0.00     0.134 A 
ATOM      7  C   UNL     1      -0.471  -3.623  -9.132  1.00  0.00     0.093 A 
ATOM      8  C   UNL     1      -0.716  -2.299  -8.761  1.00  0.00     0.123 A 
ATOM      9  C   UNL     1       0.331  -1.504  -8.285  1.00  0.00     0.094 A 
ATOM     10  C   UNL     1       1.623  -2.027  -8.179  1.00  0.00     0.146 A 
ATOM     11  O   UNL     1       2.600  -1.249  -7.728  1.00  0.00    -0.451 OA
ENDROOT
BRANCH   1  12
ATOM     12  C   UNL     1       4.862  -0.702  -7.093  1.00  0.00     0.063 A 
ATOM     13  C   UNL     1       6.247   1.257  -7.486  1.00  0.00     0.047 A 
ATOM     14  C   UNL     1       5.294   0.337  -7.932  1.00  0.00     0.020 A 
ATOM     15  C   UNL     1       6.790   1.141  -6.201  1.00  0.00     0.119 A 
ATOM     16  C   UNL     1       6.383   0.094  -5.368  1.00  0.00     0.093 A 
ATOM     17  C   UNL     1       5.431  -0.837  -5.810  1.00  0.00     0.130 A 
BRANCH  15  18
ATOM     18  O   UNL     1       7.737   2.054  -5.744  1.00  0.00    -0.508 OA
ATOM     19  H   UNL     1       7.480   2.828  -5.143  1.00  0.00     0.293 HD
ENDBRANCH  15  18
BRANCH  17  20
ATOM     20  O   UNL     1       5.071  -1.904  -4.987  1.00  0.00    -0.507 OA
ATOM     21  H   UNL     1       5.681  -2.700  -4.849  1.00  0.00     0.293 HD
ENDBRANCH  17  20
ENDBRANCH   1  12
BRANCH   2  22
ATOM     22  O   UNL     1       5.508  -3.440  -7.733  1.00  0.00    -0.502 OA
ATOM     23  H   UNL     1       6.035  -3.236  -6.893  1.00  0.00     0.293 HD
ENDBRANCH   2  22
BRANCH   6  24
ATOM     24  O   UNL     1       1.030  -5.494  -9.411  1.00  0.00    -0.507 OA
ATOM     25  H   UNL     1       0.458  -6.249  -9.052  1.00  0.00     0.293 HD
ENDBRANCH   6  24
BRANCH   8  26
ATOM     26  O   UNL     1      -2.006  -1.784  -8.868  1.00  0.00    -0.508 OA
ATOM     27  H   UNL     1      -2.578  -1.954  -9.688  1.00  0.00     0.293 HD
ENDBRANCH   8  26
TORSDOF 6
ENDMDL
MODEL 7
REMARK VINA RESULT:    -4.233      5.274      8.179
REMARK INTER + INTRA:          -5.510
REMARK INTER:                  -5.090
REMARK INTRA:                  -0.421
REMARK UNBOUND:                -0.411
REMARK SMILES O=c1c(O)c(-c2ccc(O)cc2O)oc2cc(O)cc(O)c12
REMARK SMILES IDX 5 1 3 2 2 3 1 4 22 5 20 6 19 7 17 8 16 9 15 10 14 11 6 12
REMARK SMILES IDX 8 13 7 14 9 15 11 16 12 17 10 18 13 20 4 22 21 24 18 26
REMARK H PARENT 10 19 13 21 4 23 21 25 18 27
REMARK Flexibility Score: inf
ROOT
ATOM      1  C   UNL     1       2.788   1.064  -8.922  1.00  0.00     0.184 A 
ATOM      2  C   UNL     1       4.173   1.082  -8.676  1.00  0.00     0.208 A 
ATOM      3  C   UNL     1       4.840   2.316  -8.652  1.00  0.00     0.238 A 
ATOM      4  O   UNL     1       6.080   2.347  -8.422  1.00  0.00    -0.285 OA
ATOM      5  C   UNL     1       4.117   3.503  -8.894  1.00  0.00     0.111 A 
ATOM      6  C   UNL     1       4.714   4.788  -8.891  1.00  0.00     0.134 A 
ATOM      7  C   UNL     1       3.927   5.921  -9.148  1.00  0.00     0.093 A 
ATOM      8  C   UNL     1       2.561   5.795  -9.408  1.00  0.00     0.123 A 
ATOM      9  C   UNL     1       1.965   4.530  -9.412  1.00  0.00     0.094 A 
ATOM     10  C   UNL     1       2.731   3.389  -9.156  1.00  0.00     0.146 A 
ATOM     11  O   UNL     1       2.140   2.200  -9.161  1.00  0.00    -0.451 OA
ENDROOT
BRANCH   1  12
ATOM     12  C   UNL     1       2.023  -0.201  -8.949  1.00  0.00     0.063 A 
ATOM     13  C   UNL     1       1.437  -2.248 -10.124  1.00  0.00     0.047 A 
ATOM     14  C   UNL     1       2.149  -1.046 -10.062  1.00  0.00     0.020 A 
ATOM     15  C   UNL     1       0.578  -2.609  -9.079  1.00  0.00     0.119 A 
ATOM     16  C   UNL     1       0.428  -1.760  -7.978  1.00  0.00     0.093 A 
ATOM     17  C   UNL     1       1.136  -0.551  -7.911  1.00  0.00     0.130 A 
BRANCH  15  18
ATOM     18  O   UNL     1      -0.135  -3.805  -9.127  1.00  0.00    -0.508 OA
ATOM     19  H   UNL     1      -0.590  -4.184  -8.305  1.00  0.00     0.293 HD
ENDBRANCH  15  18
BRANCH  17  20
ATOM     20  O   UNL     1       0.940   0.309  -6.831  1.00  0.00    -0.507 OA
ATOM     21  H   UNL     1       0.354   1.131  -6.905  1.00  0.00     0.293 HD
ENDBRANCH  17  20
ENDBRANCH   1  12
BRANCH   2  22
ATOM     22  O   UNL     1       4.869  -0.114  -8.486  1.00  0.00    -0.502 OA
ATOM     23  H   UNL     1       5.386  -0.564  -9.232  1.00  0.00     0.293 HD
ENDBRANCH   2  22
BRANCH   6  24
ATOM     24  O   UNL     1       6.076   4.946  -8.635  1.00  0.00    -0.507 OA
ATOM     25  H   UNL     1       6.591   4.290  -8.061  1.00  0.00     0.293 HD
ENDBRANCH   6  24
BRANCH   8  26
ATOM     26  O   UNL     1       1.804   6.937  -9.662  1.00  0.00    -0.508 OA
ATOM     27  H   UNL     1       2.089   7.848  -9.322  1.00  0.00     0.293 HD
ENDBRANCH   8  26
TORSDOF 6
ENDMDL
MODEL 8
REMARK VINA RESULT:    -4.189      3.882      7.741
REMARK INTER + INTRA:          -5.457
REMARK INTER:                  -5.040
REMARK INTRA:                  -0.416
REMARK UNBOUND:                -0.411
REMARK SMILES O=c1c(O)c(-c2ccc(O)cc2O)oc2cc(O)cc(O)c12
REMARK SMILES IDX 5 1 3 2 2 3 1 4 22 5 20 6 19 7 17 8 16 9 15 10 14 11 6 12
REMARK SMILES IDX 8 13 7 14 9 15 11 16 12 17 10 18 13 20 4 22 21 24 18 26
REMARK H PARENT 10 19 13 21 4 23 21 25 18 27
REMARK Flexibility Score: inf
ROOT
ATOM      1  C   UNL     1       2.922  -0.683  -8.189  1.00  0.00     0.184 A 
ATOM      2  C   UNL     1       3.906  -1.275  -7.378  1.00  0.00     0.208 A 
ATOM      3  C   UNL     1       5.137  -0.620  -7.219  1.00  0.00     0.238 A 
ATOM      4  O   UNL     1       6.024  -1.135  -6.486  1.00  0.00    -0.285 OA
ATOM      5  C   UNL     1       5.366   0.602  -7.886  1.00  0.00     0.111 A 
ATOM      6  C   UNL     1       6.580   1.325  -7.781  1.00  0.00     0.134 A 
ATOM      7  C   UNL     1       6.734   2.530  -8.483  1.00  0.00     0.093 A 
ATOM      8  C   UNL     1       5.703   3.024  -9.286  1.00  0.00     0.123 A 
ATOM      9  C   UNL     1       4.502   2.315  -9.393  1.00  0.00     0.094 A 
ATOM     10  C   UNL     1       4.328   1.113  -8.700  1.00  0.00     0.146 A 
ATOM     11  O   UNL     1       3.176   0.461  -8.815  1.00  0.00    -0.451 OA
ENDROOT
BRANCH   1  12
ATOM     12  C   UNL     1       1.601  -1.315  -8.390  1.00  0.00     0.063 A 
ATOM     13  C   UNL     1       0.172  -2.758  -9.726  1.00  0.00     0.047 A 
ATOM     14  C   UNL     1       1.409  -2.149  -9.503  1.00  0.00     0.020 A 
ATOM     15  C   UNL     1      -0.894  -2.529  -8.847  1.00  0.00     0.119 A 
ATOM     16  C   UNL     1      -0.718  -1.680  -7.750  1.00  0.00     0.093 A 
ATOM     17  C   UNL     1       0.520  -1.061  -7.522  1.00  0.00     0.130 A 
BRANCH  15  18
ATOM     18  O   UNL     1      -2.131  -3.133  -9.058  1.00  0.00    -0.508 OA
ATOM     19  H   UNL     1      -2.773  -3.307  -8.293  1.00  0.00     0.293 HD
ENDBRANCH  15  18
BRANCH  17  20
ATOM     20  O   UNL     1       0.666  -0.179  -6.451  1.00  0.00    -0.507 OA
ATOM     21  H   UNL     1       0.769  -0.509  -5.500  1.00  0.00     0.293 HD
ENDBRANCH  17  20
ENDBRANCH   1  12
BRANCH   2  22
ATOM     22  O   UNL     1       3.665  -2.509  -6.768  1.00  0.00    -0.502 OA
ATOM     23  H   UNL     1       2.874  -3.090  -7.016  1.00  0.00     0.293 HD
ENDBRANCH   2  22
BRANCH   6  24
ATOM     24  O   UNL     1       7.628   0.858  -6.988  1.00  0.00    -0.507 OA
ATOM     25  H   UNL     1       7.493   0.124  -6.303  1.00  0.00     0.293 HD
ENDBRANCH   6  24
BRANCH   8  26
ATOM     26  O   UNL     1       5.883   4.221  -9.974  1.00  0.00    -0.508 OA
ATOM     27  H   UNL     1       6.221   4.238 -10.930  1.00  0.00     0.293 HD
ENDBRANCH   8  26
TORSDOF 6
ENDMDL
MODEL 9
REMARK VINA RESULT:    -4.101      2.436      4.086
REMARK INTER + INTRA:          -5.351
REMARK INTER:                  -4.940
REMARK INTRA:                  -0.411
REMARK UNBOUND:                -0.411
REMARK SMILES O=c1c(O)c(-c2ccc(O)cc2O)oc2cc(O)cc(O)c12
REMARK SMILES IDX 5 1 3 2 2 3 1 4 22 5 20 6 19 7 17 8 16 9 15 10 14 11 6 12
REMARK SMILES IDX 8 13 7 14 9 15 11 16 12 17 10 18 13 20 4 22 21 24 18 26
REMARK H PARENT 10 19 13 21 4 23 21 25 18 27
REMARK Flexibility Score: inf
ROOT
ATOM      1  C   UNL     1       2.822  -2.718  -8.665  1.00  0.00     0.184 A 
ATOM      2  C   UNL     1       2.793  -4.053  -8.222  1.00  0.00     0.208 A 
ATOM      3  C   UNL     1       1.568  -4.737  -8.211  1.00  0.00     0.238 A 
ATOM      4  O   UNL     1       1.531  -5.938  -7.826  1.00  0.00    -0.285 OA
ATOM      5  C   UNL     1       0.395  -4.071  -8.623  1.00  0.00     0.111 A 
ATOM      6  C   UNL     1      -0.880  -4.687  -8.640  1.00  0.00     0.134 A 
ATOM      7  C   UNL     1      -2.001  -3.954  -9.055  1.00  0.00     0.093 A 
ATOM      8  C   UNL     1      -1.874  -2.621  -9.454  1.00  0.00     0.123 A 
ATOM      9  C   UNL     1      -0.617  -2.007  -9.440  1.00  0.00     0.094 A 
ATOM     10  C   UNL     1       0.513  -2.721  -9.031  1.00  0.00     0.146 A 
ATOM     11  O   UNL     1       1.695  -2.116  -9.032  1.00  0.00    -0.451 OA
ENDROOT
BRANCH   1  12
ATOM     12  C   UNL     1       4.080  -1.945  -8.712  1.00  0.00     0.063 A 
ATOM     13  C   UNL     1       6.071  -1.293  -9.947  1.00  0.00     0.047 A 
ATOM     14  C   UNL     1       4.872  -2.007  -9.869  1.00  0.00     0.020 A 
ATOM     15  C   UNL     1       6.499  -0.519  -8.862  1.00  0.00     0.119 A 
ATOM     16  C   UNL     1       5.728  -0.471  -7.696  1.00  0.00     0.093 A 
ATOM     17  C   UNL     1       4.526  -1.189  -7.609  1.00  0.00     0.130 A 
BRANCH  15  18
ATOM     18  O   UNL     1       7.690   0.200  -8.928  1.00  0.00    -0.508 OA
ATOM     19  H   UNL     1       7.712   1.160  -9.253  1.00  0.00     0.293 HD
ENDBRANCH  15  18
BRANCH  17  20
ATOM     20  O   UNL     1       3.792  -1.171  -6.423  1.00  0.00    -0.507 OA
ATOM     21  H   UNL     1       3.417  -0.311  -6.042  1.00  0.00     0.293 HD
ENDBRANCH  17  20
ENDBRANCH   1  12
BRANCH   2  22
ATOM     22  O   UNL     1       3.965  -4.671  -7.776  1.00  0.00    -0.502 OA
ATOM     23  H   UNL     1       4.364  -5.475  -8.244  1.00  0.00     0.293 HD
ENDBRANCH   2  22
BRANCH   6  24
ATOM     24  O   UNL     1      -1.041  -6.016  -8.247  1.00  0.00    -0.507 OA
ATOM     25  H   UNL     1      -1.540  -6.266  -7.402  1.00  0.00     0.293 HD
ENDBRANCH   6  24
BRANCH   8  26
ATOM     26  O   UNL     1      -3.004  -1.915  -9.860  1.00  0.00    -0.508 OA
ATOM     27  H   UNL     1      -3.040  -1.444 -10.757  1.00  0.00     0.293 HD
ENDBRANCH   8  26
TORSDOF 6
ENDMDL
