MODEL 1
REMARK VINA RESULT:    -3.504      0.000      0.000
REMARK INTER + INTRA:          -6.818
REMARK INTER:                  -5.553
REMARK INTRA:                  -1.265
REMARK UNBOUND:                -1.265
REMARK SMILES CCCCCCCCCCCC(=O)[O-]
REMARK SMILES IDX 7 1 8 2 9 3 10 4 11 5 12 6 13 7 14 8 6 9 5 10 4 11 3 12 2 13
REMARK SMILES IDX 1 14
REMARK H PARENT
REMARK Flexibility Score: inf
ROOT
ATOM      1  C   UNL     1      -5.860  15.249  21.262  1.00  0.00     0.000 C 
ENDROOT
BRANCH   1   2
ATOM      2  C   UNL     1      -5.509  16.114  22.483  1.00  0.00     0.000 C 
BRANCH   2   3
ATOM      3  C   UNL     1      -4.947  17.490  22.095  1.00  0.00     0.000 C 
BRANCH   3   4
ATOM      4  C   UNL     1      -3.646  17.786  22.855  1.00  0.00     0.006 C 
BRANCH   4   5
ATOM      5  C   UNL     1      -2.688  16.589  22.854  1.00  0.00     0.053 C 
BRANCH   5   6
ATOM      6  C   UNL     1      -1.873  16.530  21.599  1.00  0.00     0.041 C 
ATOM      7  O   UNL     1      -1.388  17.582  21.107  1.00  0.00    -0.550 OA
ATOM      8  O   UNL     1      -1.622  15.307  20.990  1.00  0.00    -0.550 OA
ENDBRANCH   5   6
ENDBRANCH   4   5
ENDBRANCH   3   4
ENDBRANCH   2   3
ENDBRANCH   1   2
BRANCH   1   9
ATOM      9  C   UNL     1      -7.251  14.601  21.378  1.00  0.00     0.000 C 
BRANCH   9  10
ATOM     10  C   UNL     1      -8.143  15.313  22.408  1.00  0.00    -0.000 C 
BRANCH  10  11
ATOM     11  C   UNL     1      -9.124  16.303  21.757  1.00  0.00    -0.000 C 
BRANCH  11  12
ATOM     12  C   UNL     1      -8.884  17.754  22.225  1.00  0.00    -0.000 C 
BRANCH  12  13
ATOM     13  C   UNL     1      -8.331  18.672  21.122  1.00  0.00    -0.003 C 
ATOM     14  C   UNL     1      -8.337  18.019  19.740  1.00  0.00     0.004 C 
ENDBRANCH  12  13
ENDBRANCH  11  12
ENDBRANCH  10  11
ENDBRANCH   9  10
ENDBRANCH   1   9
TORSDOF 10
ENDMDL
MODEL 2
REMARK VINA RESULT:    -3.439      2.659      5.822
REMARK INTER + INTRA:          -6.714
REMARK INTER:                  -5.727
REMARK INTRA:                  -0.987
REMARK UNBOUND:                -1.265
REMARK SMILES CCCCCCCCCCCC(=O)[O-]
REMARK SMILES IDX 7 1 8 2 9 3 10 4 11 5 12 6 13 7 14 8 6 9 5 10 4 11 3 12 2 13
REMARK SMILES IDX 1 14
REMARK H PARENT
REMARK Flexibility Score: inf
ROOT
ATOM      1  C   UNL     1      -5.066  15.567  21.609  1.00  0.00     0.000 C 
ENDROOT
BRANCH   1   2
ATOM      2  C   UNL     1      -6.074  14.427  21.825  1.00  0.00     0.000 C 
BRANCH   2   3
ATOM      3  C   UNL     1      -7.473  14.759  21.285  1.00  0.00     0.000 C 
BRANCH   3   4
ATOM      4  C   UNL     1      -8.284  15.557  22.316  1.00  0.00     0.006 C 
BRANCH   4   5
ATOM      5  C   UNL     1      -9.122  16.665  21.666  1.00  0.00     0.053 C 
BRANCH   5   6
ATOM      6  C   UNL     1      -8.285  17.560  20.804  1.00  0.00     0.041 C 
ATOM      7  O   UNL     1      -8.512  17.643  19.568  1.00  0.00    -0.550 OA
ATOM      8  O   UNL     1      -7.277  18.328  21.371  1.00  0.00    -0.550 OA
ENDBRANCH   5   6
ENDBRANCH   4   5
ENDBRANCH   3   4
ENDBRANCH   2   3
ENDBRANCH   1   2
BRANCH   1   9
ATOM      9  C   UNL     1      -4.675  16.268  22.922  1.00  0.00     0.000 C 
BRANCH   9  10
ATOM     10  C   UNL     1      -4.139  17.690  22.688  1.00  0.00    -0.000 C 
BRANCH  10  11
ATOM     11  C   UNL     1      -2.619  17.792  22.904  1.00  0.00    -0.000 C 
BRANCH  11  12
ATOM     12  C   UNL     1      -1.830  17.606  21.590  1.00  0.00    -0.000 C 
BRANCH  12  13
ATOM     13  C   UNL     1      -0.844  16.427  21.628  1.00  0.00    -0.003 C 
ATOM     14  C   UNL     1      -1.389  15.167  20.958  1.00  0.00     0.004 C 
ENDBRANCH  12  13
ENDBRANCH  11  12
ENDBRANCH  10  11
ENDBRANCH   9  10
ENDBRANCH   1   9
TORSDOF 10
ENDMDL
MODEL 3
REMARK VINA RESULT:    -3.103      1.140      1.961
REMARK INTER + INTRA:          -6.183
REMARK INTER:                  -5.129
REMARK INTRA:                  -1.053
REMARK UNBOUND:                -1.265
REMARK SMILES CCCCCCCCCCCC(=O)[O-]
REMARK SMILES IDX 7 1 8 2 9 3 10 4 11 5 12 6 13 7 14 8 6 9 5 10 4 11 3 12 2 13
REMARK SMILES IDX 1 14
REMARK H PARENT
REMARK Flexibility Score: inf
ROOT
ATOM      1  C   UNL     1      -6.808  14.880  21.275  1.00  0.00     0.000 C 
ENDROOT
BRANCH   1   2
ATOM      2  C   UNL     1      -5.322  15.238  21.444  1.00  0.00     0.000 C 
BRANCH   2   3
ATOM      3  C   UNL     1      -5.023  15.915  22.790  1.00  0.00     0.000 C 
BRANCH   3   4
ATOM      4  C   UNL     1      -3.580  16.437  22.834  1.00  0.00     0.006 C 
BRANCH   4   5
ATOM      5  C   UNL     1      -2.734  15.906  21.669  1.00  0.00     0.053 C 
BRANCH   5   6
ATOM      6  C   UNL     1      -1.477  16.700  21.489  1.00  0.00     0.041 C 
ATOM      7  O   UNL     1      -0.357  16.178  21.730  1.00  0.00    -0.550 OA
ATOM      8  O   UNL     1      -1.540  18.006  21.021  1.00  0.00    -0.550 OA
ENDBRANCH   5   6
ENDBRANCH   4   5
ENDBRANCH   3   4
ENDBRANCH   2   3
ENDBRANCH   1   2
BRANCH   1   9
ATOM      9  C   UNL     1      -7.706  15.579  22.311  1.00  0.00     0.000 C 
BRANCH   9  10
ATOM     10  C   UNL     1      -8.946  16.221  21.669  1.00  0.00    -0.000 C 
BRANCH  10  11
ATOM     11  C   UNL     1      -9.061  17.724  21.978  1.00  0.00    -0.000 C 
BRANCH  11  12
ATOM     12  C   UNL     1      -7.718  18.460  21.794  1.00  0.00    -0.000 C 
BRANCH  12  13
ATOM     13  C   UNL     1      -7.283  19.263  23.032  1.00  0.00    -0.003 C 
ATOM     14  C   UNL     1      -5.770  19.449  23.125  1.00  0.00     0.004 C 
ENDBRANCH  12  13
ENDBRANCH  11  12
ENDBRANCH  10  11
ENDBRANCH   9  10
ENDBRANCH   1   9
TORSDOF 10
ENDMDL
MODEL 4
REMARK VINA RESULT:    -3.100     10.769     14.337
REMARK INTER + INTRA:          -6.177
REMARK INTER:                  -5.509
REMARK INTRA:                  -0.668
REMARK UNBOUND:                -1.265
REMARK SMILES CCCCCCCCCCCC(=O)[O-]
REMARK SMILES IDX 7 1 8 2 9 3 10 4 11 5 12 6 13 7 14 8 6 9 5 10 4 11 3 12 2 13
REMARK SMILES IDX 1 14
REMARK H PARENT
REMARK Flexibility Score: inf
ROOT
ATOM      1  C   UNL     1       8.467  17.153  20.937  1.00  0.00     0.000 C 
ENDROOT
BRANCH   1   2
ATOM      2  C   UNL     1       9.761  17.146  20.107  1.00  0.00     0.000 C 
BRANCH   2   3
ATOM      3  C   UNL     1      10.724  16.021  20.516  1.00  0.00     0.000 C 
BRANCH   3   4
ATOM      4  C   UNL     1      10.734  14.899  19.467  1.00  0.00     0.006 C 
BRANCH   4   5
ATOM      5  C   UNL     1      10.152  13.588  20.012  1.00  0.00     0.053 C 
BRANCH   5   6
ATOM      6  C   UNL     1      10.583  12.408  19.196  1.00  0.00     0.041 C 
ATOM      7  O   UNL     1      11.035  11.378  19.760  1.00  0.00    -0.550 OA
ATOM      8  O   UNL     1      10.451  12.434  17.814  1.00  0.00    -0.550 OA
ENDBRANCH   5   6
ENDBRANCH   4   5
ENDBRANCH   3   4
ENDBRANCH   2   3
ENDBRANCH   1   2
BRANCH   1   9
ATOM      9  C   UNL     1       8.513  16.159  22.111  1.00  0.00     0.000 C 
BRANCH   9  10
ATOM     10  C   UNL     1       7.143  15.993  22.789  1.00  0.00    -0.000 C 
BRANCH  10  11
ATOM     11  C   UNL     1       6.450  14.673  22.408  1.00  0.00    -0.000 C 
BRANCH  11  12
ATOM     12  C   UNL     1       4.912  14.788  22.456  1.00  0.00    -0.000 C 
BRANCH  12  13
ATOM     13  C   UNL     1       4.378  16.122  21.909  1.00  0.00    -0.003 C 
ATOM     14  C   UNL     1       2.872  16.290  22.103  1.00  0.00     0.004 C 
ENDBRANCH  12  13
ENDBRANCH  11  12
ENDBRANCH  10  11
ENDBRANCH   9  10
ENDBRANCH   1   9
TORSDOF 10
ENDMDL
MODEL 5
REMARK VINA RESULT:    -3.005      7.356     11.929
REMARK INTER + INTRA:          -6.026
REMARK INTER:                  -5.786
REMARK INTRA:                  -0.241
REMARK UNBOUND:                -1.265
REMARK SMILES CCCCCCCCCCCC(=O)[O-]
REMARK SMILES IDX 7 1 8 2 9 3 10 4 11 5 12 6 13 7 14 8 6 9 5 10 4 11 3 12 2 13
REMARK SMILES IDX 1 14
REMARK H PARENT
REMARK Flexibility Score: inf
ROOT
ATOM      1  C   UNL     1       4.513  15.617  22.383  1.00  0.00     0.000 C 
ENDROOT
BRANCH   1   2
ATOM      2  C   UNL     1       3.295  16.480  22.016  1.00  0.00     0.000 C 
BRANCH   2   3
ATOM      3  C   UNL     1       2.023  16.065  22.770  1.00  0.00     0.000 C 
BRANCH   3   4
ATOM      4  C   UNL     1       0.814  16.020  21.823  1.00  0.00     0.006 C 
BRANCH   4   5
ATOM      5  C   UNL     1      -0.482  16.461  22.515  1.00  0.00     0.053 C 
BRANCH   5   6
ATOM      6  C   UNL     1      -1.617  16.581  21.544  1.00  0.00     0.041 C 
ATOM      7  O   UNL     1      -2.114  17.708  21.285  1.00  0.00    -0.550 OA
ATOM      8  O   UNL     1      -2.102  15.451  20.898  1.00  0.00    -0.550 OA
ENDBRANCH   5   6
ENDBRANCH   4   5
ENDBRANCH   3   4
ENDBRANCH   2   3
ENDBRANCH   1   2
BRANCH   1   9
ATOM      9  C   UNL     1       5.763  15.982  21.564  1.00  0.00     0.000 C 
BRANCH   9  10
ATOM     10  C   UNL     1       6.968  16.318  22.458  1.00  0.00    -0.000 C 
BRANCH  10  11
ATOM     11  C   UNL     1       8.309  16.199  21.712  1.00  0.00    -0.000 C 
BRANCH  11  12
ATOM     12  C   UNL     1       8.738  17.534  21.068  1.00  0.00    -0.000 C 
BRANCH  12  13
ATOM     13  C   UNL     1       9.983  17.413  20.173  1.00  0.00    -0.003 C 
ATOM     14  C   UNL     1      10.791  16.144  20.440  1.00  0.00     0.004 C 
ENDBRANCH  12  13
ENDBRANCH  11  12
ENDBRANCH  10  11
ENDBRANCH   9  10
ENDBRANCH   1   9
TORSDOF 10
ENDMDL
MODEL 6
REMARK VINA RESULT:    -2.943     13.950     15.730
REMARK INTER + INTRA:          -5.929
REMARK INTER:                  -4.983
REMARK INTRA:                  -0.946
REMARK UNBOUND:                -1.265
REMARK SMILES CCCCCCCCCCCC(=O)[O-]
REMARK SMILES IDX 7 1 8 2 9 3 10 4 11 5 12 6 13 7 14 8 6 9 5 10 4 11 3 12 2 13
REMARK SMILES IDX 1 14
REMARK H PARENT
REMARK Flexibility Score: inf
ROOT
ATOM      1  C   UNL     1       7.881  13.941  21.885  1.00  0.00     0.000 C 
ENDROOT
BRANCH   1   2
ATOM      2  C   UNL     1       8.804  12.835  22.424  1.00  0.00     0.000 C 
BRANCH   2   3
ATOM      3  C   UNL     1      10.266  13.017  21.990  1.00  0.00     0.000 C 
BRANCH   3   4
ATOM      4  C   UNL     1      10.710  11.875  21.065  1.00  0.00     0.006 C 
BRANCH   4   5
ATOM      5  C   UNL     1      11.091  12.376  19.666  1.00  0.00     0.053 C 
BRANCH   5   6
ATOM      6  C   UNL     1      10.670  11.413  18.598  1.00  0.00     0.041 C 
ATOM      7  O   UNL     1      10.552  10.188  18.859  1.00  0.00    -0.550 OA
ATOM      8  O   UNL     1      10.375  11.876  17.322  1.00  0.00    -0.550 OA
ENDBRANCH   5   6
ENDBRANCH   4   5
ENDBRANCH   3   4
ENDBRANCH   2   3
ENDBRANCH   1   2
BRANCH   1   9
ATOM      9  C   UNL     1       7.401  14.899  22.989  1.00  0.00     0.000 C 
BRANCH   9  10
ATOM     10  C   UNL     1       7.633  16.374  22.622  1.00  0.00    -0.000 C 
BRANCH  10  11
ATOM     11  C   UNL     1       7.936  16.571  21.126  1.00  0.00    -0.000 C 
BRANCH  11  12
ATOM     12  C   UNL     1       8.875  17.770  20.876  1.00  0.00    -0.000 C 
BRANCH  12  13
ATOM     13  C   UNL     1      10.305  17.360  20.484  1.00  0.00    -0.003 C 
ATOM     14  C   UNL     1      10.376  15.978  19.837  1.00  0.00     0.004 C 
ENDBRANCH  12  13
ENDBRANCH  11  12
ENDBRANCH  10  11
ENDBRANCH   9  10
ENDBRANCH   1   9
TORSDOF 10
ENDMDL
MODEL 7
REMARK VINA RESULT:    -2.818     12.562     15.858
REMARK INTER + INTRA:          -5.730
REMARK INTER:                  -5.235
REMARK INTRA:                  -0.495
REMARK UNBOUND:                -1.265
REMARK SMILES CCCCCCCCCCCC(=O)[O-]
REMARK SMILES IDX 7 1 8 2 9 3 10 4 11 5 12 6 13 7 14 8 6 9 5 10 4 11 3 12 2 13
REMARK SMILES IDX 1 14
REMARK H PARENT
REMARK Flexibility Score: inf
ROOT
ATOM      1  C   UNL     1      10.256  15.625  20.101  1.00  0.00     0.000 C 
ENDROOT
BRANCH   1   2
ATOM      2  C   UNL     1      10.461  17.126  20.359  1.00  0.00     0.000 C 
BRANCH   2   3
ATOM      3  C   UNL     1       9.195  17.818  20.886  1.00  0.00     0.000 C 
BRANCH   3   4
ATOM      4  C   UNL     1       7.998  16.856  20.871  1.00  0.00     0.006 C 
BRANCH   4   5
ATOM      5  C   UNL     1       7.611  16.388  22.279  1.00  0.00     0.053 C 
BRANCH   5   6
ATOM      6  C   UNL     1       6.628  15.258  22.238  1.00  0.00     0.041 C 
ATOM      7  O   UNL     1       5.460  15.417  22.679  1.00  0.00    -0.550 OA
ATOM      8  O   UNL     1       6.992  14.039  21.680  1.00  0.00    -0.550 OA
ENDBRANCH   5   6
ENDBRANCH   4   5
ENDBRANCH   3   4
ENDBRANCH   2   3
ENDBRANCH   1   2
BRANCH   1   9
ATOM      9  C   UNL     1      11.125  14.744  21.016  1.00  0.00     0.000 C 
BRANCH   9  10
ATOM     10  C   UNL     1      10.481  13.376  21.291  1.00  0.00    -0.000 C 
BRANCH  10  11
ATOM     11  C   UNL     1      10.902  12.307  20.268  1.00  0.00    -0.000 C 
BRANCH  11  12
ATOM     12  C   UNL     1      10.197  12.494  18.907  1.00  0.00    -0.000 C 
BRANCH  12  13
ATOM     13  C   UNL     1      10.428  11.328  17.931  1.00  0.00    -0.003 C 
ATOM     14  C   UNL     1      10.430   9.963  18.617  1.00  0.00     0.004 C 
ENDBRANCH  12  13
ENDBRANCH  11  12
ENDBRANCH  10  11
ENDBRANCH   9  10
ENDBRANCH   1   9
TORSDOF 10
ENDMDL
MODEL 8
REMARK VINA RESULT:    -2.810      4.115      5.943
REMARK INTER + INTRA:          -5.718
REMARK INTER:                  -5.365
REMARK INTRA:                  -0.353
REMARK UNBOUND:                -1.265
REMARK SMILES CCCCCCCCCCCC(=O)[O-]
REMARK SMILES IDX 7 1 8 2 9 3 10 4 11 5 12 6 13 7 14 8 6 9 5 10 4 11 3 12 2 13
REMARK SMILES IDX 1 14
REMARK H PARENT
REMARK Flexibility Score: inf
ROOT
ATOM      1  C   UNL     1      -0.844  15.612  21.621  1.00  0.00     0.000 C 
ENDROOT
BRANCH   1   2
ATOM      2  C   UNL     1       0.280  16.012  22.590  1.00  0.00     0.000 C 
BRANCH   2   3
ATOM      3  C   UNL     1       1.666  16.005  21.929  1.00  0.00     0.000 C 
BRANCH   3   4
ATOM      4  C   UNL     1       2.776  16.162  22.978  1.00  0.00     0.006 C 
BRANCH   4   5
ATOM      5  C   UNL     1       3.979  15.253  22.692  1.00  0.00     0.053 C 
BRANCH   5   6
ATOM      6  C   UNL     1       5.085  15.995  22.007  1.00  0.00     0.041 C 
ATOM      7  O   UNL     1       6.266  15.909  22.434  1.00  0.00    -0.550 OA
ATOM      8  O   UNL     1       4.816  16.756  20.876  1.00  0.00    -0.550 OA
ENDBRANCH   5   6
ENDBRANCH   4   5
ENDBRANCH   3   4
ENDBRANCH   2   3
ENDBRANCH   1   2
BRANCH   1   9
ATOM      9  C   UNL     1      -2.062  16.549  21.710  1.00  0.00     0.000 C 
BRANCH   9  10
ATOM     10  C   UNL     1      -2.735  16.502  23.091  1.00  0.00    -0.000 C 
BRANCH  10  11
ATOM     11  C   UNL     1      -4.192  16.009  23.022  1.00  0.00    -0.000 C 
BRANCH  11  12
ATOM     12  C   UNL     1      -4.568  15.499  21.615  1.00  0.00    -0.000 C 
BRANCH  12  13
ATOM     13  C   UNL     1      -6.050  15.709  21.261  1.00  0.00    -0.003 C 
ATOM     14  C   UNL     1      -6.929  14.514  21.627  1.00  0.00     0.004 C 
ENDBRANCH  12  13
ENDBRANCH  11  12
ENDBRANCH  10  11
ENDBRANCH   9  10
ENDBRANCH   1   9
TORSDOF 10
ENDMDL
MODEL 9
REMARK VINA RESULT:    -2.746     14.687     16.826
REMARK INTER + INTRA:          -5.617
REMARK INTER:                  -4.872
REMARK INTRA:                  -0.745
REMARK UNBOUND:                -1.265
REMARK SMILES CCCCCCCCCCCC(=O)[O-]
REMARK SMILES IDX 7 1 8 2 9 3 10 4 11 5 12 6 13 7 14 8 6 9 5 10 4 11 3 12 2 13
REMARK SMILES IDX 1 14
REMARK H PARENT
REMARK Flexibility Score: inf
ROOT
ATOM      1  C   UNL     1      10.380  11.479  18.054  1.00  0.00     0.000 C 
ENDROOT
BRANCH   1   2
ATOM      2  C   UNL     1      11.125  10.499  18.975  1.00  0.00     0.000 C 
BRANCH   2   3
ATOM      3  C   UNL     1      10.380   9.168  19.155  1.00  0.00     0.000 C 
BRANCH   3   4
ATOM      4  C   UNL     1      10.145   8.868  20.642  1.00  0.00     0.006 C 
BRANCH   4   5
ATOM      5  C   UNL     1      10.594  10.023  21.547  1.00  0.00     0.053 C 
BRANCH   5   6
ATOM      6  C   UNL     1       9.479  10.509  22.421  1.00  0.00     0.041 C 
ATOM      7  O   UNL     1       9.330  11.740  22.634  1.00  0.00    -0.550 OA
ATOM      8  O   UNL     1       8.583   9.602  22.974  1.00  0.00    -0.550 OA
ENDBRANCH   5   6
ENDBRANCH   4   5
ENDBRANCH   3   4
ENDBRANCH   2   3
ENDBRANCH   1   2
BRANCH   1   9
ATOM      9  C   UNL     1      10.771  12.945  18.311  1.00  0.00     0.000 C 
BRANCH   9  10
ATOM     10  C   UNL     1      10.903  13.259  19.810  1.00  0.00    -0.000 C 
BRANCH  10  11
ATOM     11  C   UNL     1       9.980  14.405  20.258  1.00  0.00    -0.000 C 
BRANCH  11  12
ATOM     12  C   UNL     1      10.637  15.789  20.071  1.00  0.00    -0.000 C 
BRANCH  12  13
ATOM     13  C   UNL     1       9.637  16.957  20.130  1.00  0.00    -0.003 C 
ATOM     14  C   UNL     1       8.598  16.800  21.238  1.00  0.00     0.004 C 
ENDBRANCH  12  13
ENDBRANCH  11  12
ENDBRANCH  10  11
ENDBRANCH   9  10
ENDBRANCH   1   9
TORSDOF 10
ENDMDL
