MODEL 1
REMARK VINA RESULT:    -5.565      0.000      0.000
REMARK INTER + INTRA:          -5.890
REMARK INTER:                  -5.890
REMARK INTRA:                   0.000
REMARK UNBOUND:                 0.000
REMARK SMILES O=c1ccc2cc(O)c(O)cc2o1
REMARK SMILES IDX 4 1 3 2 2 3 1 4 13 5 12 6 11 7 9 8 7 9 6 10 5 11 8 12 10 14
REMARK H PARENT 8 13 10 15
REMARK Flexibility Score: inf
ROOT
ATOM      1  C   UNL     1      10.304  -7.522  -9.545  1.00  0.00     0.019 A 
ATOM      2  C   UNL     1       9.539  -8.236 -10.468  1.00  0.00     0.094 A 
ATOM      3  C   UNL     1       8.154  -8.311 -10.288  1.00  0.00     0.336 A 
ATOM      4  O   UNL     1       7.447  -8.951 -11.110  1.00  0.00    -0.246 OA
ATOM      5  O   UNL     1       7.576  -7.709  -9.252  1.00  0.00    -0.423 OA
ATOM      6  C   UNL     1       8.268  -7.018  -8.348  1.00  0.00     0.142 A 
ATOM      7  C   UNL     1       7.607  -6.407  -7.278  1.00  0.00     0.098 A 
ATOM      8  C   UNL     1       8.330  -5.677  -6.324  1.00  0.00     0.161 A 
ATOM      9  C   UNL     1       9.727  -5.560  -6.442  1.00  0.00     0.158 A 
ATOM     10  C   UNL     1      10.392  -6.171  -7.512  1.00  0.00     0.062 A 
ATOM     11  C   UNL     1       9.669  -6.900  -8.466  1.00  0.00     0.022 A 
ENDROOT
BRANCH   9  12
ATOM     12  O   UNL     1      10.470  -4.841  -5.506  1.00  0.00    -0.504 OA
ATOM     13  H   UNL     1      11.476  -4.938  -5.428  1.00  0.00     0.293 HD
ENDBRANCH   9  12
BRANCH   8  14
ATOM     14  O   UNL     1       7.667  -5.070  -5.259  1.00  0.00    -0.504 OA
ATOM     15  H   UNL     1       6.907  -5.532  -4.773  1.00  0.00     0.293 HD
ENDBRANCH   8  14
TORSDOF 2
ENDMDL
MODEL 2
REMARK VINA RESULT:    -5.472      1.197      2.282
REMARK INTER + INTRA:          -5.791
REMARK INTER:                  -5.791
REMARK INTRA:                   0.000
REMARK UNBOUND:                 0.000
REMARK SMILES O=c1ccc2cc(O)c(O)cc2o1
REMARK SMILES IDX 4 1 3 2 2 3 1 4 13 5 12 6 11 7 9 8 7 9 6 10 5 11 8 12 10 14
REMARK H PARENT 8 13 10 15
REMARK Flexibility Score: inf
ROOT
ATOM      1  C   UNL     1       7.659  -7.889  -9.300  1.00  0.00     0.019 A 
ATOM      2  C   UNL     1       8.371  -8.456 -10.357  1.00  0.00     0.094 A 
ATOM      3  C   UNL     1       9.749  -8.235 -10.443  1.00  0.00     0.336 A 
ATOM      4  O   UNL     1      10.409  -8.740 -11.390  1.00  0.00    -0.246 OA
ATOM      5  O   UNL     1      10.371  -7.495  -9.529  1.00  0.00    -0.423 OA
ATOM      6  C   UNL     1       9.730  -6.935  -8.505  1.00  0.00     0.142 A 
ATOM      7  C   UNL     1      10.436  -6.166  -7.575  1.00  0.00     0.098 A 
ATOM      8  C   UNL     1       9.767  -5.573  -6.494  1.00  0.00     0.161 A 
ATOM      9  C   UNL     1       8.379  -5.753  -6.344  1.00  0.00     0.158 A 
ATOM     10  C   UNL     1       7.670  -6.523  -7.274  1.00  0.00     0.062 A 
ATOM     11  C   UNL     1       8.339  -7.115  -8.354  1.00  0.00     0.022 A 
ENDROOT
BRANCH   9  12
ATOM     12  O   UNL     1       7.690  -5.175  -5.279  1.00  0.00    -0.504 OA
ATOM     13  H   UNL     1       7.183  -4.304  -5.376  1.00  0.00     0.293 HD
ENDBRANCH   9  12
BRANCH   8  14
ATOM     14  O   UNL     1      10.475  -4.807  -5.569  1.00  0.00    -0.504 OA
ATOM     15  H   UNL     1      10.832  -5.209  -4.710  1.00  0.00     0.293 HD
ENDBRANCH   8  14
TORSDOF 2
ENDMDL
MODEL 3
REMARK VINA RESULT:    -5.359      2.592      3.392
REMARK INTER + INTRA:          -5.672
REMARK INTER:                  -5.672
REMARK INTRA:                   0.000
REMARK UNBOUND:                 0.000
REMARK SMILES O=c1ccc2cc(O)c(O)cc2o1
REMARK SMILES IDX 4 1 3 2 2 3 1 4 13 5 12 6 11 7 9 8 7 9 6 10 5 11 8 12 10 14
REMARK H PARENT 8 13 10 15
REMARK Flexibility Score: inf
ROOT
ATOM      1  C   UNL     1       8.022  -9.616  -7.669  1.00  0.00     0.019 A 
ATOM      2  C   UNL     1       6.907 -10.125  -7.003  1.00  0.00     0.094 A 
ATOM      3  C   UNL     1       6.378  -9.410  -5.924  1.00  0.00     0.336 A 
ATOM      4  O   UNL     1       5.371  -9.853  -5.310  1.00  0.00    -0.246 OA
ATOM      5  O   UNL     1       6.930  -8.262  -5.540  1.00  0.00    -0.423 OA
ATOM      6  C   UNL     1       7.994  -7.742  -6.147  1.00  0.00     0.142 A 
ATOM      7  C   UNL     1       8.533  -6.532  -5.699  1.00  0.00     0.098 A 
ATOM      8  C   UNL     1       9.654  -5.978  -6.336  1.00  0.00     0.161 A 
ATOM      9  C   UNL     1      10.239  -6.642  -7.429  1.00  0.00     0.158 A 
ATOM     10  C   UNL     1       9.702  -7.855  -7.879  1.00  0.00     0.062 A 
ATOM     11  C   UNL     1       8.582  -8.407  -7.244  1.00  0.00     0.022 A 
ENDROOT
BRANCH   9  12
ATOM     12  O   UNL     1      11.354  -6.114  -8.079  1.00  0.00    -0.504 OA
ATOM     13  H   UNL     1      11.681  -5.171  -7.906  1.00  0.00     0.293 HD
ENDBRANCH   9  12
BRANCH   8  14
ATOM     14  O   UNL     1      10.188  -4.771  -5.885  1.00  0.00    -0.504 OA
ATOM     15  H   UNL     1      11.179  -4.664  -5.704  1.00  0.00     0.293 HD
ENDBRANCH   8  14
TORSDOF 2
ENDMDL
MODEL 4
REMARK VINA RESULT:    -5.136      2.026      2.533
REMARK INTER + INTRA:          -5.436
REMARK INTER:                  -5.436
REMARK INTRA:                   0.000
REMARK UNBOUND:                 0.000
REMARK SMILES O=c1ccc2cc(O)c(O)cc2o1
REMARK SMILES IDX 4 1 3 2 2 3 1 4 13 5 12 6 11 7 9 8 7 9 6 10 5 11 8 12 10 14
REMARK H PARENT 8 13 10 15
REMARK Flexibility Score: inf
ROOT
ATOM      1  C   UNL     1      11.253  -6.907  -8.326  1.00  0.00     0.019 A 
ATOM      2  C   UNL     1      11.774  -7.166  -9.594  1.00  0.00     0.094 A 
ATOM      3  C   UNL     1      10.996  -6.874 -10.719  1.00  0.00     0.336 A 
ATOM      4  O   UNL     1      11.449  -7.100 -11.872  1.00  0.00    -0.246 OA
ATOM      5  O   UNL     1       9.778  -6.356 -10.581  1.00  0.00    -0.423 OA
ATOM      6  C   UNL     1       9.243  -6.095  -9.390  1.00  0.00     0.142 A 
ATOM      7  C   UNL     1       7.958  -5.551  -9.306  1.00  0.00     0.098 A 
ATOM      8  C   UNL     1       7.389  -5.273  -8.054  1.00  0.00     0.161 A 
ATOM      9  C   UNL     1       8.114  -5.541  -6.878  1.00  0.00     0.158 A 
ATOM     10  C   UNL     1       9.402  -6.085  -6.960  1.00  0.00     0.062 A 
ATOM     11  C   UNL     1       9.970  -6.363  -8.211  1.00  0.00     0.022 A 
ENDROOT
BRANCH   9  12
ATOM     12  O   UNL     1       7.572  -5.274  -5.622  1.00  0.00    -0.504 OA
ATOM     13  H   UNL     1       6.625  -5.538  -5.377  1.00  0.00     0.293 HD
ENDBRANCH   9  12
BRANCH   8  14
ATOM     14  O   UNL     1       6.106  -4.731  -7.974  1.00  0.00    -0.504 OA
ATOM     15  H   UNL     1       5.767  -4.294  -7.125  1.00  0.00     0.293 HD
ENDBRANCH   8  14
TORSDOF 2
ENDMDL
MODEL 5
REMARK VINA RESULT:    -5.074      1.589      2.261
REMARK INTER + INTRA:          -5.371
REMARK INTER:                  -5.371
REMARK INTRA:                   0.000
REMARK UNBOUND:                 0.000
REMARK SMILES O=c1ccc2cc(O)c(O)cc2o1
REMARK SMILES IDX 4 1 3 2 2 3 1 4 13 5 12 6 11 7 9 8 7 9 6 10 5 11 8 12 10 14
REMARK H PARENT 8 13 10 15
REMARK Flexibility Score: inf
ROOT
ATOM      1  C   UNL     1       7.967  -9.092  -8.133  1.00  0.00     0.019 A 
ATOM      2  C   UNL     1       8.122  -8.859  -9.500  1.00  0.00     0.094 A 
ATOM      3  C   UNL     1       8.288  -7.546  -9.950  1.00  0.00     0.336 A 
ATOM      4  O   UNL     1       8.430  -7.316 -11.179  1.00  0.00    -0.246 OA
ATOM      5  O   UNL     1       8.299  -6.534  -9.086  1.00  0.00    -0.423 OA
ATOM      6  C   UNL     1       8.154  -6.711  -7.774  1.00  0.00     0.142 A 
ATOM      7  C   UNL     1       8.173  -5.609  -6.914  1.00  0.00     0.098 A 
ATOM      8  C   UNL     1       8.021  -5.790  -5.531  1.00  0.00     0.161 A 
ATOM      9  C   UNL     1       7.849  -7.084  -5.007  1.00  0.00     0.158 A 
ATOM     10  C   UNL     1       7.830  -8.189  -5.867  1.00  0.00     0.062 A 
ATOM     11  C   UNL     1       7.982  -8.009  -7.248  1.00  0.00     0.022 A 
ENDROOT
BRANCH   9  12
ATOM     12  O   UNL     1       7.695  -7.291  -3.637  1.00  0.00    -0.504 OA
ATOM     13  H   UNL     1       7.095  -8.018  -3.266  1.00  0.00     0.293 HD
ENDBRANCH   9  12
BRANCH   8  14
ATOM     14  O   UNL     1       8.040  -4.688  -4.676  1.00  0.00    -0.504 OA
ATOM     15  H   UNL     1       7.184  -4.248  -4.358  1.00  0.00     0.293 HD
ENDBRANCH   8  14
TORSDOF 2
ENDMDL
MODEL 6
REMARK VINA RESULT:    -5.036     10.721     12.241
REMARK INTER + INTRA:          -5.330
REMARK INTER:                  -5.330
REMARK INTRA:                   0.000
REMARK UNBOUND:                 0.000
REMARK SMILES O=c1ccc2cc(O)c(O)cc2o1
REMARK SMILES IDX 4 1 3 2 2 3 1 4 13 5 12 6 11 7 9 8 7 9 6 10 5 11 8 12 10 14
REMARK H PARENT 8 13 10 15
REMARK Flexibility Score: inf
ROOT
ATOM      1  C   UNL     1       4.579   4.406  -7.389  1.00  0.00     0.019 A 
ATOM      2  C   UNL     1       3.893   5.551  -7.795  1.00  0.00     0.094 A 
ATOM      3  C   UNL     1       4.479   6.391  -8.748  1.00  0.00     0.336 A 
ATOM      4  O   UNL     1       3.875   7.428  -9.127  1.00  0.00    -0.246 OA
ATOM      5  O   UNL     1       5.672   6.100  -9.259  1.00  0.00    -0.423 OA
ATOM      6  C   UNL     1       6.361   5.018  -8.899  1.00  0.00     0.142 A 
ATOM      7  C   UNL     1       7.612   4.764  -9.469  1.00  0.00     0.098 A 
ATOM      8  C   UNL     1       8.342   3.626  -9.094  1.00  0.00     0.161 A 
ATOM      9  C   UNL     1       7.814   2.737  -8.141  1.00  0.00     0.158 A 
ATOM     10  C   UNL     1       6.561   2.989  -7.568  1.00  0.00     0.062 A 
ATOM     11  C   UNL     1       5.832   4.126  -7.942  1.00  0.00     0.022 A 
ENDROOT
BRANCH   9  12
ATOM     12  O   UNL     1       8.519   1.599  -7.750  1.00  0.00    -0.504 OA
ATOM     13  H   UNL     1       9.517   1.616  -7.583  1.00  0.00     0.293 HD
ENDBRANCH   9  12
BRANCH   8  14
ATOM     14  O   UNL     1       9.589   3.377  -9.666  1.00  0.00    -0.504 OA
ATOM     15  H   UNL     1      10.003   2.451  -9.654  1.00  0.00     0.293 HD
ENDBRANCH   8  14
TORSDOF 2
ENDMDL
MODEL 7
REMARK VINA RESULT:    -4.994     17.566     18.721
REMARK INTER + INTRA:          -5.285
REMARK INTER:                  -5.285
REMARK INTRA:                   0.000
REMARK UNBOUND:                 0.000
REMARK SMILES O=c1ccc2cc(O)c(O)cc2o1
REMARK SMILES IDX 4 1 3 2 2 3 1 4 13 5 12 6 11 7 9 8 7 9 6 10 5 11 8 12 10 14
REMARK H PARENT 8 13 10 15
REMARK Flexibility Score: inf
ROOT
ATOM      1  C   UNL     1      21.399  -0.749 -22.631  1.00  0.00     0.019 A 
ATOM      2  C   UNL     1      21.885   0.462 -23.125  1.00  0.00     0.094 A 
ATOM      3  C   UNL     1      21.818   1.600 -22.315  1.00  0.00     0.336 A 
ATOM      4  O   UNL     1      22.252   2.702 -22.743  1.00  0.00    -0.246 OA
ATOM      5  O   UNL     1      21.299   1.527 -21.092  1.00  0.00    -0.423 OA
ATOM      6  C   UNL     1      20.824   0.392 -20.583  1.00  0.00     0.142 A 
ATOM      7  C   UNL     1      20.289   0.376 -19.291  1.00  0.00     0.098 A 
ATOM      8  C   UNL     1      19.788  -0.817 -18.749  1.00  0.00     0.161 A 
ATOM      9  C   UNL     1      19.823  -2.002 -19.507  1.00  0.00     0.158 A 
ATOM     10  C   UNL     1      20.358  -1.988 -20.801  1.00  0.00     0.062 A 
ATOM     11  C   UNL     1      20.859  -0.796 -21.343  1.00  0.00     0.022 A 
ENDROOT
BRANCH   9  12
ATOM     12  O   UNL     1      19.330  -3.200 -18.992  1.00  0.00    -0.504 OA
ATOM     13  H   UNL     1      18.807  -3.239 -18.126  1.00  0.00     0.293 HD
ENDBRANCH   9  12
BRANCH   8  14
ATOM     14  O   UNL     1      19.255  -0.829 -17.460  1.00  0.00    -0.504 OA
ATOM     15  H   UNL     1      18.729  -0.043 -17.096  1.00  0.00     0.293 HD
ENDBRANCH   8  14
TORSDOF 2
ENDMDL
MODEL 8
REMARK VINA RESULT:    -4.830      2.345      3.029
REMARK INTER + INTRA:          -5.113
REMARK INTER:                  -5.113
REMARK INTRA:                   0.000
REMARK UNBOUND:                 0.000
REMARK SMILES O=c1ccc2cc(O)c(O)cc2o1
REMARK SMILES IDX 4 1 3 2 2 3 1 4 13 5 12 6 11 7 9 8 7 9 6 10 5 11 8 12 10 14
REMARK H PARENT 8 13 10 15
REMARK Flexibility Score: inf
ROOT
ATOM      1  C   UNL     1      10.408  -8.690  -8.750  1.00  0.00     0.019 A 
ATOM      2  C   UNL     1      11.403  -8.117  -9.543  1.00  0.00     0.094 A 
ATOM      3  C   UNL     1      11.679  -6.753  -9.405  1.00  0.00     0.336 A 
ATOM      4  O   UNL     1      12.574  -6.219 -10.111  1.00  0.00    -0.246 OA
ATOM      5  O   UNL     1      11.003  -6.014  -8.529  1.00  0.00    -0.423 OA
ATOM      6  C   UNL     1      10.046  -6.520  -7.754  1.00  0.00     0.142 A 
ATOM      7  C   UNL     1       9.368  -5.695  -6.851  1.00  0.00     0.098 A 
ATOM      8  C   UNL     1       8.360  -6.222  -6.032  1.00  0.00     0.161 A 
ATOM      9  C   UNL     1       8.028  -7.587  -6.117  1.00  0.00     0.158 A 
ATOM     10  C   UNL     1       8.706  -8.416  -7.020  1.00  0.00     0.062 A 
ATOM     11  C   UNL     1       9.713  -7.889  -7.839  1.00  0.00     0.022 A 
ENDROOT
BRANCH   9  12
ATOM     12  O   UNL     1       7.029  -8.136  -5.314  1.00  0.00    -0.504 OA
ATOM     13  H   UNL     1       6.051  -7.905  -5.438  1.00  0.00     0.293 HD
ENDBRANCH   9  12
BRANCH   8  14
ATOM     14  O   UNL     1       7.686  -5.396  -5.133  1.00  0.00    -0.504 OA
ATOM     15  H   UNL     1       8.036  -4.475  -4.894  1.00  0.00     0.293 HD
ENDBRANCH   8  14
TORSDOF 2
ENDMDL
MODEL 9
REMARK VINA RESULT:    -4.830      1.801      2.310
REMARK INTER + INTRA:          -5.112
REMARK INTER:                  -5.112
REMARK INTRA:                   0.000
REMARK UNBOUND:                 0.000
REMARK SMILES O=c1ccc2cc(O)c(O)cc2o1
REMARK SMILES IDX 4 1 3 2 2 3 1 4 13 5 12 6 11 7 9 8 7 9 6 10 5 11 8 12 10 14
REMARK H PARENT 8 13 10 15
REMARK Flexibility Score: inf
ROOT
ATOM      1  C   UNL     1       8.227  -5.058 -10.323  1.00  0.00     0.019 A 
ATOM      2  C   UNL     1       8.396  -5.745 -11.525  1.00  0.00     0.094 A 
ATOM      3  C   UNL     1       8.407  -7.143 -11.511  1.00  0.00     0.336 A 
ATOM      4  O   UNL     1       8.558  -7.781 -12.586  1.00  0.00    -0.246 OA
ATOM      5  O   UNL     1       8.256  -7.807 -10.368  1.00  0.00    -0.423 OA
ATOM      6  C   UNL     1       8.092  -7.190  -9.199  1.00  0.00     0.142 A 
ATOM      7  C   UNL     1       7.940  -7.940  -8.029  1.00  0.00     0.098 A 
ATOM      8  C   UNL     1       7.766  -7.296  -6.795  1.00  0.00     0.161 A 
ATOM      9  C   UNL     1       7.745  -5.891  -6.733  1.00  0.00     0.158 A 
ATOM     10  C   UNL     1       7.898  -5.138  -7.904  1.00  0.00     0.062 A 
ATOM     11  C   UNL     1       8.071  -5.781  -9.137  1.00  0.00     0.022 A 
ENDROOT
BRANCH   9  12
ATOM     12  O   UNL     1       7.575  -5.226  -5.519  1.00  0.00    -0.504 OA
ATOM     13  H   UNL     1       8.168  -4.454  -5.241  1.00  0.00     0.293 HD
ENDBRANCH   9  12
BRANCH   8  14
ATOM     14  O   UNL     1       7.614  -8.048  -5.630  1.00  0.00    -0.504 OA
ATOM     15  H   UNL     1       7.802  -7.653  -4.715  1.00  0.00     0.293 HD
ENDBRANCH   8  14
TORSDOF 2
ENDMDL
