MODEL 1
REMARK VINA RESULT:    -3.139      0.000      0.000
REMARK INTER + INTRA:         -14.603
REMARK INTER:                  -8.277
REMARK INTRA:                  -6.326
REMARK UNBOUND:                -6.326
REMARK SMILES CCCCCCCCCCCCCCCCCCCCCCCCCCCCCC(=O)[O-]
REMARK SMILES IDX 16 1 17 2 18 3 19 4 20 5 21 6 22 7 23 8 24 9 25 10 26 11
REMARK SMILES IDX 27 12 28 13 29 14 30 15 31 16 32 17 15 18 14 19 13 20 12 21
REMARK SMILES IDX 11 22 10 23 9 24 8 25 7 26 6 27 5 28 4 29 3 30 2 31 1 32
REMARK H PARENT
REMARK Flexibility Score: inf
ROOT
ATOM      1  C   UNL     1      -2.714 -61.469  -7.603  1.00  0.00     0.000 C 
ENDROOT
BRANCH   1   2
ATOM      2  C   UNL     1      -2.061 -62.684  -8.296  1.00  0.00     0.000 C 
BRANCH   2   3
ATOM      3  C   UNL     1      -1.808 -63.868  -7.338  1.00  0.00     0.000 C 
BRANCH   3   4
ATOM      4  C   UNL     1      -0.381 -64.449  -7.407  1.00  0.00     0.000 C 
BRANCH   4   5
ATOM      5  C   UNL     1       0.573 -63.999  -6.288  1.00  0.00     0.000 C 
BRANCH   5   6
ATOM      6  C   UNL     1       1.041 -62.542  -6.448  1.00  0.00     0.000 C 
BRANCH   6   7
ATOM      7  C   UNL     1       0.564 -61.642  -5.297  1.00  0.00     0.000 C 
BRANCH   7   8
ATOM      8  C   UNL     1      -0.140 -62.438  -4.181  1.00  0.00     0.000 C 
BRANCH   8   9
ATOM      9  C   UNL     1      -1.606 -62.015  -3.995  1.00  0.00     0.000 C 
BRANCH   9  10
ATOM     10  C   UNL     1      -2.567 -63.217  -3.966  1.00  0.00     0.000 C 
BRANCH  10  11
ATOM     11  C   UNL     1      -3.338 -63.321  -2.632  1.00  0.00     0.000 C 
BRANCH  11  12
ATOM     12  C   UNL     1      -3.884 -64.729  -2.335  1.00  0.00     0.000 C 
BRANCH  12  13
ATOM     13  C   UNL     1      -5.411 -64.754  -2.153  1.00  0.00     0.006 C 
BRANCH  13  14
ATOM     14  C   UNL     1      -5.938 -63.479  -1.479  1.00  0.00     0.053 C 
BRANCH  14  15
ATOM     15  C   UNL     1      -7.430 -63.372  -1.577  1.00  0.00     0.041 C 
ATOM     16  O   UNL     1      -8.142 -64.410  -1.544  1.00  0.00    -0.550 OA
ATOM     17  O   UNL     1      -8.029 -62.128  -1.741  1.00  0.00    -0.550 OA
ENDBRANCH  14  15
ENDBRANCH  13  14
ENDBRANCH  12  13
ENDBRANCH  11  12
ENDBRANCH  10  11
ENDBRANCH   9  10
ENDBRANCH   8   9
ENDBRANCH   7   8
ENDBRANCH   6   7
ENDBRANCH   5   6
ENDBRANCH   4   5
ENDBRANCH   3   4
ENDBRANCH   2   3
ENDBRANCH   1   2
BRANCH   1  18
ATOM     18  C   UNL     1      -4.051 -61.068  -8.248  1.00  0.00     0.000 C 
BRANCH  18  19
ATOM     19  C   UNL     1      -5.237 -61.180  -7.276  1.00  0.00     0.000 C 
BRANCH  19  20
ATOM     20  C   UNL     1      -5.020 -62.237  -6.177  1.00  0.00     0.000 C 
BRANCH  20  21
ATOM     21  C   UNL     1      -6.111 -62.291  -5.090  1.00  0.00     0.000 C 
BRANCH  21  22
ATOM     22  C   UNL     1      -7.237 -63.318  -5.317  1.00  0.00     0.000 C 
BRANCH  22  23
ATOM     23  C   UNL     1      -8.242 -62.932  -6.423  1.00  0.00     0.000 C 
BRANCH  23  24
ATOM     24  C   UNL     1      -9.151 -64.098  -6.846  1.00  0.00    -0.000 C 
BRANCH  24  25
ATOM     25  C   UNL     1      -8.535 -64.882  -8.014  1.00  0.00    -0.000 C 
BRANCH  25  26
ATOM     26  C   UNL     1      -7.787 -63.981  -9.011  1.00  0.00    -0.000 C 
BRANCH  26  27
ATOM     27  C   UNL     1      -6.553 -64.626  -9.673  1.00  0.00    -0.000 C 
BRANCH  27  28
ATOM     28  C   UNL     1      -5.262 -64.512  -8.834  1.00  0.00    -0.000 C 
BRANCH  28  29
ATOM     29  C   UNL     1      -4.781 -65.877  -8.310  1.00  0.00    -0.000 C 
BRANCH  29  30
ATOM     30  C   UNL     1      -5.414 -66.256  -6.959  1.00  0.00    -0.000 C 
BRANCH  30  31
ATOM     31  C   UNL     1      -4.579 -65.864  -5.726  1.00  0.00    -0.003 C 
ATOM     32  C   UNL     1      -3.347 -66.748  -5.533  1.00  0.00     0.004 C 
ENDBRANCH  30  31
ENDBRANCH  29  30
ENDBRANCH  28  29
ENDBRANCH  27  28
ENDBRANCH  26  27
ENDBRANCH  25  26
ENDBRANCH  24  25
ENDBRANCH  23  24
ENDBRANCH  22  23
ENDBRANCH  21  22
ENDBRANCH  20  21
ENDBRANCH  19  20
ENDBRANCH  18  19
ENDBRANCH   1  18
TORSDOF 28
ENDMDL
MODEL 2
REMARK VINA RESULT:    -3.068      2.959      6.597
REMARK INTER + INTRA:         -14.417
REMARK INTER:                  -8.418
REMARK INTRA:                  -5.999
REMARK UNBOUND:                -6.326
REMARK SMILES CCCCCCCCCCCCCCCCCCCCCCCCCCCCCC(=O)[O-]
REMARK SMILES IDX 16 1 17 2 18 3 19 4 20 5 21 6 22 7 23 8 24 9 25 10 26 11
REMARK SMILES IDX 27 12 28 13 29 14 30 15 31 16 32 17 15 18 14 19 13 20 12 21
REMARK SMILES IDX 11 22 10 23 9 24 8 25 7 26 6 27 5 28 4 29 3 30 2 31 1 32
REMARK H PARENT
REMARK Flexibility Score: inf
ROOT
ATOM      1  C   UNL     1      -7.209 -63.681  -6.157  1.00  0.00     0.000 C 
ENDROOT
BRANCH   1   2
ATOM      2  C   UNL     1      -8.632 -63.972  -6.678  1.00  0.00     0.000 C 
BRANCH   2   3
ATOM      3  C   UNL     1      -8.645 -64.736  -8.019  1.00  0.00     0.000 C 
BRANCH   3   4
ATOM      4  C   UNL     1      -8.945 -63.858  -9.251  1.00  0.00     0.000 C 
BRANCH   4   5
ATOM      5  C   UNL     1      -9.470 -62.445  -8.946  1.00  0.00     0.000 C 
BRANCH   5   6
ATOM      6  C   UNL     1      -9.041 -61.405  -9.996  1.00  0.00     0.000 C 
BRANCH   6   7
ATOM      7  C   UNL     1      -7.513 -61.262 -10.089  1.00  0.00     0.000 C 
BRANCH   7   8
ATOM      8  C   UNL     1      -6.887 -60.773  -8.769  1.00  0.00     0.000 C 
BRANCH   8   9
ATOM      9  C   UNL     1      -5.549 -61.466  -8.463  1.00  0.00     0.000 C 
BRANCH   9  10
ATOM     10  C   UNL     1      -5.245 -62.619  -9.437  1.00  0.00     0.000 C 
BRANCH  10  11
ATOM     11  C   UNL     1      -3.731 -62.895  -9.566  1.00  0.00     0.000 C 
BRANCH  11  12
ATOM     12  C   UNL     1      -2.998 -62.997  -8.217  1.00  0.00     0.000 C 
BRANCH  12  13
ATOM     13  C   UNL     1      -1.977 -64.147  -8.175  1.00  0.00     0.006 C 
BRANCH  13  14
ATOM     14  C   UNL     1      -1.541 -64.486  -6.742  1.00  0.00     0.053 C 
BRANCH  14  15
ATOM     15  C   UNL     1      -0.242 -63.829  -6.384  1.00  0.00     0.041 C 
ATOM     16  O   UNL     1       0.025 -63.568  -5.181  1.00  0.00    -0.550 OA
ATOM     17  O   UNL     1       0.656 -63.473  -7.383  1.00  0.00    -0.550 OA
ENDBRANCH  14  15
ENDBRANCH  13  14
ENDBRANCH  12  13
ENDBRANCH  11  12
ENDBRANCH  10  11
ENDBRANCH   9  10
ENDBRANCH   8   9
ENDBRANCH   7   8
ENDBRANCH   6   7
ENDBRANCH   5   6
ENDBRANCH   4   5
ENDBRANCH   3   4
ENDBRANCH   2   3
ENDBRANCH   1   2
BRANCH   1  18
ATOM     18  C   UNL     1      -7.170 -62.505  -5.168  1.00  0.00     0.000 C 
BRANCH  18  19
ATOM     19  C   UNL     1      -5.744 -61.988  -4.914  1.00  0.00     0.000 C 
BRANCH  19  20
ATOM     20  C   UNL     1      -4.666 -63.069  -5.117  1.00  0.00     0.000 C 
BRANCH  20  21
ATOM     21  C   UNL     1      -3.640 -63.198  -3.974  1.00  0.00     0.000 C 
BRANCH  21  22
ATOM     22  C   UNL     1      -3.837 -64.395  -3.025  1.00  0.00     0.000 C 
BRANCH  22  23
ATOM     23  C   UNL     1      -4.952 -65.373  -3.450  1.00  0.00     0.000 C 
BRANCH  23  24
ATOM     24  C   UNL     1      -4.560 -66.850  -3.273  1.00  0.00    -0.000 C 
BRANCH  24  25
ATOM     25  C   UNL     1      -4.435 -67.554  -4.633  1.00  0.00    -0.000 C 
BRANCH  25  26
ATOM     26  C   UNL     1      -4.293 -66.570  -5.806  1.00  0.00    -0.000 C 
BRANCH  26  27
ATOM     27  C   UNL     1      -4.622 -67.158  -7.193  1.00  0.00    -0.000 C 
BRANCH  27  28
ATOM     28  C   UNL     1      -5.206 -66.129  -8.186  1.00  0.00    -0.000 C 
BRANCH  28  29
ATOM     29  C   UNL     1      -5.957 -66.799  -9.350  1.00  0.00    -0.000 C 
BRANCH  29  30
ATOM     30  C   UNL     1      -5.021 -67.250 -10.486  1.00  0.00    -0.000 C 
BRANCH  30  31
ATOM     31  C   UNL     1      -3.649 -66.551 -10.503  1.00  0.00    -0.003 C 
ATOM     32  C   UNL     1      -3.372 -65.812 -11.813  1.00  0.00     0.004 C 
ENDBRANCH  30  31
ENDBRANCH  29  30
ENDBRANCH  28  29
ENDBRANCH  27  28
ENDBRANCH  26  27
ENDBRANCH  25  26
ENDBRANCH  24  25
ENDBRANCH  23  24
ENDBRANCH  22  23
ENDBRANCH  21  22
ENDBRANCH  20  21
ENDBRANCH  19  20
ENDBRANCH  18  19
ENDBRANCH   1  18
TORSDOF 28
ENDMDL
MODEL 3
REMARK VINA RESULT:    -3.028      5.469     11.045
REMARK INTER + INTRA:         -14.311
REMARK INTER:                  -8.993
REMARK INTRA:                  -5.318
REMARK UNBOUND:                -6.326
REMARK SMILES CCCCCCCCCCCCCCCCCCCCCCCCCCCCCC(=O)[O-]
REMARK SMILES IDX 16 1 17 2 18 3 19 4 20 5 21 6 22 7 23 8 24 9 25 10 26 11
REMARK SMILES IDX 27 12 28 13 29 14 30 15 31 16 32 17 15 18 14 19 13 20 12 21
REMARK SMILES IDX 11 22 10 23 9 24 8 25 7 26 6 27 5 28 4 29 3 30 2 31 1 32
REMARK H PARENT
REMARK Flexibility Score: inf
ROOT
ATOM      1  C   UNL     1      -4.275 -64.427   1.973  1.00  0.00     0.000 C 
ENDROOT
BRANCH   1   2
ATOM      2  C   UNL     1      -5.745 -64.335   2.435  1.00  0.00     0.000 C 
BRANCH   2   3
ATOM      3  C   UNL     1      -6.359 -65.707   2.787  1.00  0.00     0.000 C 
BRANCH   3   4
ATOM      4  C   UNL     1      -7.592 -65.635   3.712  1.00  0.00     0.000 C 
BRANCH   4   5
ATOM      5  C   UNL     1      -8.907 -65.216   3.033  1.00  0.00     0.000 C 
BRANCH   5   6
ATOM      6  C   UNL     1      -9.296 -66.135   1.861  1.00  0.00     0.000 C 
BRANCH   6   7
ATOM      7  C   UNL     1      -9.124 -65.449   0.496  1.00  0.00     0.000 C 
BRANCH   7   8
ATOM      8  C   UNL     1      -9.135 -63.913   0.603  1.00  0.00     0.000 C 
BRANCH   8   9
ATOM      9  C   UNL     1      -7.982 -63.262  -0.178  1.00  0.00     0.000 C 
BRANCH   9  10
ATOM     10  C   UNL     1      -7.425 -64.179  -1.281  1.00  0.00     0.000 C 
BRANCH  10  11
ATOM     11  C   UNL     1      -5.914 -63.962  -1.519  1.00  0.00     0.000 C 
BRANCH  11  12
ATOM     12  C   UNL     1      -5.449 -64.317  -2.941  1.00  0.00     0.000 C 
BRANCH  12  13
ATOM     13  C   UNL     1      -4.186 -65.194  -2.959  1.00  0.00     0.006 C 
BRANCH  13  14
ATOM     14  C   UNL     1      -4.485 -66.640  -3.378  1.00  0.00     0.053 C 
BRANCH  14  15
ATOM     15  C   UNL     1      -3.926 -66.955  -4.732  1.00  0.00     0.041 C 
ATOM     16  O   UNL     1      -2.805 -67.520  -4.837  1.00  0.00    -0.550 OA
ATOM     17  O   UNL     1      -4.627 -66.593  -5.876  1.00  0.00    -0.550 OA
ENDBRANCH  14  15
ENDBRANCH  13  14
ENDBRANCH  12  13
ENDBRANCH  11  12
ENDBRANCH  10  11
ENDBRANCH   9  10
ENDBRANCH   8   9
ENDBRANCH   7   8
ENDBRANCH   6   7
ENDBRANCH   5   6
ENDBRANCH   4   5
ENDBRANCH   3   4
ENDBRANCH   2   3
ENDBRANCH   1   2
BRANCH   1  18
ATOM     18  C   UNL     1      -3.895 -65.835   1.485  1.00  0.00     0.000 C 
BRANCH  18  19
ATOM     19  C   UNL     1      -2.809 -66.492   2.353  1.00  0.00     0.000 C 
BRANCH  19  20
ATOM     20  C   UNL     1      -2.387 -65.622   3.552  1.00  0.00     0.000 C 
BRANCH  20  21
ATOM     21  C   UNL     1      -2.573 -66.275   4.936  1.00  0.00     0.000 C 
BRANCH  21  22
ATOM     22  C   UNL     1      -3.960 -66.888   5.210  1.00  0.00     0.000 C 
BRANCH  22  23
ATOM     23  C   UNL     1      -4.820 -66.102   6.221  1.00  0.00     0.000 C 
BRANCH  23  24
ATOM     24  C   UNL     1      -4.743 -64.579   6.024  1.00  0.00    -0.000 C 
BRANCH  24  25
ATOM     25  C   UNL     1      -6.028 -63.894   6.513  1.00  0.00    -0.000 C 
BRANCH  25  26
ATOM     26  C   UNL     1      -6.366 -62.620   5.721  1.00  0.00    -0.000 C 
BRANCH  26  27
ATOM     27  C   UNL     1      -7.716 -61.968   6.082  1.00  0.00    -0.000 C 
BRANCH  27  28
ATOM     28  C   UNL     1      -8.707 -61.886   4.900  1.00  0.00    -0.000 C 
BRANCH  28  29
ATOM     29  C   UNL     1      -7.992 -61.727   3.545  1.00  0.00    -0.000 C 
BRANCH  29  30
ATOM     30  C   UNL     1      -7.889 -60.260   3.092  1.00  0.00    -0.000 C 
BRANCH  30  31
ATOM     31  C   UNL     1      -6.495 -59.630   3.270  1.00  0.00    -0.003 C 
ATOM     32  C   UNL     1      -6.433 -58.633   4.428  1.00  0.00     0.004 C 
ENDBRANCH  30  31
ENDBRANCH  29  30
ENDBRANCH  28  29
ENDBRANCH  27  28
ENDBRANCH  26  27
ENDBRANCH  25  26
ENDBRANCH  24  25
ENDBRANCH  23  24
ENDBRANCH  22  23
ENDBRANCH  21  22
ENDBRANCH  20  21
ENDBRANCH  19  20
ENDBRANCH  18  19
ENDBRANCH   1  18
TORSDOF 28
ENDMDL
MODEL 4
REMARK VINA RESULT:    -3.025      3.173      5.859
REMARK INTER + INTRA:         -14.302
REMARK INTER:                  -8.275
REMARK INTRA:                  -6.027
REMARK UNBOUND:                -6.326
REMARK SMILES CCCCCCCCCCCCCCCCCCCCCCCCCCCCCC(=O)[O-]
REMARK SMILES IDX 16 1 17 2 18 3 19 4 20 5 21 6 22 7 23 8 24 9 25 10 26 11
REMARK SMILES IDX 27 12 28 13 29 14 30 15 31 16 32 17 15 18 14 19 13 20 12 21
REMARK SMILES IDX 11 22 10 23 9 24 8 25 7 26 6 27 5 28 4 29 3 30 2 31 1 32
REMARK H PARENT
REMARK Flexibility Score: inf
ROOT
ATOM      1  C   UNL     1      -3.953 -65.881  -7.399  1.00  0.00     0.000 C 
ENDROOT
BRANCH   1   2
ATOM      2  C   UNL     1      -5.015 -66.964  -7.118  1.00  0.00     0.000 C 
BRANCH   2   3
ATOM      3  C   UNL     1      -4.616 -67.928  -5.980  1.00  0.00     0.000 C 
BRANCH   3   4
ATOM      4  C   UNL     1      -3.864 -67.258  -4.812  1.00  0.00     0.000 C 
BRANCH   4   5
ATOM      5  C   UNL     1      -4.648 -67.152  -3.493  1.00  0.00     0.000 C 
BRANCH   5   6
ATOM      6  C   UNL     1      -4.669 -65.724  -2.921  1.00  0.00     0.000 C 
BRANCH   6   7
ATOM      7  C   UNL     1      -4.072 -64.693  -3.892  1.00  0.00     0.000 C 
BRANCH   7   8
ATOM      8  C   UNL     1      -5.096 -63.624  -4.318  1.00  0.00     0.000 C 
BRANCH   8   9
ATOM      9  C   UNL     1      -4.480 -62.553  -5.232  1.00  0.00     0.000 C 
BRANCH   9  10
ATOM     10  C   UNL     1      -3.191 -61.947  -4.646  1.00  0.00     0.000 C 
BRANCH  10  11
ATOM     11  C   UNL     1      -2.229 -61.440  -5.743  1.00  0.00     0.000 C 
BRANCH  11  12
ATOM     12  C   UNL     1      -2.466 -62.077  -7.124  1.00  0.00     0.000 C 
BRANCH  12  13
ATOM     13  C   UNL     1      -1.218 -62.782  -7.682  1.00  0.00     0.006 C 
BRANCH  13  14
ATOM     14  C   UNL     1      -0.760 -63.946  -6.791  1.00  0.00     0.053 C 
BRANCH  14  15
ATOM     15  C   UNL     1       0.687 -63.830  -6.421  1.00  0.00     0.041 C 
ATOM     16  O   UNL     1       1.136 -64.447  -5.419  1.00  0.00    -0.550 OA
ATOM     17  O   UNL     1       1.531 -63.011  -7.162  1.00  0.00    -0.550 OA
ENDBRANCH  14  15
ENDBRANCH  13  14
ENDBRANCH  12  13
ENDBRANCH  11  12
ENDBRANCH  10  11
ENDBRANCH   9  10
ENDBRANCH   8   9
ENDBRANCH   7   8
ENDBRANCH   6   7
ENDBRANCH   5   6
ENDBRANCH   4   5
ENDBRANCH   3   4
ENDBRANCH   2   3
ENDBRANCH   1   2
BRANCH   1  18
ATOM     18  C   UNL     1      -4.356 -64.940  -8.547  1.00  0.00     0.000 C 
BRANCH  18  19
ATOM     19  C   UNL     1      -3.352 -64.959  -9.711  1.00  0.00     0.000 C 
BRANCH  19  20
ATOM     20  C   UNL     1      -3.468 -66.220 -10.588  1.00  0.00     0.000 C 
BRANCH  20  21
ATOM     21  C   UNL     1      -4.871 -66.495 -11.163  1.00  0.00     0.000 C 
BRANCH  21  22
ATOM     22  C   UNL     1      -5.527 -67.821 -10.731  1.00  0.00     0.000 C 
BRANCH  22  23
ATOM     23  C   UNL     1      -7.026 -67.710 -10.382  1.00  0.00     0.000 C 
BRANCH  23  24
ATOM     24  C   UNL     1      -7.397 -66.365  -9.735  1.00  0.00    -0.000 C 
BRANCH  24  25
ATOM     25  C   UNL     1      -8.780 -65.889 -10.206  1.00  0.00    -0.000 C 
BRANCH  25  26
ATOM     26  C   UNL     1      -8.791 -64.414 -10.640  1.00  0.00    -0.000 C 
BRANCH  26  27
ATOM     27  C   UNL     1      -7.403 -63.812 -10.934  1.00  0.00    -0.000 C 
BRANCH  27  28
ATOM     28  C   UNL     1      -7.107 -62.511 -10.155  1.00  0.00    -0.000 C 
BRANCH  28  29
ATOM     29  C   UNL     1      -7.994 -62.363  -8.905  1.00  0.00    -0.000 C 
BRANCH  29  30
ATOM     30  C   UNL     1      -7.257 -62.723  -7.602  1.00  0.00    -0.000 C 
BRANCH  30  31
ATOM     31  C   UNL     1      -7.643 -64.087  -7.002  1.00  0.00    -0.003 C 
ATOM     32  C   UNL     1      -9.152 -64.251  -6.815  1.00  0.00     0.004 C 
ENDBRANCH  30  31
ENDBRANCH  29  30
ENDBRANCH  28  29
ENDBRANCH  27  28
ENDBRANCH  26  27
ENDBRANCH  25  26
ENDBRANCH  24  25
ENDBRANCH  23  24
ENDBRANCH  22  23
ENDBRANCH  21  22
ENDBRANCH  20  21
ENDBRANCH  19  20
ENDBRANCH  18  19
ENDBRANCH   1  18
TORSDOF 28
ENDMDL
MODEL 5
REMARK VINA RESULT:    -3.020      3.634      7.688
REMARK INTER + INTRA:         -14.288
REMARK INTER:                  -9.548
REMARK INTRA:                  -4.740
REMARK UNBOUND:                -6.326
REMARK SMILES CCCCCCCCCCCCCCCCCCCCCCCCCCCCCC(=O)[O-]
REMARK SMILES IDX 16 1 17 2 18 3 19 4 20 5 21 6 22 7 23 8 24 9 25 10 26 11
REMARK SMILES IDX 27 12 28 13 29 14 30 15 31 16 32 17 15 18 14 19 13 20 12 21
REMARK SMILES IDX 11 22 10 23 9 24 8 25 7 26 6 27 5 28 4 29 3 30 2 31 1 32
REMARK H PARENT
REMARK Flexibility Score: inf
ROOT
ATOM      1  C   UNL     1      -4.387 -67.443  -5.300  1.00  0.00     0.000 C 
ENDROOT
BRANCH   1   2
ATOM      2  C   UNL     1      -4.633 -67.052  -6.772  1.00  0.00     0.000 C 
BRANCH   2   3
ATOM      3  C   UNL     1      -3.999 -65.698  -7.157  1.00  0.00     0.000 C 
BRANCH   3   4
ATOM      4  C   UNL     1      -4.686 -64.986  -8.341  1.00  0.00     0.000 C 
BRANCH   4   5
ATOM      5  C   UNL     1      -5.941 -65.681  -8.894  1.00  0.00     0.000 C 
BRANCH   5   6
ATOM      6  C   UNL     1      -7.250 -65.044  -8.394  1.00  0.00     0.000 C 
BRANCH   6   7
ATOM      7  C   UNL     1      -7.010 -63.728  -7.637  1.00  0.00     0.000 C 
BRANCH   7   8
ATOM      8  C   UNL     1      -7.655 -63.728  -6.238  1.00  0.00     0.000 C 
BRANCH   8   9
ATOM      9  C   UNL     1      -6.613 -63.631  -5.111  1.00  0.00     0.000 C 
BRANCH   9  10
ATOM     10  C   UNL     1      -5.780 -62.339  -5.188  1.00  0.00     0.000 C 
BRANCH  10  11
ATOM     11  C   UNL     1      -4.262 -62.613  -5.103  1.00  0.00     0.000 C 
BRANCH  11  12
ATOM     12  C   UNL     1      -3.459 -62.052  -6.290  1.00  0.00     0.000 C 
BRANCH  12  13
ATOM     13  C   UNL     1      -1.939 -62.208  -6.113  1.00  0.00     0.006 C 
BRANCH  13  14
ATOM     14  C   UNL     1      -1.295 -62.983  -7.271  1.00  0.00     0.053 C 
BRANCH  14  15
ATOM     15  C   UNL     1      -0.272 -63.965  -6.785  1.00  0.00     0.041 C 
ATOM     16  O   UNL     1       0.206 -63.858  -5.624  1.00  0.00    -0.550 OA
ATOM     17  O   UNL     1       0.179 -64.975  -7.627  1.00  0.00    -0.550 OA
ENDBRANCH  14  15
ENDBRANCH  13  14
ENDBRANCH  12  13
ENDBRANCH  11  12
ENDBRANCH  10  11
ENDBRANCH   9  10
ENDBRANCH   8   9
ENDBRANCH   7   8
ENDBRANCH   6   7
ENDBRANCH   5   6
ENDBRANCH   4   5
ENDBRANCH   3   4
ENDBRANCH   2   3
ENDBRANCH   1   2
BRANCH   1  18
ATOM     18  C   UNL     1      -4.000 -66.240  -4.425  1.00  0.00     0.000 C 
BRANCH  18  19
ATOM     19  C   UNL     1      -4.624 -66.300  -3.021  1.00  0.00     0.000 C 
BRANCH  19  20
ATOM     20  C   UNL     1      -4.429 -65.001  -2.218  1.00  0.00     0.000 C 
BRANCH  20  21
ATOM     21  C   UNL     1      -5.602 -64.615  -1.296  1.00  0.00     0.000 C 
BRANCH  21  22
ATOM     22  C   UNL     1      -6.265 -63.254  -1.583  1.00  0.00     0.000 C 
BRANCH  22  23
ATOM     23  C   UNL     1      -7.802 -63.248  -1.445  1.00  0.00     0.000 C 
BRANCH  23  24
ATOM     24  C   UNL     1      -8.393 -64.648  -1.208  1.00  0.00    -0.000 C 
BRANCH  24  25
ATOM     25  C   UNL     1      -9.082 -64.731   0.162  1.00  0.00    -0.000 C 
BRANCH  25  26
ATOM     26  C   UNL     1      -8.785 -63.516   1.056  1.00  0.00    -0.000 C 
BRANCH  26  27
ATOM     27  C   UNL     1      -7.811 -63.786   2.220  1.00  0.00    -0.000 C 
BRANCH  27  28
ATOM     28  C   UNL     1      -7.274 -65.234   2.264  1.00  0.00    -0.000 C 
BRANCH  28  29
ATOM     29  C   UNL     1      -5.736 -65.289   2.288  1.00  0.00    -0.000 C 
BRANCH  29  30
ATOM     30  C   UNL     1      -5.155 -65.158   3.708  1.00  0.00    -0.000 C 
BRANCH  30  31
ATOM     31  C   UNL     1      -5.857 -66.024   4.771  1.00  0.00    -0.003 C 
ATOM     32  C   UNL     1      -5.404 -67.485   4.745  1.00  0.00     0.004 C 
ENDBRANCH  30  31
ENDBRANCH  29  30
ENDBRANCH  28  29
ENDBRANCH  27  28
ENDBRANCH  26  27
ENDBRANCH  25  26
ENDBRANCH  24  25
ENDBRANCH  23  24
ENDBRANCH  22  23
ENDBRANCH  21  22
ENDBRANCH  20  21
ENDBRANCH  19  20
ENDBRANCH  18  19
ENDBRANCH   1  18
TORSDOF 28
ENDMDL
MODEL 6
REMARK VINA RESULT:    -3.019      3.294      5.435
REMARK INTER + INTRA:         -14.287
REMARK INTER:                  -8.540
REMARK INTRA:                  -5.747
REMARK UNBOUND:                -6.326
REMARK SMILES CCCCCCCCCCCCCCCCCCCCCCCCCCCCCC(=O)[O-]
REMARK SMILES IDX 16 1 17 2 18 3 19 4 20 5 21 6 22 7 23 8 24 9 25 10 26 11
REMARK SMILES IDX 27 12 28 13 29 14 30 15 31 16 32 17 15 18 14 19 13 20 12 21
REMARK SMILES IDX 11 22 10 23 9 24 8 25 7 26 6 27 5 28 4 29 3 30 2 31 1 32
REMARK H PARENT
REMARK Flexibility Score: inf
ROOT
ATOM      1  C   UNL     1      -5.664 -65.594  -6.765  1.00  0.00     0.000 C 
ENDROOT
BRANCH   1   2
ATOM      2  C   UNL     1      -4.126 -65.661  -6.884  1.00  0.00     0.000 C 
BRANCH   2   3
ATOM      3  C   UNL     1      -3.441 -66.218  -5.618  1.00  0.00     0.000 C 
BRANCH   3   4
ATOM      4  C   UNL     1      -4.271 -67.271  -4.855  1.00  0.00     0.000 C 
BRANCH   4   5
ATOM      5  C   UNL     1      -4.622 -66.914  -3.402  1.00  0.00     0.000 C 
BRANCH   5   6
ATOM      6  C   UNL     1      -4.332 -65.442  -3.059  1.00  0.00     0.000 C 
BRANCH   6   7
ATOM      7  C   UNL     1      -5.612 -64.647  -2.754  1.00  0.00     0.000 C 
BRANCH   7   8
ATOM      8  C   UNL     1      -5.771 -63.416  -3.667  1.00  0.00     0.000 C 
BRANCH   8   9
ATOM      9  C   UNL     1      -4.441 -62.680  -3.897  1.00  0.00     0.000 C 
BRANCH   9  10
ATOM     10  C   UNL     1      -4.283 -62.187  -5.347  1.00  0.00     0.000 C 
BRANCH  10  11
ATOM     11  C   UNL     1      -2.808 -62.168  -5.804  1.00  0.00     0.000 C 
BRANCH  11  12
ATOM     12  C   UNL     1      -2.623 -62.346  -7.321  1.00  0.00     0.000 C 
BRANCH  12  13
ATOM     13  C   UNL     1      -1.405 -63.214  -7.679  1.00  0.00     0.006 C 
BRANCH  13  14
ATOM     14  C   UNL     1      -0.838 -63.955  -6.460  1.00  0.00     0.053 C 
BRANCH  14  15
ATOM     15  C   UNL     1       0.660 -63.922  -6.433  1.00  0.00     0.041 C 
ATOM     16  O   UNL     1       1.298 -64.721  -5.698  1.00  0.00    -0.550 OA
ATOM     17  O   UNL     1       1.349 -62.984  -7.194  1.00  0.00    -0.550 OA
ENDBRANCH  14  15
ENDBRANCH  13  14
ENDBRANCH  12  13
ENDBRANCH  11  12
ENDBRANCH  10  11
ENDBRANCH   9  10
ENDBRANCH   8   9
ENDBRANCH   7   8
ENDBRANCH   6   7
ENDBRANCH   5   6
ENDBRANCH   4   5
ENDBRANCH   3   4
ENDBRANCH   2   3
ENDBRANCH   1   2
BRANCH   1  18
ATOM     18  C   UNL     1      -6.263 -64.387  -7.505  1.00  0.00     0.000 C 
BRANCH  18  19
ATOM     19  C   UNL     1      -7.586 -63.907  -6.886  1.00  0.00     0.000 C 
BRANCH  19  20
ATOM     20  C   UNL     1      -7.750 -62.376  -6.923  1.00  0.00     0.000 C 
BRANCH  20  21
ATOM     21  C   UNL     1      -6.821 -61.639  -7.907  1.00  0.00     0.000 C 
BRANCH  21  22
ATOM     22  C   UNL     1      -7.520 -60.834  -9.019  1.00  0.00     0.000 C 
BRANCH  22  23
ATOM     23  C   UNL     1      -8.845 -61.449  -9.517  1.00  0.00     0.000 C 
BRANCH  23  24
ATOM     24  C   UNL     1      -8.643 -62.533 -10.589  1.00  0.00    -0.000 C 
BRANCH  24  25
ATOM     25  C   UNL     1      -9.368 -63.831 -10.204  1.00  0.00    -0.000 C 
BRANCH  25  26
ATOM     26  C   UNL     1      -8.547 -65.092 -10.522  1.00  0.00    -0.000 C 
BRANCH  26  27
ATOM     27  C   UNL     1      -8.758 -66.269  -9.548  1.00  0.00    -0.000 C 
BRANCH  27  28
ATOM     28  C   UNL     1      -8.481 -67.655 -10.172  1.00  0.00    -0.000 C 
BRANCH  28  29
ATOM     29  C   UNL     1      -7.404 -67.599 -11.270  1.00  0.00    -0.000 C 
BRANCH  29  30
ATOM     30  C   UNL     1      -6.127 -68.373 -10.896  1.00  0.00    -0.000 C 
BRANCH  30  31
ATOM     31  C   UNL     1      -5.343 -67.783  -9.708  1.00  0.00    -0.003 C 
ATOM     32  C   UNL     1      -5.049 -68.813  -8.617  1.00  0.00     0.004 C 
ENDBRANCH  30  31
ENDBRANCH  29  30
ENDBRANCH  28  29
ENDBRANCH  27  28
ENDBRANCH  26  27
ENDBRANCH  25  26
ENDBRANCH  24  25
ENDBRANCH  23  24
ENDBRANCH  22  23
ENDBRANCH  21  22
ENDBRANCH  20  21
ENDBRANCH  19  20
ENDBRANCH  18  19
ENDBRANCH   1  18
TORSDOF 28
ENDMDL
MODEL 7
REMARK VINA RESULT:    -3.004      3.498      5.840
REMARK INTER + INTRA:         -14.247
REMARK INTER:                 -10.096
REMARK INTRA:                  -4.151
REMARK UNBOUND:                -6.326
REMARK SMILES CCCCCCCCCCCCCCCCCCCCCCCCCCCCCC(=O)[O-]
REMARK SMILES IDX 16 1 17 2 18 3 19 4 20 5 21 6 22 7 23 8 24 9 25 10 26 11
REMARK SMILES IDX 27 12 28 13 29 14 30 15 31 16 32 17 15 18 14 19 13 20 12 21
REMARK SMILES IDX 11 22 10 23 9 24 8 25 7 26 6 27 5 28 4 29 3 30 2 31 1 32
REMARK H PARENT
REMARK Flexibility Score: inf
ROOT
ATOM      1  C   UNL     1      -8.765 -64.625  -7.170  1.00  0.00     0.000 C 
ENDROOT
BRANCH   1   2
ATOM      2  C   UNL     1      -9.012 -63.109  -7.022  1.00  0.00     0.000 C 
BRANCH   2   3
ATOM      3  C   UNL     1      -9.052 -62.363  -8.373  1.00  0.00     0.000 C 
BRANCH   3   4
ATOM      4  C   UNL     1      -7.777 -61.556  -8.694  1.00  0.00     0.000 C 
BRANCH   4   5
ATOM      5  C   UNL     1      -6.658 -61.639  -7.643  1.00  0.00     0.000 C 
BRANCH   5   6
ATOM      6  C   UNL     1      -5.296 -61.163  -8.177  1.00  0.00     0.000 C 
BRANCH   6   7
ATOM      7  C   UNL     1      -4.334 -62.330  -8.454  1.00  0.00     0.000 C 
BRANCH   7   8
ATOM      8  C   UNL     1      -2.990 -62.171  -7.718  1.00  0.00     0.000 C 
BRANCH   8   9
ATOM      9  C   UNL     1      -2.544 -63.468  -7.024  1.00  0.00     0.000 C 
BRANCH   9  10
ATOM     10  C   UNL     1      -2.546 -63.347  -5.489  1.00  0.00     0.000 C 
BRANCH  10  11
ATOM     11  C   UNL     1      -3.764 -64.046  -4.846  1.00  0.00     0.000 C 
BRANCH  11  12
ATOM     12  C   UNL     1      -5.040 -63.186  -4.831  1.00  0.00     0.000 C 
BRANCH  12  13
ATOM     13  C   UNL     1      -4.944 -61.986  -3.875  1.00  0.00     0.006 C 
BRANCH  13  14
ATOM     14  C   UNL     1      -5.762 -62.195  -2.593  1.00  0.00     0.053 C 
BRANCH  14  15
ATOM     15  C   UNL     1      -7.121 -61.571  -2.690  1.00  0.00     0.041 C 
ATOM     16  O   UNL     1      -7.553 -61.164  -3.800  1.00  0.00    -0.550 OA
ATOM     17  O   UNL     1      -7.894 -61.407  -1.546  1.00  0.00    -0.550 OA
ENDBRANCH  14  15
ENDBRANCH  13  14
ENDBRANCH  12  13
ENDBRANCH  11  12
ENDBRANCH  10  11
ENDBRANCH   9  10
ENDBRANCH   8   9
ENDBRANCH   7   8
ENDBRANCH   6   7
ENDBRANCH   5   6
ENDBRANCH   4   5
ENDBRANCH   3   4
ENDBRANCH   2   3
ENDBRANCH   1   2
BRANCH   1  18
ATOM     18  C   UNL     1      -8.504 -65.042  -8.626  1.00  0.00     0.000 C 
BRANCH  18  19
ATOM     19  C   UNL     1      -7.030 -65.398  -8.886  1.00  0.00     0.000 C 
BRANCH  19  20
ATOM     20  C   UNL     1      -6.171 -65.384  -7.608  1.00  0.00     0.000 C 
BRANCH  20  21
ATOM     21  C   UNL     1      -4.842 -66.158  -7.700  1.00  0.00     0.000 C 
BRANCH  21  22
ATOM     22  C   UNL     1      -4.647 -67.287  -6.670  1.00  0.00     0.000 C 
BRANCH  22  23
ATOM     23  C   UNL     1      -4.612 -68.707  -7.275  1.00  0.00     0.000 C 
BRANCH  23  24
ATOM     24  C   UNL     1      -5.065 -68.749  -8.744  1.00  0.00    -0.000 C 
BRANCH  24  25
ATOM     25  C   UNL     1      -3.910 -69.168  -9.665  1.00  0.00    -0.000 C 
BRANCH  25  26
ATOM     26  C   UNL     1      -3.810 -68.302 -10.932  1.00  0.00    -0.000 C 
BRANCH  26  27
ATOM     27  C   UNL     1      -4.924 -68.537 -11.972  1.00  0.00    -0.000 C 
BRANCH  27  28
ATOM     28  C   UNL     1      -5.405 -70.003 -12.054  1.00  0.00    -0.000 C 
BRANCH  28  29
ATOM     29  C   UNL     1      -4.606 -70.825 -13.081  1.00  0.00    -0.000 C 
BRANCH  29  30
ATOM     30  C   UNL     1      -3.717 -71.899 -12.427  1.00  0.00    -0.000 C 
BRANCH  30  31
ATOM     31  C   UNL     1      -4.451 -73.203 -12.059  1.00  0.00    -0.003 C 
ATOM     32  C   UNL     1      -3.557 -74.205 -11.328  1.00  0.00     0.004 C 
ENDBRANCH  30  31
ENDBRANCH  29  30
ENDBRANCH  28  29
ENDBRANCH  27  28
ENDBRANCH  26  27
ENDBRANCH  25  26
ENDBRANCH  24  25
ENDBRANCH  23  24
ENDBRANCH  22  23
ENDBRANCH  21  22
ENDBRANCH  20  21
ENDBRANCH  19  20
ENDBRANCH  18  19
ENDBRANCH   1  18
TORSDOF 28
ENDMDL
MODEL 8
REMARK VINA RESULT:    -3.002      3.025      7.371
REMARK INTER + INTRA:         -14.241
REMARK INTER:                  -9.316
REMARK INTRA:                  -4.925
REMARK UNBOUND:                -6.326
REMARK SMILES CCCCCCCCCCCCCCCCCCCCCCCCCCCCCC(=O)[O-]
REMARK SMILES IDX 16 1 17 2 18 3 19 4 20 5 21 6 22 7 23 8 24 9 25 10 26 11
REMARK SMILES IDX 27 12 28 13 29 14 30 15 31 16 32 17 15 18 14 19 13 20 12 21
REMARK SMILES IDX 11 22 10 23 9 24 8 25 7 26 6 27 5 28 4 29 3 30 2 31 1 32
REMARK H PARENT
REMARK Flexibility Score: inf
ROOT
ATOM      1  C   UNL     1      -4.636 -67.627  -5.776  1.00  0.00     0.000 C 
ENDROOT
BRANCH   1   2
ATOM      2  C   UNL     1      -4.983 -66.408  -6.657  1.00  0.00     0.000 C 
BRANCH   2   3
ATOM      3  C   UNL     1      -5.284 -66.783  -8.124  1.00  0.00     0.000 C 
BRANCH   3   4
ATOM      4  C   UNL     1      -6.071 -65.713  -8.907  1.00  0.00     0.000 C 
BRANCH   4   5
ATOM      5  C   UNL     1      -7.243 -65.066  -8.151  1.00  0.00     0.000 C 
BRANCH   5   6
ATOM      6  C   UNL     1      -7.445 -63.584  -8.511  1.00  0.00     0.000 C 
BRANCH   6   7
ATOM      7  C   UNL     1      -7.496 -62.680  -7.269  1.00  0.00     0.000 C 
BRANCH   7   8
ATOM      8  C   UNL     1      -7.081 -63.421  -5.984  1.00  0.00     0.000 C 
BRANCH   8   9
ATOM      9  C   UNL     1      -5.668 -63.038  -5.515  1.00  0.00     0.000 C 
BRANCH   9  10
ATOM     10  C   UNL     1      -5.132 -61.782  -6.226  1.00  0.00     0.000 C 
BRANCH  10  11
ATOM     11  C   UNL     1      -3.758 -62.024  -6.888  1.00  0.00     0.000 C 
BRANCH  11  12
ATOM     12  C   UNL     1      -3.761 -63.149  -7.938  1.00  0.00     0.000 C 
BRANCH  12  13
ATOM     13  C   UNL     1      -2.406 -63.868  -8.051  1.00  0.00     0.006 C 
BRANCH  13  14
ATOM     14  C   UNL     1      -1.274 -63.088  -7.367  1.00  0.00     0.053 C 
BRANCH  14  15
ATOM     15  C   UNL     1      -0.222 -64.002  -6.814  1.00  0.00     0.041 C 
ATOM     16  O   UNL     1       0.230 -64.944  -7.517  1.00  0.00    -0.550 OA
ATOM     17  O   UNL     1       0.231 -63.834  -5.511  1.00  0.00    -0.550 OA
ENDBRANCH  14  15
ENDBRANCH  13  14
ENDBRANCH  12  13
ENDBRANCH  11  12
ENDBRANCH  10  11
ENDBRANCH   9  10
ENDBRANCH   8   9
ENDBRANCH   7   8
ENDBRANCH   6   7
ENDBRANCH   5   6
ENDBRANCH   4   5
ENDBRANCH   3   4
ENDBRANCH   2   3
ENDBRANCH   1   2
BRANCH   1  18
ATOM     18  C   UNL     1      -3.852 -67.240  -4.512  1.00  0.00     0.000 C 
BRANCH  18  19
ATOM     19  C   UNL     1      -4.210 -65.835  -3.998  1.00  0.00     0.000 C 
BRANCH  19  20
ATOM     20  C   UNL     1      -4.927 -65.856  -2.635  1.00  0.00     0.000 C 
BRANCH  20  21
ATOM     21  C   UNL     1      -4.630 -64.654  -1.717  1.00  0.00     0.000 C 
BRANCH  21  22
ATOM     22  C   UNL     1      -4.399 -64.984  -0.230  1.00  0.00     0.000 C 
BRANCH  22  23
ATOM     23  C   UNL     1      -5.173 -64.080   0.754  1.00  0.00     0.000 C 
BRANCH  23  24
ATOM     24  C   UNL     1      -5.864 -64.866   1.880  1.00  0.00    -0.000 C 
BRANCH  24  25
ATOM     25  C   UNL     1      -7.350 -64.494   1.981  1.00  0.00    -0.000 C 
BRANCH  25  26
ATOM     26  C   UNL     1      -8.248 -65.368   1.090  1.00  0.00    -0.000 C 
BRANCH  26  27
ATOM     27  C   UNL     1      -9.104 -64.594   0.067  1.00  0.00    -0.000 C 
BRANCH  27  28
ATOM     28  C   UNL     1      -8.329 -64.161  -1.197  1.00  0.00    -0.000 C 
BRANCH  28  29
ATOM     29  C   UNL     1      -7.907 -62.682  -1.148  1.00  0.00    -0.000 C 
BRANCH  29  30
ATOM     30  C   UNL     1      -7.150 -62.233  -2.411  1.00  0.00    -0.000 C 
BRANCH  30  31
ATOM     31  C   UNL     1      -6.356 -60.924  -2.253  1.00  0.00    -0.003 C 
ATOM     32  C   UNL     1      -4.861 -61.096  -2.525  1.00  0.00     0.004 C 
ENDBRANCH  30  31
ENDBRANCH  29  30
ENDBRANCH  28  29
ENDBRANCH  27  28
ENDBRANCH  26  27
ENDBRANCH  25  26
ENDBRANCH  24  25
ENDBRANCH  23  24
ENDBRANCH  22  23
ENDBRANCH  21  22
ENDBRANCH  20  21
ENDBRANCH  19  20
ENDBRANCH  18  19
ENDBRANCH   1  18
TORSDOF 28
ENDMDL
MODEL 9
REMARK VINA RESULT:    -2.962      1.724      4.473
REMARK INTER + INTRA:         -14.137
REMARK INTER:                  -8.528
REMARK INTRA:                  -5.609
REMARK UNBOUND:                -6.326
REMARK SMILES CCCCCCCCCCCCCCCCCCCCCCCCCCCCCC(=O)[O-]
REMARK SMILES IDX 16 1 17 2 18 3 19 4 20 5 21 6 22 7 23 8 24 9 25 10 26 11
REMARK SMILES IDX 27 12 28 13 29 14 30 15 31 16 32 17 15 18 14 19 13 20 12 21
REMARK SMILES IDX 11 22 10 23 9 24 8 25 7 26 6 27 5 28 4 29 3 30 2 31 1 32
REMARK H PARENT
REMARK Flexibility Score: inf
ROOT
ATOM      1  C   UNL     1      -4.412 -66.261  -5.879  1.00  0.00     0.000 C 
ENDROOT
BRANCH   1   2
ATOM      2  C   UNL     1      -4.233 -67.175  -4.648  1.00  0.00     0.000 C 
BRANCH   2   3
ATOM      3  C   UNL     1      -4.603 -66.484  -3.318  1.00  0.00     0.000 C 
BRANCH   3   4
ATOM      4  C   UNL     1      -4.783 -64.956  -3.422  1.00  0.00     0.000 C 
BRANCH   4   5
ATOM      5  C   UNL     1      -3.482 -64.137  -3.474  1.00  0.00     0.000 C 
BRANCH   5   6
ATOM      6  C   UNL     1      -3.439 -63.010  -2.427  1.00  0.00     0.000 C 
BRANCH   6   7
ATOM      7  C   UNL     1      -3.041 -61.657  -3.037  1.00  0.00     0.000 C 
BRANCH   7   8
ATOM      8  C   UNL     1      -4.228 -60.679  -3.126  1.00  0.00     0.000 C 
BRANCH   8   9
ATOM      9  C   UNL     1      -5.346 -61.022  -2.129  1.00  0.00     0.000 C 
BRANCH   9  10
ATOM     10  C   UNL     1      -6.693 -61.294  -2.823  1.00  0.00     0.000 C 
BRANCH  10  11
ATOM     11  C   UNL     1      -7.408 -62.537  -2.250  1.00  0.00     0.000 C 
BRANCH  11  12
ATOM     12  C   UNL     1      -6.789 -63.068  -0.945  1.00  0.00     0.000 C 
BRANCH  12  13
ATOM     13  C   UNL     1      -7.450 -64.366  -0.452  1.00  0.00     0.006 C 
BRANCH  13  14
ATOM     14  C   UNL     1      -8.979 -64.252  -0.383  1.00  0.00     0.053 C 
BRANCH  14  15
ATOM     15  C   UNL     1      -9.437 -63.667   0.919  1.00  0.00     0.041 C 
ATOM     16  O   UNL     1      -9.802 -64.423   1.858  1.00  0.00    -0.550 OA
ATOM     17  O   UNL     1      -9.494 -62.288   1.080  1.00  0.00    -0.550 OA
ENDBRANCH  14  15
ENDBRANCH  13  14
ENDBRANCH  12  13
ENDBRANCH  11  12
ENDBRANCH  10  11
ENDBRANCH   9  10
ENDBRANCH   8   9
ENDBRANCH   7   8
ENDBRANCH   6   7
ENDBRANCH   5   6
ENDBRANCH   4   5
ENDBRANCH   3   4
ENDBRANCH   2   3
ENDBRANCH   1   2
BRANCH   1  18
ATOM     18  C   UNL     1      -4.953 -67.017  -7.103  1.00  0.00     0.000 C 
BRANCH  18  19
ATOM     19  C   UNL     1      -5.003 -66.143  -8.367  1.00  0.00     0.000 C 
BRANCH  19  20
ATOM     20  C   UNL     1      -6.438 -65.821  -8.823  1.00  0.00     0.000 C 
BRANCH  20  21
ATOM     21  C   UNL     1      -6.683 -64.358  -9.243  1.00  0.00     0.000 C 
BRANCH  21  22
ATOM     22  C   UNL     1      -7.803 -63.619  -8.487  1.00  0.00     0.000 C 
BRANCH  22  23
ATOM     23  C   UNL     1      -8.121 -64.194  -7.090  1.00  0.00     0.000 C 
BRANCH  23  24
ATOM     24  C   UNL     1      -7.119 -63.751  -6.012  1.00  0.00    -0.000 C 
BRANCH  24  25
ATOM     25  C   UNL     1      -6.580 -62.342  -6.305  1.00  0.00    -0.000 C 
BRANCH  25  26
ATOM     26  C   UNL     1      -5.044 -62.278  -6.314  1.00  0.00    -0.000 C 
BRANCH  26  27
ATOM     27  C   UNL     1      -4.413 -61.940  -7.680  1.00  0.00    -0.000 C 
BRANCH  27  28
ATOM     28  C   UNL     1      -3.235 -62.860  -8.070  1.00  0.00    -0.000 C 
BRANCH  28  29
ATOM     29  C   UNL     1      -2.433 -63.336  -6.845  1.00  0.00    -0.000 C 
BRANCH  29  30
ATOM     30  C   UNL     1      -1.364 -62.322  -6.399  1.00  0.00    -0.000 C 
BRANCH  30  31
ATOM     31  C   UNL     1      -0.223 -62.922  -5.556  1.00  0.00    -0.003 C 
ATOM     32  C   UNL     1       0.949 -63.417  -6.405  1.00  0.00     0.004 C 
ENDBRANCH  30  31
ENDBRANCH  29  30
ENDBRANCH  28  29
ENDBRANCH  27  28
ENDBRANCH  26  27
ENDBRANCH  25  26
ENDBRANCH  24  25
ENDBRANCH  23  24
ENDBRANCH  22  23
ENDBRANCH  21  22
ENDBRANCH  20  21
ENDBRANCH  19  20
ENDBRANCH  18  19
ENDBRANCH   1  18
TORSDOF 28
ENDMDL
