MODEL 1
REMARK VINA RESULT:    38.375      0.000      0.000
REMARK INTER + INTRA:          41.596
REMARK INTER:                  41.740
REMARK INTRA:                  -0.144
REMARK UNBOUND:                -0.144
REMARK SMILES C[C@@H]1[C@H](C)CC[C@]2(C(=O)[O-])CC[C@@]3(C)C(=CC[C@H]4[C@]5(C)CC[C@H](O)C(C)(C)[C@@H]5CC[C@]43C)[C@H]12
REMARK SMILES IDX 7 1 6 2 11 3 33 4 5 5 12 6 15 7 2 8 3 9 13 10 16 11 1 12
REMARK SMILES IDX 4 13 14 14 31 15 17 16 18 17 30 18 32 19 19 20 29 21 28 22
REMARK SMILES IDX 21 23 20 24 25 25 22 26 23 27 26 28 27 29 8 30 9 31 10 32
REMARK SMILES IDX 24 33
REMARK H PARENT 24 34
REMARK Flexibility Score: inf
ROOT
ATOM      1  C   UNL     1     -25.818  -7.754   8.385  1.00  0.00     0.017 C 
ATOM      2  C   UNL     1     -25.757  -6.479   9.298  1.00  0.00     0.014 C 
ATOM      3  C   UNL     1     -26.063  -8.964   9.367  1.00  0.00     0.014 C 
ATOM      4  C   UNL     1     -24.514  -7.991   7.495  1.00  0.00     0.030 C 
ATOM      5  C   UNL     1     -25.005  -5.283   8.715  1.00  0.00     0.004 C 
ATOM      6  C   UNL     1     -25.897 -10.395   8.783  1.00  0.00     0.013 C 
ATOM      7  C   UNL     1     -23.842  -9.325   7.866  1.00  0.00    -0.063 C 
ATOM      8  C   UNL     1     -23.636  -6.724   7.192  1.00  0.00    -0.003 C 
ATOM      9  C   UNL     1     -23.574  -5.655   8.311  1.00  0.00    -0.011 C 
ATOM     10  C   UNL     1     -24.730 -10.579   7.752  1.00  0.00    -0.006 C 
ATOM     11  C   UNL     1     -22.793  -9.351   8.707  1.00  0.00    -0.027 C 
ATOM     12  C   UNL     1     -22.283  -7.009   6.515  1.00  0.00     0.008 C 
ATOM     13  C   UNL     1     -22.717  -6.019   9.535  1.00  0.00     0.008 C 
ATOM     14  C   UNL     1     -25.399 -10.619   6.333  1.00  0.00     0.017 C 
ATOM     15  C   UNL     1     -23.840 -11.924   7.965  1.00  0.00    -0.020 C 
ATOM     16  C   UNL     1     -22.677 -10.402   9.765  1.00  0.00     0.032 C 
ATOM     17  C   UNL     1     -22.878 -11.843   9.241  1.00  0.00     0.006 C 
ATOM     18  C   UNL     1     -24.746 -13.201   8.014  1.00  0.00     0.008 C 
ATOM     19  C   UNL     1     -22.917 -12.091   6.709  1.00  0.00     0.012 C 
ATOM     20  C   UNL     1     -23.093 -12.929  10.387  1.00  0.00    -0.025 C 
ATOM     21  C   UNL     1     -24.060 -14.492   8.504  1.00  0.00     0.005 C 
ATOM     22  C   UNL     1     -23.126 -14.382   9.756  1.00  0.00     0.003 C 
ATOM     23  C   UNL     1     -21.983 -12.831  11.494  1.00  0.00     0.010 C 
ATOM     24  C   UNL     1     -24.425 -12.709  11.182  1.00  0.00     0.012 C 
ATOM     25  C   UNL     1     -21.737 -15.161   9.579  1.00  0.00    -0.006 C 
ATOM     26  C   UNL     1     -20.645 -13.445  11.118  1.00  0.00     0.033 C 
ATOM     27  C   UNL     1     -20.835 -14.937  10.831  1.00  0.00     0.120 C 
ATOM     28  C   UNL     1     -22.036 -16.683   9.494  1.00  0.00     0.014 C 
ATOM     29  C   UNL     1     -20.930 -14.795   8.295  1.00  0.00     0.014 C 
ENDROOT
BRANCH   1  30
ATOM     30  C   UNL     1     -27.022  -7.581   7.462  1.00  0.00     0.048 C 
ATOM     31  O   UNL     1     -26.958  -7.878   6.239  1.00  0.00    -0.550 OA
ATOM     32  O   UNL     1     -28.235  -7.140   7.981  1.00  0.00    -0.550 OA
ENDBRANCH   1  30
BRANCH  27  33
ATOM     33  O   UNL     1     -19.579 -15.552  10.661  1.00  0.00    -0.393 OA
ATOM     34  H   UNL     1     -19.705 -16.290  10.007  1.00  0.00     0.210 HD
ENDBRANCH  27  33
TORSDOF 2
ENDMDL
MODEL 2
REMARK VINA RESULT:    41.168      2.288      7.461
REMARK INTER + INTRA:          44.634
REMARK INTER:                  44.435
REMARK INTRA:                   0.199
REMARK UNBOUND:                -0.144
REMARK SMILES C[C@@H]1[C@H](C)CC[C@]2(C(=O)[O-])CC[C@@]3(C)C(=CC[C@H]4[C@]5(C)CC[C@H](O)C(C)(C)[C@@H]5CC[C@]43C)[C@H]12
REMARK SMILES IDX 7 1 6 2 11 3 33 4 5 5 12 6 15 7 2 8 3 9 13 10 16 11 1 12
REMARK SMILES IDX 4 13 14 14 31 15 17 16 18 17 30 18 32 19 19 20 29 21 28 22
REMARK SMILES IDX 21 23 20 24 25 25 22 26 23 27 26 28 27 29 8 30 9 31 10 32
REMARK SMILES IDX 24 33
REMARK H PARENT 24 34
REMARK Flexibility Score: inf
ROOT
ATOM      1  C   UNL     1     -25.075 -14.330   7.421  1.00  0.00     0.017 C 
ATOM      2  C   UNL     1     -26.332 -15.012   6.776  1.00  0.00     0.014 C 
ATOM      3  C   UNL     1     -25.645 -13.330   8.500  1.00  0.00     0.014 C 
ATOM      4  C   UNL     1     -24.127 -13.575   6.382  1.00  0.00     0.030 C 
ATOM      5  C   UNL     1     -26.126 -15.588   5.375  1.00  0.00     0.004 C 
ATOM      6  C   UNL     1     -24.649 -12.308   9.116  1.00  0.00     0.013 C 
ATOM      7  C   UNL     1     -24.059 -12.072   6.706  1.00  0.00    -0.063 C 
ATOM      8  C   UNL     1     -24.207 -14.055   4.888  1.00  0.00    -0.003 C 
ATOM      9  C   UNL     1     -25.598 -14.531   4.399  1.00  0.00    -0.011 C 
ATOM     10  C   UNL     1     -23.586 -11.713   8.128  1.00  0.00    -0.006 C 
ATOM     11  C   UNL     1     -24.830 -11.193   6.040  1.00  0.00    -0.027 C 
ATOM     12  C   UNL     1     -23.447 -13.180   3.875  1.00  0.00     0.008 C 
ATOM     13  C   UNL     1     -26.634 -13.422   4.151  1.00  0.00     0.008 C 
ATOM     14  C   UNL     1     -22.237 -12.455   8.434  1.00  0.00     0.017 C 
ATOM     15  C   UNL     1     -23.359 -10.108   8.260  1.00  0.00    -0.020 C 
ATOM     16  C   UNL     1     -25.513 -10.071   6.754  1.00  0.00     0.032 C 
ATOM     17  C   UNL     1     -24.579  -9.252   7.675  1.00  0.00     0.006 C 
ATOM     18  C   UNL     1     -23.035  -9.701   9.738  1.00  0.00     0.008 C 
ATOM     19  C   UNL     1     -22.093  -9.732   7.417  1.00  0.00     0.012 C 
ATOM     20  C   UNL     1     -25.343  -8.285   8.685  1.00  0.00    -0.025 C 
ATOM     21  C   UNL     1     -23.093  -8.191  10.047  1.00  0.00     0.005 C 
ATOM     22  C   UNL     1     -24.299  -7.380   9.463  1.00  0.00     0.003 C 
ATOM     23  C   UNL     1     -26.403  -7.394   7.945  1.00  0.00     0.010 C 
ATOM     24  C   UNL     1     -26.194  -9.068   9.741  1.00  0.00     0.012 C 
ATOM     25  C   UNL     1     -23.863  -5.989   8.800  1.00  0.00    -0.006 C 
ATOM     26  C   UNL     1     -25.829  -6.206   7.190  1.00  0.00     0.033 C 
ATOM     27  C   UNL     1     -25.104  -5.283   8.173  1.00  0.00     0.120 C 
ATOM     28  C   UNL     1     -23.324  -5.059   9.922  1.00  0.00     0.014 C 
ATOM     29  C   UNL     1     -22.736  -6.089   7.727  1.00  0.00     0.014 C 
ENDROOT
BRANCH   1  30
ATOM     30  C   UNL     1     -24.274 -15.434   8.107  1.00  0.00     0.048 C 
ATOM     31  O   UNL     1     -23.989 -16.506   7.509  1.00  0.00    -0.550 OA
ATOM     32  O   UNL     1     -23.797 -15.242   9.400  1.00  0.00    -0.550 OA
ENDBRANCH   1  30
BRANCH  27  33
ATOM     33  O   UNL     1     -24.728  -4.093   7.520  1.00  0.00    -0.393 OA
ATOM     34  H   UNL     1     -24.081  -3.630   8.114  1.00  0.00     0.210 HD
ENDBRANCH  27  33
TORSDOF 2
ENDMDL
