MODEL 1
REMARK VINA RESULT:    17.628      0.000      0.000
REMARK INTER + INTRA:          30.395
REMARK INTER:                  25.872
REMARK INTRA:                   4.523
REMARK UNBOUND:                 4.523
REMARK SMILES O=c1c(O[C@H]2O[C@@H](CO)[C@@H](O)[C@H](O)[C@@H]2O)c(-c2ccc(O)c(O)c2)oc2cc(O)cc(O)c12
REMARK SMILES IDX 4 1 3 2 16 3 25 4 2 5 26 6 1 7 33 8 27 9 31 10 28 11 30 12
REMARK SMILES IDX 17 13 18 14 19 15 20 16 24 17 22 18 21 19 23 21 32 23 29 25
REMARK SMILES IDX 5 27 14 28 6 29 12 30 7 31 10 32 15 33 13 35 8 37 9 38 11 40
REMARK H PARENT 21 20 23 22 32 24 29 26 15 34 13 36 9 39 11 41
REMARK Flexibility Score: inf
ROOT
ATOM      1  O   UNL     1      -9.564 -12.121   2.662  1.00  0.00    -0.454 OA
ENDROOT
BRANCH   1   2
ATOM      2  C   UNL     1      -8.234 -11.720   2.487  1.00  0.00     0.214 A 
ATOM      3  C   UNL     1      -7.733 -11.326   1.228  1.00  0.00     0.180 A 
ATOM      4  O   UNL     1      -6.485 -10.875   1.127  1.00  0.00    -0.452 OA
ATOM      5  C   UNL     1      -7.375 -11.704   3.592  1.00  0.00     0.239 A 
ATOM      6  C   UNL     1      -5.648 -10.811   2.156  1.00  0.00     0.146 A 
ATOM      7  O   UNL     1      -7.806 -12.096   4.711  1.00  0.00    -0.285 OA
ATOM      8  C   UNL     1      -6.054 -11.237   3.443  1.00  0.00     0.111 A 
ATOM      9  C   UNL     1      -4.355 -10.323   1.951  1.00  0.00     0.094 A 
ATOM     10  C   UNL     1      -5.131 -11.169   4.514  1.00  0.00     0.134 A 
ATOM     11  C   UNL     1      -3.448 -10.255   3.014  1.00  0.00     0.123 A 
ATOM     12  C   UNL     1      -3.837 -10.679   4.288  1.00  0.00     0.093 A 
BRANCH   3  13
ATOM     13  C   UNL     1      -8.545 -11.406  -0.007  1.00  0.00     0.025 A 
ATOM     14  C   UNL     1      -9.792 -12.054  -0.018  1.00  0.00     0.016 A 
ATOM     15  C   UNL     1     -10.541 -12.125  -1.195  1.00  0.00     0.051 A 
ATOM     16  C   UNL     1     -10.052 -11.566  -2.379  1.00  0.00     0.157 A 
ATOM     17  C   UNL     1      -8.046 -10.864  -1.202  1.00  0.00     0.062 A 
ATOM     18  C   UNL     1      -8.796 -10.936  -2.385  1.00  0.00     0.158 A 
BRANCH  16  19
ATOM     19  O   UNL     1     -10.822 -11.650  -3.538  1.00  0.00    -0.504 OA
ATOM     20  H   UNL     1     -10.791 -12.458  -4.149  1.00  0.00     0.293 HD
ENDBRANCH  16  19
BRANCH  18  21
ATOM     21  O   UNL     1      -8.298 -10.381  -3.563  1.00  0.00    -0.504 OA
ATOM     22  H   UNL     1      -8.284  -9.379  -3.715  1.00  0.00     0.293 HD
ENDBRANCH  18  21
ENDBRANCH   3  13
BRANCH  10  23
ATOM     23  O   UNL     1      -5.491 -11.582   5.798  1.00  0.00    -0.507 OA
ATOM     24  H   UNL     1      -6.385 -12.021   5.985  1.00  0.00     0.293 HD
ENDBRANCH  10  23
BRANCH  11  25
ATOM     25  O   UNL     1      -2.157  -9.771   2.817  1.00  0.00    -0.508 OA
ATOM     26  H   UNL     1      -1.975  -8.780   2.700  1.00  0.00     0.293 HD
ENDBRANCH  11  25
ENDBRANCH   1   2
BRANCH   1  27
ATOM     27  C   UNL     1     -10.652 -11.549   1.928  1.00  0.00     0.339 C 
ATOM     28  C   UNL     1     -10.472 -10.024   1.760  1.00  0.00     0.214 C 
ATOM     29  O   UNL     1     -11.897 -11.893   2.526  1.00  0.00    -0.332 OA
ATOM     30  C   UNL     1     -10.694  -9.300   3.100  1.00  0.00     0.180 C 
ATOM     31  C   UNL     1     -12.118 -11.293   3.799  1.00  0.00     0.179 C 
ATOM     32  C   UNL     1     -12.015  -9.747   3.753  1.00  0.00     0.177 C 
BRANCH  28  33
ATOM     33  O   UNL     1     -11.317  -9.524   0.751  1.00  0.00    -0.384 OA
ATOM     34  H   UNL     1     -11.626  -8.621   1.023  1.00  0.00     0.211 HD
ENDBRANCH  28  33
BRANCH  30  35
ATOM     35  O   UNL     1     -10.644  -7.904   2.933  1.00  0.00    -0.387 OA
ATOM     36  H   UNL     1     -10.902  -7.696   1.997  1.00  0.00     0.211 HD
ENDBRANCH  30  35
BRANCH  31  37
ATOM     37  C   UNL     1     -11.286 -11.966   4.915  1.00  0.00     0.191 C 
BRANCH  37  38
ATOM     38  O   UNL     1     -11.960 -11.888   6.145  1.00  0.00    -0.394 OA
ATOM     39  H   UNL     1     -12.913 -11.688   5.950  1.00  0.00     0.210 HD
ENDBRANCH  37  38
ENDBRANCH  31  37
BRANCH  32  40
ATOM     40  O   UNL     1     -12.122  -9.213   5.049  1.00  0.00    -0.387 OA
ATOM     41  H   UNL     1     -13.050  -8.872   5.146  1.00  0.00     0.211 HD
ENDBRANCH  32  40
ENDBRANCH   1  27
TORSDOF 12
ENDMDL
MODEL 2
REMARK VINA RESULT:    18.839     20.228     22.679
REMARK INTER + INTRA:          32.173
REMARK INTER:                  26.275
REMARK INTRA:                   5.898
REMARK UNBOUND:                 4.523
REMARK SMILES O=c1c(O[C@H]2O[C@@H](CO)[C@@H](O)[C@H](O)[C@@H]2O)c(-c2ccc(O)c(O)c2)oc2cc(O)cc(O)c12
REMARK SMILES IDX 4 1 3 2 16 3 25 4 2 5 26 6 1 7 33 8 27 9 31 10 28 11 30 12
REMARK SMILES IDX 17 13 18 14 19 15 20 16 24 17 22 18 21 19 23 21 32 23 29 25
REMARK SMILES IDX 5 27 14 28 6 29 12 30 7 31 10 32 15 33 13 35 8 37 9 38 11 40
REMARK H PARENT 21 20 23 22 32 24 29 26 15 34 13 36 9 39 11 41
REMARK Flexibility Score: inf
ROOT
ATOM      1  O   UNL     1       6.996   6.421   1.426  1.00  0.00    -0.454 OA
ENDROOT
BRANCH   1   2
ATOM      2  C   UNL     1       5.674   6.827   1.643  1.00  0.00     0.214 A 
ATOM      3  C   UNL     1       4.860   7.309   0.595  1.00  0.00     0.180 A 
ATOM      4  O   UNL     1       3.585   7.605   0.833  1.00  0.00    -0.452 OA
ATOM      5  C   UNL     1       5.138   6.750   2.934  1.00  0.00     0.239 A 
ATOM      6  C   UNL     1       3.028   7.512   2.035  1.00  0.00     0.146 A 
ATOM      7  O   UNL     1       5.873   6.361   3.881  1.00  0.00    -0.285 OA
ATOM      8  C   UNL     1       3.788   7.090   3.152  1.00  0.00     0.111 A 
ATOM      9  C   UNL     1       1.680   7.847   2.187  1.00  0.00     0.094 A 
ATOM     10  C   UNL     1       3.166   7.018   4.421  1.00  0.00     0.134 A 
ATOM     11  C   UNL     1       1.070   7.771   3.444  1.00  0.00     0.123 A 
ATOM     12  C   UNL     1       1.813   7.360   4.554  1.00  0.00     0.093 A 
BRANCH   3  13
ATOM     13  C   UNL     1       5.376   7.513  -0.777  1.00  0.00     0.025 A 
ATOM     14  C   UNL     1       6.702   7.921  -1.003  1.00  0.00     0.016 A 
ATOM     15  C   UNL     1       7.169   8.115  -2.305  1.00  0.00     0.051 A 
ATOM     16  C   UNL     1       6.319   7.922  -3.398  1.00  0.00     0.157 A 
ATOM     17  C   UNL     1       4.518   7.340  -1.874  1.00  0.00     0.062 A 
ATOM     18  C   UNL     1       4.985   7.536  -3.183  1.00  0.00     0.158 A 
BRANCH  16  19
ATOM     19  O   UNL     1       6.813   8.121  -4.687  1.00  0.00    -0.504 OA
ATOM     20  H   UNL     1       6.279   7.875  -5.512  1.00  0.00     0.293 HD
ENDBRANCH  16  19
BRANCH  18  21
ATOM     21  O   UNL     1       4.129   7.347  -4.267  1.00  0.00    -0.504 OA
ATOM     22  H   UNL     1       3.636   6.472  -4.409  1.00  0.00     0.293 HD
ENDBRANCH  18  21
ENDBRANCH   3  13
BRANCH  10  23
ATOM     23  O   UNL     1       3.881   6.608   5.547  1.00  0.00    -0.507 OA
ATOM     24  H   UNL     1       3.641   5.762   6.052  1.00  0.00     0.293 HD
ENDBRANCH  10  23
BRANCH  11  25
ATOM     25  O   UNL     1      -0.273   8.104   3.603  1.00  0.00    -0.508 OA
ATOM     26  H   UNL     1      -0.557   8.922   4.131  1.00  0.00     0.293 HD
ENDBRANCH  11  25
ENDBRANCH   1   2
BRANCH   1  27
ATOM     27  C   UNL     1       7.388   5.608   0.316  1.00  0.00     0.339 C 
ATOM     28  C   UNL     1       6.171   5.225  -0.554  1.00  0.00     0.214 C 
ATOM     29  O   UNL     1       8.125   4.474   0.760  1.00  0.00    -0.332 OA
ATOM     30  C   UNL     1       5.281   4.202   0.176  1.00  0.00     0.180 C 
ATOM     31  C   UNL     1       7.353   3.528   1.495  1.00  0.00     0.179 C 
ATOM     32  C   UNL     1       6.120   3.023   0.704  1.00  0.00     0.177 C 
BRANCH  28  33
ATOM     33  O   UNL     1       6.580   4.752  -1.816  1.00  0.00    -0.384 OA
ATOM     34  H   UNL     1       6.287   3.809  -1.905  1.00  0.00     0.211 HD
ENDBRANCH  28  33
BRANCH  30  35
ATOM     35  O   UNL     1       4.233   3.763  -0.653  1.00  0.00    -0.387 OA
ATOM     36  H   UNL     1       3.530   3.365  -0.076  1.00  0.00     0.211 HD
ENDBRANCH  30  35
BRANCH  31  37
ATOM     37  C   UNL     1       7.048   4.014   2.932  1.00  0.00     0.191 C 
BRANCH  37  38
ATOM     38  O   UNL     1       8.070   4.863   3.390  1.00  0.00    -0.394 OA
ATOM     39  H   UNL     1       7.639   5.688   3.733  1.00  0.00     0.210 HD
ENDBRANCH  37  38
ENDBRANCH  31  37
BRANCH  32  40
ATOM     40  O   UNL     1       5.330   2.188   1.512  1.00  0.00    -0.387 OA
ATOM     41  H   UNL     1       4.465   2.064   1.042  1.00  0.00     0.211 HD
ENDBRANCH  32  40
ENDBRANCH   1  27
TORSDOF 12
ENDMDL
MODEL 3
REMARK VINA RESULT:    20.144      2.608      6.686
REMARK INTER + INTRA:          34.088
REMARK INTER:                  31.502
REMARK INTRA:                   2.586
REMARK UNBOUND:                 4.523
REMARK SMILES O=c1c(O[C@H]2O[C@@H](CO)[C@@H](O)[C@H](O)[C@@H]2O)c(-c2ccc(O)c(O)c2)oc2cc(O)cc(O)c12
REMARK SMILES IDX 4 1 3 2 16 3 25 4 2 5 26 6 1 7 33 8 27 9 31 10 28 11 30 12
REMARK SMILES IDX 17 13 18 14 19 15 20 16 24 17 22 18 21 19 23 21 32 23 29 25
REMARK SMILES IDX 5 27 14 28 6 29 12 30 7 31 10 32 15 33 13 35 8 37 9 38 11 40
REMARK H PARENT 21 20 23 22 32 24 29 26 15 34 13 36 9 39 11 41
REMARK Flexibility Score: inf
ROOT
ATOM      1  O   UNL     1      -7.135 -10.692  -2.289  1.00  0.00    -0.454 OA
ENDROOT
BRANCH   1   2
ATOM      2  C   UNL     1      -7.937 -10.886  -1.158  1.00  0.00     0.214 A 
ATOM      3  C   UNL     1      -9.344 -10.952  -1.243  1.00  0.00     0.180 A 
ATOM      4  O   UNL     1     -10.059 -11.221  -0.154  1.00  0.00    -0.452 OA
ATOM      5  C   UNL     1      -7.329 -11.026   0.095  1.00  0.00     0.239 A 
ATOM      6  C   UNL     1      -9.520 -11.395   1.047  1.00  0.00     0.146 A 
ATOM      7  O   UNL     1      -6.075 -10.926   0.184  1.00  0.00    -0.285 OA
ATOM      8  C   UNL     1      -8.121 -11.292   1.231  1.00  0.00     0.111 A 
ATOM      9  C   UNL     1     -10.354 -11.673   2.133  1.00  0.00     0.094 A 
ATOM     10  C   UNL     1      -7.581 -11.468   2.527  1.00  0.00     0.134 A 
ATOM     11  C   UNL     1      -9.814 -11.848   3.412  1.00  0.00     0.123 A 
ATOM     12  C   UNL     1      -8.434 -11.744   3.605  1.00  0.00     0.093 A 
BRANCH   3  13
ATOM     13  C   UNL     1     -10.071 -10.718  -2.511  1.00  0.00     0.025 A 
ATOM     14  C   UNL     1     -10.194 -11.731  -3.478  1.00  0.00     0.016 A 
ATOM     15  C   UNL     1     -10.878 -11.489  -4.671  1.00  0.00     0.051 A 
ATOM     16  C   UNL     1     -11.436 -10.233  -4.925  1.00  0.00     0.157 A 
ATOM     17  C   UNL     1     -10.614  -9.451  -2.776  1.00  0.00     0.062 A 
ATOM     18  C   UNL     1     -11.301  -9.206  -3.975  1.00  0.00     0.158 A 
BRANCH  16  19
ATOM     19  O   UNL     1     -12.116 -10.021  -6.124  1.00  0.00    -0.504 OA
ATOM     20  H   UNL     1     -12.973  -9.483  -6.169  1.00  0.00     0.293 HD
ENDBRANCH  16  19
BRANCH  18  21
ATOM     21  O   UNL     1     -11.850  -7.949  -4.223  1.00  0.00    -0.504 OA
ATOM     22  H   UNL     1     -12.399  -7.762  -5.054  1.00  0.00     0.293 HD
ENDBRANCH  18  21
ENDBRANCH   3  13
BRANCH  10  23
ATOM     23  O   UNL     1      -6.207 -11.372   2.750  1.00  0.00    -0.507 OA
ATOM     24  H   UNL     1      -5.790 -11.644   3.634  1.00  0.00     0.293 HD
ENDBRANCH  10  23
BRANCH  11  25
ATOM     25  O   UNL     1     -10.640 -12.125   4.499  1.00  0.00    -0.508 OA
ATOM     26  H   UNL     1     -11.441 -11.543   4.718  1.00  0.00     0.293 HD
ENDBRANCH  11  25
ENDBRANCH   1   2
BRANCH   1  27
ATOM     27  C   UNL     1      -7.630 -10.817  -3.625  1.00  0.00     0.339 C 
ATOM     28  C   UNL     1      -6.535 -11.339  -4.580  1.00  0.00     0.214 C 
ATOM     29  O   UNL     1      -8.205  -9.592  -4.066  1.00  0.00    -0.332 OA
ATOM     30  C   UNL     1      -5.471 -10.255  -4.831  1.00  0.00     0.180 C 
ATOM     31  C   UNL     1      -7.262  -8.540  -4.252  1.00  0.00     0.179 C 
ATOM     32  C   UNL     1      -6.130  -8.924  -5.238  1.00  0.00     0.177 C 
BRANCH  28  33
ATOM     33  O   UNL     1      -7.095 -11.808  -5.784  1.00  0.00    -0.384 OA
ATOM     34  H   UNL     1      -6.637 -12.652  -6.033  1.00  0.00     0.211 HD
ENDBRANCH  28  33
BRANCH  30  35
ATOM     35  O   UNL     1      -4.531 -10.683  -5.787  1.00  0.00    -0.387 OA
ATOM     36  H   UNL     1      -3.683 -10.192  -5.625  1.00  0.00     0.211 HD
ENDBRANCH  30  35
BRANCH  31  37
ATOM     37  C   UNL     1      -6.779  -7.943  -2.909  1.00  0.00     0.191 C 
BRANCH  37  38
ATOM     38  O   UNL     1      -6.926  -6.546  -2.912  1.00  0.00    -0.394 OA
ATOM     39  H   UNL     1      -7.417  -6.296  -2.087  1.00  0.00     0.210 HD
ENDBRANCH  37  38
ENDBRANCH  31  37
BRANCH  32  40
ATOM     40  O   UNL     1      -5.166  -7.902  -5.295  1.00  0.00    -0.387 OA
ATOM     41  H   UNL     1      -5.588  -7.085  -4.921  1.00  0.00     0.211 HD
ENDBRANCH  32  40
ENDBRANCH   1  27
TORSDOF 12
ENDMDL
