MODEL 1
REMARK VINA RESULT:    -3.127      0.000      0.000
REMARK INTER + INTRA:         -12.548
REMARK INTER:                  -7.880
REMARK INTRA:                  -4.668
REMARK UNBOUND:                -4.668
REMARK SMILES CCCCCCCCCCCCCCCCCCCCCCCCCCCC(=O)[O-]
REMARK SMILES IDX 15 1 16 2 17 3 18 4 19 5 20 6 21 7 22 8 23 9 24 10 25 11
REMARK SMILES IDX 26 12 27 13 28 14 29 15 30 16 14 17 13 18 12 19 11 20 10 21
REMARK SMILES IDX 9 22 8 23 7 24 6 25 5 26 4 27 3 28 2 29 1 30
REMARK H PARENT
REMARK Flexibility Score: inf
ROOT
ATOM      1  C   UNL     1    -115.399  37.010  -8.937  1.00  0.00     0.000 C 
ENDROOT
BRANCH   1   2
ATOM      2  C   UNL     1    -116.007  36.093  -7.862  1.00  0.00     0.000 C 
BRANCH   2   3
ATOM      3  C   UNL     1    -115.134  34.854  -7.588  1.00  0.00     0.000 C 
BRANCH   3   4
ATOM      4  C   UNL     1    -115.115  33.880  -8.774  1.00  0.00     0.000 C 
BRANCH   4   5
ATOM      5  C   UNL     1    -116.525  33.541  -9.287  1.00  0.00     0.000 C 
BRANCH   5   6
ATOM      6  C   UNL     1    -116.612  33.543 -10.825  1.00  0.00     0.000 C 
BRANCH   6   7
ATOM      7  C   UNL     1    -115.293  33.883 -11.543  1.00  0.00     0.000 C 
BRANCH   7   8
ATOM      8  C   UNL     1    -115.508  34.625 -12.872  1.00  0.00     0.000 C 
BRANCH   8   9
ATOM      9  C   UNL     1    -114.799  33.909 -14.045  1.00  0.00     0.000 C 
BRANCH   9  10
ATOM     10  C   UNL     1    -114.016  34.879 -14.947  1.00  0.00     0.000 C 
BRANCH  10  11
ATOM     11  C   UNL     1    -114.052  36.333 -14.426  1.00  0.00     0.000 C 
BRANCH  11  12
ATOM     12  C   UNL     1    -113.063  37.276 -15.135  1.00  0.00     0.006 C 
BRANCH  12  13
ATOM     13  C   UNL     1    -111.678  37.350 -14.464  1.00  0.00     0.053 C 
BRANCH  13  14
ATOM     14  C   UNL     1    -110.598  36.755 -15.318  1.00  0.00     0.041 C 
ATOM     15  O   UNL     1    -109.654  37.471 -15.741  1.00  0.00    -0.550 OA
ATOM     16  O   UNL     1    -110.618  35.400 -15.626  1.00  0.00    -0.550 OA
ENDBRANCH  13  14
ENDBRANCH  12  13
ENDBRANCH  11  12
ENDBRANCH  10  11
ENDBRANCH   9  10
ENDBRANCH   8   9
ENDBRANCH   7   8
ENDBRANCH   6   7
ENDBRANCH   5   6
ENDBRANCH   4   5
ENDBRANCH   3   4
ENDBRANCH   2   3
ENDBRANCH   1   2
BRANCH   1  17
ATOM     17  C   UNL     1    -116.419  37.382 -10.024  1.00  0.00     0.000 C 
BRANCH  17  18
ATOM     18  C   UNL     1    -115.725  37.667 -11.366  1.00  0.00     0.000 C 
BRANCH  18  19
ATOM     19  C   UNL     1    -115.246  39.124 -11.478  1.00  0.00     0.000 C 
BRANCH  19  20
ATOM     20  C   UNL     1    -113.718  39.230 -11.635  1.00  0.00     0.000 C 
BRANCH  20  21
ATOM     21  C   UNL     1    -113.305  40.211 -12.743  1.00  0.00     0.000 C 
BRANCH  21  22
ATOM     22  C   UNL     1    -111.980  40.935 -12.437  1.00  0.00    -0.000 C 
BRANCH  22  23
ATOM     23  C   UNL     1    -112.134  42.463 -12.400  1.00  0.00    -0.000 C 
BRANCH  23  24
ATOM     24  C   UNL     1    -112.550  42.983 -11.015  1.00  0.00    -0.000 C 
BRANCH  24  25
ATOM     25  C   UNL     1    -114.053  43.298 -10.927  1.00  0.00    -0.000 C 
BRANCH  25  26
ATOM     26  C   UNL     1    -114.808  42.443  -9.887  1.00  0.00    -0.000 C 
BRANCH  26  27
ATOM     27  C   UNL     1    -113.852  41.752  -8.902  1.00  0.00    -0.000 C 
BRANCH  27  28
ATOM     28  C   UNL     1    -114.546  40.593  -8.177  1.00  0.00    -0.000 C 
BRANCH  28  29
ATOM     29  C   UNL     1    -116.066  40.798  -8.142  1.00  0.00    -0.003 C 
ATOM     30  C   UNL     1    -116.721  39.881  -7.115  1.00  0.00     0.004 C 
ENDBRANCH  28  29
ENDBRANCH  27  28
ENDBRANCH  26  27
ENDBRANCH  25  26
ENDBRANCH  24  25
ENDBRANCH  23  24
ENDBRANCH  22  23
ENDBRANCH  21  22
ENDBRANCH  20  21
ENDBRANCH  19  20
ENDBRANCH  18  19
ENDBRANCH  17  18
ENDBRANCH   1  17
TORSDOF 26
ENDMDL
MODEL 2
REMARK VINA RESULT:    -3.009      2.584      6.816
REMARK INTER + INTRA:         -12.251
REMARK INTER:                  -7.350
REMARK INTRA:                  -4.901
REMARK UNBOUND:                -4.668
REMARK SMILES CCCCCCCCCCCCCCCCCCCCCCCCCCCC(=O)[O-]
REMARK SMILES IDX 15 1 16 2 17 3 18 4 19 5 20 6 21 7 22 8 23 9 24 10 25 11
REMARK SMILES IDX 26 12 27 13 28 14 29 15 30 16 14 17 13 18 12 19 11 20 10 21
REMARK SMILES IDX 9 22 8 23 7 24 6 25 5 26 4 27 3 28 2 29 1 30
REMARK H PARENT
REMARK Flexibility Score: inf
ROOT
ATOM      1  C   UNL     1    -114.564  40.058  -8.964  1.00  0.00     0.000 C 
ENDROOT
BRANCH   1   2
ATOM      2  C   UNL     1    -114.905  40.795 -10.269  1.00  0.00     0.000 C 
BRANCH   2   3
ATOM      3  C   UNL     1    -113.674  40.985 -11.174  1.00  0.00     0.000 C 
BRANCH   3   4
ATOM      4  C   UNL     1    -113.810  40.239 -12.509  1.00  0.00     0.000 C 
BRANCH   4   5
ATOM      5  C   UNL     1    -112.752  39.136 -12.683  1.00  0.00     0.000 C 
BRANCH   5   6
ATOM      6  C   UNL     1    -112.424  38.858 -14.162  1.00  0.00     0.000 C 
BRANCH   6   7
ATOM      7  C   UNL     1    -111.141  38.038 -14.393  1.00  0.00     0.000 C 
BRANCH   7   8
ATOM      8  C   UNL     1    -110.157  38.724 -15.355  1.00  0.00     0.000 C 
BRANCH   8   9
ATOM      9  C   UNL     1    -109.381  39.865 -14.658  1.00  0.00     0.000 C 
BRANCH   9  10
ATOM     10  C   UNL     1    -109.347  41.157 -15.493  1.00  0.00     0.000 C 
BRANCH  10  11
ATOM     11  C   UNL     1    -110.325  42.230 -14.963  1.00  0.00     0.000 C 
BRANCH  11  12
ATOM     12  C   UNL     1    -110.695  42.060 -13.479  1.00  0.00     0.006 C 
BRANCH  12  13
ATOM     13  C   UNL     1    -111.267  43.333 -12.826  1.00  0.00     0.053 C 
BRANCH  13  14
ATOM     14  C   UNL     1    -112.289  44.008 -13.691  1.00  0.00     0.041 C 
ATOM     15  O   UNL     1    -112.042  45.125 -14.215  1.00  0.00    -0.550 OA
ATOM     16  O   UNL     1    -113.510  43.392 -13.942  1.00  0.00    -0.550 OA
ENDBRANCH  13  14
ENDBRANCH  12  13
ENDBRANCH  11  12
ENDBRANCH  10  11
ENDBRANCH   9  10
ENDBRANCH   8   9
ENDBRANCH   7   8
ENDBRANCH   6   7
ENDBRANCH   5   6
ENDBRANCH   4   5
ENDBRANCH   3   4
ENDBRANCH   2   3
ENDBRANCH   1   2
BRANCH   1  17
ATOM     17  C   UNL     1    -114.541  38.532  -9.150  1.00  0.00     0.000 C 
BRANCH  17  18
ATOM     18  C   UNL     1    -115.903  37.908  -8.808  1.00  0.00     0.000 C 
BRANCH  18  19
ATOM     19  C   UNL     1    -116.670  37.457 -10.063  1.00  0.00     0.000 C 
BRANCH  19  20
ATOM     20  C   UNL     1    -115.756  37.323 -11.295  1.00  0.00     0.000 C 
BRANCH  20  21
ATOM     21  C   UNL     1    -116.482  37.656 -12.608  1.00  0.00     0.000 C 
BRANCH  21  22
ATOM     22  C   UNL     1    -115.756  37.104 -13.848  1.00  0.00    -0.000 C 
BRANCH  22  23
ATOM     23  C   UNL     1    -114.709  36.036 -13.497  1.00  0.00    -0.000 C 
BRANCH  23  24
ATOM     24  C   UNL     1    -115.151  34.619 -13.898  1.00  0.00    -0.000 C 
BRANCH  24  25
ATOM     25  C   UNL     1    -115.320  33.685 -12.687  1.00  0.00    -0.000 C 
BRANCH  25  26
ATOM     26  C   UNL     1    -116.671  33.849 -11.960  1.00  0.00    -0.000 C 
BRANCH  26  27
ATOM     27  C   UNL     1    -116.633  33.283 -10.532  1.00  0.00    -0.000 C 
BRANCH  27  28
ATOM     28  C   UNL     1    -115.460  33.867  -9.737  1.00  0.00    -0.000 C 
BRANCH  28  29
ATOM     29  C   UNL     1    -115.896  34.259  -8.320  1.00  0.00    -0.003 C 
ATOM     30  C   UNL     1    -114.697  34.648  -7.462  1.00  0.00     0.004 C 
ENDBRANCH  28  29
ENDBRANCH  27  28
ENDBRANCH  26  27
ENDBRANCH  25  26
ENDBRANCH  24  25
ENDBRANCH  23  24
ENDBRANCH  22  23
ENDBRANCH  21  22
ENDBRANCH  20  21
ENDBRANCH  19  20
ENDBRANCH  18  19
ENDBRANCH  17  18
ENDBRANCH   1  17
TORSDOF 26
ENDMDL
MODEL 3
REMARK VINA RESULT:    -2.997      3.188      6.688
REMARK INTER + INTRA:         -12.220
REMARK INTER:                  -7.756
REMARK INTRA:                  -4.464
REMARK UNBOUND:                -4.668
REMARK SMILES CCCCCCCCCCCCCCCCCCCCCCCCCCCC(=O)[O-]
REMARK SMILES IDX 15 1 16 2 17 3 18 4 19 5 20 6 21 7 22 8 23 9 24 10 25 11
REMARK SMILES IDX 26 12 27 13 28 14 29 15 30 16 14 17 13 18 12 19 11 20 10 21
REMARK SMILES IDX 9 22 8 23 7 24 6 25 5 26 4 27 3 28 2 29 1 30
REMARK H PARENT
REMARK Flexibility Score: inf
ROOT
ATOM      1  C   UNL     1    -115.145  33.895  -8.835  1.00  0.00     0.000 C 
ENDROOT
BRANCH   1   2
ATOM      2  C   UNL     1    -115.115  34.888  -7.661  1.00  0.00     0.000 C 
BRANCH   2   3
ATOM      3  C   UNL     1    -116.527  35.303  -7.209  1.00  0.00     0.000 C 
BRANCH   3   4
ATOM      4  C   UNL     1    -116.702  36.827  -7.166  1.00  0.00     0.000 C 
BRANCH   4   5
ATOM      5  C   UNL     1    -116.003  37.538  -8.338  1.00  0.00     0.000 C 
BRANCH   5   6
ATOM      6  C   UNL     1    -116.968  37.864  -9.493  1.00  0.00     0.000 C 
BRANCH   6   7
ATOM      7  C   UNL     1    -116.564  37.271 -10.855  1.00  0.00     0.000 C 
BRANCH   7   8
ATOM      8  C   UNL     1    -115.261  37.872 -11.407  1.00  0.00     0.000 C 
BRANCH   8   9
ATOM      9  C   UNL     1    -115.534  39.117 -12.284  1.00  0.00     0.000 C 
BRANCH   9  10
ATOM     10  C   UNL     1    -115.055  40.423 -11.627  1.00  0.00     0.000 C 
BRANCH  10  11
ATOM     11  C   UNL     1    -114.072  40.174 -10.461  1.00  0.00     0.000 C 
BRANCH  11  12
ATOM     12  C   UNL     1    -113.953  41.355  -9.481  1.00  0.00     0.006 C 
BRANCH  12  13
ATOM     13  C   UNL     1    -115.299  41.816  -8.889  1.00  0.00     0.053 C 
BRANCH  13  14
ATOM     14  C   UNL     1    -115.320  41.741  -7.392  1.00  0.00     0.041 C 
ATOM     15  O   UNL     1    -115.728  42.716  -6.711  1.00  0.00    -0.550 OA
ATOM     16  O   UNL     1    -114.911  40.580  -6.744  1.00  0.00    -0.550 OA
ENDBRANCH  13  14
ENDBRANCH  12  13
ENDBRANCH  11  12
ENDBRANCH  10  11
ENDBRANCH   9  10
ENDBRANCH   8   9
ENDBRANCH   7   8
ENDBRANCH   6   7
ENDBRANCH   5   6
ENDBRANCH   4   5
ENDBRANCH   3   4
ENDBRANCH   2   3
ENDBRANCH   1   2
BRANCH   1  17
ATOM     17  C   UNL     1    -116.572  33.657  -9.355  1.00  0.00     0.000 C 
BRANCH  17  18
ATOM     18  C   UNL     1    -116.590  33.505 -10.884  1.00  0.00     0.000 C 
BRANCH  18  19
ATOM     19  C   UNL     1    -115.265  33.943 -11.531  1.00  0.00     0.000 C 
BRANCH  19  20
ATOM     20  C   UNL     1    -114.892  33.079 -12.750  1.00  0.00     0.000 C 
BRANCH  20  21
ATOM     21  C   UNL     1    -114.797  33.897 -14.047  1.00  0.00     0.000 C 
BRANCH  21  22
ATOM     22  C   UNL     1    -115.583  35.219 -13.978  1.00  0.00    -0.000 C 
BRANCH  22  23
ATOM     23  C   UNL     1    -114.878  36.368 -14.715  1.00  0.00    -0.000 C 
BRANCH  23  24
ATOM     24  C   UNL     1    -113.370  36.124 -14.887  1.00  0.00    -0.000 C 
BRANCH  24  25
ATOM     25  C   UNL     1    -112.609  37.391 -15.316  1.00  0.00    -0.000 C 
BRANCH  25  26
ATOM     26  C   UNL     1    -111.457  37.777 -14.365  1.00  0.00    -0.000 C 
BRANCH  26  27
ATOM     27  C   UNL     1    -111.952  38.577 -13.151  1.00  0.00    -0.000 C 
BRANCH  27  28
ATOM     28  C   UNL     1    -111.580  40.059 -13.276  1.00  0.00    -0.000 C 
BRANCH  28  29
ATOM     29  C   UNL     1    -110.059  40.239 -13.367  1.00  0.00    -0.003 C 
ATOM     30  C   UNL     1    -109.667  40.961 -14.651  1.00  0.00     0.004 C 
ENDBRANCH  28  29
ENDBRANCH  27  28
ENDBRANCH  26  27
ENDBRANCH  25  26
ENDBRANCH  24  25
ENDBRANCH  23  24
ENDBRANCH  22  23
ENDBRANCH  21  22
ENDBRANCH  20  21
ENDBRANCH  19  20
ENDBRANCH  18  19
ENDBRANCH  17  18
ENDBRANCH   1  17
TORSDOF 26
ENDMDL
MODEL 4
REMARK VINA RESULT:    -2.966      2.671      7.619
REMARK INTER + INTRA:         -12.143
REMARK INTER:                  -8.221
REMARK INTRA:                  -3.922
REMARK UNBOUND:                -4.668
REMARK SMILES CCCCCCCCCCCCCCCCCCCCCCCCCCCC(=O)[O-]
REMARK SMILES IDX 15 1 16 2 17 3 18 4 19 5 20 6 21 7 22 8 23 9 24 10 25 11
REMARK SMILES IDX 26 12 27 13 28 14 29 15 30 16 14 17 13 18 12 19 11 20 10 21
REMARK SMILES IDX 9 22 8 23 7 24 6 25 5 26 4 27 3 28 2 29 1 30
REMARK H PARENT
REMARK Flexibility Score: inf
ROOT
ATOM      1  C   UNL     1    -113.691  39.152 -11.672  1.00  0.00     0.000 C 
ENDROOT
BRANCH   1   2
ATOM      2  C   UNL     1    -112.678  38.955 -12.812  1.00  0.00     0.000 C 
BRANCH   2   3
ATOM      3  C   UNL     1    -113.327  39.093 -14.202  1.00  0.00     0.000 C 
BRANCH   3   4
ATOM      4  C   UNL     1    -112.634  38.222 -15.259  1.00  0.00     0.000 C 
BRANCH   4   5
ATOM      5  C   UNL     1    -111.601  37.259 -14.650  1.00  0.00     0.000 C 
BRANCH   5   6
ATOM      6  C   UNL     1    -110.263  37.264 -15.414  1.00  0.00     0.000 C 
BRANCH   6   7
ATOM      7  C   UNL     1    -109.855  38.634 -15.986  1.00  0.00     0.000 C 
BRANCH   7   8
ATOM      8  C   UNL     1    -109.279  39.580 -14.920  1.00  0.00     0.000 C 
BRANCH   8   9
ATOM      9  C   UNL     1    -108.733  40.883 -15.550  1.00  0.00     0.000 C 
BRANCH   9  10
ATOM     10  C   UNL     1    -109.711  42.063 -15.416  1.00  0.00     0.000 C 
BRANCH  10  11
ATOM     11  C   UNL     1    -110.861  41.771 -14.426  1.00  0.00     0.000 C 
BRANCH  11  12
ATOM     12  C   UNL     1    -111.165  42.932 -13.462  1.00  0.00     0.006 C 
BRANCH  12  13
ATOM     13  C   UNL     1    -112.436  42.726 -12.615  1.00  0.00     0.053 C 
BRANCH  13  14
ATOM     14  C   UNL     1    -112.205  43.014 -11.161  1.00  0.00     0.041 C 
ATOM     15  O   UNL     1    -111.692  44.105 -10.802  1.00  0.00    -0.550 OA
ATOM     16  O   UNL     1    -112.582  42.087 -10.196  1.00  0.00    -0.550 OA
ENDBRANCH  13  14
ENDBRANCH  12  13
ENDBRANCH  11  12
ENDBRANCH  10  11
ENDBRANCH   9  10
ENDBRANCH   8   9
ENDBRANCH   7   8
ENDBRANCH   6   7
ENDBRANCH   5   6
ENDBRANCH   4   5
ENDBRANCH   3   4
ENDBRANCH   2   3
ENDBRANCH   1   2
BRANCH   1  17
ATOM     17  C   UNL     1    -115.118  39.374 -12.198  1.00  0.00     0.000 C 
BRANCH  17  18
ATOM     18  C   UNL     1    -116.168  38.931 -11.166  1.00  0.00     0.000 C 
BRANCH  18  19
ATOM     19  C   UNL     1    -115.628  37.855 -10.208  1.00  0.00     0.000 C 
BRANCH  19  20
ATOM     20  C   UNL     1    -116.742  37.204  -9.368  1.00  0.00     0.000 C 
BRANCH  20  21
ATOM     21  C   UNL     1    -116.368  37.085  -7.882  1.00  0.00     0.000 C 
BRANCH  21  22
ATOM     22  C   UNL     1    -116.363  35.630  -7.382  1.00  0.00    -0.000 C 
BRANCH  22  23
ATOM     23  C   UNL     1    -115.005  34.938  -7.580  1.00  0.00    -0.000 C 
BRANCH  23  24
ATOM     24  C   UNL     1    -115.046  33.854  -8.669  1.00  0.00    -0.000 C 
BRANCH  24  25
ATOM     25  C   UNL     1    -116.467  33.598  -9.199  1.00  0.00    -0.000 C 
BRANCH  25  26
ATOM     26  C   UNL     1    -116.541  33.451 -10.734  1.00  0.00    -0.000 C 
BRANCH  26  27
ATOM     27  C   UNL     1    -115.369  34.150 -11.440  1.00  0.00    -0.000 C 
BRANCH  27  28
ATOM     28  C   UNL     1    -115.083  33.510 -12.803  1.00  0.00    -0.000 C 
BRANCH  28  29
ATOM     29  C   UNL     1    -115.323  34.509 -13.942  1.00  0.00    -0.003 C 
ATOM     30  C   UNL     1    -115.155  35.946 -13.457  1.00  0.00     0.004 C 
ENDBRANCH  28  29
ENDBRANCH  27  28
ENDBRANCH  26  27
ENDBRANCH  25  26
ENDBRANCH  24  25
ENDBRANCH  23  24
ENDBRANCH  22  23
ENDBRANCH  21  22
ENDBRANCH  20  21
ENDBRANCH  19  20
ENDBRANCH  18  19
ENDBRANCH  17  18
ENDBRANCH   1  17
TORSDOF 26
ENDMDL
MODEL 5
REMARK VINA RESULT:    -2.957      2.517      6.497
REMARK INTER + INTRA:         -12.119
REMARK INTER:                  -8.162
REMARK INTRA:                  -3.957
REMARK UNBOUND:                -4.668
REMARK SMILES CCCCCCCCCCCCCCCCCCCCCCCCCCCC(=O)[O-]
REMARK SMILES IDX 15 1 16 2 17 3 18 4 19 5 20 6 21 7 22 8 23 9 24 10 25 11
REMARK SMILES IDX 26 12 27 13 28 14 29 15 30 16 14 17 13 18 12 19 11 20 10 21
REMARK SMILES IDX 9 22 8 23 7 24 6 25 5 26 4 27 3 28 2 29 1 30
REMARK H PARENT
REMARK Flexibility Score: inf
ROOT
ATOM      1  C   UNL     1    -115.211  33.985  -8.747  1.00  0.00     0.000 C 
ENDROOT
BRANCH   1   2
ATOM      2  C   UNL     1    -115.213  34.997  -7.589  1.00  0.00     0.000 C 
BRANCH   2   3
ATOM      3  C   UNL     1    -116.636  35.446  -7.207  1.00  0.00     0.000 C 
BRANCH   3   4
ATOM      4  C   UNL     1    -116.769  36.974  -7.145  1.00  0.00     0.000 C 
BRANCH   4   5
ATOM      5  C   UNL     1    -115.965  37.685  -8.248  1.00  0.00     0.000 C 
BRANCH   5   6
ATOM      6  C   UNL     1    -116.725  37.750  -9.587  1.00  0.00     0.000 C 
BRANCH   6   7
ATOM      7  C   UNL     1    -115.880  37.390 -10.823  1.00  0.00     0.000 C 
BRANCH   7   8
ATOM      8  C   UNL     1    -115.430  38.625 -11.621  1.00  0.00     0.000 C 
BRANCH   8   9
ATOM      9  C   UNL     1    -114.024  39.102 -11.189  1.00  0.00     0.000 C 
BRANCH   9  10
ATOM     10  C   UNL     1    -112.984  38.985 -12.316  1.00  0.00     0.000 C 
BRANCH  10  11
ATOM     11  C   UNL     1    -112.852  40.288 -13.138  1.00  0.00     0.000 C 
BRANCH  11  12
ATOM     12  C   UNL     1    -111.613  41.129 -12.781  1.00  0.00     0.006 C 
BRANCH  12  13
ATOM     13  C   UNL     1    -111.934  42.588 -12.405  1.00  0.00     0.053 C 
BRANCH  13  14
ATOM     14  C   UNL     1    -112.741  42.688 -11.145  1.00  0.00     0.041 C 
ATOM     15  O   UNL     1    -112.427  42.011 -10.132  1.00  0.00    -0.550 OA
ATOM     16  O   UNL     1    -113.829  43.551 -11.077  1.00  0.00    -0.550 OA
ENDBRANCH  13  14
ENDBRANCH  12  13
ENDBRANCH  11  12
ENDBRANCH  10  11
ENDBRANCH   9  10
ENDBRANCH   8   9
ENDBRANCH   7   8
ENDBRANCH   6   7
ENDBRANCH   5   6
ENDBRANCH   4   5
ENDBRANCH   3   4
ENDBRANCH   2   3
ENDBRANCH   1   2
BRANCH   1  17
ATOM     17  C   UNL     1    -116.625  33.725  -9.291  1.00  0.00     0.000 C 
BRANCH  17  18
ATOM     18  C   UNL     1    -116.632  33.681 -10.827  1.00  0.00     0.000 C 
BRANCH  18  19
ATOM     19  C   UNL     1    -115.228  33.874 -11.424  1.00  0.00     0.000 C 
BRANCH  19  20
ATOM     20  C   UNL     1    -115.048  33.126 -12.757  1.00  0.00     0.000 C 
BRANCH  20  21
ATOM     21  C   UNL     1    -114.686  34.066 -13.918  1.00  0.00     0.000 C 
BRANCH  21  22
ATOM     22  C   UNL     1    -115.283  35.476 -13.753  1.00  0.00    -0.000 C 
BRANCH  22  23
ATOM     23  C   UNL     1    -114.506  36.545 -14.535  1.00  0.00    -0.000 C 
BRANCH  23  24
ATOM     24  C   UNL     1    -113.282  35.971 -15.266  1.00  0.00    -0.000 C 
BRANCH  24  25
ATOM     25  C   UNL     1    -112.282  37.060 -15.694  1.00  0.00    -0.000 C 
BRANCH  25  26
ATOM     26  C   UNL     1    -110.926  36.982 -14.962  1.00  0.00    -0.000 C 
BRANCH  26  27
ATOM     27  C   UNL     1    -109.810  37.705 -15.731  1.00  0.00    -0.000 C 
BRANCH  27  28
ATOM     28  C   UNL     1    -110.101  39.206 -15.847  1.00  0.00    -0.000 C 
BRANCH  28  29
ATOM     29  C   UNL     1    -109.028  40.032 -15.127  1.00  0.00    -0.003 C 
ATOM     30  C   UNL     1    -109.102  41.500 -15.530  1.00  0.00     0.004 C 
ENDBRANCH  28  29
ENDBRANCH  27  28
ENDBRANCH  26  27
ENDBRANCH  25  26
ENDBRANCH  24  25
ENDBRANCH  23  24
ENDBRANCH  22  23
ENDBRANCH  21  22
ENDBRANCH  20  21
ENDBRANCH  19  20
ENDBRANCH  18  19
ENDBRANCH  17  18
ENDBRANCH   1  17
TORSDOF 26
ENDMDL
MODEL 6
REMARK VINA RESULT:    -2.948      3.876      7.888
REMARK INTER + INTRA:         -12.096
REMARK INTER:                  -7.437
REMARK INTRA:                  -4.660
REMARK UNBOUND:                -4.668
REMARK SMILES CCCCCCCCCCCCCCCCCCCCCCCCCCCC(=O)[O-]
REMARK SMILES IDX 15 1 16 2 17 3 18 4 19 5 20 6 21 7 22 8 23 9 24 10 25 11
REMARK SMILES IDX 26 12 27 13 28 14 29 15 30 16 14 17 13 18 12 19 11 20 10 21
REMARK SMILES IDX 9 22 8 23 7 24 6 25 5 26 4 27 3 28 2 29 1 30
REMARK H PARENT
REMARK Flexibility Score: inf
ROOT
ATOM      1  C   UNL     1    -116.373  35.557  -7.205  1.00  0.00     0.000 C 
ENDROOT
BRANCH   1   2
ATOM      2  C   UNL     1    -116.442  37.040  -7.607  1.00  0.00     0.000 C 
BRANCH   2   3
ATOM      3  C   UNL     1    -115.451  37.388  -8.733  1.00  0.00     0.000 C 
BRANCH   3   4
ATOM      4  C   UNL     1    -116.145  37.556 -10.091  1.00  0.00     0.000 C 
BRANCH   4   5
ATOM      5  C   UNL     1    -115.227  38.187 -11.153  1.00  0.00     0.000 C 
BRANCH   5   6
ATOM      6  C   UNL     1    -115.862  39.418 -11.827  1.00  0.00     0.000 C 
BRANCH   6   7
ATOM      7  C   UNL     1    -115.090  40.734 -11.620  1.00  0.00     0.000 C 
BRANCH   7   8
ATOM      8  C   UNL     1    -113.742  40.533 -10.908  1.00  0.00     0.000 C 
BRANCH   8   9
ATOM      9  C   UNL     1    -113.571  41.513  -9.724  1.00  0.00     0.000 C 
BRANCH   9  10
ATOM     10  C   UNL     1    -114.847  41.651  -8.877  1.00  0.00     0.000 C 
BRANCH  10  11
ATOM     11  C   UNL     1    -114.815  40.770  -7.607  1.00  0.00     0.000 C 
BRANCH  11  12
ATOM     12  C   UNL     1    -115.675  41.310  -6.450  1.00  0.00     0.006 C 
BRANCH  12  13
ATOM     13  C   UNL     1    -116.313  40.211  -5.578  1.00  0.00     0.053 C 
BRANCH  13  14
ATOM     14  C   UNL     1    -115.874  40.292  -4.147  1.00  0.00     0.041 C 
ATOM     15  O   UNL     1    -115.487  41.386  -3.660  1.00  0.00    -0.550 OA
ATOM     16  O   UNL     1    -115.916  39.162  -3.337  1.00  0.00    -0.550 OA
ENDBRANCH  13  14
ENDBRANCH  12  13
ENDBRANCH  11  12
ENDBRANCH  10  11
ENDBRANCH   9  10
ENDBRANCH   8   9
ENDBRANCH   7   8
ENDBRANCH   6   7
ENDBRANCH   5   6
ENDBRANCH   4   5
ENDBRANCH   3   4
ENDBRANCH   2   3
ENDBRANCH   1   2
BRANCH   1  17
ATOM     17  C   UNL     1    -115.011  34.929  -7.542  1.00  0.00     0.000 C 
BRANCH  17  18
ATOM     18  C   UNL     1    -115.148  33.850  -8.627  1.00  0.00     0.000 C 
BRANCH  18  19
ATOM     19  C   UNL     1    -116.594  33.709  -9.133  1.00  0.00     0.000 C 
BRANCH  19  20
ATOM     20  C   UNL     1    -116.701  33.878 -10.660  1.00  0.00     0.000 C 
BRANCH  20  21
ATOM     21  C   UNL     1    -115.331  34.060 -11.331  1.00  0.00     0.000 C 
BRANCH  21  22
ATOM     22  C   UNL     1    -115.440  34.418 -12.824  1.00  0.00    -0.000 C 
BRANCH  22  23
ATOM     23  C   UNL     1    -116.634  35.335 -13.129  1.00  0.00    -0.000 C 
BRANCH  23  24
ATOM     24  C   UNL     1    -116.633  35.848 -14.578  1.00  0.00    -0.000 C 
BRANCH  24  25
ATOM     25  C   UNL     1    -115.994  37.241 -14.715  1.00  0.00    -0.000 C 
BRANCH  25  26
ATOM     26  C   UNL     1    -114.584  37.220 -15.342  1.00  0.00    -0.000 C 
BRANCH  26  27
ATOM     27  C   UNL     1    -113.477  37.233 -14.277  1.00  0.00    -0.000 C 
BRANCH  27  28
ATOM     28  C   UNL     1    -112.937  38.651 -14.057  1.00  0.00    -0.000 C 
BRANCH  28  29
ATOM     29  C   UNL     1    -111.674  38.630 -13.187  1.00  0.00    -0.003 C 
ATOM     30  C   UNL     1    -110.624  39.599 -13.720  1.00  0.00     0.004 C 
ENDBRANCH  28  29
ENDBRANCH  27  28
ENDBRANCH  26  27
ENDBRANCH  25  26
ENDBRANCH  24  25
ENDBRANCH  23  24
ENDBRANCH  22  23
ENDBRANCH  21  22
ENDBRANCH  20  21
ENDBRANCH  19  20
ENDBRANCH  18  19
ENDBRANCH  17  18
ENDBRANCH   1  17
TORSDOF 26
ENDMDL
MODEL 7
REMARK VINA RESULT:    -2.931      2.037      6.554
REMARK INTER + INTRA:         -12.055
REMARK INTER:                  -7.930
REMARK INTRA:                  -4.125
REMARK UNBOUND:                -4.668
REMARK SMILES CCCCCCCCCCCCCCCCCCCCCCCCCCCC(=O)[O-]
REMARK SMILES IDX 15 1 16 2 17 3 18 4 19 5 20 6 21 7 22 8 23 9 24 10 25 11
REMARK SMILES IDX 26 12 27 13 28 14 29 15 30 16 14 17 13 18 12 19 11 20 10 21
REMARK SMILES IDX 9 22 8 23 7 24 6 25 5 26 4 27 3 28 2 29 1 30
REMARK H PARENT
REMARK Flexibility Score: inf
ROOT
ATOM      1  C   UNL     1    -115.627  36.995  -9.343  1.00  0.00     0.000 C 
ENDROOT
BRANCH   1   2
ATOM      2  C   UNL     1    -114.686  38.155  -8.977  1.00  0.00     0.000 C 
BRANCH   2   3
ATOM      3  C   UNL     1    -115.432  39.324  -8.308  1.00  0.00     0.000 C 
BRANCH   3   4
ATOM      4  C   UNL     1    -115.178  40.661  -9.018  1.00  0.00     0.000 C 
BRANCH   4   5
ATOM      5  C   UNL     1    -114.137  40.546 -10.145  1.00  0.00     0.000 C 
BRANCH   5   6
ATOM      6  C   UNL     1    -113.238  41.792 -10.250  1.00  0.00     0.000 C 
BRANCH   6   7
ATOM      7  C   UNL     1    -112.410  41.880 -11.545  1.00  0.00     0.000 C 
BRANCH   7   8
ATOM      8  C   UNL     1    -113.221  42.404 -12.741  1.00  0.00     0.000 C 
BRANCH   8   9
ATOM      9  C   UNL     1    -112.302  42.889 -13.885  1.00  0.00     0.000 C 
BRANCH   9  10
ATOM     10  C   UNL     1    -112.569  42.159 -15.213  1.00  0.00     0.000 C 
BRANCH  10  11
ATOM     11  C   UNL     1    -111.278  41.592 -15.847  1.00  0.00     0.000 C 
BRANCH  11  12
ATOM     12  C   UNL     1    -110.003  41.881 -15.034  1.00  0.00     0.006 C 
BRANCH  12  13
ATOM     13  C   UNL     1    -108.698  41.500 -15.759  1.00  0.00     0.053 C 
BRANCH  13  14
ATOM     14  C   UNL     1    -108.133  40.200 -15.270  1.00  0.00     0.041 C 
ATOM     15  O   UNL     1    -108.750  39.122 -15.471  1.00  0.00    -0.550 OA
ATOM     16  O   UNL     1    -106.908  40.173 -14.613  1.00  0.00    -0.550 OA
ENDBRANCH  13  14
ENDBRANCH  12  13
ENDBRANCH  11  12
ENDBRANCH  10  11
ENDBRANCH   9  10
ENDBRANCH   8   9
ENDBRANCH   7   8
ENDBRANCH   6   7
ENDBRANCH   5   6
ENDBRANCH   4   5
ENDBRANCH   3   4
ENDBRANCH   2   3
ENDBRANCH   1   2
BRANCH   1  17
ATOM     17  C   UNL     1    -116.125  36.239  -8.101  1.00  0.00     0.000 C 
BRANCH  17  18
ATOM     18  C   UNL     1    -115.215  35.044  -7.773  1.00  0.00     0.000 C 
BRANCH  18  19
ATOM     19  C   UNL     1    -115.123  34.042  -8.936  1.00  0.00     0.000 C 
BRANCH  19  20
ATOM     20  C   UNL     1    -116.508  33.559  -9.406  1.00  0.00     0.000 C 
BRANCH  20  21
ATOM     21  C   UNL     1    -116.602  33.433 -10.934  1.00  0.00     0.000 C 
BRANCH  21  22
ATOM     22  C   UNL     1    -115.511  34.234 -11.668  1.00  0.00    -0.000 C 
BRANCH  22  23
ATOM     23  C   UNL     1    -116.088  35.213 -12.702  1.00  0.00    -0.000 C 
BRANCH  23  24
ATOM     24  C   UNL     1    -115.047  36.228 -13.202  1.00  0.00    -0.000 C 
BRANCH  24  25
ATOM     25  C   UNL     1    -115.463  37.685 -12.935  1.00  0.00    -0.000 C 
BRANCH  25  26
ATOM     26  C   UNL     1    -114.404  38.723 -13.365  1.00  0.00    -0.000 C 
BRANCH  26  27
ATOM     27  C   UNL     1    -113.035  38.454 -12.723  1.00  0.00    -0.000 C 
BRANCH  27  28
ATOM     28  C   UNL     1    -111.894  38.793 -13.690  1.00  0.00    -0.000 C 
BRANCH  28  29
ATOM     29  C   UNL     1    -112.090  38.092 -15.040  1.00  0.00    -0.003 C 
ATOM     30  C   UNL     1    -111.652  36.633 -14.971  1.00  0.00     0.004 C 
ENDBRANCH  28  29
ENDBRANCH  27  28
ENDBRANCH  26  27
ENDBRANCH  25  26
ENDBRANCH  24  25
ENDBRANCH  23  24
ENDBRANCH  22  23
ENDBRANCH  21  22
ENDBRANCH  20  21
ENDBRANCH  19  20
ENDBRANCH  18  19
ENDBRANCH  17  18
ENDBRANCH   1  17
TORSDOF 26
ENDMDL
MODEL 8
REMARK VINA RESULT:    -2.920      2.364      5.579
REMARK INTER + INTRA:         -12.027
REMARK INTER:                  -7.122
REMARK INTRA:                  -4.905
REMARK UNBOUND:                -4.668
REMARK SMILES CCCCCCCCCCCCCCCCCCCCCCCCCCCC(=O)[O-]
REMARK SMILES IDX 15 1 16 2 17 3 18 4 19 5 20 6 21 7 22 8 23 9 24 10 25 11
REMARK SMILES IDX 26 12 27 13 28 14 29 15 30 16 14 17 13 18 12 19 11 20 10 21
REMARK SMILES IDX 9 22 8 23 7 24 6 25 5 26 4 27 3 28 2 29 1 30
REMARK H PARENT
REMARK Flexibility Score: inf
ROOT
ATOM      1  C   UNL     1    -115.621  34.326 -11.293  1.00  0.00     0.000 C 
ENDROOT
BRANCH   1   2
ATOM      2  C   UNL     1    -116.217  35.236 -12.381  1.00  0.00     0.000 C 
BRANCH   2   3
ATOM      3  C   UNL     1    -115.287  36.411 -12.735  1.00  0.00     0.000 C 
BRANCH   3   4
ATOM      4  C   UNL     1    -114.871  36.402 -14.212  1.00  0.00     0.000 C 
BRANCH   4   5
ATOM      5  C   UNL     1    -114.138  35.110 -14.615  1.00  0.00     0.000 C 
BRANCH   5   6
ATOM      6  C   UNL     1    -112.911  35.379 -15.507  1.00  0.00     0.000 C 
BRANCH   6   7
ATOM      7  C   UNL     1    -112.505  36.861 -15.612  1.00  0.00     0.000 C 
BRANCH   7   8
ATOM      8  C   UNL     1    -111.168  37.167 -14.918  1.00  0.00     0.000 C 
BRANCH   8   9
ATOM      9  C   UNL     1    -111.121  38.618 -14.386  1.00  0.00     0.000 C 
BRANCH   9  10
ATOM     10  C   UNL     1    -111.519  38.723 -12.904  1.00  0.00     0.000 C 
BRANCH  10  11
ATOM     11  C   UNL     1    -112.968  39.224 -12.714  1.00  0.00     0.000 C 
BRANCH  11  12
ATOM     12  C   UNL     1    -113.385  40.324 -13.707  1.00  0.00     0.006 C 
BRANCH  12  13
ATOM     13  C   UNL     1    -114.616  39.965 -14.560  1.00  0.00     0.053 C 
BRANCH  13  14
ATOM     14  C   UNL     1    -115.897  40.434 -13.938  1.00  0.00     0.041 C 
ATOM     15  O   UNL     1    -116.754  39.603 -13.540  1.00  0.00    -0.550 OA
ATOM     16  O   UNL     1    -116.138  41.794 -13.773  1.00  0.00    -0.550 OA
ENDBRANCH  13  14
ENDBRANCH  12  13
ENDBRANCH  11  12
ENDBRANCH  10  11
ENDBRANCH   9  10
ENDBRANCH   8   9
ENDBRANCH   7   8
ENDBRANCH   6   7
ENDBRANCH   5   6
ENDBRANCH   4   5
ENDBRANCH   3   4
ENDBRANCH   2   3
ENDBRANCH   1   2
BRANCH   1  17
ATOM     17  C   UNL     1    -116.694  33.463 -10.610  1.00  0.00     0.000 C 
BRANCH  17  18
ATOM     18  C   UNL     1    -116.572  33.528  -9.080  1.00  0.00     0.000 C 
BRANCH  18  19
ATOM     19  C   UNL     1    -115.147  33.884  -8.621  1.00  0.00     0.000 C 
BRANCH  19  20
ATOM     20  C   UNL     1    -115.138  34.940  -7.501  1.00  0.00     0.000 C 
BRANCH  20  21
ATOM     21  C   UNL     1    -116.508  35.609  -7.308  1.00  0.00     0.000 C 
BRANCH  21  22
ATOM     22  C   UNL     1    -116.484  37.118  -7.611  1.00  0.00    -0.000 C 
BRANCH  22  23
ATOM     23  C   UNL     1    -116.260  37.420  -9.101  1.00  0.00    -0.000 C 
BRANCH  23  24
ATOM     24  C   UNL     1    -114.848  37.956  -9.391  1.00  0.00    -0.000 C 
BRANCH  24  25
ATOM     25  C   UNL     1    -114.734  39.475  -9.176  1.00  0.00    -0.000 C 
BRANCH  25  26
ATOM     26  C   UNL     1    -115.482  40.311 -10.237  1.00  0.00    -0.000 C 
BRANCH  26  27
ATOM     27  C   UNL     1    -114.898  41.724 -10.378  1.00  0.00    -0.000 C 
BRANCH  27  28
ATOM     28  C   UNL     1    -113.433  41.765  -9.929  1.00  0.00    -0.000 C 
BRANCH  28  29
ATOM     29  C   UNL     1    -112.577  42.570 -10.915  1.00  0.00    -0.003 C 
ATOM     30  C   UNL     1    -113.444  43.465 -11.793  1.00  0.00     0.004 C 
ENDBRANCH  28  29
ENDBRANCH  27  28
ENDBRANCH  26  27
ENDBRANCH  25  26
ENDBRANCH  24  25
ENDBRANCH  23  24
ENDBRANCH  22  23
ENDBRANCH  21  22
ENDBRANCH  20  21
ENDBRANCH  19  20
ENDBRANCH  18  19
ENDBRANCH  17  18
ENDBRANCH   1  17
TORSDOF 26
ENDMDL
MODEL 9
REMARK VINA RESULT:    -2.906      1.362      2.379
REMARK INTER + INTRA:         -11.992
REMARK INTER:                  -7.845
REMARK INTRA:                  -4.147
REMARK UNBOUND:                -4.668
REMARK SMILES CCCCCCCCCCCCCCCCCCCCCCCCCCCC(=O)[O-]
REMARK SMILES IDX 15 1 16 2 17 3 18 4 19 5 20 6 21 7 22 8 23 9 24 10 25 11
REMARK SMILES IDX 26 12 27 13 28 14 29 15 30 16 14 17 13 18 12 19 11 20 10 21
REMARK SMILES IDX 9 22 8 23 7 24 6 25 5 26 4 27 3 28 2 29 1 30
REMARK H PARENT
REMARK Flexibility Score: inf
ROOT
ATOM      1  C   UNL     1    -114.867  37.593  -8.778  1.00  0.00     0.000 C 
ENDROOT
BRANCH   1   2
ATOM      2  C   UNL     1    -116.274  37.334  -8.213  1.00  0.00     0.000 C 
BRANCH   2   3
ATOM      3  C   UNL     1    -116.336  36.052  -7.363  1.00  0.00     0.000 C 
BRANCH   3   4
ATOM      4  C   UNL     1    -115.211  35.067  -7.708  1.00  0.00     0.000 C 
BRANCH   4   5
ATOM      5  C   UNL     1    -115.693  33.896  -8.583  1.00  0.00     0.000 C 
BRANCH   5   6
ATOM      6  C   UNL     1    -115.249  34.032 -10.052  1.00  0.00     0.000 C 
BRANCH   6   7
ATOM      7  C   UNL     1    -116.221  34.822 -10.947  1.00  0.00     0.000 C 
BRANCH   7   8
ATOM      8  C   UNL     1    -115.698  35.009 -12.381  1.00  0.00     0.000 C 
BRANCH   8   9
ATOM      9  C   UNL     1    -115.270  33.664 -13.012  1.00  0.00     0.000 C 
BRANCH   9  10
ATOM     10  C   UNL     1    -114.618  33.836 -14.395  1.00  0.00     0.000 C 
BRANCH  10  11
ATOM     11  C   UNL     1    -114.068  35.263 -14.616  1.00  0.00     0.000 C 
BRANCH  11  12
ATOM     12  C   UNL     1    -113.204  35.411 -15.882  1.00  0.00     0.006 C 
BRANCH  12  13
ATOM     13  C   UNL     1    -112.283  36.645 -15.872  1.00  0.00     0.053 C 
BRANCH  13  14
ATOM     14  C   UNL     1    -110.842  36.280 -15.677  1.00  0.00     0.041 C 
ATOM     15  O   UNL     1    -109.998  37.161 -15.370  1.00  0.00    -0.550 OA
ATOM     16  O   UNL     1    -110.431  34.959 -15.808  1.00  0.00    -0.550 OA
ENDBRANCH  13  14
ENDBRANCH  12  13
ENDBRANCH  11  12
ENDBRANCH  10  11
ENDBRANCH   9  10
ENDBRANCH   8   9
ENDBRANCH   7   8
ENDBRANCH   6   7
ENDBRANCH   5   6
ENDBRANCH   4   5
ENDBRANCH   3   4
ENDBRANCH   2   3
ENDBRANCH   1   2
BRANCH   1  17
ATOM     17  C   UNL     1    -114.845  38.783  -9.751  1.00  0.00     0.000 C 
BRANCH  17  18
ATOM     18  C   UNL     1    -115.576  38.447 -11.060  1.00  0.00     0.000 C 
BRANCH  18  19
ATOM     19  C   UNL     1    -114.628  38.434 -12.272  1.00  0.00     0.000 C 
BRANCH  19  20
ATOM     20  C   UNL     1    -113.312  39.186 -11.997  1.00  0.00     0.000 C 
BRANCH  20  21
ATOM     21  C   UNL     1    -112.186  38.777 -12.960  1.00  0.00     0.000 C 
BRANCH  21  22
ATOM     22  C   UNL     1    -111.815  39.893 -13.953  1.00  0.00    -0.000 C 
BRANCH  22  23
ATOM     23  C   UNL     1    -110.705  40.814 -13.422  1.00  0.00    -0.000 C 
BRANCH  23  24
ATOM     24  C   UNL     1    -110.775  42.229 -14.017  1.00  0.00    -0.000 C 
BRANCH  24  25
ATOM     25  C   UNL     1    -111.157  43.293 -12.974  1.00  0.00    -0.000 C 
BRANCH  25  26
ATOM     26  C   UNL     1    -112.162  42.794 -11.915  1.00  0.00    -0.000 C 
BRANCH  26  27
ATOM     27  C   UNL     1    -113.609  43.172 -12.266  1.00  0.00    -0.000 C 
BRANCH  27  28
ATOM     28  C   UNL     1    -114.592  42.628 -11.223  1.00  0.00    -0.000 C 
BRANCH  28  29
ATOM     29  C   UNL     1    -115.819  42.002 -11.898  1.00  0.00    -0.003 C 
ATOM     30  C   UNL     1    -115.605  41.856 -13.401  1.00  0.00     0.004 C 
ENDBRANCH  28  29
ENDBRANCH  27  28
ENDBRANCH  26  27
ENDBRANCH  25  26
ENDBRANCH  24  25
ENDBRANCH  23  24
ENDBRANCH  22  23
ENDBRANCH  21  22
ENDBRANCH  20  21
ENDBRANCH  19  20
ENDBRANCH  18  19
ENDBRANCH  17  18
ENDBRANCH   1  17
TORSDOF 26
ENDMDL
