MODEL 1
REMARK VINA RESULT:    -3.215      0.000      0.000
REMARK INTER + INTRA:          -8.418
REMARK INTER:                  -5.847
REMARK INTRA:                  -2.571
REMARK UNBOUND:                -2.571
REMARK SMILES CCCCCCCCCCCCCCCC(=O)[O-]
REMARK SMILES IDX 9 1 10 2 11 3 12 4 13 5 14 6 15 7 16 8 17 9 18 10 8 11 7 12
REMARK SMILES IDX 6 13 5 14 4 15 3 16 2 17 1 18
REMARK H PARENT
REMARK Flexibility Score: inf
ROOT
ATOM      1  C   UNL     1     190.885 177.429 174.977  1.00  0.00     0.000 C 
ENDROOT
BRANCH   1   2
ATOM      2  C   UNL     1     191.156 176.938 176.408  1.00  0.00     0.000 C 
BRANCH   2   3
ATOM      3  C   UNL     1     191.394 175.420 176.477  1.00  0.00     0.000 C 
BRANCH   3   4
ATOM      4  C   UNL     1     190.588 174.753 177.613  1.00  0.00     0.000 C 
BRANCH   4   5
ATOM      5  C   UNL     1     189.750 175.746 178.442  1.00  0.00     0.000 C 
BRANCH   5   6
ATOM      6  C   UNL     1     188.915 175.105 179.568  1.00  0.00     0.006 C 
BRANCH   6   7
ATOM      7  C   UNL     1     187.972 173.986 179.096  1.00  0.00     0.053 C 
BRANCH   7   8
ATOM      8  C   UNL     1     186.535 174.314 179.365  1.00  0.00     0.041 C 
ATOM      9  O   UNL     1     186.098 174.324 180.546  1.00  0.00    -0.550 OA
ATOM     10  O   UNL     1     185.671 174.575 178.309  1.00  0.00    -0.550 OA
ENDBRANCH   7   8
ENDBRANCH   6   7
ENDBRANCH   5   6
ENDBRANCH   4   5
ENDBRANCH   3   4
ENDBRANCH   2   3
ENDBRANCH   1   2
BRANCH   1  11
ATOM     11  C   UNL     1     191.229 176.372 173.914  1.00  0.00     0.000 C 
BRANCH  11  12
ATOM     12  C   UNL     1     190.201 176.321 172.772  1.00  0.00    -0.000 C 
BRANCH  12  13
ATOM     13  C   UNL     1     189.870 174.881 172.342  1.00  0.00    -0.000 C 
BRANCH  13  14
ATOM     14  C   UNL     1     190.650 173.826 173.144  1.00  0.00    -0.000 C 
BRANCH  14  15
ATOM     15  C   UNL     1     189.808 173.014 174.148  1.00  0.00    -0.000 C 
BRANCH  15  16
ATOM     16  C   UNL     1     188.304 173.359 174.123  1.00  0.00    -0.000 C 
BRANCH  16  17
ATOM     17  C   UNL     1     187.816 173.936 175.460  1.00  0.00    -0.003 C 
ATOM     18  C   UNL     1     187.647 175.449 175.378  1.00  0.00     0.004 C 
ENDBRANCH  16  17
ENDBRANCH  15  16
ENDBRANCH  14  15
ENDBRANCH  13  14
ENDBRANCH  12  13
ENDBRANCH  11  12
ENDBRANCH   1  11
TORSDOF 14
ENDMDL
MODEL 2
REMARK VINA RESULT:    -3.110      2.299      4.247
REMARK INTER + INTRA:          -8.227
REMARK INTER:                  -6.153
REMARK INTRA:                  -2.075
REMARK UNBOUND:                -2.571
REMARK SMILES CCCCCCCCCCCCCCCC(=O)[O-]
REMARK SMILES IDX 9 1 10 2 11 3 12 4 13 5 14 6 15 7 16 8 17 9 18 10 8 11 7 12
REMARK SMILES IDX 6 13 5 14 4 15 3 16 2 17 1 18
REMARK H PARENT
REMARK Flexibility Score: inf
ROOT
ATOM      1  C   UNL     1     188.507 174.919 176.369  1.00  0.00     0.000 C 
ENDROOT
BRANCH   1   2
ATOM      2  C   UNL     1     187.390 174.120 177.059  1.00  0.00     0.000 C 
BRANCH   2   3
ATOM      3  C   UNL     1     187.748 173.730 178.504  1.00  0.00     0.000 C 
BRANCH   3   4
ATOM      4  C   UNL     1     186.952 174.548 179.544  1.00  0.00     0.000 C 
BRANCH   4   5
ATOM      5  C   UNL     1     187.786 175.639 180.243  1.00  0.00     0.000 C 
BRANCH   5   6
ATOM      6  C   UNL     1     189.284 175.639 179.883  1.00  0.00     0.006 C 
BRANCH   6   7
ATOM      7  C   UNL     1     189.991 176.984 180.123  1.00  0.00     0.053 C 
BRANCH   7   8
ATOM      8  C   UNL     1     189.978 177.373 181.569  1.00  0.00     0.041 C 
ATOM      9  O   UNL     1     190.470 176.605 182.436  1.00  0.00    -0.550 OA
ATOM     10  O   UNL     1     189.391 178.569 181.962  1.00  0.00    -0.550 OA
ENDBRANCH   7   8
ENDBRANCH   6   7
ENDBRANCH   5   6
ENDBRANCH   4   5
ENDBRANCH   3   4
ENDBRANCH   2   3
ENDBRANCH   1   2
BRANCH   1  11
ATOM     11  C   UNL     1     189.840 174.151 176.321  1.00  0.00     0.000 C 
BRANCH  11  12
ATOM     12  C   UNL     1     191.048 175.037 176.665  1.00  0.00    -0.000 C 
BRANCH  12  13
ATOM     13  C   UNL     1     190.806 176.519 176.326  1.00  0.00    -0.000 C 
BRANCH  13  14
ATOM     14  C   UNL     1     191.353 176.910 174.943  1.00  0.00    -0.000 C 
BRANCH  14  15
ATOM     15  C   UNL     1     190.285 177.325 173.911  1.00  0.00    -0.000 C 
BRANCH  15  16
ATOM     16  C   UNL     1     189.746 176.153 173.065  1.00  0.00    -0.000 C 
BRANCH  16  17
ATOM     17  C   UNL     1     190.874 175.333 172.421  1.00  0.00    -0.003 C 
ATOM     18  C   UNL     1     190.782 173.862 172.817  1.00  0.00     0.004 C 
ENDBRANCH  16  17
ENDBRANCH  15  16
ENDBRANCH  14  15
ENDBRANCH  13  14
ENDBRANCH  12  13
ENDBRANCH  11  12
ENDBRANCH   1  11
TORSDOF 14
ENDMDL
MODEL 3
REMARK VINA RESULT:    -3.106      1.890      3.748
REMARK INTER + INTRA:          -8.220
REMARK INTER:                  -5.618
REMARK INTRA:                  -2.602
REMARK UNBOUND:                -2.571
REMARK SMILES CCCCCCCCCCCCCCCC(=O)[O-]
REMARK SMILES IDX 9 1 10 2 11 3 12 4 13 5 14 6 15 7 16 8 17 9 18 10 8 11 7 12
REMARK SMILES IDX 6 13 5 14 4 15 3 16 2 17 1 18
REMARK H PARENT
REMARK Flexibility Score: inf
ROOT
ATOM      1  C   UNL     1     186.973 174.856 174.235  1.00  0.00     0.000 C 
ENDROOT
BRANCH   1   2
ATOM      2  C   UNL     1     187.438 176.101 175.008  1.00  0.00     0.000 C 
BRANCH   2   3
ATOM      3  C   UNL     1     187.144 176.006 176.515  1.00  0.00     0.000 C 
BRANCH   3   4
ATOM      4  C   UNL     1     186.555 174.634 176.909  1.00  0.00     0.000 C 
BRANCH   4   5
ATOM      5  C   UNL     1     187.538 173.740 177.688  1.00  0.00     0.000 C 
BRANCH   5   6
ATOM      6  C   UNL     1     187.920 174.262 179.087  1.00  0.00     0.006 C 
BRANCH   6   7
ATOM      7  C   UNL     1     189.370 174.763 179.200  1.00  0.00     0.053 C 
BRANCH   7   8
ATOM      8  C   UNL     1     189.436 176.245 179.412  1.00  0.00     0.041 C 
ATOM      9  O   UNL     1     188.401 176.885 179.736  1.00  0.00    -0.550 OA
ATOM     10  O   UNL     1     190.632 176.923 179.218  1.00  0.00    -0.550 OA
ENDBRANCH   7   8
ENDBRANCH   6   7
ENDBRANCH   5   6
ENDBRANCH   4   5
ENDBRANCH   3   4
ENDBRANCH   2   3
ENDBRANCH   1   2
BRANCH   1  11
ATOM     11  C   UNL     1     188.115 174.187 173.449  1.00  0.00     0.000 C 
BRANCH  11  12
ATOM     12  C   UNL     1     188.854 173.119 174.271  1.00  0.00    -0.000 C 
BRANCH  12  13
ATOM     13  C   UNL     1     190.364 173.399 174.376  1.00  0.00    -0.000 C 
BRANCH  13  14
ATOM     14  C   UNL     1     190.784 173.885 175.773  1.00  0.00    -0.000 C 
BRANCH  14  15
ATOM     15  C   UNL     1     190.979 175.408 175.903  1.00  0.00    -0.000 C 
BRANCH  15  16
ATOM     16  C   UNL     1     191.171 176.131 174.553  1.00  0.00    -0.000 C 
BRANCH  16  17
ATOM     17  C   UNL     1     190.799 177.619 174.631  1.00  0.00    -0.003 C 
ATOM     18  C   UNL     1     190.130 178.087 173.342  1.00  0.00     0.004 C 
ENDBRANCH  16  17
ENDBRANCH  15  16
ENDBRANCH  14  15
ENDBRANCH  13  14
ENDBRANCH  12  13
ENDBRANCH  11  12
ENDBRANCH   1  11
TORSDOF 14
ENDMDL
MODEL 4
REMARK VINA RESULT:    -3.104      2.463      6.115
REMARK INTER + INTRA:          -8.216
REMARK INTER:                  -6.593
REMARK INTRA:                  -1.623
REMARK UNBOUND:                -2.571
REMARK SMILES CCCCCCCCCCCCCCCC(=O)[O-]
REMARK SMILES IDX 9 1 10 2 11 3 12 4 13 5 14 6 15 7 16 8 17 9 18 10 8 11 7 12
REMARK SMILES IDX 6 13 5 14 4 15 3 16 2 17 1 18
REMARK H PARENT
REMARK Flexibility Score: inf
ROOT
ATOM      1  C   UNL     1     190.201 174.895 178.139  1.00  0.00     0.000 C 
ENDROOT
BRANCH   1   2
ATOM      2  C   UNL     1     191.100 175.174 176.923  1.00  0.00     0.000 C 
BRANCH   2   3
ATOM      3  C   UNL     1     191.161 176.668 176.563  1.00  0.00     0.000 C 
BRANCH   3   4
ATOM      4  C   UNL     1     191.315 176.898 175.044  1.00  0.00     0.000 C 
BRANCH   4   5
ATOM      5  C   UNL     1     190.397 176.004 174.187  1.00  0.00     0.000 C 
BRANCH   5   6
ATOM      6  C   UNL     1     191.087 175.333 172.984  1.00  0.00     0.006 C 
BRANCH   6   7
ATOM      7  C   UNL     1     190.618 173.895 172.708  1.00  0.00     0.053 C 
BRANCH   7   8
ATOM      8  C   UNL     1     190.236 173.179 173.967  1.00  0.00     0.041 C 
ATOM      9  O   UNL     1     191.119 172.623 174.672  1.00  0.00    -0.550 OA
ATOM     10  O   UNL     1     188.902 173.098 174.345  1.00  0.00    -0.550 OA
ENDBRANCH   7   8
ENDBRANCH   6   7
ENDBRANCH   5   6
ENDBRANCH   4   5
ENDBRANCH   3   4
ENDBRANCH   2   3
ENDBRANCH   1   2
BRANCH   1  11
ATOM     11  C   UNL     1     188.750 174.574 177.741  1.00  0.00     0.000 C 
BRANCH  11  12
ATOM     12  C   UNL     1     188.006 173.766 178.816  1.00  0.00    -0.000 C 
BRANCH  12  13
ATOM     13  C   UNL     1     186.553 174.238 179.006  1.00  0.00    -0.000 C 
BRANCH  13  14
ATOM     14  C   UNL     1     186.284 174.783 180.418  1.00  0.00    -0.000 C 
BRANCH  14  15
ATOM     15  C   UNL     1     186.648 176.267 180.625  1.00  0.00    -0.000 C 
BRANCH  15  16
ATOM     16  C   UNL     1     187.925 176.485 181.463  1.00  0.00    -0.000 C 
BRANCH  16  17
ATOM     17  C   UNL     1     189.009 177.246 180.684  1.00  0.00    -0.003 C 
ATOM     18  C   UNL     1     188.428 177.917 179.443  1.00  0.00     0.004 C 
ENDBRANCH  16  17
ENDBRANCH  15  16
ENDBRANCH  14  15
ENDBRANCH  13  14
ENDBRANCH  12  13
ENDBRANCH  11  12
ENDBRANCH   1  11
TORSDOF 14
ENDMDL
MODEL 5
REMARK VINA RESULT:    -3.094      1.250      2.767
REMARK INTER + INTRA:          -8.198
REMARK INTER:                  -6.291
REMARK INTRA:                  -1.906
REMARK UNBOUND:                -2.571
REMARK SMILES CCCCCCCCCCCCCCCC(=O)[O-]
REMARK SMILES IDX 9 1 10 2 11 3 12 4 13 5 14 6 15 7 16 8 17 9 18 10 8 11 7 12
REMARK SMILES IDX 6 13 5 14 4 15 3 16 2 17 1 18
REMARK H PARENT
REMARK Flexibility Score: inf
ROOT
ATOM      1  C   UNL     1     189.277 174.378 175.551  1.00  0.00     0.000 C 
ENDROOT
BRANCH   1   2
ATOM      2  C   UNL     1     190.715 174.309 176.091  1.00  0.00     0.000 C 
BRANCH   2   3
ATOM      3  C   UNL     1     190.925 175.198 177.329  1.00  0.00     0.000 C 
BRANCH   3   4
ATOM      4  C   UNL     1     189.590 175.590 178.000  1.00  0.00     0.000 C 
BRANCH   4   5
ATOM      5  C   UNL     1     189.240 174.731 179.230  1.00  0.00     0.000 C 
BRANCH   5   6
ATOM      6  C   UNL     1     188.061 173.760 179.027  1.00  0.00     0.006 C 
BRANCH   6   7
ATOM      7  C   UNL     1     186.690 174.447 178.909  1.00  0.00     0.053 C 
BRANCH   7   8
ATOM      8  C   UNL     1     186.052 174.658 180.248  1.00  0.00     0.041 C 
ATOM      9  O   UNL     1     186.479 175.557 181.018  1.00  0.00    -0.550 OA
ATOM     10  O   UNL     1     185.008 173.839 180.658  1.00  0.00    -0.550 OA
ENDBRANCH   7   8
ENDBRANCH   6   7
ENDBRANCH   5   6
ENDBRANCH   4   5
ENDBRANCH   3   4
ENDBRANCH   2   3
ENDBRANCH   1   2
BRANCH   1  11
ATOM     11  C   UNL     1     189.167 173.890 174.096  1.00  0.00     0.000 C 
BRANCH  11  12
ATOM     12  C   UNL     1     190.514 173.416 173.527  1.00  0.00    -0.000 C 
BRANCH  12  13
ATOM     13  C   UNL     1     190.960 174.239 172.306  1.00  0.00    -0.000 C 
BRANCH  13  14
ATOM     14  C   UNL     1     189.829 175.106 171.727  1.00  0.00    -0.000 C 
BRANCH  14  15
ATOM     15  C   UNL     1     190.165 176.602 171.574  1.00  0.00    -0.000 C 
BRANCH  15  16
ATOM     16  C   UNL     1     189.554 177.495 172.674  1.00  0.00    -0.000 C 
BRANCH  16  17
ATOM     17  C   UNL     1     190.453 177.587 173.916  1.00  0.00    -0.003 C 
ATOM     18  C   UNL     1     189.660 178.038 175.138  1.00  0.00     0.004 C 
ENDBRANCH  16  17
ENDBRANCH  15  16
ENDBRANCH  14  15
ENDBRANCH  13  14
ENDBRANCH  12  13
ENDBRANCH  11  12
ENDBRANCH   1  11
TORSDOF 14
ENDMDL
MODEL 6
REMARK VINA RESULT:    -3.077      2.133      3.278
REMARK INTER + INTRA:          -8.168
REMARK INTER:                  -5.741
REMARK INTRA:                  -2.427
REMARK UNBOUND:                -2.571
REMARK SMILES CCCCCCCCCCCCCCCC(=O)[O-]
REMARK SMILES IDX 9 1 10 2 11 3 12 4 13 5 14 6 15 7 16 8 17 9 18 10 8 11 7 12
REMARK SMILES IDX 6 13 5 14 4 15 3 16 2 17 1 18
REMARK H PARENT
REMARK Flexibility Score: inf
ROOT
ATOM      1  C   UNL     1     190.398 177.859 174.987  1.00  0.00     0.000 C 
ENDROOT
BRANCH   1   2
ATOM      2  C   UNL     1     190.601 178.599 176.320  1.00  0.00     0.000 C 
BRANCH   2   3
ATOM      3  C   UNL     1     191.884 178.163 177.048  1.00  0.00     0.000 C 
BRANCH   3   4
ATOM      4  C   UNL     1     191.847 178.506 178.553  1.00  0.00     0.000 C 
BRANCH   4   5
ATOM      5  C   UNL     1     190.519 178.133 179.240  1.00  0.00     0.000 C 
BRANCH   5   6
ATOM      6  C   UNL     1     190.667 177.524 180.648  1.00  0.00     0.006 C 
BRANCH   6   7
ATOM      7  C   UNL     1     189.571 176.509 181.015  1.00  0.00     0.053 C 
BRANCH   7   8
ATOM      8  C   UNL     1     188.256 177.176 181.278  1.00  0.00     0.041 C 
ATOM      9  O   UNL     1     187.291 177.008 180.487  1.00  0.00    -0.550 OA
ATOM     10  O   UNL     1     188.106 178.010 182.379  1.00  0.00    -0.550 OA
ENDBRANCH   7   8
ENDBRANCH   6   7
ENDBRANCH   5   6
ENDBRANCH   4   5
ENDBRANCH   3   4
ENDBRANCH   2   3
ENDBRANCH   1   2
BRANCH   1  11
ATOM     11  C   UNL     1     191.396 176.705 174.794  1.00  0.00     0.000 C 
BRANCH  11  12
ATOM     12  C   UNL     1     190.754 175.467 174.148  1.00  0.00    -0.000 C 
BRANCH  12  13
ATOM     13  C   UNL     1     190.382 174.390 175.182  1.00  0.00    -0.000 C 
BRANCH  13  14
ATOM     14  C   UNL     1     191.063 174.610 176.543  1.00  0.00    -0.000 C 
BRANCH  14  15
ATOM     15  C   UNL     1     190.101 174.853 177.722  1.00  0.00    -0.000 C 
BRANCH  15  16
ATOM     16  C   UNL     1     188.754 175.482 177.310  1.00  0.00    -0.000 C 
BRANCH  16  17
ATOM     17  C   UNL     1     187.553 174.670 177.818  1.00  0.00    -0.003 C 
ATOM     18  C   UNL     1     187.951 173.768 178.982  1.00  0.00     0.004 C 
ENDBRANCH  16  17
ENDBRANCH  15  16
ENDBRANCH  14  15
ENDBRANCH  13  14
ENDBRANCH  12  13
ENDBRANCH  11  12
ENDBRANCH   1  11
TORSDOF 14
ENDMDL
MODEL 7
REMARK VINA RESULT:    -3.073      3.114      5.683
REMARK INTER + INTRA:          -8.159
REMARK INTER:                  -5.700
REMARK INTRA:                  -2.459
REMARK UNBOUND:                -2.571
REMARK SMILES CCCCCCCCCCCCCCCC(=O)[O-]
REMARK SMILES IDX 9 1 10 2 11 3 12 4 13 5 14 6 15 7 16 8 17 9 18 10 8 11 7 12
REMARK SMILES IDX 6 13 5 14 4 15 3 16 2 17 1 18
REMARK H PARENT
REMARK Flexibility Score: inf
ROOT
ATOM      1  C   UNL     1     189.952 176.586 178.964  1.00  0.00     0.000 C 
ENDROOT
BRANCH   1   2
ATOM      2  C   UNL     1     190.631 176.507 177.586  1.00  0.00     0.000 C 
BRANCH   2   3
ATOM      3  C   UNL     1     190.868 175.058 177.127  1.00  0.00     0.000 C 
BRANCH   3   4
ATOM      4  C   UNL     1     191.139 174.963 175.609  1.00  0.00     0.000 C 
BRANCH   4   5
ATOM      5  C   UNL     1     190.689 173.629 174.983  1.00  0.00     0.000 C 
BRANCH   5   6
ATOM      6  C   UNL     1     190.308 173.710 173.492  1.00  0.00     0.006 C 
BRANCH   6   7
ATOM      7  C   UNL     1     191.006 174.843 172.722  1.00  0.00     0.053 C 
BRANCH   7   8
ATOM      8  C   UNL     1     190.114 175.444 171.679  1.00  0.00     0.041 C 
ATOM      9  O   UNL     1     190.492 176.454 171.029  1.00  0.00    -0.550 OA
ATOM     10  O   UNL     1     188.853 174.909 171.450  1.00  0.00    -0.550 OA
ENDBRANCH   7   8
ENDBRANCH   6   7
ENDBRANCH   5   6
ENDBRANCH   4   5
ENDBRANCH   3   4
ENDBRANCH   2   3
ENDBRANCH   1   2
BRANCH   1  11
ATOM     11  C   UNL     1     189.520 175.206 179.490  1.00  0.00     0.000 C 
BRANCH  11  12
ATOM     12  C   UNL     1     188.000 174.994 179.419  1.00  0.00    -0.000 C 
BRANCH  12  13
ATOM     13  C   UNL     1     187.622 173.685 178.702  1.00  0.00    -0.000 C 
BRANCH  13  14
ATOM     14  C   UNL     1     186.632 173.904 177.546  1.00  0.00    -0.000 C 
BRANCH  14  15
ATOM     15  C   UNL     1     187.274 174.315 176.206  1.00  0.00    -0.000 C 
BRANCH  15  16
ATOM     16  C   UNL     1     187.163 175.823 175.898  1.00  0.00    -0.000 C 
BRANCH  16  17
ATOM     17  C   UNL     1     187.883 176.205 174.596  1.00  0.00    -0.003 C 
ATOM     18  C   UNL     1     188.552 177.571 174.717  1.00  0.00     0.004 C 
ENDBRANCH  16  17
ENDBRANCH  15  16
ENDBRANCH  14  15
ENDBRANCH  13  14
ENDBRANCH  12  13
ENDBRANCH  11  12
ENDBRANCH   1  11
TORSDOF 14
ENDMDL
MODEL 8
REMARK VINA RESULT:    -3.047      2.690      4.145
REMARK INTER + INTRA:          -8.112
REMARK INTER:                  -5.798
REMARK INTRA:                  -2.315
REMARK UNBOUND:                -2.571
REMARK SMILES CCCCCCCCCCCCCCCC(=O)[O-]
REMARK SMILES IDX 9 1 10 2 11 3 12 4 13 5 14 6 15 7 16 8 17 9 18 10 8 11 7 12
REMARK SMILES IDX 6 13 5 14 4 15 3 16 2 17 1 18
REMARK H PARENT
REMARK Flexibility Score: inf
ROOT
ATOM      1  C   UNL     1     187.921 175.564 177.128  1.00  0.00     0.000 C 
ENDROOT
BRANCH   1   2
ATOM      2  C   UNL     1     187.974 174.153 177.737  1.00  0.00     0.000 C 
BRANCH   2   3
ATOM      3  C   UNL     1     187.524 174.127 179.208  1.00  0.00     0.000 C 
BRANCH   3   4
ATOM      4  C   UNL     1     186.831 175.441 179.631  1.00  0.00     0.000 C 
BRANCH   4   5
ATOM      5  C   UNL     1     187.513 176.145 180.820  1.00  0.00     0.000 C 
BRANCH   5   6
ATOM      6  C   UNL     1     189.038 176.321 180.680  1.00  0.00     0.006 C 
BRANCH   6   7
ATOM      7  C   UNL     1     189.485 177.769 180.417  1.00  0.00     0.053 C 
BRANCH   7   8
ATOM      8  C   UNL     1     190.977 177.891 180.353  1.00  0.00     0.041 C 
ATOM      9  O   UNL     1     191.659 177.889 181.411  1.00  0.00    -0.550 OA
ATOM     10  O   UNL     1     191.610 178.041 179.125  1.00  0.00    -0.550 OA
ENDBRANCH   7   8
ENDBRANCH   6   7
ENDBRANCH   5   6
ENDBRANCH   4   5
ENDBRANCH   3   4
ENDBRANCH   2   3
ENDBRANCH   1   2
BRANCH   1  11
ATOM     11  C   UNL     1     189.317 176.188 176.961  1.00  0.00     0.000 C 
BRANCH  11  12
ATOM     12  C   UNL     1     190.449 175.222 177.348  1.00  0.00    -0.000 C 
BRANCH  12  13
ATOM     13  C   UNL     1     191.283 174.776 176.134  1.00  0.00    -0.000 C 
BRANCH  13  14
ATOM     14  C   UNL     1     190.941 175.560 174.856  1.00  0.00    -0.000 C 
BRANCH  14  15
ATOM     15  C   UNL     1     190.507 174.696 173.657  1.00  0.00    -0.000 C 
BRANCH  15  16
ATOM     16  C   UNL     1     190.075 173.265 174.042  1.00  0.00    -0.000 C 
BRANCH  16  17
ATOM     17  C   UNL     1     188.558 173.152 174.253  1.00  0.00    -0.003 C 
ATOM     18  C   UNL     1     187.809 174.205 173.442  1.00  0.00     0.004 C 
ENDBRANCH  16  17
ENDBRANCH  15  16
ENDBRANCH  14  15
ENDBRANCH  13  14
ENDBRANCH  12  13
ENDBRANCH  11  12
ENDBRANCH   1  11
TORSDOF 14
ENDMDL
MODEL 9
REMARK VINA RESULT:    -2.976      2.347      3.682
REMARK INTER + INTRA:          -7.984
REMARK INTER:                  -5.741
REMARK INTRA:                  -2.243
REMARK UNBOUND:                -2.571
REMARK SMILES CCCCCCCCCCCCCCCC(=O)[O-]
REMARK SMILES IDX 9 1 10 2 11 3 12 4 13 5 14 6 15 7 16 8 17 9 18 10 8 11 7 12
REMARK SMILES IDX 6 13 5 14 4 15 3 16 2 17 1 18
REMARK H PARENT
REMARK Flexibility Score: inf
ROOT
ATOM      1  C   UNL     1     189.263 173.893 173.883  1.00  0.00     0.000 C 
ENDROOT
BRANCH   1   2
ATOM      2  C   UNL     1     189.233 174.109 175.404  1.00  0.00     0.000 C 
BRANCH   2   3
ATOM      3  C   UNL     1     190.639 174.112 176.029  1.00  0.00     0.000 C 
BRANCH   3   4
ATOM      4  C   UNL     1     190.684 174.887 177.364  1.00  0.00     0.000 C 
BRANCH   4   5
ATOM      5  C   UNL     1     189.293 175.164 177.966  1.00  0.00     0.000 C 
BRANCH   5   6
ATOM      6  C   UNL     1     189.068 176.613 178.438  1.00  0.00     0.006 C 
BRANCH   6   7
ATOM      7  C   UNL     1     188.765 176.749 179.939  1.00  0.00     0.053 C 
BRANCH   7   8
ATOM      8  C   UNL     1     189.999 177.047 180.735  1.00  0.00     0.041 C 
ATOM      9  O   UNL     1     191.025 177.502 180.165  1.00  0.00    -0.550 OA
ATOM     10  O   UNL     1     190.025 176.790 182.100  1.00  0.00    -0.550 OA
ENDBRANCH   7   8
ENDBRANCH   6   7
ENDBRANCH   5   6
ENDBRANCH   4   5
ENDBRANCH   3   4
ENDBRANCH   2   3
ENDBRANCH   1   2
BRANCH   1  11
ATOM     11  C   UNL     1     190.694 173.766 173.332  1.00  0.00     0.000 C 
BRANCH  11  12
ATOM     12  C   UNL     1     190.884 174.504 171.997  1.00  0.00    -0.000 C 
BRANCH  12  13
ATOM     13  C   UNL     1     189.675 175.385 171.635  1.00  0.00    -0.000 C 
BRANCH  13  14
ATOM     14  C   UNL     1     190.082 176.796 171.180  1.00  0.00    -0.000 C 
BRANCH  14  15
ATOM     15  C   UNL     1     189.912 177.899 172.243  1.00  0.00    -0.000 C 
BRANCH  15  16
ATOM     16  C   UNL     1     188.922 177.533 173.369  1.00  0.00    -0.000 C 
BRANCH  16  17
ATOM     17  C   UNL     1     189.551 177.666 174.764  1.00  0.00    -0.003 C 
ATOM     18  C   UNL     1     191.063 177.469 174.707  1.00  0.00     0.004 C 
ENDBRANCH  16  17
ENDBRANCH  15  16
ENDBRANCH  14  15
ENDBRANCH  13  14
ENDBRANCH  12  13
ENDBRANCH  11  12
ENDBRANCH   1  11
TORSDOF 14
ENDMDL
