MODEL 1
REMARK VINA RESULT:     0.144      0.000      0.000
REMARK INTER + INTRA:           0.324
REMARK INTER:                   0.174
REMARK INTRA:                   0.151
REMARK UNBOUND:                 0.151
REMARK SMILES O=c1c(O)c(-c2ccc(O)c(O)c2)oc2cc(O)cc(O)c12
REMARK SMILES IDX 5 1 3 2 2 3 1 4 22 5 20 6 19 7 17 8 16 9 15 10 14 11 6 12
REMARK SMILES IDX 7 13 8 14 9 15 13 16 11 17 10 18 12 20 4 22 21 24 18 26
REMARK H PARENT 10 19 12 21 4 23 21 25 18 27
REMARK Flexibility Score: inf
ROOT
ATOM      1  C   UNL     1     136.541 137.086 137.340  1.00  0.00     0.180 A 
ATOM      2  C   UNL     1     135.345 136.630 137.928  1.00  0.00     0.208 A 
ATOM      3  C   UNL     1     135.342 136.299 139.292  1.00  0.00     0.238 A 
ATOM      4  O   UNL     1     134.279 135.879 139.825  1.00  0.00    -0.285 OA
ATOM      5  C   UNL     1     136.522 136.450 140.048  1.00  0.00     0.111 A 
ATOM      6  C   UNL     1     136.602 136.142 141.428  1.00  0.00     0.134 A 
ATOM      7  C   UNL     1     137.813 136.328 142.113  1.00  0.00     0.093 A 
ATOM      8  C   UNL     1     138.941 136.814 141.445  1.00  0.00     0.123 A 
ATOM      9  C   UNL     1     138.867 137.117 140.084  1.00  0.00     0.094 A 
ATOM     10  C   UNL     1     137.671 136.938 139.383  1.00  0.00     0.146 A 
ATOM     11  O   UNL     1     137.631 137.230 138.088  1.00  0.00    -0.452 OA
ENDROOT
BRANCH   1  12
ATOM     12  C   UNL     1     136.629 137.436 135.904  1.00  0.00     0.025 A 
ATOM     13  C   UNL     1     137.465 138.488 135.501  1.00  0.00     0.016 A 
ATOM     14  C   UNL     1     137.578 138.821 134.150  1.00  0.00     0.051 A 
ATOM     15  C   UNL     1     136.873 138.104 133.176  1.00  0.00     0.157 A 
ATOM     16  C   UNL     1     135.937 136.700 134.928  1.00  0.00     0.062 A 
ATOM     17  C   UNL     1     136.047 137.026 133.569  1.00  0.00     0.158 A 
BRANCH  15  18
ATOM     18  O   UNL     1     137.024 138.494 131.843  1.00  0.00    -0.504 OA
ATOM     19  H   UNL     1     136.350 139.053 131.339  1.00  0.00     0.293 HD
ENDBRANCH  15  18
BRANCH  17  20
ATOM     20  O   UNL     1     135.330 136.253 132.654  1.00  0.00    -0.504 OA
ATOM     21  H   UNL     1     134.369 135.970 132.785  1.00  0.00     0.293 HD
ENDBRANCH  17  20
ENDBRANCH   1  12
BRANCH   2  22
ATOM     22  O   UNL     1     134.176 136.537 137.168  1.00  0.00    -0.502 OA
ATOM     23  H   UNL     1     133.264 136.405 137.588  1.00  0.00     0.293 HD
ENDBRANCH   2  22
BRANCH   6  24
ATOM     24  O   UNL     1     135.492 135.658 142.121  1.00  0.00    -0.507 OA
ATOM     25  H   UNL     1     135.127 134.725 141.960  1.00  0.00     0.293 HD
ENDBRANCH   6  24
BRANCH   8  26
ATOM     26  O   UNL     1     140.143 136.998 142.125  1.00  0.00    -0.508 OA
ATOM     27  H   UNL     1     140.204 137.593 142.944  1.00  0.00     0.293 HD
ENDBRANCH   8  26
TORSDOF 6
ENDMDL
MODEL 2
REMARK VINA RESULT:     0.155      1.924      2.902
REMARK INTER + INTRA:           0.337
REMARK INTER:                   0.180
REMARK INTRA:                   0.157
REMARK UNBOUND:                 0.151
REMARK SMILES O=c1c(O)c(-c2ccc(O)c(O)c2)oc2cc(O)cc(O)c12
REMARK SMILES IDX 5 1 3 2 2 3 1 4 22 5 20 6 19 7 17 8 16 9 15 10 14 11 6 12
REMARK SMILES IDX 7 13 8 14 9 15 13 16 11 17 10 18 12 20 4 22 21 24 18 26
REMARK H PARENT 10 19 12 21 4 23 21 25 18 27
REMARK Flexibility Score: inf
ROOT
ATOM      1  C   UNL     1     136.720 136.462 137.330  1.00  0.00     0.180 A 
ATOM      2  C   UNL     1     137.703 135.644 137.921  1.00  0.00     0.208 A 
ATOM      3  C   UNL     1     137.979 135.795 139.289  1.00  0.00     0.238 A 
ATOM      4  O   UNL     1     138.865 135.075 139.825  1.00  0.00    -0.285 OA
ATOM      5  C   UNL     1     137.258 136.740 140.045  1.00  0.00     0.111 A 
ATOM      6  C   UNL     1     137.472 136.952 141.428  1.00  0.00     0.134 A 
ATOM      7  C   UNL     1     136.706 137.908 142.113  1.00  0.00     0.093 A 
ATOM      8  C   UNL     1     135.731 138.654 141.441  1.00  0.00     0.123 A 
ATOM      9  C   UNL     1     135.517 138.449 140.077  1.00  0.00     0.094 A 
ATOM     10  C   UNL     1     136.270 137.503 139.376  1.00  0.00     0.146 A 
ATOM     11  O   UNL     1     136.049 137.333 138.078  1.00  0.00    -0.452 OA
ENDROOT
BRANCH   1  12
ATOM     12  C   UNL     1     136.386 136.375 135.890  1.00  0.00     0.025 A 
ATOM     13  C   UNL     1     135.066 136.599 135.474  1.00  0.00     0.016 A 
ATOM     14  C   UNL     1     134.733 136.543 134.119  1.00  0.00     0.051 A 
ATOM     15  C   UNL     1     135.711 136.277 133.154  1.00  0.00     0.157 A 
ATOM     16  C   UNL     1     137.374 136.130 134.922  1.00  0.00     0.062 A 
ATOM     17  C   UNL     1     137.050 136.074 133.560  1.00  0.00     0.158 A 
BRANCH  15  18
ATOM     18  O   UNL     1     135.310 136.226 131.817  1.00  0.00    -0.504 OA
ATOM     19  H   UNL     1     134.440 136.608 131.474  1.00  0.00     0.293 HD
ENDBRANCH  15  18
BRANCH  17  20
ATOM     20  O   UNL     1     138.083 135.824 132.655  1.00  0.00    -0.504 OA
ATOM     21  H   UNL     1     137.981 135.882 131.652  1.00  0.00     0.293 HD
ENDBRANCH  17  20
ENDBRANCH   1  12
BRANCH   2  22
ATOM     22  O   UNL     1     138.369 134.679 137.160  1.00  0.00    -0.502 OA
ATOM     23  H   UNL     1     137.972 134.285 136.315  1.00  0.00     0.293 HD
ENDBRANCH   2  22
BRANCH   6  24
ATOM     24  O   UNL     1     138.436 136.222 142.125  1.00  0.00    -0.507 OA
ATOM     25  H   UNL     1     138.961 135.475 141.685  1.00  0.00     0.293 HD
ENDBRANCH   6  24
BRANCH   8  26
ATOM     26  O   UNL     1     134.970 139.602 142.121  1.00  0.00    -0.508 OA
ATOM     27  H   UNL     1     134.977 140.579 141.852  1.00  0.00     0.293 HD
ENDBRANCH   8  26
TORSDOF 6
ENDMDL
MODEL 3
REMARK VINA RESULT:     0.191      1.921      2.905
REMARK INTER + INTRA:           0.381
REMARK INTER:                   0.140
REMARK INTRA:                   0.241
REMARK UNBOUND:                 0.151
REMARK SMILES O=c1c(O)c(-c2ccc(O)c(O)c2)oc2cc(O)cc(O)c12
REMARK SMILES IDX 5 1 3 2 2 3 1 4 22 5 20 6 19 7 17 8 16 9 15 10 14 11 6 12
REMARK SMILES IDX 7 13 8 14 9 15 13 16 11 17 10 18 12 20 4 22 21 24 18 26
REMARK H PARENT 10 19 12 21 4 23 21 25 18 27
REMARK Flexibility Score: inf
ROOT
ATOM      1  C   UNL     1     137.178 136.898 137.316  1.00  0.00     0.180 A 
ATOM      2  C   UNL     1     137.378 138.162 137.904  1.00  0.00     0.208 A 
ATOM      3  C   UNL     1     137.118 138.322 139.274  1.00  0.00     0.238 A 
ATOM      4  O   UNL     1     137.283 139.453 139.808  1.00  0.00    -0.285 OA
ATOM      5  C   UNL     1     136.686 137.217 140.035  1.00  0.00     0.111 A 
ATOM      6  C   UNL     1     136.405 137.293 141.420  1.00  0.00     0.134 A 
ATOM      7  C   UNL     1     135.987 136.144 142.110  1.00  0.00     0.093 A 
ATOM      8  C   UNL     1     135.844 134.925 141.440  1.00  0.00     0.123 A 
ATOM      9  C   UNL     1     136.118 134.845 140.074  1.00  0.00     0.094 A 
ATOM     10  C   UNL     1     136.535 135.978 139.369  1.00  0.00     0.146 A 
ATOM     11  O   UNL     1     136.784 135.875 138.068  1.00  0.00    -0.452 OA
ENDROOT
BRANCH   1  12
ATOM     12  C   UNL     1     137.413 136.655 135.874  1.00  0.00     0.025 A 
ATOM     13  C   UNL     1     137.770 135.370 135.441  1.00  0.00     0.016 A 
ATOM     14  C   UNL     1     137.975 135.114 134.084  1.00  0.00     0.051 A 
ATOM     15  C   UNL     1     137.814 136.129 133.134  1.00  0.00     0.157 A 
ATOM     16  C   UNL     1     137.228 137.670 134.921  1.00  0.00     0.062 A 
ATOM     17  C   UNL     1     137.430 137.422 133.557  1.00  0.00     0.158 A 
BRANCH  15  18
ATOM     18  O   UNL     1     138.043 135.809 131.793  1.00  0.00    -0.504 OA
ATOM     19  H   UNL     1     138.839 135.279 131.468  1.00  0.00     0.293 HD
ENDBRANCH  15  18
BRANCH  17  20
ATOM     20  O   UNL     1     137.230 138.479 132.667  1.00  0.00    -0.504 OA
ATOM     21  H   UNL     1     137.368 139.451 132.903  1.00  0.00     0.293 HD
ENDBRANCH  17  20
ENDBRANCH   1  12
BRANCH   2  22
ATOM     22  O   UNL     1     137.856 139.229 137.138  1.00  0.00    -0.502 OA
ATOM     23  H   UNL     1     137.777 140.193 137.441  1.00  0.00     0.293 HD
ENDBRANCH   2  22
BRANCH   6  24
ATOM     24  O   UNL     1     136.540 138.496 142.115  1.00  0.00    -0.507 OA
ATOM     25  H   UNL     1     136.932 139.323 141.679  1.00  0.00     0.293 HD
ENDBRANCH   6  24
BRANCH   8  26
ATOM     26  O   UNL     1     135.429 133.784 142.125  1.00  0.00    -0.508 OA
ATOM     27  H   UNL     1     134.447 133.581 142.270  1.00  0.00     0.293 HD
ENDBRANCH   8  26
TORSDOF 6
ENDMDL
