MODEL 1
REMARK VINA RESULT:    -3.280      0.000      0.000
REMARK INTER + INTRA:          -6.720
REMARK INTER:                  -5.197
REMARK INTRA:                  -1.523
REMARK UNBOUND:                -1.523
REMARK SMILES CCCCCCCCCCCC(=O)[O-]
REMARK SMILES IDX 7 1 8 2 9 3 10 4 11 5 12 6 13 7 14 8 6 9 5 10 4 11 3 12 2 13
REMARK SMILES IDX 1 14
REMARK H PARENT
REMARK Flexibility Score: inf
ROOT
ATOM      1  C   UNL     1     -19.409 -13.667  40.412  1.00  0.00     0.000 C 
ENDROOT
BRANCH   1   2
ATOM      2  C   UNL     1     -20.039 -14.589  39.361  1.00  0.00     0.000 C 
BRANCH   2   3
ATOM      3  C   UNL     1     -21.462 -14.993  39.766  1.00  0.00     0.000 C 
BRANCH   3   4
ATOM      4  C   UNL     1     -21.632 -14.949  41.292  1.00  0.00     0.006 C 
BRANCH   4   5
ATOM      5  C   UNL     1     -22.921 -14.232  41.712  1.00  0.00     0.053 C 
BRANCH   5   6
ATOM      6  C   UNL     1     -23.415 -14.710  43.044  1.00  0.00     0.041 C 
ATOM      7  O   UNL     1     -22.880 -15.706  43.598  1.00  0.00    -0.550 OA
ATOM      8  O   UNL     1     -24.488 -14.074  43.656  1.00  0.00    -0.550 OA
ENDBRANCH   5   6
ENDBRANCH   4   5
ENDBRANCH   3   4
ENDBRANCH   2   3
ENDBRANCH   1   2
BRANCH   1   9
ATOM      9  C   UNL     1     -18.926 -12.358  39.777  1.00  0.00     0.000 C 
BRANCH   9  10
ATOM     10  C   UNL     1     -20.076 -11.639  39.057  1.00  0.00    -0.000 C 
BRANCH  10  11
ATOM     11  C   UNL     1     -21.052 -10.953  40.028  1.00  0.00    -0.000 C 
BRANCH  11  12
ATOM     12  C   UNL     1     -22.542 -11.122  39.675  1.00  0.00    -0.000 C 
BRANCH  12  13
ATOM     13  C   UNL     1     -22.786 -11.694  38.263  1.00  0.00    -0.003 C 
ATOM     14  C   UNL     1     -23.902 -12.739  38.241  1.00  0.00     0.004 C 
ENDBRANCH  12  13
ENDBRANCH  11  12
ENDBRANCH  10  11
ENDBRANCH   9  10
ENDBRANCH   1   9
TORSDOF 10
ENDMDL
MODEL 2
REMARK VINA RESULT:    -3.279      4.088      5.542
REMARK INTER + INTRA:          -6.718
REMARK INTER:                  -5.190
REMARK INTRA:                  -1.529
REMARK UNBOUND:                -1.523
REMARK SMILES CCCCCCCCCCCC(=O)[O-]
REMARK SMILES IDX 7 1 8 2 9 3 10 4 11 5 12 6 13 7 14 8 6 9 5 10 4 11 3 12 2 13
REMARK SMILES IDX 1 14
REMARK H PARENT
REMARK Flexibility Score: inf
ROOT
ATOM      1  C   UNL     1     -21.077 -11.736  40.294  1.00  0.00     0.000 C 
ENDROOT
BRANCH   1   2
ATOM      2  C   UNL     1     -20.583 -11.635  38.845  1.00  0.00     0.000 C 
BRANCH   2   3
ATOM      3  C   UNL     1     -19.359 -12.530  38.619  1.00  0.00     0.000 C 
BRANCH   3   4
ATOM      4  C   UNL     1     -19.378 -13.144  37.211  1.00  0.00     0.006 C 
BRANCH   4   5
ATOM      5  C   UNL     1     -20.754 -13.022  36.543  1.00  0.00     0.053 C 
BRANCH   5   6
ATOM      6  C   UNL     1     -20.680 -13.277  35.069  1.00  0.00     0.041 C 
ATOM      7  O   UNL     1     -19.606 -13.077  34.443  1.00  0.00    -0.550 OA
ATOM      8  O   UNL     1     -21.809 -13.704  34.380  1.00  0.00    -0.550 OA
ENDBRANCH   5   6
ENDBRANCH   4   5
ENDBRANCH   3   4
ENDBRANCH   2   3
ENDBRANCH   1   2
BRANCH   1   9
ATOM      9  C   UNL     1     -22.596 -11.940  40.345  1.00  0.00     0.000 C 
BRANCH   9  10
ATOM     10  C   UNL     1     -23.231 -11.679  38.972  1.00  0.00    -0.000 C 
BRANCH  10  11
ATOM     11  C   UNL     1     -23.938 -12.918  38.395  1.00  0.00    -0.000 C 
BRANCH  11  12
ATOM     12  C   UNL     1     -23.722 -14.217  39.196  1.00  0.00    -0.000 C 
BRANCH  12  13
ATOM     13  C   UNL     1     -22.620 -15.129  38.617  1.00  0.00    -0.003 C 
ATOM     14  C   UNL     1     -21.483 -15.373  39.610  1.00  0.00     0.004 C 
ENDBRANCH  12  13
ENDBRANCH  11  12
ENDBRANCH  10  11
ENDBRANCH   9  10
ENDBRANCH   1   9
TORSDOF 10
ENDMDL
MODEL 3
REMARK VINA RESULT:    -3.240      3.349      5.229
REMARK INTER + INTRA:          -6.657
REMARK INTER:                  -5.449
REMARK INTRA:                  -1.208
REMARK UNBOUND:                -1.523
REMARK SMILES CCCCCCCCCCCC(=O)[O-]
REMARK SMILES IDX 7 1 8 2 9 3 10 4 11 5 12 6 13 7 14 8 6 9 5 10 4 11 3 12 2 13
REMARK SMILES IDX 1 14
REMARK H PARENT
REMARK Flexibility Score: inf
ROOT
ATOM      1  C   UNL     1     -19.910 -11.518  41.199  1.00  0.00     0.000 C 
ENDROOT
BRANCH   1   2
ATOM      2  C   UNL     1     -20.442 -11.422  39.763  1.00  0.00     0.000 C 
BRANCH   2   3
ATOM      3  C   UNL     1     -21.919 -11.012  39.750  1.00  0.00     0.000 C 
BRANCH   3   4
ATOM      4  C   UNL     1     -22.653 -11.636  38.553  1.00  0.00     0.006 C 
BRANCH   4   5
ATOM      5  C   UNL     1     -21.702 -12.403  37.625  1.00  0.00     0.053 C 
BRANCH   5   6
ATOM      6  C   UNL     1     -22.295 -12.599  36.263  1.00  0.00     0.041 C 
ATOM      7  O   UNL     1     -23.154 -11.791  35.822  1.00  0.00    -0.550 OA
ATOM      8  O   UNL     1     -21.922 -13.696  35.494  1.00  0.00    -0.550 OA
ENDBRANCH   5   6
ENDBRANCH   4   5
ENDBRANCH   3   4
ENDBRANCH   2   3
ENDBRANCH   1   2
BRANCH   1   9
ATOM      9  C   UNL     1     -20.320 -12.844  41.852  1.00  0.00     0.000 C 
BRANCH   9  10
ATOM     10  C   UNL     1     -20.392 -13.969  40.810  1.00  0.00    -0.000 C 
BRANCH  10  11
ATOM     11  C   UNL     1     -21.633 -14.862  40.980  1.00  0.00    -0.000 C 
BRANCH  11  12
ATOM     12  C   UNL     1     -22.920 -14.114  41.377  1.00  0.00    -0.000 C 
BRANCH  12  13
ATOM     13  C   UNL     1     -23.455 -14.493  42.774  1.00  0.00    -0.003 C 
ATOM     14  C   UNL     1     -22.620 -15.586  43.442  1.00  0.00     0.004 C 
ENDBRANCH  12  13
ENDBRANCH  11  12
ENDBRANCH  10  11
ENDBRANCH   9  10
ENDBRANCH   1   9
TORSDOF 10
ENDMDL
MODEL 4
REMARK VINA RESULT:    -3.225      2.434      4.327
REMARK INTER + INTRA:          -6.634
REMARK INTER:                  -4.880
REMARK INTRA:                  -1.754
REMARK UNBOUND:                -1.523
REMARK SMILES CCCCCCCCCCCC(=O)[O-]
REMARK SMILES IDX 7 1 8 2 9 3 10 4 11 5 12 6 13 7 14 8 6 9 5 10 4 11 3 12 2 13
REMARK SMILES IDX 1 14
REMARK H PARENT
REMARK Flexibility Score: inf
ROOT
ATOM      1  C   UNL     1     -19.809 -12.396  38.468  1.00  0.00     0.000 C 
ENDROOT
BRANCH   1   2
ATOM      2  C   UNL     1     -19.704 -11.510  39.716  1.00  0.00     0.000 C 
BRANCH   2   3
ATOM      3  C   UNL     1     -21.094 -11.110  40.224  1.00  0.00     0.000 C 
BRANCH   3   4
ATOM      4  C   UNL     1     -22.101 -11.028  39.067  1.00  0.00     0.006 C 
BRANCH   4   5
ATOM      5  C   UNL     1     -23.422 -11.733  39.396  1.00  0.00     0.053 C 
BRANCH   5   6
ATOM      6  C   UNL     1     -23.843 -12.663  38.299  1.00  0.00     0.041 C 
ATOM      7  O   UNL     1     -24.456 -13.729  38.571  1.00  0.00    -0.550 OA
ATOM      8  O   UNL     1     -23.528 -12.367  36.978  1.00  0.00    -0.550 OA
ENDBRANCH   5   6
ENDBRANCH   4   5
ENDBRANCH   3   4
ENDBRANCH   2   3
ENDBRANCH   1   2
BRANCH   1   9
ATOM      9  C   UNL     1     -19.601 -13.874  38.822  1.00  0.00     0.000 C 
BRANCH   9  10
ATOM     10  C   UNL     1     -20.899 -14.672  38.629  1.00  0.00    -0.000 C 
BRANCH  10  11
ATOM     11  C   UNL     1     -21.503 -15.158  39.957  1.00  0.00    -0.000 C 
BRANCH  11  12
ATOM     12  C   UNL     1     -20.698 -14.775  41.214  1.00  0.00    -0.000 C 
BRANCH  12  13
ATOM     13  C   UNL     1     -21.555 -14.152  42.336  1.00  0.00    -0.003 C 
ATOM     14  C   UNL     1     -23.050 -14.199  42.023  1.00  0.00     0.004 C 
ENDBRANCH  12  13
ENDBRANCH  11  12
ENDBRANCH  10  11
ENDBRANCH   9  10
ENDBRANCH   1   9
TORSDOF 10
ENDMDL
MODEL 5
REMARK VINA RESULT:    -3.223      1.174      2.092
REMARK INTER + INTRA:          -6.630
REMARK INTER:                  -4.956
REMARK INTRA:                  -1.674
REMARK UNBOUND:                -1.523
REMARK SMILES CCCCCCCCCCCC(=O)[O-]
REMARK SMILES IDX 7 1 8 2 9 3 10 4 11 5 12 6 13 7 14 8 6 9 5 10 4 11 3 12 2 13
REMARK SMILES IDX 1 14
REMARK H PARENT
REMARK Flexibility Score: inf
ROOT
ATOM      1  C   UNL     1     -19.695 -12.064  40.433  1.00  0.00     0.000 C 
ENDROOT
BRANCH   1   2
ATOM      2  C   UNL     1     -20.466 -12.937  41.432  1.00  0.00     0.000 C 
BRANCH   2   3
ATOM      3  C   UNL     1     -20.205 -14.426  41.177  1.00  0.00     0.000 C 
BRANCH   3   4
ATOM      4  C   UNL     1     -21.503 -15.240  41.294  1.00  0.00     0.006 C 
BRANCH   4   5
ATOM      5  C   UNL     1     -22.699 -14.370  41.699  1.00  0.00     0.053 C 
BRANCH   5   6
ATOM      6  C   UNL     1     -23.296 -14.816  42.999  1.00  0.00     0.041 C 
ATOM      7  O   UNL     1     -24.246 -14.172  43.516  1.00  0.00    -0.550 OA
ATOM      8  O   UNL     1     -22.779 -15.927  43.655  1.00  0.00    -0.550 OA
ENDBRANCH   5   6
ENDBRANCH   4   5
ENDBRANCH   3   4
ENDBRANCH   2   3
ENDBRANCH   1   2
BRANCH   1   9
ATOM      9  C   UNL     1     -20.515 -10.835  40.027  1.00  0.00     0.000 C 
BRANCH   9  10
ATOM     10  C   UNL     1     -22.005 -11.184  39.904  1.00  0.00    -0.000 C 
BRANCH  10  11
ATOM     11  C   UNL     1     -22.416 -11.550  38.468  1.00  0.00    -0.000 C 
BRANCH  11  12
ATOM     12  C   UNL     1     -23.070 -12.937  38.315  1.00  0.00    -0.000 C 
BRANCH  12  13
ATOM     13  C   UNL     1     -22.101 -14.032  37.821  1.00  0.00    -0.003 C 
ATOM     14  C   UNL     1     -20.839 -13.449  37.184  1.00  0.00     0.004 C 
ENDBRANCH  12  13
ENDBRANCH  11  12
ENDBRANCH  10  11
ENDBRANCH   9  10
ENDBRANCH   1   9
TORSDOF 10
ENDMDL
MODEL 6
REMARK VINA RESULT:    -3.212      3.540      5.155
REMARK INTER + INTRA:          -6.612
REMARK INTER:                  -5.017
REMARK INTRA:                  -1.595
REMARK UNBOUND:                -1.523
REMARK SMILES CCCCCCCCCCCC(=O)[O-]
REMARK SMILES IDX 7 1 8 2 9 3 10 4 11 5 12 6 13 7 14 8 6 9 5 10 4 11 3 12 2 13
REMARK SMILES IDX 1 14
REMARK H PARENT
REMARK Flexibility Score: inf
ROOT
ATOM      1  C   UNL     1     -20.879 -11.234  40.445  1.00  0.00     0.000 C 
ENDROOT
BRANCH   1   2
ATOM      2  C   UNL     1     -22.013 -10.909  39.463  1.00  0.00     0.000 C 
BRANCH   2   3
ATOM      3  C   UNL     1     -23.086 -12.004  39.482  1.00  0.00     0.000 C 
BRANCH   3   4
ATOM      4  C   UNL     1     -23.491 -12.402  38.054  1.00  0.00     0.006 C 
BRANCH   4   5
ATOM      5  C   UNL     1     -22.279 -12.554  37.128  1.00  0.00     0.053 C 
BRANCH   5   6
ATOM      6  C   UNL     1     -22.662 -12.421  35.685  1.00  0.00     0.041 C 
ATOM      7  O   UNL     1     -21.935 -12.920  34.787  1.00  0.00    -0.550 OA
ATOM      8  O   UNL     1     -23.807 -11.716  35.333  1.00  0.00    -0.550 OA
ENDBRANCH   5   6
ENDBRANCH   4   5
ENDBRANCH   3   4
ENDBRANCH   2   3
ENDBRANCH   1   2
BRANCH   1   9
ATOM      9  C   UNL     1     -19.510 -11.105  39.768  1.00  0.00     0.000 C 
BRANCH   9  10
ATOM     10  C   UNL     1     -19.129 -12.406  39.047  1.00  0.00    -0.000 C 
BRANCH  10  11
ATOM     11  C   UNL     1     -19.457 -13.663  39.870  1.00  0.00    -0.000 C 
BRANCH  11  12
ATOM     12  C   UNL     1     -20.147 -14.793  39.081  1.00  0.00    -0.000 C 
BRANCH  12  13
ATOM     13  C   UNL     1     -21.414 -15.346  39.766  1.00  0.00    -0.003 C 
ATOM     14  C   UNL     1     -21.596 -14.804  41.184  1.00  0.00     0.004 C 
ENDBRANCH  12  13
ENDBRANCH  11  12
ENDBRANCH  10  11
ENDBRANCH   9  10
ENDBRANCH   1   9
TORSDOF 10
ENDMDL
MODEL 7
REMARK VINA RESULT:    -3.183      1.096      2.314
REMARK INTER + INTRA:          -6.567
REMARK INTER:                  -5.092
REMARK INTRA:                  -1.475
REMARK UNBOUND:                -1.523
REMARK SMILES CCCCCCCCCCCC(=O)[O-]
REMARK SMILES IDX 7 1 8 2 9 3 10 4 11 5 12 6 13 7 14 8 6 9 5 10 4 11 3 12 2 13
REMARK SMILES IDX 1 14
REMARK H PARENT
REMARK Flexibility Score: inf
ROOT
ATOM      1  C   UNL     1     -20.075 -14.327  38.538  1.00  0.00     0.000 C 
ENDROOT
BRANCH   1   2
ATOM      2  C   UNL     1     -20.368 -14.777  39.975  1.00  0.00     0.000 C 
BRANCH   2   3
ATOM      3  C   UNL     1     -19.947 -13.703  40.985  1.00  0.00     0.000 C 
BRANCH   3   4
ATOM      4  C   UNL     1     -20.787 -13.793  42.268  1.00  0.00     0.006 C 
BRANCH   4   5
ATOM      5  C   UNL     1     -22.291 -13.842  41.975  1.00  0.00     0.053 C 
BRANCH   5   6
ATOM      6  C   UNL     1     -23.023 -14.693  42.967  1.00  0.00     0.041 C 
ATOM      7  O   UNL     1     -22.517 -15.773  43.373  1.00  0.00    -0.550 OA
ATOM      8  O   UNL     1     -24.280 -14.309  43.419  1.00  0.00    -0.550 OA
ENDBRANCH   5   6
ENDBRANCH   4   5
ENDBRANCH   3   4
ENDBRANCH   2   3
ENDBRANCH   1   2
BRANCH   1   9
ATOM      9  C   UNL     1     -21.368 -13.961  37.801  1.00  0.00     0.000 C 
BRANCH   9  10
ATOM     10  C   UNL     1     -22.577 -14.673  38.425  1.00  0.00    -0.000 C 
BRANCH  10  11
ATOM     11  C   UNL     1     -23.721 -13.708  38.779  1.00  0.00    -0.000 C 
BRANCH  11  12
ATOM     12  C   UNL     1     -23.499 -12.249  38.334  1.00  0.00    -0.000 C 
BRANCH  12  13
ATOM     13  C   UNL     1     -23.339 -11.258  39.507  1.00  0.00    -0.003 C 
ATOM     14  C   UNL     1     -21.880 -10.870  39.748  1.00  0.00     0.004 C 
ENDBRANCH  12  13
ENDBRANCH  11  12
ENDBRANCH  10  11
ENDBRANCH   9  10
ENDBRANCH   1   9
TORSDOF 10
ENDMDL
MODEL 8
REMARK VINA RESULT:    -3.147      1.947      3.653
REMARK INTER + INTRA:          -6.510
REMARK INTER:                  -4.741
REMARK INTRA:                  -1.769
REMARK UNBOUND:                -1.523
REMARK SMILES CCCCCCCCCCCC(=O)[O-]
REMARK SMILES IDX 7 1 8 2 9 3 10 4 11 5 12 6 13 7 14 8 6 9 5 10 4 11 3 12 2 13
REMARK SMILES IDX 1 14
REMARK H PARENT
REMARK Flexibility Score: inf
ROOT
ATOM      1  C   UNL     1     -22.209 -13.262  37.214  1.00  0.00     0.000 C 
ENDROOT
BRANCH   1   2
ATOM      2  C   UNL     1     -22.665 -11.833  37.538  1.00  0.00     0.000 C 
BRANCH   2   3
ATOM      3  C   UNL     1     -23.112 -11.717  38.999  1.00  0.00     0.000 C 
BRANCH   3   4
ATOM      4  C   UNL     1     -22.949 -13.056  39.733  1.00  0.00     0.006 C 
BRANCH   4   5
ATOM      5  C   UNL     1     -22.650 -12.868  41.226  1.00  0.00     0.053 C 
BRANCH   5   6
ATOM      6  C   UNL     1     -21.620 -13.842  41.713  1.00  0.00     0.041 C 
ATOM      7  O   UNL     1     -20.768 -13.488  42.571  1.00  0.00    -0.550 OA
ATOM      8  O   UNL     1     -21.582 -15.131  41.195  1.00  0.00    -0.550 OA
ENDBRANCH   5   6
ENDBRANCH   4   5
ENDBRANCH   3   4
ENDBRANCH   2   3
ENDBRANCH   1   2
BRANCH   1   9
ATOM      9  C   UNL     1     -21.116 -13.262  36.139  1.00  0.00     0.000 C 
BRANCH   9  10
ATOM     10  C   UNL     1     -19.720 -13.238  36.775  1.00  0.00    -0.000 C 
BRANCH  10  11
ATOM     11  C   UNL     1     -19.686 -13.892  38.167  1.00  0.00    -0.000 C 
BRANCH  11  12
ATOM     12  C   UNL     1     -19.082 -13.015  39.280  1.00  0.00    -0.000 C 
BRANCH  12  13
ATOM     13  C   UNL     1     -19.257 -11.500  39.044  1.00  0.00    -0.003 C 
ATOM     14  C   UNL     1     -19.734 -10.765  40.297  1.00  0.00     0.004 C 
ENDBRANCH  12  13
ENDBRANCH  11  12
ENDBRANCH  10  11
ENDBRANCH   9  10
ENDBRANCH   1   9
TORSDOF 10
ENDMDL
MODEL 9
REMARK VINA RESULT:    -3.091      4.493      6.115
REMARK INTER + INTRA:          -6.420
REMARK INTER:                  -4.985
REMARK INTRA:                  -1.435
REMARK UNBOUND:                -1.523
REMARK SMILES CCCCCCCCCCCC(=O)[O-]
REMARK SMILES IDX 7 1 8 2 9 3 10 4 11 5 12 6 13 7 14 8 6 9 5 10 4 11 3 12 2 13
REMARK SMILES IDX 1 14
REMARK H PARENT
REMARK Flexibility Score: inf
ROOT
ATOM      1  C   UNL     1     -23.444 -12.050  39.302  1.00  0.00     0.000 C 
ENDROOT
BRANCH   1   2
ATOM      2  C   UNL     1     -23.630 -12.718  37.933  1.00  0.00     0.000 C 
BRANCH   2   3
ATOM      3  C   UNL     1     -22.769 -12.034  36.866  1.00  0.00     0.000 C 
BRANCH   3   4
ATOM      4  C   UNL     1     -21.745 -13.014  36.274  1.00  0.00     0.006 C 
BRANCH   4   5
ATOM      5  C   UNL     1     -21.952 -13.233  34.770  1.00  0.00     0.053 C 
BRANCH   5   6
ATOM      6  C   UNL     1     -20.655 -13.209  34.021  1.00  0.00     0.041 C 
ATOM      7  O   UNL     1     -19.562 -13.251  34.645  1.00  0.00    -0.550 OA
ATOM      8  O   UNL     1     -20.655 -13.108  32.635  1.00  0.00    -0.550 OA
ENDBRANCH   5   6
ENDBRANCH   4   5
ENDBRANCH   3   4
ENDBRANCH   2   3
ENDBRANCH   1   2
BRANCH   1   9
ATOM      9  C   UNL     1     -22.410 -10.920  39.227  1.00  0.00     0.000 C 
BRANCH   9  10
ATOM     10  C   UNL     1     -21.185 -11.240  40.095  1.00  0.00    -0.000 C 
BRANCH  10  11
ATOM     11  C   UNL     1     -19.920 -11.514  39.264  1.00  0.00    -0.000 C 
BRANCH  11  12
ATOM     12  C   UNL     1     -19.492 -12.993  39.205  1.00  0.00    -0.000 C 
BRANCH  12  13
ATOM     13  C   UNL     1     -20.306 -13.914  40.140  1.00  0.00    -0.003 C 
ATOM     14  C   UNL     1     -21.049 -15.010  39.376  1.00  0.00     0.004 C 
ENDBRANCH  12  13
ENDBRANCH  11  12
ENDBRANCH  10  11
ENDBRANCH   9  10
ENDBRANCH   1   9
TORSDOF 10
ENDMDL
