MODEL 1
REMARK VINA RESULT:    -7.458      0.000      0.000
REMARK INTER + INTRA:         -10.857
REMARK INTER:                  -9.856
REMARK INTRA:                  -1.001
REMARK UNBOUND:                -1.001
REMARK SMILES CC[C@H](C=C[C@H](C)[C@@H]1CC[C@H]2[C@@H]3CC=C4C[C@H](O)CC[C@@]4(C)[C@@H]3CC[C@]21C)C(C)C
REMARK SMILES IDX 6 1 7 2 5 3 4 4 3 5 2 6 1 7 28 8 29 9 30 10 8 11 9 12 26 13
REMARK SMILES IDX 10 14 11 15 25 16 27 17 12 18 24 19 23 20 13 21 21 22 14 23
REMARK SMILES IDX 15 24 20 25 22 26 16 27 19 28 17 29 18 30
REMARK H PARENT 18 31
REMARK Flexibility Score: inf
ROOT
ATOM      1  C   UNL     1     116.795 126.145 127.014  1.00  0.00     0.012 C 
ATOM      2  C   UNL     1     117.288 126.294 128.463  1.00  0.00     0.012 C 
ENDROOT
BRANCH   1   3
ATOM      3  C   UNL     1     117.646 127.060 126.153  1.00  0.00    -0.028 C 
ATOM      4  C   UNL     1     117.677 128.389 126.343  1.00  0.00    -0.027 C 
BRANCH   4   5
ATOM      5  C   UNL     1     118.538 129.299 125.492  1.00  0.00     0.014 C 
BRANCH   5   6
ATOM      6  C   UNL     1     117.742 130.565 125.091  1.00  0.00     0.004 C 
ATOM      7  C   UNL     1     116.380 130.633 125.786  1.00  0.00     0.004 C 
ENDBRANCH   5   6
BRANCH   5   8
ATOM      8  C   UNL     1     119.873 129.612 126.235  1.00  0.00    -0.011 C 
ATOM      9  C   UNL     1     119.890 130.992 126.917  1.00  0.00     0.008 C 
ATOM     10  C   UNL     1     121.090 129.465 125.311  1.00  0.00     0.008 C 
ENDBRANCH   5   8
ENDBRANCH   4   5
ENDBRANCH   1   3
BRANCH   1  11
ATOM     11  C   UNL     1     116.892 124.658 126.532  1.00  0.00     0.002 C 
ATOM     12  C   UNL     1     117.424 124.520 125.101  1.00  0.00     0.005 C 
ATOM     13  C   UNL     1     115.581 123.760 126.583  1.00  0.00    -0.026 C 
ATOM     14  C   UNL     1     116.980 123.146 124.654  1.00  0.00     0.005 C 
ATOM     15  C   UNL     1     115.561 123.042 125.188  1.00  0.00    -0.001 C 
ATOM     16  C   UNL     1     115.700 122.757 127.774  1.00  0.00     0.007 C 
ATOM     17  C   UNL     1     114.272 124.583 126.737  1.00  0.00     0.012 C 
ATOM     18  C   UNL     1     114.992 121.590 125.100  1.00  0.00     0.000 C 
ATOM     19  C   UNL     1     114.878 121.477 127.614  1.00  0.00     0.005 C 
ATOM     20  C   UNL     1     115.317 120.719 126.336  1.00  0.00     0.003 C 
ATOM     21  C   UNL     1     113.477 121.602 124.826  1.00  0.00     0.031 C 
ATOM     22  C   UNL     1     114.764 119.235 126.172  1.00  0.00    -0.008 C 
ATOM     23  C   UNL     1     112.916 120.218 124.740  1.00  0.00    -0.027 C 
ATOM     24  C   UNL     1     113.444 119.159 125.389  1.00  0.00    -0.065 C 
ATOM     25  C   UNL     1     115.813 118.400 125.363  1.00  0.00     0.014 C 
ATOM     26  C   UNL     1     114.572 118.568 127.560  1.00  0.00     0.016 C 
ATOM     27  C   UNL     1     112.919 117.782 125.045  1.00  0.00     0.063 C 
ATOM     28  C   UNL     1     115.325 116.996 124.944  1.00  0.00     0.033 C 
ATOM     29  C   UNL     1     113.972 117.049 124.206  1.00  0.00     0.118 C 
BRANCH  29  30
ATOM     30  O   UNL     1     113.520 115.749 123.935  1.00  0.00    -0.393 OA
ATOM     31  H   UNL     1     114.289 115.253 123.548  1.00  0.00     0.210 HD
ENDBRANCH  29  30
ENDBRANCH   1  11
TORSDOF 6
ENDMDL
MODEL 2
REMARK VINA RESULT:    -7.289      1.724      3.071
REMARK INTER + INTRA:         -10.633
REMARK INTER:                 -10.175
REMARK INTRA:                  -0.458
REMARK UNBOUND:                -1.001
REMARK SMILES CC[C@H](C=C[C@H](C)[C@@H]1CC[C@H]2[C@@H]3CC=C4C[C@H](O)CC[C@@]4(C)[C@@H]3CC[C@]21C)C(C)C
REMARK SMILES IDX 6 1 7 2 5 3 4 4 3 5 2 6 1 7 28 8 29 9 30 10 8 11 9 12 26 13
REMARK SMILES IDX 10 14 11 15 25 16 27 17 12 18 24 19 23 20 13 21 21 22 14 23
REMARK SMILES IDX 15 24 20 25 22 26 16 27 19 28 17 29 18 30
REMARK H PARENT 18 31
REMARK Flexibility Score: inf
ROOT
ATOM      1  C   UNL     1     117.942 124.712 125.770  1.00  0.00     0.012 C 
ATOM      2  C   UNL     1     118.288 124.448 124.296  1.00  0.00     0.012 C 
ENDROOT
BRANCH   1   3
ATOM      3  C   UNL     1     117.797 126.212 125.938  1.00  0.00    -0.028 C 
ATOM      4  C   UNL     1     118.728 127.070 125.489  1.00  0.00    -0.027 C 
BRANCH   4   5
ATOM      5  C   UNL     1     118.574 128.569 125.643  1.00  0.00     0.014 C 
BRANCH   5   6
ATOM      6  C   UNL     1     117.328 128.892 126.504  1.00  0.00     0.004 C 
ATOM      7  C   UNL     1     116.579 130.125 125.994  1.00  0.00     0.004 C 
ENDBRANCH   5   6
BRANCH   5   8
ATOM      8  C   UNL     1     119.894 129.182 126.205  1.00  0.00    -0.011 C 
ATOM      9  C   UNL     1     119.688 130.514 126.946  1.00  0.00     0.008 C 
ATOM     10  C   UNL     1     120.959 129.345 125.112  1.00  0.00     0.008 C 
ENDBRANCH   5   8
ENDBRANCH   4   5
ENDBRANCH   1   3
BRANCH   1  11
ATOM     11  C   UNL     1     116.631 123.963 126.188  1.00  0.00     0.002 C 
ATOM     12  C   UNL     1     116.092 124.405 127.554  1.00  0.00     0.005 C 
ATOM     13  C   UNL     1     116.649 122.374 126.237  1.00  0.00    -0.026 C 
ATOM     14  C   UNL     1     115.185 123.280 127.995  1.00  0.00     0.005 C 
ATOM     15  C   UNL     1     115.955 122.030 127.601  1.00  0.00    -0.001 C 
ATOM     16  C   UNL     1     115.864 121.821 125.006  1.00  0.00     0.007 C 
ATOM     17  C   UNL     1     118.082 121.771 126.242  1.00  0.00     0.012 C 
ATOM     18  C   UNL     1     115.086 120.736 127.694  1.00  0.00     0.000 C 
ATOM     19  C   UNL     1     115.274 120.423 125.202  1.00  0.00     0.005 C 
ATOM     20  C   UNL     1     114.295 120.423 126.403  1.00  0.00     0.003 C 
ATOM     21  C   UNL     1     115.936 119.524 128.118  1.00  0.00     0.031 C 
ATOM     22  C   UNL     1     113.384 119.128 126.570  1.00  0.00    -0.008 C 
ATOM     23  C   UNL     1     115.119 118.276 128.211  1.00  0.00    -0.027 C 
ATOM     24  C   UNL     1     114.008 118.056 127.476  1.00  0.00    -0.065 C 
ATOM     25  C   UNL     1     112.034 119.552 127.241  1.00  0.00     0.014 C 
ATOM     26  C   UNL     1     113.067 118.503 125.185  1.00  0.00     0.016 C 
ATOM     27  C   UNL     1     113.153 116.856 127.823  1.00  0.00     0.063 C 
ATOM     28  C   UNL     1     111.129 118.371 127.657  1.00  0.00     0.033 C 
ATOM     29  C   UNL     1     111.882 117.344 128.527  1.00  0.00     0.118 C 
BRANCH  29  30
ATOM     30  O   UNL     1     111.055 116.244 128.797  1.00  0.00    -0.393 OA
ATOM     31  H   UNL     1     111.412 115.810 129.615  1.00  0.00     0.210 HD
ENDBRANCH  29  30
ENDBRANCH   1  11
TORSDOF 6
ENDMDL
MODEL 3
REMARK VINA RESULT:    -7.220      3.234      9.627
REMARK INTER + INTRA:         -10.542
REMARK INTER:                  -9.350
REMARK INTRA:                  -1.192
REMARK UNBOUND:                -1.001
REMARK SMILES CC[C@H](C=C[C@H](C)[C@@H]1CC[C@H]2[C@@H]3CC=C4C[C@H](O)CC[C@@]4(C)[C@@H]3CC[C@]21C)C(C)C
REMARK SMILES IDX 6 1 7 2 5 3 4 4 3 5 2 6 1 7 28 8 29 9 30 10 8 11 9 12 26 13
REMARK SMILES IDX 10 14 11 15 25 16 27 17 12 18 24 19 23 20 13 21 21 22 14 23
REMARK SMILES IDX 15 24 20 25 22 26 16 27 19 28 17 29 18 30
REMARK H PARENT 18 31
REMARK Flexibility Score: inf
ROOT
ATOM      1  C   UNL     1     113.777 120.360 126.755  1.00  0.00     0.012 C 
ATOM      2  C   UNL     1     112.837 120.070 127.937  1.00  0.00     0.012 C 
ENDROOT
BRANCH   1   3
ATOM      3  C   UNL     1     113.133 119.773 125.513  1.00  0.00    -0.028 C 
ATOM      4  C   UNL     1     112.301 118.720 125.575  1.00  0.00    -0.027 C 
BRANCH   4   5
ATOM      5  C   UNL     1     111.647 118.144 124.335  1.00  0.00     0.014 C 
BRANCH   5   6
ATOM      6  C   UNL     1     112.049 118.969 123.089  1.00  0.00     0.004 C 
ATOM      7  C   UNL     1     110.878 119.785 122.535  1.00  0.00     0.004 C 
ENDBRANCH   5   6
BRANCH   5   8
ATOM      8  C   UNL     1     111.987 116.627 124.213  1.00  0.00    -0.011 C 
ATOM      9  C   UNL     1     113.013 116.140 125.251  1.00  0.00     0.008 C 
ATOM     10  C   UNL     1     112.452 116.257 122.798  1.00  0.00     0.008 C 
ENDBRANCH   5   8
ENDBRANCH   4   5
ENDBRANCH   1   3
BRANCH   1  11
ATOM     11  C   UNL     1     114.027 121.898 126.593  1.00  0.00     0.002 C 
ATOM     12  C   UNL     1     113.382 122.485 125.332  1.00  0.00     0.005 C 
ATOM     13  C   UNL     1     115.527 122.424 126.584  1.00  0.00    -0.026 C 
ATOM     14  C   UNL     1     114.122 123.780 125.087  1.00  0.00     0.005 C 
ATOM     15  C   UNL     1     115.571 123.420 125.373  1.00  0.00    -0.001 C 
ATOM     16  C   UNL     1     115.826 123.122 127.948  1.00  0.00     0.007 C 
ATOM     17  C   UNL     1     116.575 121.301 126.344  1.00  0.00     0.012 C 
ATOM     18  C   UNL     1     116.494 124.675 125.467  1.00  0.00     0.000 C 
ATOM     19  C   UNL     1     116.938 124.173 127.896  1.00  0.00     0.005 C 
ATOM     20  C   UNL     1     116.568 125.288 126.885  1.00  0.00     0.003 C 
ATOM     21  C   UNL     1     117.906 124.370 124.933  1.00  0.00     0.031 C 
ATOM     22  C   UNL     1     117.475 126.596 126.915  1.00  0.00    -0.008 C 
ATOM     23  C   UNL     1     118.803 125.562 125.019  1.00  0.00    -0.027 C 
ATOM     24  C   UNL     1     118.662 126.536 125.942  1.00  0.00    -0.065 C 
ATOM     25  C   UNL     1     116.600 127.819 126.480  1.00  0.00     0.014 C 
ATOM     26  C   UNL     1     118.005 126.859 128.350  1.00  0.00     0.016 C 
ATOM     27  C   UNL     1     119.493 127.792 125.783  1.00  0.00     0.063 C 
ATOM     28  C   UNL     1     117.393 129.126 126.260  1.00  0.00     0.033 C 
ATOM     29  C   UNL     1     118.583 128.926 125.299  1.00  0.00     0.118 C 
BRANCH  29  30
ATOM     30  O   UNL     1     119.331 130.109 125.208  1.00  0.00    -0.393 OA
ATOM     31  H   UNL     1     118.838 130.714 124.594  1.00  0.00     0.210 HD
ENDBRANCH  29  30
ENDBRANCH   1  11
TORSDOF 6
ENDMDL
MODEL 4
REMARK VINA RESULT:    -6.958      3.556     10.415
REMARK INTER + INTRA:         -10.197
REMARK INTER:                  -9.083
REMARK INTRA:                  -1.113
REMARK UNBOUND:                -1.001
REMARK SMILES CC[C@H](C=C[C@H](C)[C@@H]1CC[C@H]2[C@@H]3CC=C4C[C@H](O)CC[C@@]4(C)[C@@H]3CC[C@]21C)C(C)C
REMARK SMILES IDX 6 1 7 2 5 3 4 4 3 5 2 6 1 7 28 8 29 9 30 10 8 11 9 12 26 13
REMARK SMILES IDX 10 14 11 15 25 16 27 17 12 18 24 19 23 20 13 21 21 22 14 23
REMARK SMILES IDX 15 24 20 25 22 26 16 27 19 28 17 29 18 30
REMARK H PARENT 18 31
REMARK Flexibility Score: inf
ROOT
ATOM      1  C   UNL     1     112.936 116.417 124.259  1.00  0.00     0.012 C 
ATOM      2  C   UNL     1     112.374 116.300 122.833  1.00  0.00     0.012 C 
ENDROOT
BRANCH   1   3
ATOM      3  C   UNL     1     113.652 115.116 124.570  1.00  0.00    -0.028 C 
ATOM      4  C   UNL     1     114.259 114.393 123.615  1.00  0.00    -0.027 C 
BRANCH   4   5
ATOM      5  C   UNL     1     114.986 113.102 123.930  1.00  0.00     0.014 C 
BRANCH   5   6
ATOM      6  C   UNL     1     114.930 112.148 122.711  1.00  0.00     0.004 C 
ATOM      7  C   UNL     1     114.966 112.907 121.383  1.00  0.00     0.004 C 
ENDBRANCH   5   6
BRANCH   5   8
ATOM      8  C   UNL     1     116.436 113.414 124.409  1.00  0.00    -0.011 C 
ATOM      9  C   UNL     1     117.121 114.536 123.611  1.00  0.00     0.008 C 
ATOM     10  C   UNL     1     117.319 112.158 124.418  1.00  0.00     0.008 C 
ENDBRANCH   5   8
ENDBRANCH   4   5
ENDBRANCH   1   3
BRANCH   1  11
ATOM     11  C   UNL     1     113.903 117.643 124.388  1.00  0.00     0.002 C 
ATOM     12  C   UNL     1     115.249 117.286 125.031  1.00  0.00     0.005 C 
ATOM     13  C   UNL     1     113.392 118.931 125.169  1.00  0.00    -0.026 C 
ATOM     14  C   UNL     1     115.805 118.604 125.520  1.00  0.00     0.005 C 
ATOM     15  C   UNL     1     114.591 119.304 126.108  1.00  0.00    -0.001 C 
ATOM     16  C   UNL     1     113.067 120.054 124.133  1.00  0.00     0.007 C 
ATOM     17  C   UNL     1     112.136 118.666 126.046  1.00  0.00     0.012 C 
ATOM     18  C   UNL     1     114.860 120.810 126.419  1.00  0.00     0.000 C 
ATOM     19  C   UNL     1     113.155 121.477 124.688  1.00  0.00     0.005 C 
ATOM     20  C   UNL     1     114.584 121.751 125.223  1.00  0.00     0.003 C 
ATOM     21  C   UNL     1     114.079 121.270 127.664  1.00  0.00     0.031 C 
ATOM     22  C   UNL     1     114.926 123.266 125.574  1.00  0.00    -0.008 C 
ATOM     23  C   UNL     1     114.324 122.712 127.974  1.00  0.00    -0.027 C 
ATOM     24  C   UNL     1     114.642 123.631 127.039  1.00  0.00    -0.065 C 
ATOM     25  C   UNL     1     116.457 123.496 125.344  1.00  0.00     0.014 C 
ATOM     26  C   UNL     1     114.141 124.231 124.647  1.00  0.00     0.016 C 
ATOM     27  C   UNL     1     115.080 125.002 127.510  1.00  0.00     0.063 C 
ATOM     28  C   UNL     1     116.980 124.862 125.841  1.00  0.00     0.033 C 
ATOM     29  C   UNL     1     116.594 125.131 127.309  1.00  0.00     0.118 C 
BRANCH  29  30
ATOM     30  O   UNL     1     117.000 126.419 127.686  1.00  0.00    -0.393 OA
ATOM     31  H   UNL     1     117.742 126.676 127.079  1.00  0.00     0.210 HD
ENDBRANCH  29  30
ENDBRANCH   1  11
TORSDOF 6
ENDMDL
MODEL 5
REMARK VINA RESULT:    -6.942      3.417      9.594
REMARK INTER + INTRA:         -10.175
REMARK INTER:                  -9.712
REMARK INTRA:                  -0.462
REMARK UNBOUND:                -1.001
REMARK SMILES CC[C@H](C=C[C@H](C)[C@@H]1CC[C@H]2[C@@H]3CC=C4C[C@H](O)CC[C@@]4(C)[C@@H]3CC[C@]21C)C(C)C
REMARK SMILES IDX 6 1 7 2 5 3 4 4 3 5 2 6 1 7 28 8 29 9 30 10 8 11 9 12 26 13
REMARK SMILES IDX 10 14 11 15 25 16 27 17 12 18 24 19 23 20 13 21 21 22 14 23
REMARK SMILES IDX 15 24 20 25 22 26 16 27 19 28 17 29 18 30
REMARK H PARENT 18 31
REMARK Flexibility Score: inf
ROOT
ATOM      1  C   UNL     1     112.565 116.755 126.234  1.00  0.00     0.012 C 
ATOM      2  C   UNL     1     112.765 115.501 125.367  1.00  0.00     0.012 C 
ENDROOT
BRANCH   1   3
ATOM      3  C   UNL     1     112.566 116.306 127.683  1.00  0.00    -0.028 C 
ATOM      4  C   UNL     1     113.701 116.202 128.393  1.00  0.00    -0.027 C 
BRANCH   4   5
ATOM      5  C   UNL     1     113.698 115.768 129.845  1.00  0.00     0.014 C 
BRANCH   5   6
ATOM      6  C   UNL     1     114.969 114.941 130.156  1.00  0.00     0.004 C 
ATOM      7  C   UNL     1     116.158 115.364 129.291  1.00  0.00     0.004 C 
ENDBRANCH   5   6
BRANCH   5   8
ATOM      8  C   UNL     1     113.524 117.012 130.769  1.00  0.00    -0.011 C 
ATOM      9  C   UNL     1     112.056 117.335 131.097  1.00  0.00     0.008 C 
ATOM     10  C   UNL     1     114.222 118.253 130.195  1.00  0.00     0.008 C 
ENDBRANCH   5   8
ENDBRANCH   4   5
ENDBRANCH   1   3
BRANCH   1  11
ATOM     11  C   UNL     1     113.687 117.814 125.965  1.00  0.00     0.002 C 
ATOM     12  C   UNL     1     115.021 117.464 126.637  1.00  0.00     0.005 C 
ATOM     13  C   UNL     1     113.406 119.330 126.354  1.00  0.00    -0.026 C 
ATOM     14  C   UNL     1     115.777 118.772 126.700  1.00  0.00     0.005 C 
ATOM     15  C   UNL     1     114.710 119.778 127.101  1.00  0.00    -0.001 C 
ATOM     16  C   UNL     1     113.150 120.147 125.048  1.00  0.00     0.007 C 
ATOM     17  C   UNL     1     112.196 119.509 127.313  1.00  0.00     0.012 C 
ATOM     18  C   UNL     1     115.192 121.255 126.949  1.00  0.00     0.000 C 
ATOM     19  C   UNL     1     113.461 121.641 125.160  1.00  0.00     0.005 C 
ATOM     20  C   UNL     1     114.949 121.847 125.541  1.00  0.00     0.003 C 
ATOM     21  C   UNL     1     114.573 122.157 128.032  1.00  0.00     0.031 C 
ATOM     22  C   UNL     1     115.508 123.334 125.422  1.00  0.00    -0.008 C 
ATOM     23  C   UNL     1     115.023 123.576 127.899  1.00  0.00    -0.027 C 
ATOM     24  C   UNL     1     115.384 124.137 126.726  1.00  0.00    -0.065 C 
ATOM     25  C   UNL     1     117.034 123.265 125.082  1.00  0.00     0.014 C 
ATOM     26  C   UNL     1     114.785 124.098 124.282  1.00  0.00     0.016 C 
ATOM     27  C   UNL     1     116.028 125.506 126.761  1.00  0.00     0.063 C 
ATOM     28  C   UNL     1     117.763 124.626 125.139  1.00  0.00     0.033 C 
ATOM     29  C   UNL     1     117.526 125.353 126.478  1.00  0.00     0.118 C 
BRANCH  29  30
ATOM     30  O   UNL     1     118.121 126.623 126.448  1.00  0.00    -0.393 OA
ATOM     31  H   UNL     1     118.790 126.609 125.714  1.00  0.00     0.210 HD
ENDBRANCH  29  30
ENDBRANCH   1  11
TORSDOF 6
ENDMDL
MODEL 6
REMARK VINA RESULT:    -6.604      3.391      9.750
REMARK INTER + INTRA:          -9.728
REMARK INTER:                  -8.695
REMARK INTRA:                  -1.033
REMARK UNBOUND:                -1.001
REMARK SMILES CC[C@H](C=C[C@H](C)[C@@H]1CC[C@H]2[C@@H]3CC=C4C[C@H](O)CC[C@@]4(C)[C@@H]3CC[C@]21C)C(C)C
REMARK SMILES IDX 6 1 7 2 5 3 4 4 3 5 2 6 1 7 28 8 29 9 30 10 8 11 9 12 26 13
REMARK SMILES IDX 10 14 11 15 25 16 27 17 12 18 24 19 23 20 13 21 21 22 14 23
REMARK SMILES IDX 15 24 20 25 22 26 16 27 19 28 17 29 18 30
REMARK H PARENT 18 31
REMARK Flexibility Score: inf
ROOT
ATOM      1  C   UNL     1     114.963 117.058 125.701  1.00  0.00     0.012 C 
ATOM      2  C   UNL     1     115.569 116.091 124.672  1.00  0.00     0.012 C 
ENDROOT
BRANCH   1   3
ATOM      3  C   UNL     1     114.742 116.274 126.981  1.00  0.00    -0.028 C 
ATOM      4  C   UNL     1     114.052 116.782 128.016  1.00  0.00    -0.027 C 
BRANCH   4   5
ATOM      5  C   UNL     1     113.820 115.992 129.287  1.00  0.00     0.014 C 
BRANCH   5   6
ATOM      6  C   UNL     1     114.901 116.343 130.338  1.00  0.00     0.004 C 
ATOM      7  C   UNL     1     116.029 115.308 130.372  1.00  0.00     0.004 C 
ENDBRANCH   5   6
BRANCH   5   8
ATOM      8  C   UNL     1     112.363 116.221 129.794  1.00  0.00    -0.011 C 
ATOM      9  C   UNL     1     111.403 116.725 128.703  1.00  0.00     0.008 C 
ATOM     10  C   UNL     1     112.321 117.159 131.009  1.00  0.00     0.008 C 
ENDBRANCH   5   8
ENDBRANCH   4   5
ENDBRANCH   1   3
BRANCH   1  11
ATOM     11  C   UNL     1     115.901 118.289 125.943  1.00  0.00     0.002 C 
ATOM     12  C   UNL     1     116.719 118.180 127.235  1.00  0.00     0.005 C 
ATOM     13  C   UNL     1     115.251 119.740 125.977  1.00  0.00    -0.026 C 
ATOM     14  C   UNL     1     117.141 119.598 127.547  1.00  0.00     0.005 C 
ATOM     15  C   UNL     1     115.896 120.413 127.239  1.00  0.00    -0.001 C 
ATOM     16  C   UNL     1     115.607 120.484 124.652  1.00  0.00     0.007 C 
ATOM     17  C   UNL     1     113.707 119.724 126.156  1.00  0.00     0.012 C 
ATOM     18  C   UNL     1     116.176 121.949 127.209  1.00  0.00     0.000 C 
ATOM     19  C   UNL     1     115.603 122.011 124.757  1.00  0.00     0.005 C 
ATOM     20  C   UNL     1     116.627 122.472 125.825  1.00  0.00     0.003 C 
ATOM     21  C   UNL     1     114.964 122.747 127.724  1.00  0.00     0.031 C 
ATOM     22  C   UNL     1     116.954 124.030 125.862  1.00  0.00    -0.008 C 
ATOM     23  C   UNL     1     115.216 124.220 127.699  1.00  0.00    -0.027 C 
ATOM     24  C   UNL     1     116.056 124.818 126.829  1.00  0.00    -0.065 C 
ATOM     25  C   UNL     1     118.425 124.218 126.363  1.00  0.00     0.014 C 
ATOM     26  C   UNL     1     116.837 124.645 124.442  1.00  0.00     0.016 C 
ATOM     27  C   UNL     1     116.391 126.277 127.052  1.00  0.00     0.063 C 
ATOM     28  C   UNL     1     118.820 125.683 126.650  1.00  0.00     0.033 C 
ATOM     29  C   UNL     1     117.820 126.378 127.596  1.00  0.00     0.118 C 
BRANCH  29  30
ATOM     30  O   UNL     1     118.161 127.729 127.749  1.00  0.00    -0.393 OA
ATOM     31  H   UNL     1     119.101 127.755 128.066  1.00  0.00     0.210 HD
ENDBRANCH  29  30
ENDBRANCH   1  11
TORSDOF 6
ENDMDL
MODEL 7
REMARK VINA RESULT:    -6.571      8.352     11.040
REMARK INTER + INTRA:          -9.685
REMARK INTER:                  -8.718
REMARK INTRA:                  -0.968
REMARK UNBOUND:                -1.001
REMARK SMILES CC[C@H](C=C[C@H](C)[C@@H]1CC[C@H]2[C@@H]3CC=C4C[C@H](O)CC[C@@]4(C)[C@@H]3CC[C@]21C)C(C)C
REMARK SMILES IDX 6 1 7 2 5 3 4 4 3 5 2 6 1 7 28 8 29 9 30 10 8 11 9 12 26 13
REMARK SMILES IDX 10 14 11 15 25 16 27 17 12 18 24 19 23 20 13 21 21 22 14 23
REMARK SMILES IDX 15 24 20 25 22 26 16 27 19 28 17 29 18 30
REMARK H PARENT 18 31
REMARK Flexibility Score: inf
ROOT
ATOM      1  C   UNL     1     123.700 117.772 119.185  1.00  0.00     0.012 C 
ATOM      2  C   UNL     1     124.759 116.689 119.450  1.00  0.00     0.012 C 
ENDROOT
BRANCH   1   3
ATOM      3  C   UNL     1     123.898 118.257 117.762  1.00  0.00    -0.028 C 
ATOM      4  C   UNL     1     124.545 117.521 116.844  1.00  0.00    -0.027 C 
BRANCH   4   5
ATOM      5  C   UNL     1     124.729 118.001 115.419  1.00  0.00     0.014 C 
BRANCH   5   6
ATOM      6  C   UNL     1     123.421 118.649 114.902  1.00  0.00     0.004 C 
ATOM      7  C   UNL     1     122.226 117.699 115.010  1.00  0.00     0.004 C 
ENDBRANCH   5   6
BRANCH   5   8
ATOM      8  C   UNL     1     125.967 118.945 115.333  1.00  0.00    -0.011 C 
ATOM      9  C   UNL     1     127.022 118.677 116.420  1.00  0.00     0.008 C 
ATOM     10  C   UNL     1     125.560 120.425 115.344  1.00  0.00     0.008 C 
ENDBRANCH   5   8
ENDBRANCH   4   5
ENDBRANCH   1   3
BRANCH   1  11
ATOM     11  C   UNL     1     122.252 117.214 119.400  1.00  0.00     0.002 C 
ATOM     12  C   UNL     1     121.222 117.821 118.441  1.00  0.00     0.005 C 
ATOM     13  C   UNL     1     121.602 117.333 120.847  1.00  0.00    -0.026 C 
ATOM     14  C   UNL     1     119.885 117.573 119.101  1.00  0.00     0.005 C 
ATOM     15  C   UNL     1     120.154 117.868 120.567  1.00  0.00    -0.001 C 
ATOM     16  C   UNL     1     121.604 115.925 121.520  1.00  0.00     0.007 C 
ATOM     17  C   UNL     1     122.336 118.343 121.774  1.00  0.00     0.012 C 
ATOM     18  C   UNL     1     118.990 117.401 121.497  1.00  0.00     0.000 C 
ATOM     19  C   UNL     1     120.525 115.727 122.587  1.00  0.00     0.005 C 
ATOM     20  C   UNL     1     119.120 115.933 121.966  1.00  0.00     0.003 C 
ATOM     21  C   UNL     1     118.826 118.345 122.702  1.00  0.00     0.031 C 
ATOM     22  C   UNL     1     117.881 115.490 122.864  1.00  0.00    -0.008 C 
ATOM     23  C   UNL     1     117.716 117.910 123.603  1.00  0.00    -0.027 C 
ATOM     24  C   UNL     1     117.323 116.625 123.735  1.00  0.00    -0.065 C 
ATOM     25  C   UNL     1     116.719 115.037 121.918  1.00  0.00     0.014 C 
ATOM     26  C   UNL     1     118.268 114.292 123.773  1.00  0.00     0.016 C 
ATOM     27  C   UNL     1     116.050 116.347 124.506  1.00  0.00     0.063 C 
ATOM     28  C   UNL     1     115.377 114.776 122.636  1.00  0.00     0.033 C 
ATOM     29  C   UNL     1     114.946 115.970 123.512  1.00  0.00     0.118 C 
BRANCH  29  30
ATOM     30  O   UNL     1     113.779 115.650 124.221  1.00  0.00    -0.393 OA
ATOM     31  H   UNL     1     113.884 114.717 124.543  1.00  0.00     0.210 HD
ENDBRANCH  29  30
ENDBRANCH   1  11
TORSDOF 6
ENDMDL
MODEL 8
REMARK VINA RESULT:    -6.515      5.330      9.287
REMARK INTER + INTRA:          -9.610
REMARK INTER:                  -8.494
REMARK INTRA:                  -1.116
REMARK UNBOUND:                -1.001
REMARK SMILES CC[C@H](C=C[C@H](C)[C@@H]1CC[C@H]2[C@@H]3CC=C4C[C@H](O)CC[C@@]4(C)[C@@H]3CC[C@]21C)C(C)C
REMARK SMILES IDX 6 1 7 2 5 3 4 4 3 5 2 6 1 7 28 8 29 9 30 10 8 11 9 12 26 13
REMARK SMILES IDX 10 14 11 15 25 16 27 17 12 18 24 19 23 20 13 21 21 22 14 23
REMARK SMILES IDX 15 24 20 25 22 26 16 27 19 28 17 29 18 30
REMARK H PARENT 18 31
REMARK Flexibility Score: inf
ROOT
ATOM      1  C   UNL     1     119.040 118.490 122.017  1.00  0.00     0.012 C 
ATOM      2  C   UNL     1     118.441 118.631 120.609  1.00  0.00     0.012 C 
ENDROOT
BRANCH   1   3
ATOM      3  C   UNL     1     120.507 118.143 121.850  1.00  0.00    -0.028 C 
ATOM      4  C   UNL     1     120.978 117.569 120.731  1.00  0.00    -0.027 C 
BRANCH   4   5
ATOM      5  C   UNL     1     122.446 117.235 120.560  1.00  0.00     0.014 C 
BRANCH   5   6
ATOM      6  C   UNL     1     122.772 115.893 121.258  1.00  0.00     0.004 C 
ATOM      7  C   UNL     1     121.778 114.791 120.883  1.00  0.00     0.004 C 
ENDBRANCH   5   6
BRANCH   5   8
ATOM      8  C   UNL     1     122.821 117.257 119.046  1.00  0.00    -0.011 C 
ATOM      9  C   UNL     1     124.032 118.150 118.725  1.00  0.00     0.008 C 
ATOM     10  C   UNL     1     121.626 117.651 118.167  1.00  0.00     0.008 C 
ENDBRANCH   5   8
ENDBRANCH   4   5
ENDBRANCH   1   3
BRANCH   1  11
ATOM     11  C   UNL     1     118.858 119.808 122.845  1.00  0.00     0.002 C 
ATOM     12  C   UNL     1     120.043 120.108 123.771  1.00  0.00     0.005 C 
ATOM     13  C   UNL     1     117.563 119.958 123.755  1.00  0.00    -0.026 C 
ATOM     14  C   UNL     1     119.494 121.066 124.803  1.00  0.00     0.005 C 
ATOM     15  C   UNL     1     118.120 120.497 125.119  1.00  0.00    -0.001 C 
ATOM     16  C   UNL     1     116.577 120.956 123.071  1.00  0.00     0.007 C 
ATOM     17  C   UNL     1     116.830 118.612 124.015  1.00  0.00     0.012 C 
ATOM     18  C   UNL     1     117.240 121.482 125.951  1.00  0.00     0.000 C 
ATOM     19  C   UNL     1     115.619 121.664 124.031  1.00  0.00     0.005 C 
ATOM     20  C   UNL     1     116.421 122.468 125.086  1.00  0.00     0.003 C 
ATOM     21  C   UNL     1     116.322 120.721 126.925  1.00  0.00     0.031 C 
ATOM     22  C   UNL     1     115.586 123.486 125.982  1.00  0.00    -0.008 C 
ATOM     23  C   UNL     1     115.470 121.651 127.728  1.00  0.00    -0.027 C 
ATOM     24  C   UNL     1     115.079 122.867 127.293  1.00  0.00    -0.065 C 
ATOM     25  C   UNL     1     116.518 124.679 126.380  1.00  0.00     0.014 C 
ATOM     26  C   UNL     1     114.380 124.051 125.184  1.00  0.00     0.016 C 
ATOM     27  C   UNL     1     114.409 123.795 128.285  1.00  0.00     0.063 C 
ATOM     28  C   UNL     1     115.910 125.644 127.422  1.00  0.00     0.033 C 
ATOM     29  C   UNL     1     115.399 124.899 128.672  1.00  0.00     0.118 C 
BRANCH  29  30
ATOM     30  O   UNL     1     114.767 125.799 129.543  1.00  0.00    -0.393 OA
ATOM     31  H   UNL     1     114.008 125.311 129.958  1.00  0.00     0.210 HD
ENDBRANCH  29  30
ENDBRANCH   1  11
TORSDOF 6
ENDMDL
MODEL 9
REMARK VINA RESULT:    -6.509      7.705     10.778
REMARK INTER + INTRA:          -9.603
REMARK INTER:                  -8.553
REMARK INTRA:                  -1.050
REMARK UNBOUND:                -1.001
REMARK SMILES CC[C@H](C=C[C@H](C)[C@@H]1CC[C@H]2[C@@H]3CC=C4C[C@H](O)CC[C@@]4(C)[C@@H]3CC[C@]21C)C(C)C
REMARK SMILES IDX 6 1 7 2 5 3 4 4 3 5 2 6 1 7 28 8 29 9 30 10 8 11 9 12 26 13
REMARK SMILES IDX 10 14 11 15 25 16 27 17 12 18 24 19 23 20 13 21 21 22 14 23
REMARK SMILES IDX 15 24 20 25 22 26 16 27 19 28 17 29 18 30
REMARK H PARENT 18 31
REMARK Flexibility Score: inf
ROOT
ATOM      1  C   UNL     1     122.380 117.487 119.553  1.00  0.00     0.012 C 
ATOM      2  C   UNL     1     123.333 116.403 120.083  1.00  0.00     0.012 C 
ENDROOT
BRANCH   1   3
ATOM      3  C   UNL     1     122.596 117.583 118.054  1.00  0.00    -0.028 C 
ATOM      4  C   UNL     1     123.308 116.666 117.379  1.00  0.00    -0.027 C 
BRANCH   4   5
ATOM      5  C   UNL     1     123.510 116.754 115.880  1.00  0.00     0.014 C 
BRANCH   5   6
ATOM      6  C   UNL     1     122.514 117.769 115.268  1.00  0.00     0.004 C 
ATOM      7  C   UNL     1     123.226 118.875 114.485  1.00  0.00     0.004 C 
ENDBRANCH   5   6
BRANCH   5   8
ATOM      8  C   UNL     1     125.002 117.079 115.565  1.00  0.00    -0.011 C 
ATOM      9  C   UNL     1     125.683 116.034 114.664  1.00  0.00     0.008 C 
ATOM     10  C   UNL     1     125.825 117.289 116.844  1.00  0.00     0.008 C 
ENDBRANCH   5   8
ENDBRANCH   4   5
ENDBRANCH   1   3
BRANCH   1  11
ATOM     11  C   UNL     1     120.889 117.147 119.893  1.00  0.00     0.002 C 
ATOM     12  C   UNL     1     119.885 117.844 118.966  1.00  0.00     0.005 C 
ATOM     13  C   UNL     1     120.367 117.428 121.368  1.00  0.00    -0.026 C 
ATOM     14  C   UNL     1     118.578 117.817 119.724  1.00  0.00     0.005 C 
ATOM     15  C   UNL     1     118.988 118.144 121.151  1.00  0.00    -0.001 C 
ATOM     16  C   UNL     1     120.226 116.068 122.121  1.00  0.00     0.007 C 
ATOM     17  C   UNL     1     121.295 118.371 122.185  1.00  0.00     0.012 C 
ATOM     18  C   UNL     1     117.841 117.890 122.179  1.00  0.00     0.000 C 
ATOM     19  C   UNL     1     119.210 116.075 123.265  1.00  0.00     0.005 C 
ATOM     20  C   UNL     1     117.804 116.443 122.725  1.00  0.00     0.003 C 
ATOM     21  C   UNL     1     117.893 118.906 123.334  1.00  0.00     0.031 C 
ATOM     22  C   UNL     1     116.585 116.222 123.724  1.00  0.00    -0.008 C 
ATOM     23  C   UNL     1     116.802 118.675 124.329  1.00  0.00    -0.027 C 
ATOM     24  C   UNL     1     116.249 117.466 124.561  1.00  0.00    -0.065 C 
ATOM     25  C   UNL     1     115.307 115.889 122.884  1.00  0.00     0.014 C 
ATOM     26  C   UNL     1     116.870 115.029 124.676  1.00  0.00     0.016 C 
ATOM     27  C   UNL     1     115.009 117.406 125.427  1.00  0.00     0.063 C 
ATOM     28  C   UNL     1     113.996 115.853 123.700  1.00  0.00     0.033 C 
ATOM     29  C   UNL     1     113.795 117.137 124.530  1.00  0.00     0.118 C 
BRANCH  29  30
ATOM     30  O   UNL     1     112.649 117.019 125.330  1.00  0.00    -0.393 OA
ATOM     31  H   UNL     1     111.870 117.212 124.746  1.00  0.00     0.210 HD
ENDBRANCH  29  30
ENDBRANCH   1  11
TORSDOF 6
ENDMDL
