MODEL 1
REMARK VINA RESULT:    72.922      0.000      0.000
REMARK INTER + INTRA:          96.607
REMARK INTER:                  96.369
REMARK INTRA:                   0.238
REMARK UNBOUND:                 0.238
REMARK SMILES CC[C@@H](C=C[C@@H](C)[C@H]1CC[C@H]2C3=CC[C@H]4C[C@@H](O)CC[C@]4(C)[C@@H]3CC[C@]12C)C(C)C
REMARK SMILES IDX 6 1 7 2 5 3 4 4 3 5 2 6 1 7 28 8 29 9 30 10 8 11 9 12 26 13
REMARK SMILES IDX 10 14 11 15 25 16 27 17 12 18 24 19 23 20 13 21 21 22 14 23
REMARK SMILES IDX 15 24 20 25 22 26 16 27 19 28 17 29 18 30
REMARK H PARENT 18 31
REMARK Flexibility Score: inf
ROOT
ATOM      1  C   UNL     1      35.695 -28.026  -1.289  1.00  0.00     0.012 C 
ATOM      2  C   UNL     1      34.292 -27.628  -1.769  1.00  0.00     0.012 C 
ENDROOT
BRANCH   1   3
ATOM      3  C   UNL     1      35.922 -29.479  -1.675  1.00  0.00    -0.028 C 
ATOM      4  C   UNL     1      34.984 -30.372  -2.057  1.00  0.00    -0.027 C 
BRANCH   4   5
ATOM      5  C   UNL     1      33.486 -30.124  -2.196  1.00  0.00     0.014 C 
BRANCH   5   6
ATOM      6  C   UNL     1      32.723 -30.931  -1.113  1.00  0.00     0.004 C 
ATOM      7  C   UNL     1      31.203 -30.819  -1.218  1.00  0.00     0.004 C 
ENDBRANCH   5   6
BRANCH   5   8
ATOM      8  C   UNL     1      33.026 -30.529  -3.635  1.00  0.00    -0.011 C 
ATOM      9  C   UNL     1      32.600 -32.008  -3.700  1.00  0.00     0.008 C 
ATOM     10  C   UNL     1      34.114 -30.285  -4.697  1.00  0.00     0.008 C 
ENDBRANCH   5   8
ENDBRANCH   4   5
ENDBRANCH   1   3
BRANCH   1  11
ATOM     11  C   UNL     1      35.860 -27.868   0.258  1.00  0.00     0.002 C 
ATOM     12  C   UNL     1      36.387 -29.171   0.914  1.00  0.00     0.005 C 
ATOM     13  C   UNL     1      36.830 -26.770   0.790  1.00  0.00    -0.023 C 
ATOM     14  C   UNL     1      37.271 -28.761   2.098  1.00  0.00     0.009 C 
ATOM     15  C   UNL     1      37.045 -27.261   2.223  1.00  0.00     0.021 C 
ATOM     16  C   UNL     1      36.226 -25.349   0.912  1.00  0.00     0.008 C 
ATOM     17  C   UNL     1      38.157 -26.754  -0.032  1.00  0.00     0.012 C 
ATOM     18  C   UNL     1      38.032 -26.417   2.993  1.00  0.00    -0.067 C 
ATOM     19  C   UNL     1      37.226 -24.365   1.559  1.00  0.00     0.009 C 
ATOM     20  C   UNL     1      37.981 -24.889   2.833  1.00  0.00     0.021 C 
ATOM     21  C   UNL     1      38.721 -26.933   4.039  1.00  0.00    -0.027 C 
ATOM     22  C   UNL     1      37.710 -24.105   4.201  1.00  0.00    -0.023 C 
ATOM     23  C   UNL     1      39.119 -26.023   5.177  1.00  0.00     0.031 C 
ATOM     24  C   UNL     1      37.922 -25.083   5.407  1.00  0.00     0.002 C 
ATOM     25  C   UNL     1      36.259 -23.555   4.370  1.00  0.00     0.010 C 
ATOM     26  C   UNL     1      38.707 -22.905   4.234  1.00  0.00     0.012 C 
ATOM     27  C   UNL     1      37.872 -24.379   6.767  1.00  0.00     0.036 C 
ATOM     28  C   UNL     1      36.013 -22.906   5.759  1.00  0.00     0.032 C 
ATOM     29  C   UNL     1      36.464 -23.771   6.960  1.00  0.00     0.114 C 
BRANCH  29  30
ATOM     30  O   UNL     1      36.439 -22.987   8.123  1.00  0.00    -0.393 OA
ATOM     31  H   UNL     1      36.638 -22.054   7.845  1.00  0.00     0.210 HD
ENDBRANCH  29  30
ENDBRANCH   1  11
TORSDOF 6
ENDMDL
MODEL 2
REMARK VINA RESULT:    73.459      6.441     10.383
REMARK INTER + INTRA:          97.316
REMARK INTER:                  98.048
REMARK INTRA:                  -0.732
REMARK UNBOUND:                 0.238
REMARK SMILES CC[C@@H](C=C[C@@H](C)[C@H]1CC[C@H]2C3=CC[C@H]4C[C@@H](O)CC[C@]4(C)[C@@H]3CC[C@]12C)C(C)C
REMARK SMILES IDX 6 1 7 2 5 3 4 4 3 5 2 6 1 7 28 8 29 9 30 10 8 11 9 12 26 13
REMARK SMILES IDX 10 14 11 15 25 16 27 17 12 18 24 19 23 20 13 21 21 22 14 23
REMARK SMILES IDX 15 24 20 25 22 26 16 27 19 28 17 29 18 30
REMARK H PARENT 18 31
REMARK Flexibility Score: inf
ROOT
ATOM      1  C   UNL     1      34.458 -24.329   6.549  1.00  0.00     0.012 C 
ATOM      2  C   UNL     1      34.133 -23.264   7.606  1.00  0.00     0.012 C 
ENDROOT
BRANCH   1   3
ATOM      3  C   UNL     1      35.398 -23.701   5.533  1.00  0.00    -0.028 C 
ATOM      4  C   UNL     1      36.748 -23.683   5.579  1.00  0.00    -0.027 C 
BRANCH   4   5
ATOM      5  C   UNL     1      37.634 -24.297   6.657  1.00  0.00     0.014 C 
BRANCH   5   6
ATOM      6  C   UNL     1      38.037 -23.205   7.682  1.00  0.00     0.004 C 
ATOM      7  C   UNL     1      37.258 -21.899   7.531  1.00  0.00     0.004 C 
ENDBRANCH   5   6
BRANCH   5   8
ATOM      8  C   UNL     1      38.894 -24.939   5.987  1.00  0.00    -0.011 C 
ATOM      9  C   UNL     1      38.801 -24.900   4.450  1.00  0.00     0.008 C 
ATOM     10  C   UNL     1      39.123 -26.396   6.428  1.00  0.00     0.008 C 
ENDBRANCH   5   8
ENDBRANCH   4   5
ENDBRANCH   1   3
BRANCH   1  11
ATOM     11  C   UNL     1      33.179 -24.852   5.819  1.00  0.00     0.002 C 
ATOM     12  C   UNL     1      33.533 -25.849   4.685  1.00  0.00     0.005 C 
ATOM     13  C   UNL     1      32.108 -25.615   6.656  1.00  0.00    -0.023 C 
ATOM     14  C   UNL     1      32.401 -26.880   4.612  1.00  0.00     0.009 C 
ATOM     15  C   UNL     1      31.334 -26.321   5.541  1.00  0.00     0.021 C 
ATOM     16  C   UNL     1      31.078 -24.723   7.393  1.00  0.00     0.008 C 
ATOM     17  C   UNL     1      32.784 -26.627   7.634  1.00  0.00     0.012 C 
ATOM     18  C   UNL     1      30.245 -27.226   6.063  1.00  0.00    -0.067 C 
ATOM     19  C   UNL     1      29.994 -25.572   8.092  1.00  0.00     0.009 C 
ATOM     20  C   UNL     1      29.386 -26.745   7.244  1.00  0.00     0.021 C 
ATOM     21  C   UNL     1      29.803 -28.276   5.329  1.00  0.00    -0.027 C 
ATOM     22  C   UNL     1      27.823 -26.656   6.912  1.00  0.00    -0.023 C 
ATOM     23  C   UNL     1      28.365 -28.715   5.467  1.00  0.00     0.031 C 
ATOM     24  C   UNL     1      27.535 -27.423   5.575  1.00  0.00     0.002 C 
ATOM     25  C   UNL     1      27.280 -25.211   6.680  1.00  0.00     0.010 C 
ATOM     26  C   UNL     1      27.071 -27.285   8.125  1.00  0.00     0.012 C 
ATOM     27  C   UNL     1      26.039 -27.557   5.271  1.00  0.00     0.036 C 
ATOM     28  C   UNL     1      25.789 -25.185   6.246  1.00  0.00     0.032 C 
ATOM     29  C   UNL     1      25.442 -26.144   5.083  1.00  0.00     0.114 C 
BRANCH  29  30
ATOM     30  O   UNL     1      24.047 -26.228   4.960  1.00  0.00    -0.393 OA
ATOM     31  H   UNL     1      23.863 -26.768   4.147  1.00  0.00     0.210 HD
ENDBRANCH  29  30
ENDBRANCH   1  11
TORSDOF 6
ENDMDL
MODEL 3
REMARK VINA RESULT:    74.165      3.144      9.307
REMARK INTER + INTRA:          98.250
REMARK INTER:                  97.878
REMARK INTRA:                   0.372
REMARK UNBOUND:                 0.238
REMARK SMILES CC[C@@H](C=C[C@@H](C)[C@H]1CC[C@H]2C3=CC[C@H]4C[C@@H](O)CC[C@]4(C)[C@@H]3CC[C@]12C)C(C)C
REMARK SMILES IDX 6 1 7 2 5 3 4 4 3 5 2 6 1 7 28 8 29 9 30 10 8 11 9 12 26 13
REMARK SMILES IDX 10 14 11 15 25 16 27 17 12 18 24 19 23 20 13 21 21 22 14 23
REMARK SMILES IDX 15 24 20 25 22 26 16 27 19 28 17 29 18 30
REMARK H PARENT 18 31
REMARK Flexibility Score: inf
ROOT
ATOM      1  C   UNL     1      36.548 -24.861   2.736  1.00  0.00     0.012 C 
ATOM      2  C   UNL     1      36.106 -23.414   2.998  1.00  0.00     0.012 C 
ENDROOT
BRANCH   1   3
ATOM      3  C   UNL     1      38.068 -24.890   2.755  1.00  0.00    -0.028 C 
ATOM      4  C   UNL     1      38.876 -24.423   3.730  1.00  0.00    -0.027 C 
BRANCH   4   5
ATOM      5  C   UNL     1      38.447 -23.767   5.038  1.00  0.00     0.014 C 
BRANCH   5   6
ATOM      6  C   UNL     1      38.966 -22.305   5.081  1.00  0.00     0.004 C 
ATOM      7  C   UNL     1      39.037 -21.718   6.489  1.00  0.00     0.004 C 
ENDBRANCH   5   6
BRANCH   5   8
ATOM      8  C   UNL     1      39.000 -24.601   6.241  1.00  0.00    -0.011 C 
ATOM      9  C   UNL     1      39.125 -26.095   5.886  1.00  0.00     0.008 C 
ATOM     10  C   UNL     1      38.131 -24.467   7.504  1.00  0.00     0.008 C 
ENDBRANCH   5   8
ENDBRANCH   4   5
ENDBRANCH   1   3
BRANCH   1  11
ATOM     11  C   UNL     1      36.035 -25.399   1.361  1.00  0.00     0.002 C 
ATOM     12  C   UNL     1      36.730 -24.687   0.171  1.00  0.00     0.005 C 
ATOM     13  C   UNL     1      36.222 -26.913   1.043  1.00  0.00    -0.023 C 
ATOM     14  C   UNL     1      36.862 -25.713  -0.961  1.00  0.00     0.009 C 
ATOM     15  C   UNL     1      36.045 -26.901  -0.477  1.00  0.00     0.021 C 
ATOM     16  C   UNL     1      35.120 -27.852   1.594  1.00  0.00     0.008 C 
ATOM     17  C   UNL     1      37.644 -27.399   1.466  1.00  0.00     0.012 C 
ATOM     18  C   UNL     1      36.253 -28.258  -1.105  1.00  0.00    -0.067 C 
ATOM     19  C   UNL     1      35.331 -29.307   1.124  1.00  0.00     0.009 C 
ATOM     20  C   UNL     1      35.681 -29.497  -0.395  1.00  0.00     0.021 C 
ATOM     21  C   UNL     1      36.631 -28.374  -2.400  1.00  0.00    -0.027 C 
ATOM     22  C   UNL     1      34.628 -30.317  -1.278  1.00  0.00    -0.023 C 
ATOM     23  C   UNL     1      36.179 -29.578  -3.192  1.00  0.00     0.031 C 
ATOM     24  C   UNL     1      34.724 -29.843  -2.768  1.00  0.00     0.002 C 
ATOM     25  C   UNL     1      33.133 -30.114  -0.878  1.00  0.00     0.010 C 
ATOM     26  C   UNL     1      34.989 -31.827  -1.116  1.00  0.00     0.012 C 
ATOM     27  C   UNL     1      33.890 -30.701  -3.726  1.00  0.00     0.036 C 
ATOM     28  C   UNL     1      32.145 -30.837  -1.835  1.00  0.00     0.032 C 
ATOM     29  C   UNL     1      32.400 -30.573  -3.337  1.00  0.00     0.114 C 
BRANCH  29  30
ATOM     30  O   UNL     1      31.631 -31.470  -4.095  1.00  0.00    -0.393 OA
ATOM     31  H   UNL     1      31.859 -31.309  -5.048  1.00  0.00     0.210 HD
ENDBRANCH  29  30
ENDBRANCH   1  11
TORSDOF 6
ENDMDL
MODEL 4
REMARK VINA RESULT:    74.270      4.385      8.428
REMARK INTER + INTRA:          98.388
REMARK INTER:                  98.357
REMARK INTRA:                   0.031
REMARK UNBOUND:                 0.238
REMARK SMILES CC[C@@H](C=C[C@@H](C)[C@H]1CC[C@H]2C3=CC[C@H]4C[C@@H](O)CC[C@]4(C)[C@@H]3CC[C@]12C)C(C)C
REMARK SMILES IDX 6 1 7 2 5 3 4 4 3 5 2 6 1 7 28 8 29 9 30 10 8 11 9 12 26 13
REMARK SMILES IDX 10 14 11 15 25 16 27 17 12 18 24 19 23 20 13 21 21 22 14 23
REMARK SMILES IDX 15 24 20 25 22 26 16 27 19 28 17 29 18 30
REMARK H PARENT 18 31
REMARK Flexibility Score: inf
ROOT
ATOM      1  C   UNL     1      28.497 -32.182  -3.388  1.00  0.00     0.012 C 
ATOM      2  C   UNL     1      27.024 -31.826  -3.138  1.00  0.00     0.012 C 
ENDROOT
BRANCH   1   3
ATOM      3  C   UNL     1      28.637 -33.690  -3.253  1.00  0.00    -0.028 C 
ATOM      4  C   UNL     1      28.050 -34.631  -4.023  1.00  0.00    -0.027 C 
BRANCH   4   5
ATOM      5  C   UNL     1      27.120 -34.394  -5.208  1.00  0.00     0.014 C 
BRANCH   5   6
ATOM      6  C   UNL     1      25.659 -34.714  -4.794  1.00  0.00     0.004 C 
ATOM      7  C   UNL     1      25.519 -35.994  -3.971  1.00  0.00     0.004 C 
ENDBRANCH   5   6
BRANCH   5   8
ATOM      8  C   UNL     1      27.577 -35.284  -6.411  1.00  0.00    -0.011 C 
ATOM      9  C   UNL     1      26.509 -35.331  -7.520  1.00  0.00     0.008 C 
ATOM     10  C   UNL     1      27.910 -36.726  -5.988  1.00  0.00     0.008 C 
ENDBRANCH   5   8
ENDBRANCH   4   5
ENDBRANCH   1   3
BRANCH   1  11
ATOM     11  C   UNL     1      29.458 -31.479  -2.376  1.00  0.00     0.002 C 
ATOM     12  C   UNL     1      29.263 -32.014  -0.933  1.00  0.00     0.005 C 
ATOM     13  C   UNL     1      30.994 -31.600  -2.608  1.00  0.00    -0.023 C 
ATOM     14  C   UNL     1      30.632 -31.976  -0.243  1.00  0.00     0.009 C 
ATOM     15  C   UNL     1      31.516 -31.218  -1.222  1.00  0.00     0.021 C 
ATOM     16  C   UNL     1      31.604 -30.571  -3.593  1.00  0.00     0.008 C 
ATOM     17  C   UNL     1      31.384 -33.060  -3.001  1.00  0.00     0.012 C 
ATOM     18  C   UNL     1      33.018 -31.319  -1.109  1.00  0.00    -0.067 C 
ATOM     19  C   UNL     1      33.141 -30.697  -3.661  1.00  0.00     0.009 C 
ATOM     20  C   UNL     1      33.883 -30.833  -2.283  1.00  0.00     0.021 C 
ATOM     21  C   UNL     1      33.613 -31.515   0.093  1.00  0.00    -0.027 C 
ATOM     22  C   UNL     1      34.898 -29.659  -1.895  1.00  0.00    -0.023 C 
ATOM     23  C   UNL     1      34.990 -30.943   0.332  1.00  0.00     0.031 C 
ATOM     24  C   UNL     1      34.995 -29.556  -0.334  1.00  0.00     0.002 C 
ATOM     25  C   UNL     1      34.473 -28.235  -2.374  1.00  0.00     0.010 C 
ATOM     26  C   UNL     1      36.269 -30.018  -2.547  1.00  0.00     0.012 C 
ATOM     27  C   UNL     1      36.085 -28.588   0.137  1.00  0.00     0.036 C 
ATOM     28  C   UNL     1      35.427 -27.116  -1.873  1.00  0.00     0.032 C 
ATOM     29  C   UNL     1      35.735 -27.166  -0.358  1.00  0.00     0.114 C 
BRANCH  29  30
ATOM     30  O   UNL     1      36.794 -26.289  -0.078  1.00  0.00    -0.393 OA
ATOM     31  H   UNL     1      37.325 -26.205  -0.913  1.00  0.00     0.210 HD
ENDBRANCH  29  30
ENDBRANCH   1  11
TORSDOF 6
ENDMDL
MODEL 5
REMARK VINA RESULT:    75.753      4.846      8.776
REMARK INTER + INTRA:         100.348
REMARK INTER:                  98.685
REMARK INTRA:                   1.663
REMARK UNBOUND:                 0.238
REMARK SMILES CC[C@@H](C=C[C@@H](C)[C@H]1CC[C@H]2C3=CC[C@H]4C[C@@H](O)CC[C@]4(C)[C@@H]3CC[C@]12C)C(C)C
REMARK SMILES IDX 6 1 7 2 5 3 4 4 3 5 2 6 1 7 28 8 29 9 30 10 8 11 9 12 26 13
REMARK SMILES IDX 10 14 11 15 25 16 27 17 12 18 24 19 23 20 13 21 21 22 14 23
REMARK SMILES IDX 15 24 20 25 22 26 16 27 19 28 17 29 18 30
REMARK H PARENT 18 31
REMARK Flexibility Score: inf
ROOT
ATOM      1  C   UNL     1      27.627 -32.302  -3.093  1.00  0.00     0.012 C 
ATOM      2  C   UNL     1      28.189 -32.605  -4.489  1.00  0.00     0.012 C 
ENDROOT
BRANCH   1   3
ATOM      3  C   UNL     1      26.417 -31.399  -3.268  1.00  0.00    -0.028 C 
ATOM      4  C   UNL     1      26.206 -30.507  -4.261  1.00  0.00    -0.027 C 
BRANCH   4   5
ATOM      5  C   UNL     1      27.133 -30.211  -5.435  1.00  0.00     0.014 C 
BRANCH   5   6
ATOM      6  C   UNL     1      27.482 -28.700  -5.452  1.00  0.00     0.004 C 
ATOM      7  C   UNL     1      27.942 -28.189  -6.817  1.00  0.00     0.004 C 
ENDBRANCH   5   6
BRANCH   5   8
ATOM      8  C   UNL     1      26.436 -30.648  -6.766  1.00  0.00    -0.011 C 
ATOM      9  C   UNL     1      27.448 -31.225  -7.773  1.00  0.00     0.008 C 
ATOM     10  C   UNL     1      25.674 -29.494  -7.442  1.00  0.00     0.008 C 
ENDBRANCH   5   8
ENDBRANCH   4   5
ENDBRANCH   1   3
BRANCH   1  11
ATOM     11  C   UNL     1      28.673 -31.596  -2.171  1.00  0.00     0.002 C 
ATOM     12  C   UNL     1      28.476 -31.980  -0.681  1.00  0.00     0.005 C 
ATOM     13  C   UNL     1      30.186 -31.870  -2.423  1.00  0.00    -0.023 C 
ATOM     14  C   UNL     1      29.862 -31.999  -0.027  1.00  0.00     0.009 C 
ATOM     15  C   UNL     1      30.778 -31.411  -1.089  1.00  0.00     0.021 C 
ATOM     16  C   UNL     1      30.851 -30.991  -3.512  1.00  0.00     0.008 C 
ATOM     17  C   UNL     1      30.440 -33.388  -2.688  1.00  0.00     0.012 C 
ATOM     18  C   UNL     1      32.268 -31.631  -0.999  1.00  0.00    -0.067 C 
ATOM     19  C   UNL     1      32.370 -31.255  -3.600  1.00  0.00     0.009 C 
ATOM     20  C   UNL     1      33.137 -31.329  -2.232  1.00  0.00     0.021 C 
ATOM     21  C   UNL     1      32.879 -31.769   0.202  1.00  0.00    -0.027 C 
ATOM     22  C   UNL     1      34.258 -30.217  -1.975  1.00  0.00    -0.023 C 
ATOM     23  C   UNL     1      34.306 -31.299   0.359  1.00  0.00     0.031 C 
ATOM     24  C   UNL     1      34.408 -29.983  -0.432  1.00  0.00     0.002 C 
ATOM     25  C   UNL     1      33.941 -28.811  -2.574  1.00  0.00     0.010 C 
ATOM     26  C   UNL     1      35.574 -30.751  -2.620  1.00  0.00     0.012 C 
ATOM     27  C   UNL     1      35.589 -29.074  -0.076  1.00  0.00     0.036 C 
ATOM     28  C   UNL     1      35.000 -27.738  -2.199  1.00  0.00     0.032 C 
ATOM     29  C   UNL     1      35.346 -27.678  -0.693  1.00  0.00     0.114 C 
BRANCH  29  30
ATOM     30  O   UNL     1      36.482 -26.874  -0.517  1.00  0.00    -0.393 OA
ATOM     31  H   UNL     1      36.208 -25.941  -0.717  1.00  0.00     0.210 HD
ENDBRANCH  29  30
ENDBRANCH   1  11
TORSDOF 6
ENDMDL
