MODEL 1
REMARK VINA RESULT:    -5.452      0.000      0.000
REMARK INTER + INTRA:         -14.159
REMARK INTER:                 -11.826
REMARK INTRA:                  -2.332
REMARK UNBOUND:                -2.332
REMARK SMILES CCCCCCCCCCCCCCCCCCCCCC(=O)[O-]
REMARK SMILES IDX 12 1 11 2 10 3 9 4 8 5 7 6 6 7 5 8 4 9 3 10 2 11 1 12 13 13
REMARK SMILES IDX 14 14 15 15 16 16 17 17 18 18 19 19 20 20 21 21 22 22 23 23
REMARK SMILES IDX 24 24
REMARK H PARENT
REMARK Flexibility Score: inf
ROOT
ATOM      1  C   UNL     1      38.723  65.115   6.673  1.00  0.00     0.000 C 
ENDROOT
BRANCH   1   2
ATOM      2  C   UNL     1      39.029  65.063   8.182  1.00  0.00     0.000 C 
BRANCH   2   3
ATOM      3  C   UNL     1      39.285  63.634   8.689  1.00  0.00     0.000 C 
BRANCH   3   4
ATOM      4  C   UNL     1      40.784  63.293   8.792  1.00  0.00    -0.000 C 
BRANCH   4   5
ATOM      5  C   UNL     1      41.196  61.927   8.212  1.00  0.00    -0.000 C 
BRANCH   5   6
ATOM      6  C   UNL     1      40.122  60.842   8.405  1.00  0.00    -0.000 C 
BRANCH   6   7
ATOM      7  C   UNL     1      40.679  59.413   8.282  1.00  0.00    -0.000 C 
BRANCH   7   8
ATOM      8  C   UNL     1      39.620  58.299   8.172  1.00  0.00    -0.000 C 
BRANCH   8   9
ATOM      9  C   UNL     1      38.297  58.783   7.562  1.00  0.00    -0.000 C 
BRANCH   9  10
ATOM     10  C   UNL     1      38.278  58.557   6.041  1.00  0.00    -0.000 C 
BRANCH  10  11
ATOM     11  C   UNL     1      38.580  59.839   5.251  1.00  0.00    -0.003 C 
ATOM     12  C   UNL     1      39.965  59.821   4.603  1.00  0.00     0.004 C 
ENDBRANCH  10  11
ENDBRANCH   9  10
ENDBRANCH   8   9
ENDBRANCH   7   8
ENDBRANCH   6   7
ENDBRANCH   5   6
ENDBRANCH   4   5
ENDBRANCH   3   4
ENDBRANCH   2   3
ENDBRANCH   1   2
BRANCH   1  13
ATOM     13  C   UNL     1      39.926  65.451   5.766  1.00  0.00     0.000 C 
BRANCH  13  14
ATOM     14  C   UNL     1      40.726  64.234   5.266  1.00  0.00     0.000 C 
BRANCH  14  15
ATOM     15  C   UNL     1      42.234  64.367   5.525  1.00  0.00     0.000 C 
BRANCH  15  16
ATOM     16  C   UNL     1      42.533  65.605   6.384  1.00  0.00     0.000 C 
BRANCH  16  17
ATOM     17  C   UNL     1      43.593  66.531   5.759  1.00  0.00     0.000 C 
BRANCH  17  18
ATOM     18  C   UNL     1      44.570  65.846   4.788  1.00  0.00     0.000 C 
BRANCH  18  19
ATOM     19  C   UNL     1      45.288  66.838   3.856  1.00  0.00     0.000 C 
BRANCH  19  20
ATOM     20  C   UNL     1      44.416  68.057   3.516  1.00  0.00     0.006 C 
BRANCH  20  21
ATOM     21  C   UNL     1      45.226  69.207   2.904  1.00  0.00     0.053 C 
BRANCH  21  22
ATOM     22  C   UNL     1      44.334  70.112   2.118  1.00  0.00     0.041 C 
ATOM     23  O   UNL     1      43.572  69.640   1.232  1.00  0.00    -0.550 OA
ATOM     24  O   UNL     1      44.379  71.485   2.329  1.00  0.00    -0.550 OA
ENDBRANCH  21  22
ENDBRANCH  20  21
ENDBRANCH  19  20
ENDBRANCH  18  19
ENDBRANCH  17  18
ENDBRANCH  16  17
ENDBRANCH  15  16
ENDBRANCH  14  15
ENDBRANCH  13  14
ENDBRANCH   1  13
TORSDOF 20
ENDMDL
MODEL 2
REMARK VINA RESULT:    -5.202      1.391      2.137
REMARK INTER + INTRA:         -13.616
REMARK INTER:                 -10.573
REMARK INTRA:                  -3.043
REMARK UNBOUND:                -2.332
REMARK SMILES CCCCCCCCCCCCCCCCCCCCCC(=O)[O-]
REMARK SMILES IDX 12 1 11 2 10 3 9 4 8 5 7 6 6 7 5 8 4 9 3 10 2 11 1 12 13 13
REMARK SMILES IDX 14 14 15 15 16 16 17 17 18 18 19 19 20 20 21 21 22 22 23 23
REMARK SMILES IDX 24 24
REMARK H PARENT
REMARK Flexibility Score: inf
ROOT
ATOM      1  C   UNL     1      40.955  64.225   5.061  1.00  0.00     0.000 C 
ENDROOT
BRANCH   1   2
ATOM      2  C   UNL     1      40.384  64.707   6.408  1.00  0.00     0.000 C 
BRANCH   2   3
ATOM      3  C   UNL     1      41.419  64.662   7.544  1.00  0.00     0.000 C 
BRANCH   3   4
ATOM      4  C   UNL     1      41.006  63.728   8.698  1.00  0.00    -0.000 C 
BRANCH   4   5
ATOM      5  C   UNL     1      39.821  62.791   8.400  1.00  0.00    -0.000 C 
BRANCH   5   6
ATOM      6  C   UNL     1      40.215  61.304   8.395  1.00  0.00    -0.000 C 
BRANCH   6   7
ATOM      7  C   UNL     1      41.711  61.077   8.107  1.00  0.00    -0.000 C 
BRANCH   7   8
ATOM      8  C   UNL     1      42.056  59.736   7.430  1.00  0.00    -0.000 C 
BRANCH   8   9
ATOM      9  C   UNL     1      41.148  58.582   7.880  1.00  0.00    -0.000 C 
BRANCH   9  10
ATOM     10  C   UNL     1      40.429  57.949   6.678  1.00  0.00    -0.000 C 
BRANCH  10  11
ATOM     11  C   UNL     1      40.328  58.905   5.480  1.00  0.00    -0.003 C 
ATOM     12  C   UNL     1      38.938  59.523   5.333  1.00  0.00     0.004 C 
ENDBRANCH  10  11
ENDBRANCH   9  10
ENDBRANCH   8   9
ENDBRANCH   7   8
ENDBRANCH   6   7
ENDBRANCH   5   6
ENDBRANCH   4   5
ENDBRANCH   3   4
ENDBRANCH   2   3
ENDBRANCH   1   2
BRANCH   1  13
ATOM     13  C   UNL     1      40.873  62.704   4.814  1.00  0.00     0.000 C 
BRANCH  13  14
ATOM     14  C   UNL     1      42.205  62.031   4.438  1.00  0.00     0.000 C 
BRANCH  14  15
ATOM     15  C   UNL     1      43.420  62.719   5.079  1.00  0.00     0.000 C 
BRANCH  15  16
ATOM     16  C   UNL     1      44.580  62.825   4.076  1.00  0.00     0.000 C 
BRANCH  16  17
ATOM     17  C   UNL     1      45.213  64.227   4.032  1.00  0.00     0.000 C 
BRANCH  17  18
ATOM     18  C   UNL     1      44.298  65.374   4.500  1.00  0.00     0.000 C 
BRANCH  18  19
ATOM     19  C   UNL     1      45.034  66.719   4.624  1.00  0.00     0.000 C 
BRANCH  19  20
ATOM     20  C   UNL     1      44.929  67.564   3.346  1.00  0.00     0.006 C 
BRANCH  20  21
ATOM     21  C   UNL     1      44.061  68.815   3.537  1.00  0.00     0.053 C 
BRANCH  21  22
ATOM     22  C   UNL     1      43.935  69.564   2.250  1.00  0.00     0.041 C 
ATOM     23  O   UNL     1      43.561  68.970   1.204  1.00  0.00    -0.550 OA
ATOM     24  O   UNL     1      44.278  70.910   2.194  1.00  0.00    -0.550 OA
ENDBRANCH  21  22
ENDBRANCH  20  21
ENDBRANCH  19  20
ENDBRANCH  18  19
ENDBRANCH  17  18
ENDBRANCH  16  17
ENDBRANCH  15  16
ENDBRANCH  14  15
ENDBRANCH  13  14
ENDBRANCH   1  13
TORSDOF 20
ENDMDL
MODEL 3
REMARK VINA RESULT:    -5.197      4.790      8.568
REMARK INTER + INTRA:         -13.605
REMARK INTER:                  -9.817
REMARK INTRA:                  -3.788
REMARK UNBOUND:                -2.332
REMARK SMILES CCCCCCCCCCCCCCCCCCCCCC(=O)[O-]
REMARK SMILES IDX 12 1 11 2 10 3 9 4 8 5 7 6 6 7 5 8 4 9 3 10 2 11 1 12 13 13
REMARK SMILES IDX 14 14 15 15 16 16 17 17 18 18 19 19 20 20 21 21 22 22 23 23
REMARK SMILES IDX 24 24
REMARK H PARENT
REMARK Flexibility Score: inf
ROOT
ATOM      1  C   UNL     1      41.267  62.229   4.609  1.00  0.00     0.000 C 
ENDROOT
BRANCH   1   2
ATOM      2  C   UNL     1      42.540  62.105   5.467  1.00  0.00     0.000 C 
BRANCH   2   3
ATOM      3  C   UNL     1      42.659  60.738   6.161  1.00  0.00     0.000 C 
BRANCH   3   4
ATOM      4  C   UNL     1      42.220  60.774   7.638  1.00  0.00    -0.000 C 
BRANCH   4   5
ATOM      5  C   UNL     1      40.914  60.024   7.960  1.00  0.00    -0.000 C 
BRANCH   5   6
ATOM      6  C   UNL     1      39.722  60.968   8.199  1.00  0.00    -0.000 C 
BRANCH   6   7
ATOM      7  C   UNL     1      40.141  62.439   8.370  1.00  0.00    -0.000 C 
BRANCH   7   8
ATOM      8  C   UNL     1      39.364  63.451   7.506  1.00  0.00    -0.000 C 
BRANCH   8   9
ATOM      9  C   UNL     1      40.178  64.710   7.174  1.00  0.00    -0.000 C 
BRANCH   9  10
ATOM     10  C   UNL     1      41.553  64.672   7.860  1.00  0.00    -0.000 C 
BRANCH  10  11
ATOM     11  C   UNL     1      42.490  65.784   7.366  1.00  0.00    -0.003 C 
ATOM     12  C   UNL     1      42.755  65.708   5.862  1.00  0.00     0.004 C 
ENDBRANCH  10  11
ENDBRANCH   9  10
ENDBRANCH   8   9
ENDBRANCH   7   8
ENDBRANCH   6   7
ENDBRANCH   5   6
ENDBRANCH   4   5
ENDBRANCH   3   4
ENDBRANCH   2   3
ENDBRANCH   1   2
BRANCH   1  13
ATOM     13  C   UNL     1      40.505  60.910   4.361  1.00  0.00     0.000 C 
BRANCH  13  14
ATOM     14  C   UNL     1      40.502  60.424   2.900  1.00  0.00     0.000 C 
BRANCH  14  15
ATOM     15  C   UNL     1      39.085  60.266   2.329  1.00  0.00     0.000 C 
BRANCH  15  16
ATOM     16  C   UNL     1      38.133  59.684   3.386  1.00  0.00     0.000 C 
BRANCH  16  17
ATOM     17  C   UNL     1      38.138  58.144   3.420  1.00  0.00     0.000 C 
BRANCH  17  18
ATOM     18  C   UNL     1      37.848  57.519   4.796  1.00  0.00     0.000 C 
BRANCH  18  19
ATOM     19  C   UNL     1      39.042  57.611   5.762  1.00  0.00     0.000 C 
BRANCH  19  20
ATOM     20  C   UNL     1      40.205  56.698   5.344  1.00  0.00     0.006 C 
BRANCH  20  21
ATOM     21  C   UNL     1      41.554  57.429   5.341  1.00  0.00     0.053 C 
BRANCH  21  22
ATOM     22  C   UNL     1      42.453  56.868   6.396  1.00  0.00     0.041 C 
ATOM     23  O   UNL     1      43.696  56.805   6.202  1.00  0.00    -0.550 OA
ATOM     24  O   UNL     1      41.912  56.371   7.576  1.00  0.00    -0.550 OA
ENDBRANCH  21  22
ENDBRANCH  20  21
ENDBRANCH  19  20
ENDBRANCH  18  19
ENDBRANCH  17  18
ENDBRANCH  16  17
ENDBRANCH  15  16
ENDBRANCH  14  15
ENDBRANCH  13  14
ENDBRANCH   1  13
TORSDOF 20
ENDMDL
MODEL 4
REMARK VINA RESULT:    -5.186      3.670      6.215
REMARK INTER + INTRA:         -13.581
REMARK INTER:                 -10.013
REMARK INTRA:                  -3.568
REMARK UNBOUND:                -2.332
REMARK SMILES CCCCCCCCCCCCCCCCCCCCCC(=O)[O-]
REMARK SMILES IDX 12 1 11 2 10 3 9 4 8 5 7 6 6 7 5 8 4 9 3 10 2 11 1 12 13 13
REMARK SMILES IDX 14 14 15 15 16 16 17 17 18 18 19 19 20 20 21 21 22 22 23 23
REMARK SMILES IDX 24 24
REMARK H PARENT
REMARK Flexibility Score: inf
ROOT
ATOM      1  C   UNL     1      40.093  57.148   3.842  1.00  0.00     0.000 C 
ENDROOT
BRANCH   1   2
ATOM      2  C   UNL     1      40.087  56.385   5.180  1.00  0.00     0.000 C 
BRANCH   2   3
ATOM      3  C   UNL     1      41.434  55.710   5.488  1.00  0.00     0.000 C 
BRANCH   3   4
ATOM      4  C   UNL     1      42.000  56.099   6.867  1.00  0.00    -0.000 C 
BRANCH   4   5
ATOM      5  C   UNL     1      42.767  57.433   6.918  1.00  0.00    -0.000 C 
BRANCH   5   6
ATOM      6  C   UNL     1      42.153  58.444   7.902  1.00  0.00    -0.000 C 
BRANCH   6   7
ATOM      7  C   UNL     1      42.429  59.908   7.514  1.00  0.00    -0.000 C 
BRANCH   7   8
ATOM      8  C   UNL     1      41.457  60.943   8.113  1.00  0.00    -0.000 C 
BRANCH   8   9
ATOM      9  C   UNL     1      40.020  60.418   8.240  1.00  0.00    -0.000 C 
BRANCH   9  10
ATOM     10  C   UNL     1      39.275  60.526   6.900  1.00  0.00    -0.000 C 
BRANCH  10  11
ATOM     11  C   UNL     1      38.276  59.379   6.686  1.00  0.00    -0.003 C 
ATOM     12  C   UNL     1      38.376  58.300   7.764  1.00  0.00     0.004 C 
ENDBRANCH  10  11
ENDBRANCH   9  10
ENDBRANCH   8   9
ENDBRANCH   7   8
ENDBRANCH   6   7
ENDBRANCH   5   6
ENDBRANCH   4   5
ENDBRANCH   3   4
ENDBRANCH   2   3
ENDBRANCH   1   2
BRANCH   1  13
ATOM     13  C   UNL     1      40.756  58.541   3.878  1.00  0.00     0.000 C 
BRANCH  13  14
ATOM     14  C   UNL     1      40.415  59.457   2.688  1.00  0.00     0.000 C 
BRANCH  14  15
ATOM     15  C   UNL     1      40.324  60.938   3.085  1.00  0.00     0.000 C 
BRANCH  15  16
ATOM     16  C   UNL     1      41.452  61.313   4.058  1.00  0.00     0.000 C 
BRANCH  16  17
ATOM     17  C   UNL     1      41.302  62.732   4.637  1.00  0.00     0.000 C 
BRANCH  17  18
ATOM     18  C   UNL     1      42.481  63.213   5.503  1.00  0.00     0.000 C 
BRANCH  18  19
ATOM     19  C   UNL     1      42.602  64.746   5.555  1.00  0.00     0.000 C 
BRANCH  19  20
ATOM     20  C   UNL     1      41.545  65.386   6.468  1.00  0.00     0.006 C 
BRANCH  20  21
ATOM     21  C   UNL     1      41.278  64.557   7.731  1.00  0.00     0.053 C 
BRANCH  21  22
ATOM     22  C   UNL     1      39.810  64.356   7.922  1.00  0.00     0.041 C 
ATOM     23  O   UNL     1      39.000  64.682   7.013  1.00  0.00    -0.550 OA
ATOM     24  O   UNL     1      39.329  63.851   9.125  1.00  0.00    -0.550 OA
ENDBRANCH  21  22
ENDBRANCH  20  21
ENDBRANCH  19  20
ENDBRANCH  18  19
ENDBRANCH  17  18
ENDBRANCH  16  17
ENDBRANCH  15  16
ENDBRANCH  14  15
ENDBRANCH  13  14
ENDBRANCH   1  13
TORSDOF 20
ENDMDL
MODEL 5
REMARK VINA RESULT:    -5.176      1.293      3.643
REMARK INTER + INTRA:         -13.561
REMARK INTER:                 -10.987
REMARK INTRA:                  -2.573
REMARK UNBOUND:                -2.332
REMARK SMILES CCCCCCCCCCCCCCCCCCCCCC(=O)[O-]
REMARK SMILES IDX 12 1 11 2 10 3 9 4 8 5 7 6 6 7 5 8 4 9 3 10 2 11 1 12 13 13
REMARK SMILES IDX 14 14 15 15 16 16 17 17 18 18 19 19 20 20 21 21 22 22 23 23
REMARK SMILES IDX 24 24
REMARK H PARENT
REMARK Flexibility Score: inf
ROOT
ATOM      1  C   UNL     1      41.172  62.137   3.816  1.00  0.00     0.000 C 
ENDROOT
BRANCH   1   2
ATOM      2  C   UNL     1      40.936  60.721   4.375  1.00  0.00     0.000 C 
BRANCH   2   3
ATOM      3  C   UNL     1      42.179  60.140   5.070  1.00  0.00     0.000 C 
BRANCH   3   4
ATOM      4  C   UNL     1      41.846  58.977   6.024  1.00  0.00    -0.000 C 
BRANCH   4   5
ATOM      5  C   UNL     1      41.867  59.323   7.524  1.00  0.00    -0.000 C 
BRANCH   5   6
ATOM      6  C   UNL     1      40.461  59.540   8.112  1.00  0.00    -0.000 C 
BRANCH   6   7
ATOM      7  C   UNL     1      40.051  61.023   8.164  1.00  0.00    -0.000 C 
BRANCH   7   8
ATOM      8  C   UNL     1      41.204  62.019   8.394  1.00  0.00    -0.000 C 
BRANCH   8   9
ATOM      9  C   UNL     1      40.721  63.458   8.624  1.00  0.00    -0.000 C 
BRANCH   9  10
ATOM     10  C   UNL     1      39.340  63.682   7.985  1.00  0.00    -0.000 C 
BRANCH  10  11
ATOM     11  C   UNL     1      38.921  65.159   7.991  1.00  0.00    -0.003 C 
ATOM     12  C   UNL     1      38.118  65.551   6.751  1.00  0.00     0.004 C 
ENDBRANCH  10  11
ENDBRANCH   9  10
ENDBRANCH   8   9
ENDBRANCH   7   8
ENDBRANCH   6   7
ENDBRANCH   5   6
ENDBRANCH   4   5
ENDBRANCH   3   4
ENDBRANCH   2   3
ENDBRANCH   1   2
BRANCH   1  13
ATOM     13  C   UNL     1      41.080  63.279   4.850  1.00  0.00     0.000 C 
BRANCH  13  14
ATOM     14  C   UNL     1      42.428  63.908   5.249  1.00  0.00     0.000 C 
BRANCH  14  15
ATOM     15  C   UNL     1      42.264  65.240   5.995  1.00  0.00     0.000 C 
BRANCH  15  16
ATOM     16  C   UNL     1      43.400  66.210   5.635  1.00  0.00     0.000 C 
BRANCH  16  17
ATOM     17  C   UNL     1      44.408  65.615   4.635  1.00  0.00     0.000 C 
BRANCH  17  18
ATOM     18  C   UNL     1      45.585  66.536   4.264  1.00  0.00     0.000 C 
BRANCH  18  19
ATOM     19  C   UNL     1      45.497  67.921   4.928  1.00  0.00     0.000 C 
BRANCH  19  20
ATOM     20  C   UNL     1      45.590  69.065   3.907  1.00  0.00     0.006 C 
BRANCH  20  21
ATOM     21  C   UNL     1      44.898  68.728   2.581  1.00  0.00     0.053 C 
BRANCH  21  22
ATOM     22  C   UNL     1      43.861  69.755   2.258  1.00  0.00     0.041 C 
ATOM     23  O   UNL     1      44.162  70.768   1.572  1.00  0.00    -0.550 OA
ATOM     24  O   UNL     1      42.570  69.618   2.755  1.00  0.00    -0.550 OA
ENDBRANCH  21  22
ENDBRANCH  20  21
ENDBRANCH  19  20
ENDBRANCH  18  19
ENDBRANCH  17  18
ENDBRANCH  16  17
ENDBRANCH  15  16
ENDBRANCH  14  15
ENDBRANCH  13  14
ENDBRANCH   1  13
TORSDOF 20
ENDMDL
MODEL 6
REMARK VINA RESULT:    -5.172      5.234      6.788
REMARK INTER + INTRA:         -13.551
REMARK INTER:                  -9.653
REMARK INTRA:                  -3.898
REMARK UNBOUND:                -2.332
REMARK SMILES CCCCCCCCCCCCCCCCCCCCCC(=O)[O-]
REMARK SMILES IDX 12 1 11 2 10 3 9 4 8 5 7 6 6 7 5 8 4 9 3 10 2 11 1 12 13 13
REMARK SMILES IDX 14 14 15 15 16 16 17 17 18 18 19 19 20 20 21 21 22 22 23 23
REMARK SMILES IDX 24 24
REMARK H PARENT
REMARK Flexibility Score: inf
ROOT
ATOM      1  C   UNL     1      38.838  64.943   6.686  1.00  0.00     0.000 C 
ENDROOT
BRANCH   1   2
ATOM      2  C   UNL     1      39.137  65.058   8.192  1.00  0.00     0.000 C 
BRANCH   2   3
ATOM      3  C   UNL     1      39.346  63.691   8.864  1.00  0.00     0.000 C 
BRANCH   3   4
ATOM      4  C   UNL     1      40.795  63.178   8.746  1.00  0.00    -0.000 C 
BRANCH   4   5
ATOM      5  C   UNL     1      40.944  61.693   8.368  1.00  0.00    -0.000 C 
BRANCH   5   6
ATOM      6  C   UNL     1      39.949  61.245   7.283  1.00  0.00    -0.000 C 
BRANCH   6   7
ATOM      7  C   UNL     1      39.222  59.934   7.636  1.00  0.00    -0.000 C 
BRANCH   7   8
ATOM      8  C   UNL     1      38.169  59.468   6.612  1.00  0.00    -0.000 C 
BRANCH   8   9
ATOM      9  C   UNL     1      38.545  59.810   5.163  1.00  0.00    -0.000 C 
BRANCH   9  10
ATOM     10  C   UNL     1      38.647  58.537   4.307  1.00  0.00    -0.000 C 
BRANCH  10  11
ATOM     11  C   UNL     1      39.068  58.831   2.860  1.00  0.00    -0.003 C 
ATOM     12  C   UNL     1      38.680  60.239   2.407  1.00  0.00     0.004 C 
ENDBRANCH  10  11
ENDBRANCH   9  10
ENDBRANCH   8   9
ENDBRANCH   7   8
ENDBRANCH   6   7
ENDBRANCH   5   6
ENDBRANCH   4   5
ENDBRANCH   3   4
ENDBRANCH   2   3
ENDBRANCH   1   2
BRANCH   1  13
ATOM     13  C   UNL     1      40.003  65.330   5.750  1.00  0.00     0.000 C 
BRANCH  13  14
ATOM     14  C   UNL     1      40.732  64.145   5.091  1.00  0.00     0.000 C 
BRANCH  14  15
ATOM     15  C   UNL     1      42.202  64.039   5.521  1.00  0.00     0.000 C 
BRANCH  15  16
ATOM     16  C   UNL     1      42.864  62.798   4.902  1.00  0.00     0.000 C 
BRANCH  16  17
ATOM     17  C   UNL     1      41.847  61.793   4.330  1.00  0.00     0.000 C 
BRANCH  17  18
ATOM     18  C   UNL     1      42.234  60.311   4.483  1.00  0.00     0.000 C 
BRANCH  18  19
ATOM     19  C   UNL     1      43.051  60.030   5.756  1.00  0.00     0.000 C 
BRANCH  19  20
ATOM     20  C   UNL     1      42.613  58.736   6.458  1.00  0.00     0.006 C 
BRANCH  20  21
ATOM     21  C   UNL     1      41.745  57.844   5.561  1.00  0.00     0.053 C 
BRANCH  21  22
ATOM     22  C   UNL     1      41.500  56.524   6.220  1.00  0.00     0.041 C 
ATOM     23  O   UNL     1      40.959  55.585   5.577  1.00  0.00    -0.550 OA
ATOM     24  O   UNL     1      41.825  56.346   7.559  1.00  0.00    -0.550 OA
ENDBRANCH  21  22
ENDBRANCH  20  21
ENDBRANCH  19  20
ENDBRANCH  18  19
ENDBRANCH  17  18
ENDBRANCH  16  17
ENDBRANCH  15  16
ENDBRANCH  14  15
ENDBRANCH  13  14
ENDBRANCH   1  13
TORSDOF 20
ENDMDL
MODEL 7
REMARK VINA RESULT:    -5.138      3.833      5.949
REMARK INTER + INTRA:         -13.478
REMARK INTER:                  -9.798
REMARK INTRA:                  -3.680
REMARK UNBOUND:                -2.332
REMARK SMILES CCCCCCCCCCCCCCCCCCCCCC(=O)[O-]
REMARK SMILES IDX 12 1 11 2 10 3 9 4 8 5 7 6 6 7 5 8 4 9 3 10 2 11 1 12 13 13
REMARK SMILES IDX 14 14 15 15 16 16 17 17 18 18 19 19 20 20 21 21 22 22 23 23
REMARK SMILES IDX 24 24
REMARK H PARENT
REMARK Flexibility Score: inf
ROOT
ATOM      1  C   UNL     1      41.111  59.513   8.119  1.00  0.00     0.000 C 
ENDROOT
BRANCH   1   2
ATOM      2  C   UNL     1      39.845  60.387   8.200  1.00  0.00     0.000 C 
BRANCH   2   3
ATOM      3  C   UNL     1      38.894  60.170   7.011  1.00  0.00     0.000 C 
BRANCH   3   4
ATOM      4  C   UNL     1      38.192  58.799   7.044  1.00  0.00    -0.000 C 
BRANCH   4   5
ATOM      5  C   UNL     1      38.453  57.890   5.829  1.00  0.00    -0.000 C 
BRANCH   5   6
ATOM      6  C   UNL     1      39.032  58.650   4.622  1.00  0.00    -0.000 C 
BRANCH   6   7
ATOM      7  C   UNL     1      40.342  58.037   4.095  1.00  0.00    -0.000 C 
BRANCH   7   8
ATOM      8  C   UNL     1      40.196  56.676   3.388  1.00  0.00    -0.000 C 
BRANCH   8   9
ATOM      9  C   UNL     1      41.089  55.583   3.994  1.00  0.00    -0.000 C 
BRANCH   9  10
ATOM     10  C   UNL     1      42.311  56.199   4.694  1.00  0.00    -0.000 C 
BRANCH  10  11
ATOM     11  C   UNL     1      42.648  55.497   6.018  1.00  0.00    -0.003 C 
ATOM     12  C   UNL     1      41.948  56.134   7.219  1.00  0.00     0.004 C 
ENDBRANCH  10  11
ENDBRANCH   9  10
ENDBRANCH   8   9
ENDBRANCH   7   8
ENDBRANCH   6   7
ENDBRANCH   5   6
ENDBRANCH   4   5
ENDBRANCH   3   4
ENDBRANCH   2   3
ENDBRANCH   1   2
BRANCH   1  13
ATOM     13  C   UNL     1      42.388  60.241   7.649  1.00  0.00     0.000 C 
BRANCH  13  14
ATOM     14  C   UNL     1      42.793  59.969   6.189  1.00  0.00     0.000 C 
BRANCH  14  15
ATOM     15  C   UNL     1      42.842  61.246   5.338  1.00  0.00     0.000 C 
BRANCH  15  16
ATOM     16  C   UNL     1      41.451  61.585   4.780  1.00  0.00     0.000 C 
BRANCH  16  17
ATOM     17  C   UNL     1      40.990  63.011   5.134  1.00  0.00     0.000 C 
BRANCH  17  18
ATOM     18  C   UNL     1      41.831  63.723   6.208  1.00  0.00     0.000 C 
BRANCH  18  19
ATOM     19  C   UNL     1      41.069  63.932   7.528  1.00  0.00     0.000 C 
BRANCH  19  20
ATOM     20  C   UNL     1      39.551  63.758   7.362  1.00  0.00     0.006 C 
BRANCH  20  21
ATOM     21  C   UNL     1      38.763  64.983   7.842  1.00  0.00     0.053 C 
BRANCH  21  22
ATOM     22  C   UNL     1      38.277  65.780   6.675  1.00  0.00     0.041 C 
ATOM     23  O   UNL     1      37.138  66.319   6.705  1.00  0.00    -0.550 OA
ATOM     24  O   UNL     1      39.062  65.889   5.534  1.00  0.00    -0.550 OA
ENDBRANCH  21  22
ENDBRANCH  20  21
ENDBRANCH  19  20
ENDBRANCH  18  19
ENDBRANCH  17  18
ENDBRANCH  16  17
ENDBRANCH  15  16
ENDBRANCH  14  15
ENDBRANCH  13  14
ENDBRANCH   1  13
TORSDOF 20
ENDMDL
MODEL 8
REMARK VINA RESULT:    -5.097      3.857      5.672
REMARK INTER + INTRA:         -13.388
REMARK INTER:                  -9.493
REMARK INTRA:                  -3.895
REMARK UNBOUND:                -2.332
REMARK SMILES CCCCCCCCCCCCCCCCCCCCCC(=O)[O-]
REMARK SMILES IDX 12 1 11 2 10 3 9 4 8 5 7 6 6 7 5 8 4 9 3 10 2 11 1 12 13 13
REMARK SMILES IDX 14 14 15 15 16 16 17 17 18 18 19 19 20 20 21 21 22 22 23 23
REMARK SMILES IDX 24 24
REMARK H PARENT
REMARK Flexibility Score: inf
ROOT
ATOM      1  C   UNL     1      40.364  60.346   8.142  1.00  0.00     0.000 C 
ENDROOT
BRANCH   1   2
ATOM      2  C   UNL     1      41.873  60.380   7.833  1.00  0.00     0.000 C 
BRANCH   2   3
ATOM      3  C   UNL     1      42.453  58.985   7.542  1.00  0.00     0.000 C 
BRANCH   3   4
ATOM      4  C   UNL     1      41.548  57.842   8.042  1.00  0.00    -0.000 C 
BRANCH   4   5
ATOM      5  C   UNL     1      41.884  56.443   7.493  1.00  0.00    -0.000 C 
BRANCH   5   6
ATOM      6  C   UNL     1      42.856  56.480   6.301  1.00  0.00    -0.000 C 
BRANCH   6   7
ATOM      7  C   UNL     1      42.209  56.022   4.981  1.00  0.00    -0.000 C 
BRANCH   7   8
ATOM      8  C   UNL     1      40.778  55.467   5.105  1.00  0.00    -0.000 C 
BRANCH   8   9
ATOM      9  C   UNL     1      39.729  56.343   4.404  1.00  0.00    -0.000 C 
BRANCH   9  10
ATOM     10  C   UNL     1      40.116  57.829   4.478  1.00  0.00    -0.000 C 
BRANCH  10  11
ATOM     11  C   UNL     1      39.054  58.679   5.191  1.00  0.00    -0.003 C 
ATOM     12  C   UNL     1      38.252  57.882   6.220  1.00  0.00     0.004 C 
ENDBRANCH  10  11
ENDBRANCH   9  10
ENDBRANCH   8   9
ENDBRANCH   7   8
ENDBRANCH   6   7
ENDBRANCH   5   6
ENDBRANCH   4   5
ENDBRANCH   3   4
ENDBRANCH   2   3
ENDBRANCH   1   2
BRANCH   1  13
ATOM     13  C   UNL     1      39.585  61.626   7.770  1.00  0.00     0.000 C 
BRANCH  13  14
ATOM     14  C   UNL     1      39.791  62.816   8.726  1.00  0.00     0.000 C 
BRANCH  14  15
ATOM     15  C   UNL     1      39.978  64.147   7.985  1.00  0.00     0.000 C 
BRANCH  15  16
ATOM     16  C   UNL     1      41.464  64.531   7.915  1.00  0.00     0.000 C 
BRANCH  16  17
ATOM     17  C   UNL     1      41.971  64.727   6.475  1.00  0.00     0.000 C 
BRANCH  17  18
ATOM     18  C   UNL     1      42.187  63.430   5.675  1.00  0.00     0.000 C 
BRANCH  18  19
ATOM     19  C   UNL     1      41.079  63.169   4.640  1.00  0.00     0.000 C 
BRANCH  19  20
ATOM     20  C   UNL     1      40.952  61.680   4.281  1.00  0.00     0.006 C 
BRANCH  20  21
ATOM     21  C   UNL     1      42.315  60.990   4.146  1.00  0.00     0.053 C 
BRANCH  21  22
ATOM     22  C   UNL     1      42.780  61.027   2.726  1.00  0.00     0.041 C 
ATOM     23  O   UNL     1      43.830  61.652   2.418  1.00  0.00    -0.550 OA
ATOM     24  O   UNL     1      42.028  60.411   1.733  1.00  0.00    -0.550 OA
ENDBRANCH  21  22
ENDBRANCH  20  21
ENDBRANCH  19  20
ENDBRANCH  18  19
ENDBRANCH  17  18
ENDBRANCH  16  17
ENDBRANCH  15  16
ENDBRANCH  14  15
ENDBRANCH  13  14
ENDBRANCH   1  13
TORSDOF 20
ENDMDL
MODEL 9
REMARK VINA RESULT:    -5.040      3.634      5.029
REMARK INTER + INTRA:         -13.264
REMARK INTER:                  -9.193
REMARK INTRA:                  -4.071
REMARK UNBOUND:                -2.332
REMARK SMILES CCCCCCCCCCCCCCCCCCCCCC(=O)[O-]
REMARK SMILES IDX 12 1 11 2 10 3 9 4 8 5 7 6 6 7 5 8 4 9 3 10 2 11 1 12 13 13
REMARK SMILES IDX 14 14 15 15 16 16 17 17 18 18 19 19 20 20 21 21 22 22 23 23
REMARK SMILES IDX 24 24
REMARK H PARENT
REMARK Flexibility Score: inf
ROOT
ATOM      1  C   UNL     1      39.758  62.441   8.389  1.00  0.00     0.000 C 
ENDROOT
BRANCH   1   2
ATOM      2  C   UNL     1      40.267  61.002   8.180  1.00  0.00     0.000 C 
BRANCH   2   3
ATOM      3  C   UNL     1      41.792  60.930   7.998  1.00  0.00     0.000 C 
BRANCH   3   4
ATOM      4  C   UNL     1      42.323  59.484   7.941  1.00  0.00    -0.000 C 
BRANCH   4   5
ATOM      5  C   UNL     1      41.366  58.404   8.478  1.00  0.00    -0.000 C 
BRANCH   5   6
ATOM      6  C   UNL     1      41.541  57.043   7.782  1.00  0.00    -0.000 C 
BRANCH   6   7
ATOM      7  C   UNL     1      41.794  57.168   6.268  1.00  0.00    -0.000 C 
BRANCH   7   8
ATOM      8  C   UNL     1      40.707  56.554   5.365  1.00  0.00    -0.000 C 
BRANCH   8   9
ATOM      9  C   UNL     1      40.039  57.583   4.441  1.00  0.00    -0.000 C 
BRANCH   9  10
ATOM     10  C   UNL     1      39.756  58.894   5.193  1.00  0.00    -0.000 C 
BRANCH  10  11
ATOM     11  C   UNL     1      38.279  59.041   5.587  1.00  0.00    -0.003 C 
ATOM     12  C   UNL     1      37.975  58.460   6.968  1.00  0.00     0.004 C 
ENDBRANCH  10  11
ENDBRANCH   9  10
ENDBRANCH   8   9
ENDBRANCH   7   8
ENDBRANCH   6   7
ENDBRANCH   5   6
ENDBRANCH   4   5
ENDBRANCH   3   4
ENDBRANCH   2   3
ENDBRANCH   1   2
BRANCH   1  13
ATOM     13  C   UNL     1      40.856  63.507   8.595  1.00  0.00     0.000 C 
BRANCH  13  14
ATOM     14  C   UNL     1      40.741  64.745   7.687  1.00  0.00     0.000 C 
BRANCH  14  15
ATOM     15  C   UNL     1      42.063  65.095   6.989  1.00  0.00     0.000 C 
BRANCH  15  16
ATOM     16  C   UNL     1      42.344  64.122   5.832  1.00  0.00     0.000 C 
BRANCH  16  17
ATOM     17  C   UNL     1      41.077  63.733   5.049  1.00  0.00     0.000 C 
BRANCH  17  18
ATOM     18  C   UNL     1      40.996  62.255   4.627  1.00  0.00     0.000 C 
BRANCH  18  19
ATOM     19  C   UNL     1      42.216  61.794   3.812  1.00  0.00     0.000 C 
BRANCH  19  20
ATOM     20  C   UNL     1      42.949  60.616   4.472  1.00  0.00     0.006 C 
BRANCH  20  21
ATOM     21  C   UNL     1      44.255  61.043   5.154  1.00  0.00     0.053 C 
BRANCH  21  22
ATOM     22  C   UNL     1      45.166  61.704   4.170  1.00  0.00     0.041 C 
ATOM     23  O   UNL     1      45.615  61.056   3.187  1.00  0.00    -0.550 OA
ATOM     24  O   UNL     1      45.558  63.023   4.364  1.00  0.00    -0.550 OA
ENDBRANCH  21  22
ENDBRANCH  20  21
ENDBRANCH  19  20
ENDBRANCH  18  19
ENDBRANCH  17  18
ENDBRANCH  16  17
ENDBRANCH  15  16
ENDBRANCH  14  15
ENDBRANCH  13  14
ENDBRANCH   1  13
TORSDOF 20
ENDMDL
