MODEL 1
REMARK VINA RESULT:    -4.715      0.000      0.000
REMARK INTER + INTRA:         -16.875
REMARK INTER:                 -12.433
REMARK INTRA:                  -4.442
REMARK UNBOUND:                -4.442
REMARK SMILES CCCCCCCCCCCCCCCCCCCCCCCCCCCCCC(=O)[O-]
REMARK SMILES IDX 16 1 17 2 18 3 19 4 20 5 21 6 22 7 23 8 24 9 25 10 26 11
REMARK SMILES IDX 27 12 28 13 29 14 30 15 31 16 32 17 15 18 14 19 13 20 12 21
REMARK SMILES IDX 11 22 10 23 9 24 8 25 7 26 6 27 5 28 4 29 3 30 2 31 1 32
REMARK H PARENT
REMARK Flexibility Score: inf
ROOT
ATOM      1  C   UNL     1      14.022  54.699 156.240  1.00  0.00     0.000 C 
ENDROOT
BRANCH   1   2
ATOM      2  C   UNL     1      15.422  55.340 156.158  1.00  0.00     0.000 C 
BRANCH   2   3
ATOM      3  C   UNL     1      15.907  55.962 157.483  1.00  0.00     0.000 C 
BRANCH   3   4
ATOM      4  C   UNL     1      16.754  57.231 157.270  1.00  0.00     0.000 C 
BRANCH   4   5
ATOM      5  C   UNL     1      18.210  56.924 156.874  1.00  0.00     0.000 C 
BRANCH   5   6
ATOM      6  C   UNL     1      19.096  58.160 156.638  1.00  0.00     0.000 C 
BRANCH   6   7
ATOM      7  C   UNL     1      20.373  58.155 157.496  1.00  0.00     0.000 C 
BRANCH   7   8
ATOM      8  C   UNL     1      20.182  57.398 158.820  1.00  0.00     0.000 C 
BRANCH   8   9
ATOM      9  C   UNL     1      20.644  58.222 160.036  1.00  0.00     0.000 C 
BRANCH   9  10
ATOM     10  C   UNL     1      19.493  58.978 160.723  1.00  0.00     0.000 C 
BRANCH  10  11
ATOM     11  C   UNL     1      18.112  58.310 160.590  1.00  0.00     0.000 C 
BRANCH  11  12
ATOM     12  C   UNL     1      17.730  57.473 161.824  1.00  0.00     0.000 C 
BRANCH  12  13
ATOM     13  C   UNL     1      18.689  57.684 163.006  1.00  0.00     0.006 C 
BRANCH  13  14
ATOM     14  C   UNL     1      18.073  57.265 164.348  1.00  0.00     0.053 C 
BRANCH  14  15
ATOM     15  C   UNL     1      18.514  58.177 165.450  1.00  0.00     0.041 C 
ATOM     16  O   UNL     1      17.669  58.666 166.248  1.00  0.00    -0.550 OA
ATOM     17  O   UNL     1      19.865  58.465 165.615  1.00  0.00    -0.550 OA
ENDBRANCH  14  15
ENDBRANCH  13  14
ENDBRANCH  12  13
ENDBRANCH  11  12
ENDBRANCH  10  11
ENDBRANCH   9  10
ENDBRANCH   8   9
ENDBRANCH   7   8
ENDBRANCH   6   7
ENDBRANCH   5   6
ENDBRANCH   4   5
ENDBRANCH   3   4
ENDBRANCH   2   3
ENDBRANCH   1   2
BRANCH   1  18
ATOM     18  C   UNL     1      13.975  53.314 156.907  1.00  0.00     0.000 C 
BRANCH  18  19
ATOM     19  C   UNL     1      15.013  52.341 156.327  1.00  0.00     0.000 C 
BRANCH  19  20
ATOM     20  C   UNL     1      16.053  51.948 157.388  1.00  0.00     0.000 C 
BRANCH  20  21
ATOM     21  C   UNL     1      15.462  51.885 158.806  1.00  0.00     0.000 C 
BRANCH  21  22
ATOM     22  C   UNL     1      16.367  52.543 159.859  1.00  0.00     0.000 C 
BRANCH  22  23
ATOM     23  C   UNL     1      17.609  53.162 159.203  1.00  0.00     0.000 C 
BRANCH  23  24
ATOM     24  C   UNL     1      18.128  54.403 159.951  1.00  0.00    -0.000 C 
BRANCH  24  25
ATOM     25  C   UNL     1      19.133  54.106 161.083  1.00  0.00    -0.000 C 
BRANCH  25  26
ATOM     26  C   UNL     1      20.571  53.809 160.616  1.00  0.00    -0.000 C 
BRANCH  26  27
ATOM     27  C   UNL     1      21.627  54.849 161.044  1.00  0.00    -0.000 C 
BRANCH  27  28
ATOM     28  C   UNL     1      23.056  54.583 160.534  1.00  0.00    -0.000 C 
BRANCH  28  29
ATOM     29  C   UNL     1      24.133  54.902 161.584  1.00  0.00    -0.000 C 
BRANCH  29  30
ATOM     30  C   UNL     1      24.608  56.365 161.534  1.00  0.00    -0.000 C 
BRANCH  30  31
ATOM     31  C   UNL     1      24.441  57.151 162.848  1.00  0.00    -0.003 C 
ATOM     32  C   UNL     1      22.981  57.327 163.261  1.00  0.00     0.004 C 
ENDBRANCH  30  31
ENDBRANCH  29  30
ENDBRANCH  28  29
ENDBRANCH  27  28
ENDBRANCH  26  27
ENDBRANCH  25  26
ENDBRANCH  24  25
ENDBRANCH  23  24
ENDBRANCH  22  23
ENDBRANCH  21  22
ENDBRANCH  20  21
ENDBRANCH  19  20
ENDBRANCH  18  19
ENDBRANCH   1  18
TORSDOF 28
ENDMDL
MODEL 2
REMARK VINA RESULT:    -4.709      2.687      6.082
REMARK INTER + INTRA:         -16.860
REMARK INTER:                 -11.745
REMARK INTRA:                  -5.115
REMARK UNBOUND:                -4.442
REMARK SMILES CCCCCCCCCCCCCCCCCCCCCCCCCCCCCC(=O)[O-]
REMARK SMILES IDX 16 1 17 2 18 3 19 4 20 5 21 6 22 7 23 8 24 9 25 10 26 11
REMARK SMILES IDX 27 12 28 13 29 14 30 15 31 16 32 17 15 18 14 19 13 20 12 21
REMARK SMILES IDX 11 22 10 23 9 24 8 25 7 26 6 27 5 28 4 29 3 30 2 31 1 32
REMARK H PARENT
REMARK Flexibility Score: inf
ROOT
ATOM      1  C   UNL     1      15.413  54.215 156.873  1.00  0.00     0.000 C 
ENDROOT
BRANCH   1   2
ATOM      2  C   UNL     1      14.101  53.566 157.358  1.00  0.00     0.000 C 
BRANCH   2   3
ATOM      3  C   UNL     1      14.295  52.509 158.464  1.00  0.00     0.000 C 
BRANCH   3   4
ATOM      4  C   UNL     1      15.751  52.015 158.565  1.00  0.00     0.000 C 
BRANCH   4   5
ATOM      5  C   UNL     1      16.392  52.306 159.935  1.00  0.00     0.000 C 
BRANCH   5   6
ATOM      6  C   UNL     1      17.228  53.595 160.003  1.00  0.00     0.000 C 
BRANCH   6   7
ATOM      7  C   UNL     1      18.675  53.399 159.520  1.00  0.00     0.000 C 
BRANCH   7   8
ATOM      8  C   UNL     1      19.609  54.515 160.014  1.00  0.00     0.000 C 
BRANCH   8   9
ATOM      9  C   UNL     1      20.807  53.964 160.810  1.00  0.00     0.000 C 
BRANCH   9  10
ATOM     10  C   UNL     1      22.118  53.970 160.003  1.00  0.00     0.000 C 
BRANCH  10  11
ATOM     11  C   UNL     1      23.345  54.498 160.768  1.00  0.00     0.000 C 
BRANCH  11  12
ATOM     12  C   UNL     1      23.465  56.031 160.724  1.00  0.00     0.000 C 
BRANCH  12  13
ATOM     13  C   UNL     1      24.321  56.595 161.870  1.00  0.00     0.006 C 
BRANCH  13  14
ATOM     14  C   UNL     1      25.621  55.807 162.078  1.00  0.00     0.053 C 
BRANCH  14  15
ATOM     15  C   UNL     1      26.802  56.725 162.137  1.00  0.00     0.041 C 
ATOM     16  O   UNL     1      27.502  56.795 163.183  1.00  0.00    -0.550 OA
ATOM     17  O   UNL     1      27.149  57.483 161.023  1.00  0.00    -0.550 OA
ENDBRANCH  14  15
ENDBRANCH  13  14
ENDBRANCH  12  13
ENDBRANCH  11  12
ENDBRANCH  10  11
ENDBRANCH   9  10
ENDBRANCH   8   9
ENDBRANCH   7   8
ENDBRANCH   6   7
ENDBRANCH   5   6
ENDBRANCH   4   5
ENDBRANCH   3   4
ENDBRANCH   2   3
ENDBRANCH   1   2
BRANCH   1  18
ATOM     18  C   UNL     1      15.545  55.719 157.164  1.00  0.00     0.000 C 
BRANCH  18  19
ATOM     19  C   UNL     1      16.755  56.355 156.461  1.00  0.00     0.000 C 
BRANCH  19  20
ATOM     20  C   UNL     1      18.027  55.524 156.693  1.00  0.00     0.000 C 
BRANCH  20  21
ATOM     21  C   UNL     1      19.276  56.396 156.900  1.00  0.00     0.000 C 
BRANCH  21  22
ATOM     22  C   UNL     1      19.110  57.818 156.340  1.00  0.00     0.000 C 
BRANCH  22  23
ATOM     23  C   UNL     1      19.874  58.837 157.197  1.00  0.00     0.000 C 
BRANCH  23  24
ATOM     24  C   UNL     1      20.918  58.183 158.120  1.00  0.00    -0.000 C 
BRANCH  24  25
ATOM     25  C   UNL     1      21.595  59.144 159.117  1.00  0.00    -0.000 C 
BRANCH  25  26
ATOM     26  C   UNL     1      21.109  59.020 160.575  1.00  0.00    -0.000 C 
BRANCH  26  27
ATOM     27  C   UNL     1      20.297  57.746 160.888  1.00  0.00    -0.000 C 
BRANCH  27  28
ATOM     28  C   UNL     1      19.150  57.930 161.900  1.00  0.00    -0.000 C 
BRANCH  28  29
ATOM     29  C   UNL     1      17.772  57.583 161.309  1.00  0.00    -0.000 C 
BRANCH  29  30
ATOM     30  C   UNL     1      17.641  57.964 159.823  1.00  0.00    -0.000 C 
BRANCH  30  31
ATOM     31  C   UNL     1      16.833  59.245 159.547  1.00  0.00    -0.003 C 
ATOM     32  C   UNL     1      17.695  60.505 159.524  1.00  0.00     0.004 C 
ENDBRANCH  30  31
ENDBRANCH  29  30
ENDBRANCH  28  29
ENDBRANCH  27  28
ENDBRANCH  26  27
ENDBRANCH  25  26
ENDBRANCH  24  25
ENDBRANCH  23  24
ENDBRANCH  22  23
ENDBRANCH  21  22
ENDBRANCH  20  21
ENDBRANCH  19  20
ENDBRANCH  18  19
ENDBRANCH   1  18
TORSDOF 28
ENDMDL
MODEL 3
REMARK VINA RESULT:    -4.666      2.231      5.767
REMARK INTER + INTRA:         -16.747
REMARK INTER:                 -12.382
REMARK INTRA:                  -4.365
REMARK UNBOUND:                -4.442
REMARK SMILES CCCCCCCCCCCCCCCCCCCCCCCCCCCCCC(=O)[O-]
REMARK SMILES IDX 16 1 17 2 18 3 19 4 20 5 21 6 22 7 23 8 24 9 25 10 26 11
REMARK SMILES IDX 27 12 28 13 29 14 30 15 31 16 32 17 15 18 14 19 13 20 12 21
REMARK SMILES IDX 11 22 10 23 9 24 8 25 7 26 6 27 5 28 4 29 3 30 2 31 1 32
REMARK H PARENT
REMARK Flexibility Score: inf
ROOT
ATOM      1  C   UNL     1      15.464  55.014 157.085  1.00  0.00     0.000 C 
ENDROOT
BRANCH   1   2
ATOM      2  C   UNL     1      15.419  53.814 156.117  1.00  0.00     0.000 C 
BRANCH   2   3
ATOM      3  C   UNL     1      14.935  52.502 156.767  1.00  0.00     0.000 C 
BRANCH   3   4
ATOM      4  C   UNL     1      14.242  52.731 158.124  1.00  0.00     0.000 C 
BRANCH   4   5
ATOM      5  C   UNL     1      14.877  51.920 159.269  1.00  0.00     0.000 C 
BRANCH   5   6
ATOM      6  C   UNL     1      16.402  51.736 159.171  1.00  0.00     0.000 C 
BRANCH   6   7
ATOM      7  C   UNL     1      17.189  52.858 159.869  1.00  0.00     0.000 C 
BRANCH   7   8
ATOM      8  C   UNL     1      18.400  53.319 159.043  1.00  0.00     0.000 C 
BRANCH   8   9
ATOM      9  C   UNL     1      19.420  54.104 159.889  1.00  0.00     0.000 C 
BRANCH   9  10
ATOM     10  C   UNL     1      20.817  53.459 159.896  1.00  0.00     0.000 C 
BRANCH  10  11
ATOM     11  C   UNL     1      21.940  54.356 160.450  1.00  0.00     0.000 C 
BRANCH  11  12
ATOM     12  C   UNL     1      21.481  55.228 161.633  1.00  0.00     0.000 C 
BRANCH  12  13
ATOM     13  C   UNL     1      22.654  55.753 162.475  1.00  0.00     0.006 C 
BRANCH  13  14
ATOM     14  C   UNL     1      23.674  56.540 161.640  1.00  0.00     0.053 C 
BRANCH  14  15
ATOM     15  C   UNL     1      25.072  56.259 162.096  1.00  0.00     0.041 C 
ATOM     16  O   UNL     1      25.583  55.121 161.916  1.00  0.00    -0.550 OA
ATOM     17  O   UNL     1      25.823  57.266 162.694  1.00  0.00    -0.550 OA
ENDBRANCH  14  15
ENDBRANCH  13  14
ENDBRANCH  12  13
ENDBRANCH  11  12
ENDBRANCH  10  11
ENDBRANCH   9  10
ENDBRANCH   8   9
ENDBRANCH   7   8
ENDBRANCH   6   7
ENDBRANCH   5   6
ENDBRANCH   4   5
ENDBRANCH   3   4
ENDBRANCH   2   3
ENDBRANCH   1   2
BRANCH   1  18
ATOM     18  C   UNL     1      15.672  56.384 156.418  1.00  0.00     0.000 C 
BRANCH  18  19
ATOM     19  C   UNL     1      16.291  57.420 157.370  1.00  0.00     0.000 C 
BRANCH  19  20
ATOM     20  C   UNL     1      17.360  56.775 158.267  1.00  0.00     0.000 C 
BRANCH  20  21
ATOM     21  C   UNL     1      18.754  56.766 157.618  1.00  0.00     0.000 C 
BRANCH  21  22
ATOM     22  C   UNL     1      19.124  58.117 156.984  1.00  0.00     0.000 C 
BRANCH  22  23
ATOM     23  C   UNL     1      19.934  58.978 157.964  1.00  0.00     0.000 C 
BRANCH  23  24
ATOM     24  C   UNL     1      20.785  58.141 158.936  1.00  0.00    -0.000 C 
BRANCH  24  25
ATOM     25  C   UNL     1      20.627  58.516 160.423  1.00  0.00    -0.000 C 
BRANCH  25  26
ATOM     26  C   UNL     1      19.291  59.194 160.786  1.00  0.00    -0.000 C 
BRANCH  26  27
ATOM     27  C   UNL     1      18.257  58.278 161.472  1.00  0.00    -0.000 C 
BRANCH  27  28
ATOM     28  C   UNL     1      18.846  57.220 162.425  1.00  0.00    -0.000 C 
BRANCH  28  29
ATOM     29  C   UNL     1      19.593  57.842 163.618  1.00  0.00    -0.000 C 
BRANCH  29  30
ATOM     30  C   UNL     1      18.649  58.322 164.735  1.00  0.00    -0.000 C 
BRANCH  30  31
ATOM     31  C   UNL     1      17.792  57.219 165.384  1.00  0.00    -0.003 C 
ATOM     32  C   UNL     1      16.412  57.710 165.817  1.00  0.00     0.004 C 
ENDBRANCH  30  31
ENDBRANCH  29  30
ENDBRANCH  28  29
ENDBRANCH  27  28
ENDBRANCH  26  27
ENDBRANCH  25  26
ENDBRANCH  24  25
ENDBRANCH  23  24
ENDBRANCH  22  23
ENDBRANCH  21  22
ENDBRANCH  20  21
ENDBRANCH  19  20
ENDBRANCH  18  19
ENDBRANCH   1  18
TORSDOF 28
ENDMDL
MODEL 4
REMARK VINA RESULT:    -4.666      2.042      4.884
REMARK INTER + INTRA:         -16.746
REMARK INTER:                 -11.166
REMARK INTRA:                  -5.580
REMARK UNBOUND:                -4.442
REMARK SMILES CCCCCCCCCCCCCCCCCCCCCCCCCCCCCC(=O)[O-]
REMARK SMILES IDX 16 1 17 2 18 3 19 4 20 5 21 6 22 7 23 8 24 9 25 10 26 11
REMARK SMILES IDX 27 12 28 13 29 14 30 15 31 16 32 17 15 18 14 19 13 20 12 21
REMARK SMILES IDX 11 22 10 23 9 24 8 25 7 26 6 27 5 28 4 29 3 30 2 31 1 32
REMARK H PARENT
REMARK Flexibility Score: inf
ROOT
ATOM      1  C   UNL     1      15.839  51.917 159.042  1.00  0.00     0.000 C 
ENDROOT
BRANCH   1   2
ATOM      2  C   UNL     1      16.555  52.472 160.289  1.00  0.00     0.000 C 
BRANCH   2   3
ATOM      3  C   UNL     1      17.626  53.537 159.977  1.00  0.00     0.000 C 
BRANCH   3   4
ATOM      4  C   UNL     1      18.203  53.400 158.555  1.00  0.00     0.000 C 
BRANCH   4   5
ATOM      5  C   UNL     1      19.711  53.704 158.484  1.00  0.00     0.000 C 
BRANCH   5   6
ATOM      6  C   UNL     1      20.438  53.719 159.840  1.00  0.00     0.000 C 
BRANCH   6   7
ATOM      7  C   UNL     1      21.963  53.565 159.706  1.00  0.00     0.000 C 
BRANCH   7   8
ATOM      8  C   UNL     1      22.726  54.440 160.713  1.00  0.00     0.000 C 
BRANCH   8   9
ATOM      9  C   UNL     1      21.785  55.337 161.539  1.00  0.00     0.000 C 
BRANCH   9  10
ATOM     10  C   UNL     1      22.476  56.606 162.068  1.00  0.00     0.000 C 
BRANCH  10  11
ATOM     11  C   UNL     1      23.808  56.953 161.377  1.00  0.00     0.000 C 
BRANCH  11  12
ATOM     12  C   UNL     1      23.786  58.331 160.692  1.00  0.00     0.000 C 
BRANCH  12  13
ATOM     13  C   UNL     1      22.455  59.072 160.888  1.00  0.00     0.006 C 
BRANCH  13  14
ATOM     14  C   UNL     1      22.107  59.983 159.702  1.00  0.00     0.053 C 
BRANCH  14  15
ATOM     15  C   UNL     1      21.083  61.004 160.092  1.00  0.00     0.041 C 
ATOM     16  O   UNL     1      21.219  61.667 161.154  1.00  0.00    -0.550 OA
ATOM     17  O   UNL     1      19.991  61.244 159.264  1.00  0.00    -0.550 OA
ENDBRANCH  14  15
ENDBRANCH  13  14
ENDBRANCH  12  13
ENDBRANCH  11  12
ENDBRANCH  10  11
ENDBRANCH   9  10
ENDBRANCH   8   9
ENDBRANCH   7   8
ENDBRANCH   6   7
ENDBRANCH   5   6
ENDBRANCH   4   5
ENDBRANCH   3   4
ENDBRANCH   2   3
ENDBRANCH   1   2
BRANCH   1  18
ATOM     18  C   UNL     1      14.347  52.275 158.932  1.00  0.00     0.000 C 
BRANCH  18  19
ATOM     19  C   UNL     1      14.011  53.025 157.634  1.00  0.00     0.000 C 
BRANCH  19  20
ATOM     20  C   UNL     1      15.115  52.831 156.582  1.00  0.00     0.000 C 
BRANCH  20  21
ATOM     21  C   UNL     1      15.654  54.162 156.033  1.00  0.00     0.000 C 
BRANCH  21  22
ATOM     22  C   UNL     1      15.140  55.381 156.816  1.00  0.00     0.000 C 
BRANCH  22  23
ATOM     23  C   UNL     1      16.291  56.090 157.544  1.00  0.00     0.000 C 
BRANCH  23  24
ATOM     24  C   UNL     1      16.490  57.544 157.080  1.00  0.00    -0.000 C 
BRANCH  24  25
ATOM     25  C   UNL     1      17.885  58.132 157.369  1.00  0.00    -0.000 C 
BRANCH  25  26
ATOM     26  C   UNL     1      19.008  57.090 157.543  1.00  0.00    -0.000 C 
BRANCH  26  27
ATOM     27  C   UNL     1      19.813  57.208 158.853  1.00  0.00    -0.000 C 
BRANCH  27  28
ATOM     28  C   UNL     1      19.056  57.842 160.035  1.00  0.00    -0.000 C 
BRANCH  28  29
ATOM     29  C   UNL     1      18.571  56.802 161.060  1.00  0.00    -0.000 C 
BRANCH  29  30
ATOM     30  C   UNL     1      18.496  57.359 162.493  1.00  0.00    -0.000 C 
BRANCH  30  31
ATOM     31  C   UNL     1      19.412  58.564 162.775  1.00  0.00    -0.003 C 
ATOM     32  C   UNL     1      20.043  58.526 164.165  1.00  0.00     0.004 C 
ENDBRANCH  30  31
ENDBRANCH  29  30
ENDBRANCH  28  29
ENDBRANCH  27  28
ENDBRANCH  26  27
ENDBRANCH  25  26
ENDBRANCH  24  25
ENDBRANCH  23  24
ENDBRANCH  22  23
ENDBRANCH  21  22
ENDBRANCH  20  21
ENDBRANCH  19  20
ENDBRANCH  18  19
ENDBRANCH   1  18
TORSDOF 28
ENDMDL
MODEL 5
REMARK VINA RESULT:    -4.657      1.338      4.516
REMARK INTER + INTRA:         -16.723
REMARK INTER:                 -12.244
REMARK INTRA:                  -4.479
REMARK UNBOUND:                -4.442
REMARK SMILES CCCCCCCCCCCCCCCCCCCCCCCCCCCCCC(=O)[O-]
REMARK SMILES IDX 16 1 17 2 18 3 19 4 20 5 21 6 22 7 23 8 24 9 25 10 26 11
REMARK SMILES IDX 27 12 28 13 29 14 30 15 31 16 32 17 15 18 14 19 13 20 12 21
REMARK SMILES IDX 11 22 10 23 9 24 8 25 7 26 6 27 5 28 4 29 3 30 2 31 1 32
REMARK H PARENT
REMARK Flexibility Score: inf
ROOT
ATOM      1  C   UNL     1      16.423  51.933 158.804  1.00  0.00     0.000 C 
ENDROOT
BRANCH   1   2
ATOM      2  C   UNL     1      17.421  52.988 159.323  1.00  0.00     0.000 C 
BRANCH   2   3
ATOM      3  C   UNL     1      18.514  53.372 158.305  1.00  0.00     0.000 C 
BRANCH   3   4
ATOM      4  C   UNL     1      19.677  54.152 158.948  1.00  0.00     0.000 C 
BRANCH   4   5
ATOM      5  C   UNL     1      20.024  53.657 160.364  1.00  0.00     0.000 C 
BRANCH   5   6
ATOM      6  C   UNL     1      20.638  54.719 161.294  1.00  0.00     0.000 C 
BRANCH   6   7
ATOM      7  C   UNL     1      22.054  55.143 160.869  1.00  0.00     0.000 C 
BRANCH   7   8
ATOM      8  C   UNL     1      22.827  55.815 162.015  1.00  0.00     0.000 C 
BRANCH   8   9
ATOM      9  C   UNL     1      21.967  56.839 162.779  1.00  0.00     0.000 C 
BRANCH   9  10
ATOM     10  C   UNL     1      22.431  58.291 162.566  1.00  0.00     0.000 C 
BRANCH  10  11
ATOM     11  C   UNL     1      21.316  59.348 162.671  1.00  0.00     0.000 C 
BRANCH  11  12
ATOM     12  C   UNL     1      20.036  58.805 163.330  1.00  0.00     0.000 C 
BRANCH  12  13
ATOM     13  C   UNL     1      19.728  59.480 164.676  1.00  0.00     0.006 C 
BRANCH  13  14
ATOM     14  C   UNL     1      19.280  58.478 165.750  1.00  0.00     0.053 C 
BRANCH  14  15
ATOM     15  C   UNL     1      18.048  58.959 166.452  1.00  0.00     0.041 C 
ATOM     16  O   UNL     1      17.893  60.187 166.693  1.00  0.00    -0.550 OA
ATOM     17  O   UNL     1      17.056  58.054 166.813  1.00  0.00    -0.550 OA
ENDBRANCH  14  15
ENDBRANCH  13  14
ENDBRANCH  12  13
ENDBRANCH  11  12
ENDBRANCH  10  11
ENDBRANCH   9  10
ENDBRANCH   8   9
ENDBRANCH   7   8
ENDBRANCH   6   7
ENDBRANCH   5   6
ENDBRANCH   4   5
ENDBRANCH   3   4
ENDBRANCH   2   3
ENDBRANCH   1   2
BRANCH   1  18
ATOM     18  C   UNL     1      15.072  51.894 159.538  1.00  0.00     0.000 C 
BRANCH  18  19
ATOM     19  C   UNL     1      13.945  52.567 158.741  1.00  0.00     0.000 C 
BRANCH  19  20
ATOM     20  C   UNL     1      14.357  52.784 157.277  1.00  0.00     0.000 C 
BRANCH  20  21
ATOM     21  C   UNL     1      13.663  53.998 156.638  1.00  0.00     0.000 C 
BRANCH  21  22
ATOM     22  C   UNL     1      14.658  55.055 156.131  1.00  0.00     0.000 C 
BRANCH  22  23
ATOM     23  C   UNL     1      15.660  55.435 157.230  1.00  0.00     0.000 C 
BRANCH  23  24
ATOM     24  C   UNL     1      16.014  56.933 157.228  1.00  0.00    -0.000 C 
BRANCH  24  25
ATOM     25  C   UNL     1      16.727  57.429 155.954  1.00  0.00    -0.000 C 
BRANCH  25  26
ATOM     26  C   UNL     1      18.166  57.938 156.168  1.00  0.00    -0.000 C 
BRANCH  26  27
ATOM     27  C   UNL     1      19.002  57.131 157.183  1.00  0.00    -0.000 C 
BRANCH  27  28
ATOM     28  C   UNL     1      20.267  57.840 157.703  1.00  0.00    -0.000 C 
BRANCH  28  29
ATOM     29  C   UNL     1      20.263  58.021 159.231  1.00  0.00    -0.000 C 
BRANCH  29  30
ATOM     30  C   UNL     1      18.868  57.838 159.855  1.00  0.00    -0.000 C 
BRANCH  30  31
ATOM     31  C   UNL     1      18.207  59.130 160.369  1.00  0.00    -0.003 C 
ATOM     32  C   UNL     1      16.989  59.548 159.547  1.00  0.00     0.004 C 
ENDBRANCH  30  31
ENDBRANCH  29  30
ENDBRANCH  28  29
ENDBRANCH  27  28
ENDBRANCH  26  27
ENDBRANCH  25  26
ENDBRANCH  24  25
ENDBRANCH  23  24
ENDBRANCH  22  23
ENDBRANCH  21  22
ENDBRANCH  20  21
ENDBRANCH  19  20
ENDBRANCH  18  19
ENDBRANCH   1  18
TORSDOF 28
ENDMDL
MODEL 6
REMARK VINA RESULT:    -4.646      1.354      5.138
REMARK INTER + INTRA:         -16.694
REMARK INTER:                 -12.083
REMARK INTRA:                  -4.611
REMARK UNBOUND:                -4.442
REMARK SMILES CCCCCCCCCCCCCCCCCCCCCCCCCCCCCC(=O)[O-]
REMARK SMILES IDX 16 1 17 2 18 3 19 4 20 5 21 6 22 7 23 8 24 9 25 10 26 11
REMARK SMILES IDX 27 12 28 13 29 14 30 15 31 16 32 17 15 18 14 19 13 20 12 21
REMARK SMILES IDX 11 22 10 23 9 24 8 25 7 26 6 27 5 28 4 29 3 30 2 31 1 32
REMARK H PARENT
REMARK Flexibility Score: inf
ROOT
ATOM      1  C   UNL     1      18.439  55.239 161.117  1.00  0.00     0.000 C 
ENDROOT
BRANCH   1   2
ATOM      2  C   UNL     1      19.209  54.276 162.042  1.00  0.00     0.000 C 
BRANCH   2   3
ATOM      3  C   UNL     1      20.736  54.493 162.043  1.00  0.00     0.000 C 
BRANCH   3   4
ATOM      4  C   UNL     1      21.386  54.146 160.690  1.00  0.00     0.000 C 
BRANCH   4   5
ATOM      5  C   UNL     1      22.684  54.932 160.426  1.00  0.00     0.000 C 
BRANCH   5   6
ATOM      6  C   UNL     1      23.591  55.128 161.653  1.00  0.00     0.000 C 
BRANCH   6   7
ATOM      7  C   UNL     1      23.865  56.608 161.968  1.00  0.00     0.000 C 
BRANCH   7   8
ATOM      8  C   UNL     1      23.084  57.095 163.199  1.00  0.00     0.000 C 
BRANCH   8   9
ATOM      9  C   UNL     1      21.722  57.708 162.821  1.00  0.00     0.000 C 
BRANCH   9  10
ATOM     10  C   UNL     1      21.378  58.961 163.646  1.00  0.00     0.000 C 
BRANCH  10  11
ATOM     11  C   UNL     1      19.874  59.182 163.890  1.00  0.00     0.000 C 
BRANCH  11  12
ATOM     12  C   UNL     1      19.012  57.994 163.427  1.00  0.00     0.000 C 
BRANCH  12  13
ATOM     13  C   UNL     1      18.114  57.440 164.544  1.00  0.00     0.006 C 
BRANCH  13  14
ATOM     14  C   UNL     1      18.496  57.978 165.930  1.00  0.00     0.053 C 
BRANCH  14  15
ATOM     15  C   UNL     1      17.277  58.346 166.717  1.00  0.00     0.041 C 
ATOM     16  O   UNL     1      16.219  58.693 166.126  1.00  0.00    -0.550 OA
ATOM     17  O   UNL     1      17.299  58.277 168.106  1.00  0.00    -0.550 OA
ENDBRANCH  14  15
ENDBRANCH  13  14
ENDBRANCH  12  13
ENDBRANCH  11  12
ENDBRANCH  10  11
ENDBRANCH   9  10
ENDBRANCH   8   9
ENDBRANCH   7   8
ENDBRANCH   6   7
ENDBRANCH   5   6
ENDBRANCH   4   5
ENDBRANCH   3   4
ENDBRANCH   2   3
ENDBRANCH   1   2
BRANCH   1  18
ATOM     18  C   UNL     1      17.489  54.563 160.114  1.00  0.00     0.000 C 
BRANCH  18  19
ATOM     19  C   UNL     1      18.210  53.564 159.195  1.00  0.00     0.000 C 
BRANCH  19  20
ATOM     20  C   UNL     1      17.267  52.428 158.767  1.00  0.00     0.000 C 
BRANCH  20  21
ATOM     21  C   UNL     1      16.051  52.284 159.696  1.00  0.00     0.000 C 
BRANCH  21  22
ATOM     22  C   UNL     1      14.780  51.848 158.949  1.00  0.00     0.000 C 
BRANCH  22  23
ATOM     23  C   UNL     1      14.188  53.016 158.148  1.00  0.00     0.000 C 
BRANCH  23  24
ATOM     24  C   UNL     1      14.428  52.889 156.633  1.00  0.00    -0.000 C 
BRANCH  24  25
ATOM     25  C   UNL     1      15.258  54.028 156.010  1.00  0.00    -0.000 C 
BRANCH  25  26
ATOM     26  C   UNL     1      15.238  55.354 156.795  1.00  0.00    -0.000 C 
BRANCH  26  27
ATOM     27  C   UNL     1      16.601  56.066 156.914  1.00  0.00    -0.000 C 
BRANCH  27  28
ATOM     28  C   UNL     1      16.609  57.326 157.802  1.00  0.00    -0.000 C 
BRANCH  28  29
ATOM     29  C   UNL     1      17.989  58.003 157.864  1.00  0.00    -0.000 C 
BRANCH  29  30
ATOM     30  C   UNL     1      19.154  56.996 157.871  1.00  0.00    -0.000 C 
BRANCH  30  31
ATOM     31  C   UNL     1      20.258  57.283 158.904  1.00  0.00    -0.003 C 
ATOM     32  C   UNL     1      21.027  58.572 158.619  1.00  0.00     0.004 C 
ENDBRANCH  30  31
ENDBRANCH  29  30
ENDBRANCH  28  29
ENDBRANCH  27  28
ENDBRANCH  26  27
ENDBRANCH  25  26
ENDBRANCH  24  25
ENDBRANCH  23  24
ENDBRANCH  22  23
ENDBRANCH  21  22
ENDBRANCH  20  21
ENDBRANCH  19  20
ENDBRANCH  18  19
ENDBRANCH   1  18
TORSDOF 28
ENDMDL
MODEL 7
REMARK VINA RESULT:    -4.642      1.394      4.875
REMARK INTER + INTRA:         -16.681
REMARK INTER:                 -12.063
REMARK INTRA:                  -4.618
REMARK UNBOUND:                -4.442
REMARK SMILES CCCCCCCCCCCCCCCCCCCCCCCCCCCCCC(=O)[O-]
REMARK SMILES IDX 16 1 17 2 18 3 19 4 20 5 21 6 22 7 23 8 24 9 25 10 26 11
REMARK SMILES IDX 27 12 28 13 29 14 30 15 31 16 32 17 15 18 14 19 13 20 12 21
REMARK SMILES IDX 11 22 10 23 9 24 8 25 7 26 6 27 5 28 4 29 3 30 2 31 1 32
REMARK H PARENT
REMARK Flexibility Score: inf
ROOT
ATOM      1  C   UNL     1      18.201  53.866 160.489  1.00  0.00     0.000 C 
ENDROOT
BRANCH   1   2
ATOM      2  C   UNL     1      19.409  53.757 159.537  1.00  0.00     0.000 C 
BRANCH   2   3
ATOM      3  C   UNL     1      20.758  53.546 160.256  1.00  0.00     0.000 C 
BRANCH   3   4
ATOM      4  C   UNL     1      21.392  54.868 160.729  1.00  0.00     0.000 C 
BRANCH   4   5
ATOM      5  C   UNL     1      22.931  54.857 160.661  1.00  0.00     0.000 C 
BRANCH   5   6
ATOM      6  C   UNL     1      23.644  55.309 161.947  1.00  0.00     0.000 C 
BRANCH   6   7
ATOM      7  C   UNL     1      24.919  56.124 161.671  1.00  0.00     0.000 C 
BRANCH   7   8
ATOM      8  C   UNL     1      24.633  57.629 161.552  1.00  0.00     0.000 C 
BRANCH   8   9
ATOM      9  C   UNL     1      23.406  58.058 162.377  1.00  0.00     0.000 C 
BRANCH   9  10
ATOM     10  C   UNL     1      22.259  58.604 161.508  1.00  0.00     0.000 C 
BRANCH  10  11
ATOM     11  C   UNL     1      20.987  58.993 162.284  1.00  0.00     0.000 C 
BRANCH  11  12
ATOM     12  C   UNL     1      20.433  57.841 163.142  1.00  0.00     0.000 C 
BRANCH  12  13
ATOM     13  C   UNL     1      19.402  58.313 164.178  1.00  0.00     0.006 C 
BRANCH  13  14
ATOM     14  C   UNL     1      18.093  57.513 164.115  1.00  0.00     0.053 C 
BRANCH  14  15
ATOM     15  C   UNL     1      17.568  57.235 165.490  1.00  0.00     0.041 C 
ATOM     16  O   UNL     1      17.620  56.070 165.967  1.00  0.00    -0.550 OA
ATOM     17  O   UNL     1      17.048  58.272 166.257  1.00  0.00    -0.550 OA
ENDBRANCH  14  15
ENDBRANCH  13  14
ENDBRANCH  12  13
ENDBRANCH  11  12
ENDBRANCH  10  11
ENDBRANCH   9  10
ENDBRANCH   8   9
ENDBRANCH   7   8
ENDBRANCH   6   7
ENDBRANCH   5   6
ENDBRANCH   4   5
ENDBRANCH   3   4
ENDBRANCH   2   3
ENDBRANCH   1   2
BRANCH   1  18
ATOM     18  C   UNL     1      16.949  53.089 160.048  1.00  0.00     0.000 C 
BRANCH  18  19
ATOM     19  C   UNL     1      17.198  52.218 158.807  1.00  0.00     0.000 C 
BRANCH  19  20
ATOM     20  C   UNL     1      15.883  51.621 158.280  1.00  0.00     0.000 C 
BRANCH  20  21
ATOM     21  C   UNL     1      14.693  52.583 158.425  1.00  0.00     0.000 C 
BRANCH  21  22
ATOM     22  C   UNL     1      14.245  53.183 157.083  1.00  0.00     0.000 C 
BRANCH  22  23
ATOM     23  C   UNL     1      14.790  54.608 156.911  1.00  0.00     0.000 C 
BRANCH  23  24
ATOM     24  C   UNL     1      16.117  54.653 156.133  1.00  0.00    -0.000 C 
BRANCH  24  25
ATOM     25  C   UNL     1      17.279  55.346 156.873  1.00  0.00    -0.000 C 
BRANCH  25  26
ATOM     26  C   UNL     1      16.860  56.226 158.066  1.00  0.00    -0.000 C 
BRANCH  26  27
ATOM     27  C   UNL     1      17.986  57.089 158.671  1.00  0.00    -0.000 C 
BRANCH  27  28
ATOM     28  C   UNL     1      17.829  57.421 160.168  1.00  0.00    -0.000 C 
BRANCH  28  29
ATOM     29  C   UNL     1      17.922  58.928 160.458  1.00  0.00    -0.000 C 
BRANCH  29  30
ATOM     30  C   UNL     1      18.237  59.764 159.204  1.00  0.00    -0.000 C 
BRANCH  30  31
ATOM     31  C   UNL     1      19.291  60.869 159.404  1.00  0.00    -0.003 C 
ATOM     32  C   UNL     1      20.623  60.557 158.724  1.00  0.00     0.004 C 
ENDBRANCH  30  31
ENDBRANCH  29  30
ENDBRANCH  28  29
ENDBRANCH  27  28
ENDBRANCH  26  27
ENDBRANCH  25  26
ENDBRANCH  24  25
ENDBRANCH  23  24
ENDBRANCH  22  23
ENDBRANCH  21  22
ENDBRANCH  20  21
ENDBRANCH  19  20
ENDBRANCH  18  19
ENDBRANCH   1  18
TORSDOF 28
ENDMDL
MODEL 8
REMARK VINA RESULT:    -4.618      2.360      5.674
REMARK INTER + INTRA:         -16.619
REMARK INTER:                 -11.672
REMARK INTRA:                  -4.948
REMARK UNBOUND:                -4.442
REMARK SMILES CCCCCCCCCCCCCCCCCCCCCCCCCCCCCC(=O)[O-]
REMARK SMILES IDX 16 1 17 2 18 3 19 4 20 5 21 6 22 7 23 8 24 9 25 10 26 11
REMARK SMILES IDX 27 12 28 13 29 14 30 15 31 16 32 17 15 18 14 19 13 20 12 21
REMARK SMILES IDX 11 22 10 23 9 24 8 25 7 26 6 27 5 28 4 29 3 30 2 31 1 32
REMARK H PARENT
REMARK Flexibility Score: inf
ROOT
ATOM      1  C   UNL     1      19.478  54.097 160.356  1.00  0.00     0.000 C 
ENDROOT
BRANCH   1   2
ATOM      2  C   UNL     1      19.253  55.418 161.118  1.00  0.00     0.000 C 
BRANCH   2   3
ATOM      3  C   UNL     1      17.921  56.119 160.780  1.00  0.00     0.000 C 
BRANCH   3   4
ATOM      4  C   UNL     1      17.761  57.472 161.499  1.00  0.00     0.000 C 
BRANCH   4   5
ATOM      5  C   UNL     1      17.774  58.673 160.535  1.00  0.00     0.000 C 
BRANCH   5   6
ATOM      6  C   UNL     1      19.049  58.816 159.687  1.00  0.00     0.000 C 
BRANCH   6   7
ATOM      7  C   UNL     1      19.500  60.277 159.522  1.00  0.00     0.000 C 
BRANCH   7   8
ATOM      8  C   UNL     1      20.960  60.386 159.055  1.00  0.00     0.000 C 
BRANCH   8   9
ATOM      9  C   UNL     1      21.927  60.665 160.221  1.00  0.00     0.000 C 
BRANCH   9  10
ATOM     10  C   UNL     1      21.207  60.822 161.573  1.00  0.00     0.000 C 
BRANCH  10  11
ATOM     11  C   UNL     1      21.719  59.894 162.689  1.00  0.00     0.000 C 
BRANCH  11  12
ATOM     12  C   UNL     1      21.116  58.480 162.616  1.00  0.00     0.000 C 
BRANCH  12  13
ATOM     13  C   UNL     1      22.147  57.413 162.218  1.00  0.00     0.006 C 
BRANCH  13  14
ATOM     14  C   UNL     1      23.136  57.097 163.349  1.00  0.00     0.053 C 
BRANCH  14  15
ATOM     15  C   UNL     1      24.550  57.281 162.893  1.00  0.00     0.041 C 
ATOM     16  O   UNL     1      25.133  56.369 162.246  1.00  0.00    -0.550 OA
ATOM     17  O   UNL     1      25.215  58.473 163.156  1.00  0.00    -0.550 OA
ENDBRANCH  14  15
ENDBRANCH  13  14
ENDBRANCH  12  13
ENDBRANCH  11  12
ENDBRANCH  10  11
ENDBRANCH   9  10
ENDBRANCH   8   9
ENDBRANCH   7   8
ENDBRANCH   6   7
ENDBRANCH   5   6
ENDBRANCH   4   5
ENDBRANCH   3   4
ENDBRANCH   2   3
ENDBRANCH   1   2
BRANCH   1  18
ATOM     18  C   UNL     1      19.525  54.225 158.824  1.00  0.00     0.000 C 
BRANCH  18  19
ATOM     19  C   UNL     1      18.470  53.355 158.124  1.00  0.00     0.000 C 
BRANCH  19  20
ATOM     20  C   UNL     1      17.404  52.870 159.120  1.00  0.00     0.000 C 
BRANCH  20  21
ATOM     21  C   UNL     1      16.407  51.884 158.490  1.00  0.00     0.000 C 
BRANCH  21  22
ATOM     22  C   UNL     1      15.085  51.794 159.269  1.00  0.00     0.000 C 
BRANCH  22  23
ATOM     23  C   UNL     1      13.981  52.600 158.570  1.00  0.00     0.000 C 
BRANCH  23  24
ATOM     24  C   UNL     1      14.246  52.803 157.067  1.00  0.00    -0.000 C 
BRANCH  24  25
ATOM     25  C   UNL     1      13.426  53.931 156.411  1.00  0.00    -0.000 C 
BRANCH  25  26
ATOM     26  C   UNL     1      14.235  55.184 156.023  1.00  0.00    -0.000 C 
BRANCH  26  27
ATOM     27  C   UNL     1      15.715  55.169 156.460  1.00  0.00    -0.000 C 
BRANCH  27  28
ATOM     28  C   UNL     1      16.054  56.072 157.663  1.00  0.00    -0.000 C 
BRANCH  28  29
ATOM     29  C   UNL     1      16.721  57.394 157.246  1.00  0.00    -0.000 C 
BRANCH  29  30
ATOM     30  C   UNL     1      17.683  57.234 156.056  1.00  0.00    -0.000 C 
BRANCH  30  31
ATOM     31  C   UNL     1      19.161  57.024 156.434  1.00  0.00    -0.003 C 
ATOM     32  C   UNL     1      20.044  58.221 156.092  1.00  0.00     0.004 C 
ENDBRANCH  30  31
ENDBRANCH  29  30
ENDBRANCH  28  29
ENDBRANCH  27  28
ENDBRANCH  26  27
ENDBRANCH  25  26
ENDBRANCH  24  25
ENDBRANCH  23  24
ENDBRANCH  22  23
ENDBRANCH  21  22
ENDBRANCH  20  21
ENDBRANCH  19  20
ENDBRANCH  18  19
ENDBRANCH   1  18
TORSDOF 28
ENDMDL
MODEL 9
REMARK VINA RESULT:    -4.583      2.388      6.310
REMARK INTER + INTRA:         -16.528
REMARK INTER:                 -10.807
REMARK INTRA:                  -5.720
REMARK UNBOUND:                -4.442
REMARK SMILES CCCCCCCCCCCCCCCCCCCCCCCCCCCCCC(=O)[O-]
REMARK SMILES IDX 16 1 17 2 18 3 19 4 20 5 21 6 22 7 23 8 24 9 25 10 26 11
REMARK SMILES IDX 27 12 28 13 29 14 30 15 31 16 32 17 15 18 14 19 13 20 12 21
REMARK SMILES IDX 11 22 10 23 9 24 8 25 7 26 6 27 5 28 4 29 3 30 2 31 1 32
REMARK H PARENT
REMARK Flexibility Score: inf
ROOT
ATOM      1  C   UNL     1      20.025  56.312 162.202  1.00  0.00     0.000 C 
ENDROOT
BRANCH   1   2
ATOM      2  C   UNL     1      18.525  56.416 162.544  1.00  0.00     0.000 C 
BRANCH   2   3
ATOM      3  C   UNL     1      17.726  57.328 161.591  1.00  0.00     0.000 C 
BRANCH   3   4
ATOM      4  C   UNL     1      18.112  57.129 160.113  1.00  0.00     0.000 C 
BRANCH   4   5
ATOM      5  C   UNL     1      17.963  58.410 159.273  1.00  0.00     0.000 C 
BRANCH   5   6
ATOM      6  C   UNL     1      19.270  58.947 158.663  1.00  0.00     0.000 C 
BRANCH   6   7
ATOM      7  C   UNL     1      20.506  58.131 159.078  1.00  0.00     0.000 C 
BRANCH   7   8
ATOM      8  C   UNL     1      21.448  58.928 159.995  1.00  0.00     0.000 C 
BRANCH   8   9
ATOM      9  C   UNL     1      20.689  59.939 160.875  1.00  0.00     0.000 C 
BRANCH   9  10
ATOM     10  C   UNL     1      20.765  59.604 162.375  1.00  0.00     0.000 C 
BRANCH  10  11
ATOM     11  C   UNL     1      22.173  59.706 162.990  1.00  0.00     0.000 C 
BRANCH  11  12
ATOM     12  C   UNL     1      22.356  58.802 164.222  1.00  0.00     0.000 C 
BRANCH  12  13
ATOM     13  C   UNL     1      23.548  57.842 164.085  1.00  0.00     0.006 C 
BRANCH  13  14
ATOM     14  C   UNL     1      23.476  56.990 162.810  1.00  0.00     0.053 C 
BRANCH  14  15
ATOM     15  C   UNL     1      24.785  56.999 162.083  1.00  0.00     0.041 C 
ATOM     16  O   UNL     1      25.862  56.813 162.711  1.00  0.00    -0.550 OA
ATOM     17  O   UNL     1      24.812  57.182 160.705  1.00  0.00    -0.550 OA
ENDBRANCH  14  15
ENDBRANCH  13  14
ENDBRANCH  12  13
ENDBRANCH  11  12
ENDBRANCH  10  11
ENDBRANCH   9  10
ENDBRANCH   8   9
ENDBRANCH   7   8
ENDBRANCH   6   7
ENDBRANCH   5   6
ENDBRANCH   4   5
ENDBRANCH   3   4
ENDBRANCH   2   3
ENDBRANCH   1   2
BRANCH   1  18
ATOM     18  C   UNL     1      20.532  54.889 161.912  1.00  0.00     0.000 C 
BRANCH  18  19
ATOM     19  C   UNL     1      21.225  54.774 160.545  1.00  0.00     0.000 C 
BRANCH  19  20
ATOM     20  C   UNL     1      20.363  53.975 159.555  1.00  0.00     0.000 C 
BRANCH  20  21
ATOM     21  C   UNL     1      19.137  53.330 160.221  1.00  0.00     0.000 C 
BRANCH  21  22
ATOM     22  C   UNL     1      17.838  53.567 159.434  1.00  0.00     0.000 C 
BRANCH  22  23
ATOM     23  C   UNL     1      16.636  52.949 160.162  1.00  0.00     0.000 C 
BRANCH  23  24
ATOM     24  C   UNL     1      15.865  51.937 159.297  1.00  0.00    -0.000 C 
BRANCH  24  25
ATOM     25  C   UNL     1      16.369  51.806 157.846  1.00  0.00    -0.000 C 
BRANCH  25  26
ATOM     26  C   UNL     1      15.347  52.204 156.763  1.00  0.00    -0.000 C 
BRANCH  26  27
ATOM     27  C   UNL     1      14.462  53.418 157.112  1.00  0.00    -0.000 C 
BRANCH  27  28
ATOM     28  C   UNL     1      14.325  54.473 155.997  1.00  0.00    -0.000 C 
BRANCH  28  29
ATOM     29  C   UNL     1      14.870  55.851 156.411  1.00  0.00    -0.000 C 
BRANCH  29  30
ATOM     30  C   UNL     1      16.265  55.778 157.056  1.00  0.00    -0.000 C 
BRANCH  30  31
ATOM     31  C   UNL     1      17.426  55.534 156.075  1.00  0.00    -0.003 C 
ATOM     32  C   UNL     1      18.800  55.764 156.702  1.00  0.00     0.004 C 
ENDBRANCH  30  31
ENDBRANCH  29  30
ENDBRANCH  28  29
ENDBRANCH  27  28
ENDBRANCH  26  27
ENDBRANCH  25  26
ENDBRANCH  24  25
ENDBRANCH  23  24
ENDBRANCH  22  23
ENDBRANCH  21  22
ENDBRANCH  20  21
ENDBRANCH  19  20
ENDBRANCH  18  19
ENDBRANCH   1  18
TORSDOF 28
ENDMDL
