MODEL 1
REMARK VINA RESULT:    -3.957      0.000      0.000
REMARK INTER + INTRA:         -14.959
REMARK INTER:                  -9.971
REMARK INTRA:                  -4.988
REMARK UNBOUND:                -4.988
REMARK SMILES CCCCCCCCCCCCCCCCCCCCCCCCCCCC(=O)[O-]
REMARK SMILES IDX 15 1 16 2 17 3 18 4 19 5 20 6 21 7 22 8 23 9 24 10 25 11
REMARK SMILES IDX 26 12 27 13 28 14 29 15 30 16 14 17 13 18 12 19 11 20 10 21
REMARK SMILES IDX 9 22 8 23 7 24 6 25 5 26 4 27 3 28 2 29 1 30
REMARK H PARENT
REMARK Flexibility Score: inf
ROOT
ATOM      1  C   UNL     1     -26.584  28.714 -38.354  1.00  0.00     0.000 C 
ENDROOT
BRANCH   1   2
ATOM      2  C   UNL     1     -27.416  28.212 -39.554  1.00  0.00     0.000 C 
BRANCH   2   3
ATOM      3  C   UNL     1     -28.934  28.379 -39.368  1.00  0.00     0.000 C 
BRANCH   3   4
ATOM      4  C   UNL     1     -29.532  29.457 -40.283  1.00  0.00     0.000 C 
BRANCH   4   5
ATOM      5  C   UNL     1     -28.594  29.764 -41.459  1.00  0.00     0.000 C 
BRANCH   5   6
ATOM      6  C   UNL     1     -28.359  31.274 -41.655  1.00  0.00     0.000 C 
BRANCH   6   7
ATOM      7  C   UNL     1     -29.081  32.186 -40.641  1.00  0.00     0.000 C 
BRANCH   7   8
ATOM      8  C   UNL     1     -28.162  32.892 -39.627  1.00  0.00     0.000 C 
BRANCH   8   9
ATOM      9  C   UNL     1     -28.889  33.270 -38.329  1.00  0.00     0.000 C 
BRANCH   9  10
ATOM     10  C   UNL     1     -28.474  32.345 -37.174  1.00  0.00     0.000 C 
BRANCH  10  11
ATOM     11  C   UNL     1     -29.488  31.201 -36.956  1.00  0.00     0.000 C 
BRANCH  11  12
ATOM     12  C   UNL     1     -28.972  30.095 -36.020  1.00  0.00     0.006 C 
BRANCH  12  13
ATOM     13  C   UNL     1     -30.067  29.106 -35.604  1.00  0.00     0.053 C 
BRANCH  13  14
ATOM     14  C   UNL     1     -30.871  29.662 -34.473  1.00  0.00     0.041 C 
ATOM     15  O   UNL     1     -30.323  30.393 -33.605  1.00  0.00    -0.550 OA
ATOM     16  O   UNL     1     -32.216  29.335 -34.348  1.00  0.00    -0.550 OA
ENDBRANCH  13  14
ENDBRANCH  12  13
ENDBRANCH  11  12
ENDBRANCH  10  11
ENDBRANCH   9  10
ENDBRANCH   8   9
ENDBRANCH   7   8
ENDBRANCH   6   7
ENDBRANCH   5   6
ENDBRANCH   4   5
ENDBRANCH   3   4
ENDBRANCH   2   3
ENDBRANCH   1   2
BRANCH   1  17
ATOM     17  C   UNL     1     -25.931  30.082 -38.625  1.00  0.00     0.000 C 
BRANCH  17  18
ATOM     18  C   UNL     1     -25.003  30.056 -39.852  1.00  0.00     0.000 C 
BRANCH  18  19
ATOM     19  C   UNL     1     -24.953  31.411 -40.578  1.00  0.00     0.000 C 
BRANCH  19  20
ATOM     20  C   UNL     1     -23.667  31.592 -41.403  1.00  0.00     0.000 C 
BRANCH  20  21
ATOM     21  C   UNL     1     -23.110  30.254 -41.920  1.00  0.00     0.000 C 
BRANCH  21  22
ATOM     22  C   UNL     1     -21.589  30.127 -41.731  1.00  0.00    -0.000 C 
BRANCH  22  23
ATOM     23  C   UNL     1     -21.122  30.611 -40.347  1.00  0.00    -0.000 C 
BRANCH  23  24
ATOM     24  C   UNL     1     -19.965  31.619 -40.431  1.00  0.00    -0.000 C 
BRANCH  24  25
ATOM     25  C   UNL     1     -20.397  33.077 -40.164  1.00  0.00    -0.000 C 
BRANCH  25  26
ATOM     26  C   UNL     1     -20.256  33.458 -38.681  1.00  0.00    -0.000 C 
BRANCH  26  27
ATOM     27  C   UNL     1     -21.418  34.327 -38.171  1.00  0.00    -0.000 C 
BRANCH  27  28
ATOM     28  C   UNL     1     -22.810  33.812 -38.597  1.00  0.00    -0.000 C 
BRANCH  28  29
ATOM     29  C   UNL     1     -23.670  33.399 -37.393  1.00  0.00    -0.003 C 
ATOM     30  C   UNL     1     -25.122  33.835 -37.576  1.00  0.00     0.004 C 
ENDBRANCH  28  29
ENDBRANCH  27  28
ENDBRANCH  26  27
ENDBRANCH  25  26
ENDBRANCH  24  25
ENDBRANCH  23  24
ENDBRANCH  22  23
ENDBRANCH  21  22
ENDBRANCH  20  21
ENDBRANCH  19  20
ENDBRANCH  18  19
ENDBRANCH  17  18
ENDBRANCH   1  17
TORSDOF 26
ENDMDL
MODEL 2
REMARK VINA RESULT:    -3.936      2.140      3.865
REMARK INTER + INTRA:         -14.907
REMARK INTER:                  -9.240
REMARK INTRA:                  -5.667
REMARK UNBOUND:                -4.988
REMARK SMILES CCCCCCCCCCCCCCCCCCCCCCCCCCCC(=O)[O-]
REMARK SMILES IDX 15 1 16 2 17 3 18 4 19 5 20 6 21 7 22 8 23 9 24 10 25 11
REMARK SMILES IDX 26 12 27 13 28 14 29 15 30 16 14 17 13 18 12 19 11 20 10 21
REMARK SMILES IDX 9 22 8 23 7 24 6 25 5 26 4 27 3 28 2 29 1 30
REMARK H PARENT
REMARK Flexibility Score: inf
ROOT
ATOM      1  C   UNL     1     -23.106  28.878 -41.738  1.00  0.00     0.000 C 
ENDROOT
BRANCH   1   2
ATOM      2  C   UNL     1     -24.608  28.555 -41.586  1.00  0.00     0.000 C 
BRANCH   2   3
ATOM      3  C   UNL     1     -25.503  29.802 -41.489  1.00  0.00     0.000 C 
BRANCH   3   4
ATOM      4  C   UNL     1     -26.964  29.520 -41.866  1.00  0.00     0.000 C 
BRANCH   4   5
ATOM      5  C   UNL     1     -27.787  30.816 -41.888  1.00  0.00     0.000 C 
BRANCH   5   6
ATOM      6  C   UNL     1     -29.189  30.642 -41.274  1.00  0.00     0.000 C 
BRANCH   6   7
ATOM      7  C   UNL     1     -29.349  31.188 -39.840  1.00  0.00     0.000 C 
BRANCH   7   8
ATOM      8  C   UNL     1     -28.325  32.262 -39.431  1.00  0.00     0.000 C 
BRANCH   8   9
ATOM      9  C   UNL     1     -27.361  31.780 -38.338  1.00  0.00     0.000 C 
BRANCH   9  10
ATOM     10  C   UNL     1     -27.828  30.445 -37.738  1.00  0.00     0.000 C 
BRANCH  10  11
ATOM     11  C   UNL     1     -26.722  29.369 -37.789  1.00  0.00     0.000 C 
BRANCH  11  12
ATOM     12  C   UNL     1     -27.117  28.122 -38.598  1.00  0.00     0.006 C 
BRANCH  12  13
ATOM     13  C   UNL     1     -28.580  27.714 -38.390  1.00  0.00     0.053 C 
BRANCH  13  14
ATOM     14  C   UNL     1     -28.678  26.610 -37.387  1.00  0.00     0.041 C 
ATOM     15  O   UNL     1     -27.664  25.917 -37.107  1.00  0.00    -0.550 OA
ATOM     16  O   UNL     1     -29.900  26.312 -36.797  1.00  0.00    -0.550 OA
ENDBRANCH  13  14
ENDBRANCH  12  13
ENDBRANCH  11  12
ENDBRANCH  10  11
ENDBRANCH   9  10
ENDBRANCH   8   9
ENDBRANCH   7   8
ENDBRANCH   6   7
ENDBRANCH   5   6
ENDBRANCH   4   5
ENDBRANCH   3   4
ENDBRANCH   2   3
ENDBRANCH   1   2
BRANCH   1  17
ATOM     17  C   UNL     1     -22.861  30.338 -42.162  1.00  0.00     0.000 C 
BRANCH  17  18
ATOM     18  C   UNL     1     -21.390  30.757 -41.996  1.00  0.00     0.000 C 
BRANCH  18  19
ATOM     19  C   UNL     1     -20.678  29.969 -40.883  1.00  0.00     0.000 C 
BRANCH  19  20
ATOM     20  C   UNL     1     -19.356  30.623 -40.448  1.00  0.00     0.000 C 
BRANCH  20  21
ATOM     21  C   UNL     1     -19.522  31.500 -39.194  1.00  0.00     0.000 C 
BRANCH  21  22
ATOM     22  C   UNL     1     -19.304  32.996 -39.477  1.00  0.00    -0.000 C 
BRANCH  22  23
ATOM     23  C   UNL     1     -20.624  33.753 -39.706  1.00  0.00    -0.000 C 
BRANCH  23  24
ATOM     24  C   UNL     1     -21.328  34.127 -38.392  1.00  0.00    -0.000 C 
BRANCH  24  25
ATOM     25  C   UNL     1     -22.842  33.820 -38.395  1.00  0.00    -0.000 C 
BRANCH  25  26
ATOM     26  C   UNL     1     -23.193  32.657 -39.338  1.00  0.00    -0.000 C 
BRANCH  26  27
ATOM     27  C   UNL     1     -23.815  31.457 -38.604  1.00  0.00    -0.000 C 
BRANCH  27  28
ATOM     28  C   UNL     1     -22.781  30.567 -37.883  1.00  0.00    -0.000 C 
BRANCH  28  29
ATOM     29  C   UNL     1     -23.062  29.070 -38.081  1.00  0.00    -0.003 C 
ATOM     30  C   UNL     1     -21.826  28.230 -37.772  1.00  0.00     0.004 C 
ENDBRANCH  28  29
ENDBRANCH  27  28
ENDBRANCH  26  27
ENDBRANCH  25  26
ENDBRANCH  24  25
ENDBRANCH  23  24
ENDBRANCH  22  23
ENDBRANCH  21  22
ENDBRANCH  20  21
ENDBRANCH  19  20
ENDBRANCH  18  19
ENDBRANCH  17  18
ENDBRANCH   1  17
TORSDOF 26
ENDMDL
MODEL 3
REMARK VINA RESULT:    -3.930      2.819      5.611
REMARK INTER + INTRA:         -14.891
REMARK INTER:                  -8.704
REMARK INTRA:                  -6.186
REMARK UNBOUND:                -4.988
REMARK SMILES CCCCCCCCCCCCCCCCCCCCCCCCCCCC(=O)[O-]
REMARK SMILES IDX 15 1 16 2 17 3 18 4 19 5 20 6 21 7 22 8 23 9 24 10 25 11
REMARK SMILES IDX 26 12 27 13 28 14 29 15 30 16 14 17 13 18 12 19 11 20 10 21
REMARK SMILES IDX 9 22 8 23 7 24 6 25 5 26 4 27 3 28 2 29 1 30
REMARK H PARENT
REMARK Flexibility Score: inf
ROOT
ATOM      1  C   UNL     1     -28.495  32.890 -36.499  1.00  0.00     0.000 C 
ENDROOT
BRANCH   1   2
ATOM      2  C   UNL     1     -29.206  32.103 -37.620  1.00  0.00     0.000 C 
BRANCH   2   3
ATOM      3  C   UNL     1     -30.740  32.122 -37.512  1.00  0.00     0.000 C 
BRANCH   3   4
ATOM      4  C   UNL     1     -31.391  30.827 -38.020  1.00  0.00     0.000 C 
BRANCH   4   5
ATOM      5  C   UNL     1     -30.399  30.003 -38.853  1.00  0.00     0.000 C 
BRANCH   5   6
ATOM      6  C   UNL     1     -30.674  28.488 -38.779  1.00  0.00     0.000 C 
BRANCH   6   7
ATOM      7  C   UNL     1     -29.827  27.718 -37.744  1.00  0.00     0.000 C 
BRANCH   7   8
ATOM      8  C   UNL     1     -28.373  28.201 -37.600  1.00  0.00     0.000 C 
BRANCH   8   9
ATOM      9  C   UNL     1     -28.085  28.819 -36.225  1.00  0.00     0.000 C 
BRANCH   9  10
ATOM     10  C   UNL     1     -29.340  28.807 -35.339  1.00  0.00     0.000 C 
BRANCH  10  11
ATOM     11  C   UNL     1     -29.448  30.079 -34.470  1.00  0.00     0.000 C 
BRANCH  11  12
ATOM     12  C   UNL     1     -30.896  30.469 -34.131  1.00  0.00     0.006 C 
BRANCH  12  13
ATOM     13  C   UNL     1     -31.922  29.440 -34.621  1.00  0.00     0.053 C 
BRANCH  13  14
ATOM     14  C   UNL     1     -33.302  30.013 -34.570  1.00  0.00     0.041 C 
ATOM     15  O   UNL     1     -33.568  31.080 -35.185  1.00  0.00    -0.550 OA
ATOM     16  O   UNL     1     -34.284  29.397 -33.804  1.00  0.00    -0.550 OA
ENDBRANCH  13  14
ENDBRANCH  12  13
ENDBRANCH  11  12
ENDBRANCH  10  11
ENDBRANCH   9  10
ENDBRANCH   8   9
ENDBRANCH   7   8
ENDBRANCH   6   7
ENDBRANCH   5   6
ENDBRANCH   4   5
ENDBRANCH   3   4
ENDBRANCH   2   3
ENDBRANCH   1   2
BRANCH   1  17
ATOM     17  C   UNL     1     -27.377  33.801 -37.040  1.00  0.00     0.000 C 
BRANCH  17  18
ATOM     18  C   UNL     1     -27.782  34.514 -38.342  1.00  0.00     0.000 C 
BRANCH  18  19
ATOM     19  C   UNL     1     -28.852  35.595 -38.109  1.00  0.00     0.000 C 
BRANCH  19  20
ATOM     20  C   UNL     1     -29.399  36.177 -39.424  1.00  0.00     0.000 C 
BRANCH  20  21
ATOM     21  C   UNL     1     -29.339  35.165 -40.582  1.00  0.00     0.000 C 
BRANCH  21  22
ATOM     22  C   UNL     1     -30.610  34.306 -40.693  1.00  0.00    -0.000 C 
BRANCH  22  23
ATOM     23  C   UNL     1     -30.320  32.884 -41.206  1.00  0.00    -0.000 C 
BRANCH  23  24
ATOM     24  C   UNL     1     -28.818  32.561 -41.241  1.00  0.00    -0.000 C 
BRANCH  24  25
ATOM     25  C   UNL     1     -28.511  31.101 -41.637  1.00  0.00    -0.000 C 
BRANCH  25  26
ATOM     26  C   UNL     1     -27.283  30.547 -40.895  1.00  0.00    -0.000 C 
BRANCH  26  27
ATOM     27  C   UNL     1     -26.034  31.430 -41.059  1.00  0.00    -0.000 C 
BRANCH  27  28
ATOM     28  C   UNL     1     -25.199  31.569 -39.768  1.00  0.00    -0.000 C 
BRANCH  28  29
ATOM     29  C   UNL     1     -25.830  30.820 -38.585  1.00  0.00    -0.003 C 
ATOM     30  C   UNL     1     -24.931  29.681 -38.110  1.00  0.00     0.004 C 
ENDBRANCH  28  29
ENDBRANCH  27  28
ENDBRANCH  26  27
ENDBRANCH  25  26
ENDBRANCH  24  25
ENDBRANCH  23  24
ENDBRANCH  22  23
ENDBRANCH  21  22
ENDBRANCH  20  21
ENDBRANCH  19  20
ENDBRANCH  18  19
ENDBRANCH  17  18
ENDBRANCH   1  17
TORSDOF 26
ENDMDL
MODEL 4
REMARK VINA RESULT:    -3.873      3.207      7.556
REMARK INTER + INTRA:         -14.748
REMARK INTER:                  -9.449
REMARK INTRA:                  -5.298
REMARK UNBOUND:                -4.988
REMARK SMILES CCCCCCCCCCCCCCCCCCCCCCCCCCCC(=O)[O-]
REMARK SMILES IDX 15 1 16 2 17 3 18 4 19 5 20 6 21 7 22 8 23 9 24 10 25 11
REMARK SMILES IDX 26 12 27 13 28 14 29 15 30 16 14 17 13 18 12 19 11 20 10 21
REMARK SMILES IDX 9 22 8 23 7 24 6 25 5 26 4 27 3 28 2 29 1 30
REMARK H PARENT
REMARK Flexibility Score: inf
ROOT
ATOM      1  C   UNL     1     -23.071  28.870 -41.681  1.00  0.00     0.000 C 
ENDROOT
BRANCH   1   2
ATOM      2  C   UNL     1     -22.782  30.306 -42.169  1.00  0.00     0.000 C 
BRANCH   2   3
ATOM      3  C   UNL     1     -21.284  30.652 -42.222  1.00  0.00     0.000 C 
BRANCH   3   4
ATOM      4  C   UNL     1     -20.649  30.770 -40.829  1.00  0.00     0.000 C 
BRANCH   4   5
ATOM      5  C   UNL     1     -20.283  32.227 -40.512  1.00  0.00     0.000 C 
BRANCH   5   6
ATOM      6  C   UNL     1     -19.826  32.422 -39.054  1.00  0.00     0.000 C 
BRANCH   6   7
ATOM      7  C   UNL     1     -20.510  33.583 -38.303  1.00  0.00     0.000 C 
BRANCH   7   8
ATOM      8  C   UNL     1     -21.863  34.031 -38.883  1.00  0.00     0.000 C 
BRANCH   8   9
ATOM      9  C   UNL     1     -22.936  34.234 -37.804  1.00  0.00     0.000 C 
BRANCH   9  10
ATOM     10  C   UNL     1     -24.085  33.228 -37.972  1.00  0.00     0.000 C 
BRANCH  10  11
ATOM     11  C   UNL     1     -23.781  32.178 -39.062  1.00  0.00     0.000 C 
BRANCH  11  12
ATOM     12  C   UNL     1     -23.653  30.746 -38.515  1.00  0.00     0.006 C 
BRANCH  12  13
ATOM     13  C   UNL     1     -22.636  30.631 -37.373  1.00  0.00     0.053 C 
BRANCH  13  14
ATOM     14  C   UNL     1     -21.769  29.428 -37.564  1.00  0.00     0.041 C 
ATOM     15  O   UNL     1     -22.131  28.503 -38.340  1.00  0.00    -0.550 OA
ATOM     16  O   UNL     1     -20.584  29.303 -36.849  1.00  0.00    -0.550 OA
ENDBRANCH  13  14
ENDBRANCH  12  13
ENDBRANCH  11  12
ENDBRANCH  10  11
ENDBRANCH   9  10
ENDBRANCH   8   9
ENDBRANCH   7   8
ENDBRANCH   6   7
ENDBRANCH   5   6
ENDBRANCH   4   5
ENDBRANCH   3   4
ENDBRANCH   2   3
ENDBRANCH   1   2
BRANCH   1  17
ATOM     17  C   UNL     1     -24.579  28.578 -41.578  1.00  0.00     0.000 C 
BRANCH  17  18
ATOM     18  C   UNL     1     -25.426  29.863 -41.583  1.00  0.00     0.000 C 
BRANCH  18  19
ATOM     19  C   UNL     1     -26.901  29.590 -41.925  1.00  0.00     0.000 C 
BRANCH  19  20
ATOM     20  C   UNL     1     -27.270  28.102 -41.809  1.00  0.00     0.000 C 
BRANCH  20  21
ATOM     21  C   UNL     1     -28.427  27.861 -40.823  1.00  0.00     0.000 C 
BRANCH  21  22
ATOM     22  C   UNL     1     -29.204  29.145 -40.488  1.00  0.00    -0.000 C 
BRANCH  22  23
ATOM     23  C   UNL     1     -29.164  29.487 -38.988  1.00  0.00    -0.000 C 
BRANCH  23  24
ATOM     24  C   UNL     1     -27.956  30.357 -38.611  1.00  0.00    -0.000 C 
BRANCH  24  25
ATOM     25  C   UNL     1     -27.098  29.762 -37.473  1.00  0.00    -0.000 C 
BRANCH  25  26
ATOM     26  C   UNL     1     -26.331  28.508 -37.923  1.00  0.00    -0.000 C 
BRANCH  26  27
ATOM     27  C   UNL     1     -26.606  27.285 -37.032  1.00  0.00    -0.000 C 
BRANCH  27  28
ATOM     28  C   UNL     1     -27.696  27.527 -35.966  1.00  0.00    -0.000 C 
BRANCH  28  29
ATOM     29  C   UNL     1     -28.959  26.693 -36.227  1.00  0.00    -0.003 C 
ATOM     30  C   UNL     1     -28.861  25.942 -37.552  1.00  0.00     0.004 C 
ENDBRANCH  28  29
ENDBRANCH  27  28
ENDBRANCH  26  27
ENDBRANCH  25  26
ENDBRANCH  24  25
ENDBRANCH  23  24
ENDBRANCH  22  23
ENDBRANCH  21  22
ENDBRANCH  20  21
ENDBRANCH  19  20
ENDBRANCH  18  19
ENDBRANCH  17  18
ENDBRANCH   1  17
TORSDOF 26
ENDMDL
MODEL 5
REMARK VINA RESULT:    -3.863      3.332      7.512
REMARK INTER + INTRA:         -14.724
REMARK INTER:                  -8.615
REMARK INTRA:                  -6.108
REMARK UNBOUND:                -4.988
REMARK SMILES CCCCCCCCCCCCCCCCCCCCCCCCCCCC(=O)[O-]
REMARK SMILES IDX 15 1 16 2 17 3 18 4 19 5 20 6 21 7 22 8 23 9 24 10 25 11
REMARK SMILES IDX 26 12 27 13 28 14 29 15 30 16 14 17 13 18 12 19 11 20 10 21
REMARK SMILES IDX 9 22 8 23 7 24 6 25 5 26 4 27 3 28 2 29 1 30
REMARK H PARENT
REMARK Flexibility Score: inf
ROOT
ATOM      1  C   UNL     1     -23.689  31.785 -41.394  1.00  0.00     0.000 C 
ENDROOT
BRANCH   1   2
ATOM      2  C   UNL     1     -22.588  31.121 -42.248  1.00  0.00     0.000 C 
BRANCH   2   3
ATOM      3  C   UNL     1     -22.025  29.827 -41.635  1.00  0.00     0.000 C 
BRANCH   3   4
ATOM      4  C   UNL     1     -20.579  29.980 -41.144  1.00  0.00     0.000 C 
BRANCH   4   5
ATOM      5  C   UNL     1     -20.039  31.385 -41.448  1.00  0.00     0.000 C 
BRANCH   5   6
ATOM      6  C   UNL     1     -19.755  32.202 -40.174  1.00  0.00     0.000 C 
BRANCH   6   7
ATOM      7  C   UNL     1     -20.647  33.447 -39.982  1.00  0.00     0.000 C 
BRANCH   7   8
ATOM      8  C   UNL     1     -20.753  33.958 -38.534  1.00  0.00     0.000 C 
BRANCH   8   9
ATOM      9  C   UNL     1     -22.206  34.155 -38.078  1.00  0.00     0.000 C 
BRANCH   9  10
ATOM     10  C   UNL     1     -22.484  33.394 -36.772  1.00  0.00     0.000 C 
BRANCH  10  11
ATOM     11  C   UNL     1     -21.453  32.271 -36.527  1.00  0.00     0.000 C 
BRANCH  11  12
ATOM     12  C   UNL     1     -22.045  30.857 -36.656  1.00  0.00     0.006 C 
BRANCH  12  13
ATOM     13  C   UNL     1     -21.244  29.958 -37.605  1.00  0.00     0.053 C 
BRANCH  13  14
ATOM     14  C   UNL     1     -19.886  29.683 -37.043  1.00  0.00     0.041 C 
ATOM     15  O   UNL     1     -18.869  29.743 -37.784  1.00  0.00    -0.550 OA
ATOM     16  O   UNL     1     -19.747  29.313 -35.711  1.00  0.00    -0.550 OA
ENDBRANCH  13  14
ENDBRANCH  12  13
ENDBRANCH  11  12
ENDBRANCH  10  11
ENDBRANCH   9  10
ENDBRANCH   8   9
ENDBRANCH   7   8
ENDBRANCH   6   7
ENDBRANCH   5   6
ENDBRANCH   4   5
ENDBRANCH   3   4
ENDBRANCH   2   3
ENDBRANCH   1   2
BRANCH   1  17
ATOM     17  C   UNL     1     -23.680  31.287 -39.936  1.00  0.00     0.000 C 
BRANCH  17  18
ATOM     18  C   UNL     1     -24.899  31.783 -39.140  1.00  0.00     0.000 C 
BRANCH  18  19
ATOM     19  C   UNL     1     -25.430  30.722 -38.161  1.00  0.00     0.000 C 
BRANCH  19  20
ATOM     20  C   UNL     1     -25.410  29.305 -38.757  1.00  0.00     0.000 C 
BRANCH  20  21
ATOM     21  C   UNL     1     -26.824  28.725 -38.937  1.00  0.00     0.000 C 
BRANCH  21  22
ATOM     22  C   UNL     1     -27.101  28.257 -40.375  1.00  0.00    -0.000 C 
BRANCH  22  23
ATOM     23  C   UNL     1     -26.251  29.008 -41.415  1.00  0.00    -0.000 C 
BRANCH  23  24
ATOM     24  C   UNL     1     -26.956  30.258 -41.966  1.00  0.00    -0.000 C 
BRANCH  24  25
ATOM     25  C   UNL     1     -28.494  30.130 -42.006  1.00  0.00    -0.000 C 
BRANCH  25  26
ATOM     26  C   UNL     1     -29.190  31.292 -41.278  1.00  0.00    -0.000 C 
BRANCH  26  27
ATOM     27  C   UNL     1     -28.198  32.265 -40.617  1.00  0.00    -0.000 C 
BRANCH  27  28
ATOM     28  C   UNL     1     -28.538  32.592 -39.147  1.00  0.00    -0.000 C 
BRANCH  28  29
ATOM     29  C   UNL     1     -29.235  31.421 -38.438  1.00  0.00    -0.003 C 
ATOM     30  C   UNL     1     -28.877  31.383 -36.954  1.00  0.00     0.004 C 
ENDBRANCH  28  29
ENDBRANCH  27  28
ENDBRANCH  26  27
ENDBRANCH  25  26
ENDBRANCH  24  25
ENDBRANCH  23  24
ENDBRANCH  22  23
ENDBRANCH  21  22
ENDBRANCH  20  21
ENDBRANCH  19  20
ENDBRANCH  18  19
ENDBRANCH  17  18
ENDBRANCH   1  17
TORSDOF 26
ENDMDL
MODEL 6
REMARK VINA RESULT:    -3.863      3.564      7.509
REMARK INTER + INTRA:         -14.723
REMARK INTER:                  -9.371
REMARK INTRA:                  -5.351
REMARK UNBOUND:                -4.988
REMARK SMILES CCCCCCCCCCCCCCCCCCCCCCCCCCCC(=O)[O-]
REMARK SMILES IDX 15 1 16 2 17 3 18 4 19 5 20 6 21 7 22 8 23 9 24 10 25 11
REMARK SMILES IDX 26 12 27 13 28 14 29 15 30 16 14 17 13 18 12 19 11 20 10 21
REMARK SMILES IDX 9 22 8 23 7 24 6 25 5 26 4 27 3 28 2 29 1 30
REMARK H PARENT
REMARK Flexibility Score: inf
ROOT
ATOM      1  C   UNL     1     -19.517  30.132 -40.841  1.00  0.00     0.000 C 
ENDROOT
BRANCH   1   2
ATOM      2  C   UNL     1     -18.905  31.287 -40.021  1.00  0.00     0.000 C 
BRANCH   2   3
ATOM      3  C   UNL     1     -19.608  32.639 -40.235  1.00  0.00     0.000 C 
BRANCH   3   4
ATOM      4  C   UNL     1     -20.169  33.233 -38.936  1.00  0.00     0.000 C 
BRANCH   4   5
ATOM      5  C   UNL     1     -21.600  33.750 -39.139  1.00  0.00     0.000 C 
BRANCH   5   6
ATOM      6  C   UNL     1     -22.262  34.204 -37.824  1.00  0.00     0.000 C 
BRANCH   6   7
ATOM      7  C   UNL     1     -23.459  33.347 -37.363  1.00  0.00     0.000 C 
BRANCH   7   8
ATOM      8  C   UNL     1     -23.730  32.092 -38.212  1.00  0.00     0.000 C 
BRANCH   8   9
ATOM      9  C   UNL     1     -23.301  30.795 -37.512  1.00  0.00     0.000 C 
BRANCH   9  10
ATOM     10  C   UNL     1     -22.031  30.216 -38.152  1.00  0.00     0.000 C 
BRANCH  10  11
ATOM     11  C   UNL     1     -21.059  29.645 -37.097  1.00  0.00     0.000 C 
BRANCH  11  12
ATOM     12  C   UNL     1     -21.184  30.319 -35.720  1.00  0.00     0.006 C 
BRANCH  12  13
ATOM     13  C   UNL     1     -20.309  31.571 -35.586  1.00  0.00     0.053 C 
BRANCH  13  14
ATOM     14  C   UNL     1     -19.566  31.553 -34.289  1.00  0.00     0.041 C 
ATOM     15  O   UNL     1     -18.555  30.815 -34.148  1.00  0.00    -0.550 OA
ATOM     16  O   UNL     1     -20.017  32.314 -33.218  1.00  0.00    -0.550 OA
ENDBRANCH  13  14
ENDBRANCH  12  13
ENDBRANCH  11  12
ENDBRANCH  10  11
ENDBRANCH   9  10
ENDBRANCH   8   9
ENDBRANCH   7   8
ENDBRANCH   6   7
ENDBRANCH   5   6
ENDBRANCH   4   5
ENDBRANCH   3   4
ENDBRANCH   2   3
ENDBRANCH   1   2
BRANCH   1  17
ATOM     17  C   UNL     1     -19.788  30.531 -42.304  1.00  0.00     0.000 C 
BRANCH  17  18
ATOM     18  C   UNL     1     -21.212  30.165 -42.757  1.00  0.00     0.000 C 
BRANCH  18  19
ATOM     19  C   UNL     1     -22.226  30.216 -41.600  1.00  0.00     0.000 C 
BRANCH  19  20
ATOM     20  C   UNL     1     -23.236  31.365 -41.750  1.00  0.00     0.000 C 
BRANCH  20  21
ATOM     21  C   UNL     1     -24.677  30.921 -41.442  1.00  0.00     0.000 C 
BRANCH  21  22
ATOM     22  C   UNL     1     -24.769  29.450 -41.004  1.00  0.00    -0.000 C 
BRANCH  22  23
ATOM     23  C   UNL     1     -26.140  28.824 -41.316  1.00  0.00    -0.000 C 
BRANCH  23  24
ATOM     24  C   UNL     1     -27.028  28.692 -40.068  1.00  0.00    -0.000 C 
BRANCH  24  25
ATOM     25  C   UNL     1     -26.268  28.919 -38.743  1.00  0.00    -0.000 C 
BRANCH  25  26
ATOM     26  C   UNL     1     -26.897  30.043 -37.902  1.00  0.00    -0.000 C 
BRANCH  26  27
ATOM     27  C   UNL     1     -27.827  30.955 -38.720  1.00  0.00    -0.000 C 
BRANCH  27  28
ATOM     28  C   UNL     1     -27.178  32.294 -39.130  1.00  0.00    -0.000 C 
BRANCH  28  29
ATOM     29  C   UNL     1     -27.904  33.503 -38.521  1.00  0.00    -0.003 C 
ATOM     30  C   UNL     1     -27.206  33.985 -37.252  1.00  0.00     0.004 C 
ENDBRANCH  28  29
ENDBRANCH  27  28
ENDBRANCH  26  27
ENDBRANCH  25  26
ENDBRANCH  24  25
ENDBRANCH  23  24
ENDBRANCH  22  23
ENDBRANCH  21  22
ENDBRANCH  20  21
ENDBRANCH  19  20
ENDBRANCH  18  19
ENDBRANCH  17  18
ENDBRANCH   1  17
TORSDOF 26
ENDMDL
MODEL 7
REMARK VINA RESULT:    -3.833      1.606      4.257
REMARK INTER + INTRA:         -14.648
REMARK INTER:                  -9.869
REMARK INTRA:                  -4.779
REMARK UNBOUND:                -4.988
REMARK SMILES CCCCCCCCCCCCCCCCCCCCCCCCCCCC(=O)[O-]
REMARK SMILES IDX 15 1 16 2 17 3 18 4 19 5 20 6 21 7 22 8 23 9 24 10 25 11
REMARK SMILES IDX 26 12 27 13 28 14 29 15 30 16 14 17 13 18 12 19 11 20 10 21
REMARK SMILES IDX 9 22 8 23 7 24 6 25 5 26 4 27 3 28 2 29 1 30
REMARK H PARENT
REMARK Flexibility Score: inf
ROOT
ATOM      1  C   UNL     1     -23.003  33.691 -37.132  1.00  0.00     0.000 C 
ENDROOT
BRANCH   1   2
ATOM      2  C   UNL     1     -24.211  33.704 -38.093  1.00  0.00     0.000 C 
BRANCH   2   3
ATOM      3  C   UNL     1     -25.560  33.934 -37.390  1.00  0.00     0.000 C 
BRANCH   3   4
ATOM      4  C   UNL     1     -26.723  33.203 -38.074  1.00  0.00     0.000 C 
BRANCH   4   5
ATOM      5  C   UNL     1     -26.214  32.016 -38.905  1.00  0.00     0.000 C 
BRANCH   5   6
ATOM      6  C   UNL     1     -27.141  31.678 -40.089  1.00  0.00     0.000 C 
BRANCH   6   7
ATOM      7  C   UNL     1     -27.351  30.171 -40.347  1.00  0.00     0.000 C 
BRANCH   7   8
ATOM      8  C   UNL     1     -26.530  29.232 -39.445  1.00  0.00     0.000 C 
BRANCH   8   9
ATOM      9  C   UNL     1     -27.395  28.180 -38.738  1.00  0.00     0.000 C 
BRANCH   9  10
ATOM     10  C   UNL     1     -28.678  28.808 -38.172  1.00  0.00     0.000 C 
BRANCH  10  11
ATOM     11  C   UNL     1     -28.393  29.700 -36.945  1.00  0.00     0.000 C 
BRANCH  11  12
ATOM     12  C   UNL     1     -29.278  30.956 -36.881  1.00  0.00     0.006 C 
BRANCH  12  13
ATOM     13  C   UNL     1     -29.278  31.618 -35.498  1.00  0.00     0.053 C 
BRANCH  13  14
ATOM     14  C   UNL     1     -30.429  31.124 -34.682  1.00  0.00     0.041 C 
ATOM     15  O   UNL     1     -31.587  31.579 -34.880  1.00  0.00    -0.550 OA
ATOM     16  O   UNL     1     -30.218  30.197 -33.669  1.00  0.00    -0.550 OA
ENDBRANCH  13  14
ENDBRANCH  12  13
ENDBRANCH  11  12
ENDBRANCH  10  11
ENDBRANCH   9  10
ENDBRANCH   8   9
ENDBRANCH   7   8
ENDBRANCH   6   7
ENDBRANCH   5   6
ENDBRANCH   4   5
ENDBRANCH   3   4
ENDBRANCH   2   3
ENDBRANCH   1   2
BRANCH   1  17
ATOM     17  C   UNL     1     -21.747  34.324 -37.761  1.00  0.00     0.000 C 
BRANCH  17  18
ATOM     18  C   UNL     1     -21.445  33.760 -39.160  1.00  0.00     0.000 C 
BRANCH  18  19
ATOM     19  C   UNL     1     -19.969  33.360 -39.325  1.00  0.00     0.000 C 
BRANCH  19  20
ATOM     20  C   UNL     1     -19.728  32.485 -40.566  1.00  0.00     0.000 C 
BRANCH  20  21
ATOM     21  C   UNL     1     -19.023  31.161 -40.221  1.00  0.00     0.000 C 
BRANCH  21  22
ATOM     22  C   UNL     1     -19.474  29.992 -41.113  1.00  0.00    -0.000 C 
BRANCH  22  23
ATOM     23  C   UNL     1     -20.069  30.465 -42.451  1.00  0.00    -0.000 C 
BRANCH  23  24
ATOM     24  C   UNL     1     -21.547  30.078 -42.613  1.00  0.00    -0.000 C 
BRANCH  24  25
ATOM     25  C   UNL     1     -22.169  29.475 -41.334  1.00  0.00    -0.000 C 
BRANCH  25  26
ATOM     26  C   UNL     1     -23.145  30.449 -40.652  1.00  0.00    -0.000 C 
BRANCH  26  27
ATOM     27  C   UNL     1     -23.033  30.435 -39.119  1.00  0.00    -0.000 C 
BRANCH  27  28
ATOM     28  C   UNL     1     -22.307  29.192 -38.562  1.00  0.00    -0.000 C 
BRANCH  28  29
ATOM     29  C   UNL     1     -21.812  29.404 -37.123  1.00  0.00    -0.003 C 
ATOM     30  C   UNL     1     -20.844  30.581 -37.040  1.00  0.00     0.004 C 
ENDBRANCH  28  29
ENDBRANCH  27  28
ENDBRANCH  26  27
ENDBRANCH  25  26
ENDBRANCH  24  25
ENDBRANCH  23  24
ENDBRANCH  22  23
ENDBRANCH  21  22
ENDBRANCH  20  21
ENDBRANCH  19  20
ENDBRANCH  18  19
ENDBRANCH  17  18
ENDBRANCH   1  17
TORSDOF 26
ENDMDL
MODEL 8
REMARK VINA RESULT:    -3.833      2.844      8.120
REMARK INTER + INTRA:         -14.647
REMARK INTER:                  -9.046
REMARK INTRA:                  -5.602
REMARK UNBOUND:                -4.988
REMARK SMILES CCCCCCCCCCCCCCCCCCCCCCCCCCCC(=O)[O-]
REMARK SMILES IDX 15 1 16 2 17 3 18 4 19 5 20 6 21 7 22 8 23 9 24 10 25 11
REMARK SMILES IDX 26 12 27 13 28 14 29 15 30 16 14 17 13 18 12 19 11 20 10 21
REMARK SMILES IDX 9 22 8 23 7 24 6 25 5 26 4 27 3 28 2 29 1 30
REMARK H PARENT
REMARK Flexibility Score: inf
ROOT
ATOM      1  C   UNL     1     -30.236  32.509 -37.528  1.00  0.00     0.000 C 
ENDROOT
BRANCH   1   2
ATOM      2  C   UNL     1     -30.114  32.723 -39.052  1.00  0.00     0.000 C 
BRANCH   2   3
ATOM      3  C   UNL     1     -28.676  32.997 -39.525  1.00  0.00     0.000 C 
BRANCH   3   4
ATOM      4  C   UNL     1     -28.123  31.888 -40.431  1.00  0.00     0.000 C 
BRANCH   4   5
ATOM      5  C   UNL     1     -29.249  30.966 -40.921  1.00  0.00     0.000 C 
BRANCH   5   6
ATOM      6  C   UNL     1     -28.723  29.631 -41.482  1.00  0.00     0.000 C 
BRANCH   6   7
ATOM      7  C   UNL     1     -27.237  29.634 -41.897  1.00  0.00     0.000 C 
BRANCH   7   8
ATOM      8  C   UNL     1     -26.390  28.493 -41.305  1.00  0.00     0.000 C 
BRANCH   8   9
ATOM      9  C   UNL     1     -24.983  28.419 -41.914  1.00  0.00     0.000 C 
BRANCH   9  10
ATOM     10  C   UNL     1     -23.967  29.183 -41.052  1.00  0.00     0.000 C 
BRANCH  10  11
ATOM     11  C   UNL     1     -23.783  30.640 -41.529  1.00  0.00     0.000 C 
BRANCH  11  12
ATOM     12  C   UNL     1     -24.292  31.684 -40.521  1.00  0.00     0.006 C 
BRANCH  12  13
ATOM     13  C   UNL     1     -23.856  31.387 -39.081  1.00  0.00     0.053 C 
BRANCH  13  14
ATOM     14  C   UNL     1     -24.197  32.533 -38.184  1.00  0.00     0.041 C 
ATOM     15  O   UNL     1     -25.359  33.021 -38.193  1.00  0.00    -0.550 OA
ATOM     16  O   UNL     1     -23.220  33.096 -37.373  1.00  0.00    -0.550 OA
ENDBRANCH  13  14
ENDBRANCH  12  13
ENDBRANCH  11  12
ENDBRANCH  10  11
ENDBRANCH   9  10
ENDBRANCH   8   9
ENDBRANCH   7   8
ENDBRANCH   6   7
ENDBRANCH   5   6
ENDBRANCH   4   5
ENDBRANCH   3   4
ENDBRANCH   2   3
ENDBRANCH   1   2
BRANCH   1  17
ATOM     17  C   UNL     1     -31.629  31.993 -37.119  1.00  0.00     0.000 C 
BRANCH  17  18
ATOM     18  C   UNL     1     -31.766  31.821 -35.596  1.00  0.00     0.000 C 
BRANCH  18  19
ATOM     19  C   UNL     1     -30.635  30.967 -34.999  1.00  0.00     0.000 C 
BRANCH  19  20
ATOM     20  C   UNL     1     -31.140  29.626 -34.439  1.00  0.00     0.000 C 
BRANCH  20  21
ATOM     21  C   UNL     1     -32.672  29.503 -34.509  1.00  0.00     0.000 C 
BRANCH  21  22
ATOM     22  C   UNL     1     -33.139  28.340 -35.402  1.00  0.00    -0.000 C 
BRANCH  22  23
ATOM     23  C   UNL     1     -32.048  27.872 -36.381  1.00  0.00    -0.000 C 
BRANCH  23  24
ATOM     24  C   UNL     1     -32.294  28.357 -37.818  1.00  0.00    -0.000 C 
BRANCH  24  25
ATOM     25  C   UNL     1     -31.002  28.756 -38.565  1.00  0.00    -0.000 C 
BRANCH  25  26
ATOM     26  C   UNL     1     -30.026  27.575 -38.699  1.00  0.00    -0.000 C 
BRANCH  26  27
ATOM     27  C   UNL     1     -28.646  27.865 -38.085  1.00  0.00    -0.000 C 
BRANCH  27  28
ATOM     28  C   UNL     1     -28.464  29.330 -37.634  1.00  0.00    -0.000 C 
BRANCH  28  29
ATOM     29  C   UNL     1     -27.012  29.809 -37.786  1.00  0.00    -0.003 C 
ATOM     30  C   UNL     1     -26.037  28.634 -37.753  1.00  0.00     0.004 C 
ENDBRANCH  28  29
ENDBRANCH  27  28
ENDBRANCH  26  27
ENDBRANCH  25  26
ENDBRANCH  24  25
ENDBRANCH  23  24
ENDBRANCH  22  23
ENDBRANCH  21  22
ENDBRANCH  20  21
ENDBRANCH  19  20
ENDBRANCH  18  19
ENDBRANCH  17  18
ENDBRANCH   1  17
TORSDOF 26
ENDMDL
MODEL 9
REMARK VINA RESULT:    -3.810      3.184      7.550
REMARK INTER + INTRA:         -14.589
REMARK INTER:                  -8.699
REMARK INTRA:                  -5.890
REMARK UNBOUND:                -4.988
REMARK SMILES CCCCCCCCCCCCCCCCCCCCCCCCCCCC(=O)[O-]
REMARK SMILES IDX 15 1 16 2 17 3 18 4 19 5 20 6 21 7 22 8 23 9 24 10 25 11
REMARK SMILES IDX 26 12 27 13 28 14 29 15 30 16 14 17 13 18 12 19 11 20 10 21
REMARK SMILES IDX 9 22 8 23 7 24 6 25 5 26 4 27 3 28 2 29 1 30
REMARK H PARENT
REMARK Flexibility Score: inf
ROOT
ATOM      1  C   UNL     1     -30.400  32.210 -37.679  1.00  0.00     0.000 C 
ENDROOT
BRANCH   1   2
ATOM      2  C   UNL     1     -28.982  32.382 -38.267  1.00  0.00     0.000 C 
BRANCH   2   3
ATOM      3  C   UNL     1     -28.957  33.116 -39.618  1.00  0.00     0.000 C 
BRANCH   3   4
ATOM      4  C   UNL     1     -28.034  32.445 -40.645  1.00  0.00     0.000 C 
BRANCH   4   5
ATOM      5  C   UNL     1     -28.845  31.651 -41.679  1.00  0.00     0.000 C 
BRANCH   5   6
ATOM      6  C   UNL     1     -28.041  30.497 -42.308  1.00  0.00     0.000 C 
BRANCH   6   7
ATOM      7  C   UNL     1     -28.438  29.085 -41.829  1.00  0.00     0.000 C 
BRANCH   7   8
ATOM      8  C   UNL     1     -27.260  28.151 -41.498  1.00  0.00     0.000 C 
BRANCH   8   9
ATOM      9  C   UNL     1     -26.130  28.865 -40.741  1.00  0.00     0.000 C 
BRANCH   9  10
ATOM     10  C   UNL     1     -26.497  29.067 -39.263  1.00  0.00     0.000 C 
BRANCH  10  11
ATOM     11  C   UNL     1     -25.262  29.416 -38.404  1.00  0.00     0.000 C 
BRANCH  11  12
ATOM     12  C   UNL     1     -24.418  30.565 -38.981  1.00  0.00     0.006 C 
BRANCH  12  13
ATOM     13  C   UNL     1     -25.042  31.944 -38.740  1.00  0.00     0.053 C 
BRANCH  13  14
ATOM     14  C   UNL     1     -24.116  32.805 -37.943  1.00  0.00     0.041 C 
ATOM     15  O   UNL     1     -23.068  32.315 -37.442  1.00  0.00    -0.550 OA
ATOM     16  O   UNL     1     -24.431  34.138 -37.710  1.00  0.00    -0.550 OA
ENDBRANCH  13  14
ENDBRANCH  12  13
ENDBRANCH  11  12
ENDBRANCH  10  11
ENDBRANCH   9  10
ENDBRANCH   8   9
ENDBRANCH   7   8
ENDBRANCH   6   7
ENDBRANCH   5   6
ENDBRANCH   4   5
ENDBRANCH   3   4
ENDBRANCH   2   3
ENDBRANCH   1   2
BRANCH   1  17
ATOM     17  C   UNL     1     -31.077  30.912 -38.155  1.00  0.00     0.000 C 
BRANCH  17  18
ATOM     18  C   UNL     1     -30.058  29.845 -38.593  1.00  0.00     0.000 C 
BRANCH  18  19
ATOM     19  C   UNL     1     -30.698  28.455 -38.753  1.00  0.00     0.000 C 
BRANCH  19  20
ATOM     20  C   UNL     1     -29.663  27.319 -38.697  1.00  0.00     0.000 C 
BRANCH  20  21
ATOM     21  C   UNL     1     -29.616  26.638 -37.318  1.00  0.00     0.000 C 
BRANCH  21  22
ATOM     22  C   UNL     1     -28.212  26.654 -36.690  1.00  0.00    -0.000 C 
BRANCH  22  23
ATOM     23  C   UNL     1     -28.138  27.532 -35.428  1.00  0.00    -0.000 C 
BRANCH  23  24
ATOM     24  C   UNL     1     -27.838  29.004 -35.748  1.00  0.00    -0.000 C 
BRANCH  24  25
ATOM     25  C   UNL     1     -28.887  29.985 -35.179  1.00  0.00    -0.000 C 
BRANCH  25  26
ATOM     26  C   UNL     1     -30.118  29.253 -34.619  1.00  0.00    -0.000 C 
BRANCH  26  27
ATOM     27  C   UNL     1     -31.299  30.196 -34.333  1.00  0.00    -0.000 C 
BRANCH  27  28
ATOM     28  C   UNL     1     -32.649  29.679 -34.875  1.00  0.00    -0.000 C 
BRANCH  28  29
ATOM     29  C   UNL     1     -32.504  28.343 -35.618  1.00  0.00    -0.003 C 
ATOM     30  C   UNL     1     -33.718  28.067 -36.501  1.00  0.00     0.004 C 
ENDBRANCH  28  29
ENDBRANCH  27  28
ENDBRANCH  26  27
ENDBRANCH  25  26
ENDBRANCH  24  25
ENDBRANCH  23  24
ENDBRANCH  22  23
ENDBRANCH  21  22
ENDBRANCH  20  21
ENDBRANCH  19  20
ENDBRANCH  18  19
ENDBRANCH  17  18
ENDBRANCH   1  17
TORSDOF 26
ENDMDL
