MODEL 1
REMARK VINA RESULT:    -6.405      0.000      0.000
REMARK INTER + INTRA:          -7.661
REMARK INTER:                  -7.528
REMARK INTRA:                  -0.133
REMARK UNBOUND:                -0.133
REMARK SMILES O=c1c(O)c(-c2ccc(O)cc2)oc2cc(O)cc(O)c12
REMARK SMILES IDX 5 1 3 2 2 3 1 4 21 5 19 6 18 7 16 8 15 9 14 10 13 11 6 12
REMARK SMILES IDX 7 13 8 14 9 15 12 16 11 17 10 18 4 20 20 22 17 24
REMARK H PARENT 10 19 4 21 20 23 17 25
REMARK Flexibility Score: inf
ROOT
ATOM      1  C   UNL     1     150.610 146.436 151.135  1.00  0.00     0.180 A 
ATOM      2  C   UNL     1     150.437 146.187 152.507  1.00  0.00     0.208 A 
ATOM      3  C   UNL     1     151.530 146.360 153.373  1.00  0.00     0.238 A 
ATOM      4  O   UNL     1     151.385 146.084 154.592  1.00  0.00    -0.285 OA
ATOM      5  C   UNL     1     152.775 146.794 152.858  1.00  0.00     0.111 A 
ATOM      6  C   UNL     1     153.937 147.042 153.649  1.00  0.00     0.134 A 
ATOM      7  C   UNL     1     155.151 147.343 153.018  1.00  0.00     0.093 A 
ATOM      8  C   UNL     1     155.228 147.470 151.628  1.00  0.00     0.123 A 
ATOM      9  C   UNL     1     154.085 147.289 150.852  1.00  0.00     0.094 A 
ATOM     10  C   UNL     1     152.869 146.953 151.451  1.00  0.00     0.146 A 
ATOM     11  O   UNL     1     151.806 146.779 150.674  1.00  0.00    -0.452 OA
ENDROOT
BRANCH   1  12
ATOM     12  C   UNL     1     149.500 146.300 150.165  1.00  0.00     0.021 A 
ATOM     13  C   UNL     1     148.902 145.052 149.905  1.00  0.00     0.016 A 
ATOM     14  C   UNL     1     147.838 144.952 149.002  1.00  0.00     0.047 A 
ATOM     15  C   UNL     1     147.350 146.096 148.360  1.00  0.00     0.115 A 
ATOM     16  C   UNL     1     148.988 147.445 149.531  1.00  0.00     0.016 A 
ATOM     17  C   UNL     1     147.925 147.342 148.629  1.00  0.00     0.047 A 
BRANCH  15  18
ATOM     18  O   UNL     1     146.292 146.008 147.458  1.00  0.00    -0.508 OA
ATOM     19  H   UNL     1     145.674 146.793 147.289  1.00  0.00     0.293 HD
ENDBRANCH  15  18
ENDBRANCH   1  12
BRANCH   2  20
ATOM     20  O   UNL     1     149.206 145.738 152.992  1.00  0.00    -0.502 OA
ATOM     21  H   UNL     1     148.613 146.308 153.583  1.00  0.00     0.293 HD
ENDBRANCH   2  20
BRANCH   6  22
ATOM     22  O   UNL     1     153.947 147.031 155.047  1.00  0.00    -0.507 OA
ATOM     23  H   UNL     1     153.156 147.261 155.628  1.00  0.00     0.293 HD
ENDBRANCH   6  22
BRANCH   8  24
ATOM     24  O   UNL     1     156.436 147.785 151.009  1.00  0.00    -0.508 OA
ATOM     25  H   UNL     1     157.297 147.314 151.259  1.00  0.00     0.293 HD
ENDBRANCH   8  24
TORSDOF 5
ENDMDL
MODEL 2
REMARK VINA RESULT:    -6.323      1.338      3.160
REMARK INTER + INTRA:          -7.565
REMARK INTER:                  -7.400
REMARK INTRA:                  -0.164
REMARK UNBOUND:                -0.133
REMARK SMILES O=c1c(O)c(-c2ccc(O)cc2)oc2cc(O)cc(O)c12
REMARK SMILES IDX 5 1 3 2 2 3 1 4 21 5 19 6 18 7 16 8 15 9 14 10 13 11 6 12
REMARK SMILES IDX 7 13 8 14 9 15 12 16 11 17 10 18 4 20 20 22 17 24
REMARK H PARENT 10 19 4 21 20 23 17 25
REMARK Flexibility Score: inf
ROOT
ATOM      1  C   UNL     1     150.386 146.439 150.632  1.00  0.00     0.180 A 
ATOM      2  C   UNL     1     151.554 146.994 150.082  1.00  0.00     0.208 A 
ATOM      3  C   UNL     1     152.653 147.235 150.921  1.00  0.00     0.238 A 
ATOM      4  O   UNL     1     153.677 147.782 150.434  1.00  0.00    -0.285 OA
ATOM      5  C   UNL     1     152.577 146.905 152.295  1.00  0.00     0.111 A 
ATOM      6  C   UNL     1     153.644 147.069 153.230  1.00  0.00     0.134 A 
ATOM      7  C   UNL     1     153.414 146.830 154.590  1.00  0.00     0.093 A 
ATOM      8  C   UNL     1     152.172 146.371 155.041  1.00  0.00     0.123 A 
ATOM      9  C   UNL     1     151.143 146.151 154.129  1.00  0.00     0.094 A 
ATOM     10  C   UNL     1     151.332 146.414 152.770  1.00  0.00     0.146 A 
ATOM     11  O   UNL     1     150.322 146.201 151.936  1.00  0.00    -0.452 OA
ENDROOT
BRANCH   1  12
ATOM     12  C   UNL     1     149.195 146.133 149.806  1.00  0.00     0.021 A 
ATOM     13  C   UNL     1     148.423 147.157 149.225  1.00  0.00     0.016 A 
ATOM     14  C   UNL     1     147.317 146.842 148.429  1.00  0.00     0.047 A 
ATOM     15  C   UNL     1     146.977 145.505 148.192  1.00  0.00     0.115 A 
ATOM     16  C   UNL     1     148.858 144.794 149.545  1.00  0.00     0.016 A 
ATOM     17  C   UNL     1     147.752 144.484 148.750  1.00  0.00     0.047 A 
BRANCH  15  18
ATOM     18  O   UNL     1     145.876 145.181 147.402  1.00  0.00    -0.508 OA
ATOM     19  H   UNL     1     145.184 144.509 147.710  1.00  0.00     0.293 HD
ENDBRANCH  15  18
ENDBRANCH   1  12
BRANCH   2  20
ATOM     20  O   UNL     1     151.601 147.333 148.727  1.00  0.00    -0.502 OA
ATOM     21  H   UNL     1     152.131 148.125 148.382  1.00  0.00     0.293 HD
ENDBRANCH   2  20
BRANCH   6  22
ATOM     22  O   UNL     1     154.945 147.435 152.871  1.00  0.00    -0.507 OA
ATOM     23  H   UNL     1     155.599 147.898 153.481  1.00  0.00     0.293 HD
ENDBRANCH   6  22
BRANCH   8  24
ATOM     24  O   UNL     1     151.957 146.121 156.395  1.00  0.00    -0.508 OA
ATOM     25  H   UNL     1     151.079 145.741 156.730  1.00  0.00     0.293 HD
ENDBRANCH   8  24
TORSDOF 5
ENDMDL
MODEL 3
REMARK VINA RESULT:    -6.243      2.117      6.620
REMARK INTER + INTRA:          -7.471
REMARK INTER:                  -7.279
REMARK INTRA:                  -0.192
REMARK UNBOUND:                -0.133
REMARK SMILES O=c1c(O)c(-c2ccc(O)cc2)oc2cc(O)cc(O)c12
REMARK SMILES IDX 5 1 3 2 2 3 1 4 21 5 19 6 18 7 16 8 15 9 14 10 13 11 6 12
REMARK SMILES IDX 7 13 8 14 9 15 12 16 11 17 10 18 4 20 20 22 17 24
REMARK H PARENT 10 19 4 21 20 23 17 25
REMARK Flexibility Score: inf
ROOT
ATOM      1  C   UNL     1     154.655 147.767 151.446  1.00  0.00     0.180 A 
ATOM      2  C   UNL     1     154.587 147.758 152.849  1.00  0.00     0.208 A 
ATOM      3  C   UNL     1     153.406 147.320 153.470  1.00  0.00     0.238 A 
ATOM      4  O   UNL     1     153.331 147.366 154.726  1.00  0.00    -0.285 OA
ATOM      5  C   UNL     1     152.315 146.883 152.682  1.00  0.00     0.111 A 
ATOM      6  C   UNL     1     151.086 146.380 153.206  1.00  0.00     0.134 A 
ATOM      7  C   UNL     1     150.027 146.098 152.334  1.00  0.00     0.093 A 
ATOM      8  C   UNL     1     150.176 146.238 150.951  1.00  0.00     0.123 A 
ATOM      9  C   UNL     1     151.392 146.671 150.426  1.00  0.00     0.094 A 
ATOM     10  C   UNL     1     152.454 146.994 151.274  1.00  0.00     0.146 A 
ATOM     11  O   UNL     1     153.592 147.413 150.733  1.00  0.00    -0.452 OA
ENDROOT
BRANCH   1  12
ATOM     12  C   UNL     1     155.873 148.191 150.719  1.00  0.00     0.021 A 
ATOM     13  C   UNL     1     157.057 147.430 150.765  1.00  0.00     0.016 A 
ATOM     14  C   UNL     1     158.188 147.838 150.050  1.00  0.00     0.047 A 
ATOM     15  C   UNL     1     158.147 149.001 149.271  1.00  0.00     0.115 A 
ATOM     16  C   UNL     1     155.836 149.345 149.917  1.00  0.00     0.016 A 
ATOM     17  C   UNL     1     156.968 149.750 149.204  1.00  0.00     0.047 A 
BRANCH  15  18
ATOM     18  O   UNL     1     159.268 149.417 148.556  1.00  0.00    -0.508 OA
ATOM     19  H   UNL     1     160.145 149.622 149.020  1.00  0.00     0.293 HD
ENDBRANCH  15  18
ENDBRANCH   1  12
BRANCH   2  20
ATOM     20  O   UNL     1     155.667 148.215 153.609  1.00  0.00    -0.502 OA
ATOM     21  H   UNL     1     156.606 147.851 153.496  1.00  0.00     0.293 HD
ENDBRANCH   2  20
BRANCH   6  22
ATOM     22  O   UNL     1     150.865 146.118 154.561  1.00  0.00    -0.507 OA
ATOM     23  H   UNL     1     150.216 145.433 154.915  1.00  0.00     0.293 HD
ENDBRANCH   6  22
BRANCH   8  24
ATOM     24  O   UNL     1     149.123 145.940 150.089  1.00  0.00    -0.508 OA
ATOM     25  H   UNL     1     148.557 145.109 150.212  1.00  0.00     0.293 HD
ENDBRANCH   8  24
TORSDOF 5
ENDMDL
MODEL 4
REMARK VINA RESULT:    -6.126      4.816      7.523
REMARK INTER + INTRA:          -7.333
REMARK INTER:                  -7.033
REMARK INTRA:                  -0.300
REMARK UNBOUND:                -0.133
REMARK SMILES O=c1c(O)c(-c2ccc(O)cc2)oc2cc(O)cc(O)c12
REMARK SMILES IDX 5 1 3 2 2 3 1 4 21 5 19 6 18 7 16 8 15 9 14 10 13 11 6 12
REMARK SMILES IDX 7 13 8 14 9 15 12 16 11 17 10 18 4 20 20 22 17 24
REMARK H PARENT 10 19 4 21 20 23 17 25
REMARK Flexibility Score: inf
ROOT
ATOM      1  C   UNL     1     156.643 148.976 150.713  1.00  0.00     0.180 A 
ATOM      2  C   UNL     1     155.248 148.811 150.717  1.00  0.00     0.208 A 
ATOM      3  C   UNL     1     154.638 148.200 151.824  1.00  0.00     0.238 A 
ATOM      4  O   UNL     1     153.395 148.006 151.799  1.00  0.00    -0.285 OA
ATOM      5  C   UNL     1     155.428 147.777 152.920  1.00  0.00     0.111 A 
ATOM      6  C   UNL     1     154.911 147.183 154.111  1.00  0.00     0.134 A 
ATOM      7  C   UNL     1     155.797 146.685 155.074  1.00  0.00     0.093 A 
ATOM      8  C   UNL     1     157.180 146.817 154.919  1.00  0.00     0.123 A 
ATOM      9  C   UNL     1     157.692 147.448 153.788  1.00  0.00     0.094 A 
ATOM     10  C   UNL     1     156.834 147.924 152.793  1.00  0.00     0.146 A 
ATOM     11  O   UNL     1     157.364 148.510 151.726  1.00  0.00    -0.452 OA
ENDROOT
BRANCH   1  12
ATOM     12  C   UNL     1     157.356 149.632 149.593  1.00  0.00     0.021 A 
ATOM     13  C   UNL     1     157.572 151.024 149.576  1.00  0.00     0.016 A 
ATOM     14  C   UNL     1     158.269 151.618 148.520  1.00  0.00     0.047 A 
ATOM     15  C   UNL     1     158.771 150.831 147.476  1.00  0.00     0.115 A 
ATOM     16  C   UNL     1     157.882 148.849 148.552  1.00  0.00     0.016 A 
ATOM     17  C   UNL     1     158.577 149.446 147.497  1.00  0.00     0.047 A 
BRANCH  15  18
ATOM     18  O   UNL     1     159.465 151.413 146.418  1.00  0.00    -0.508 OA
ATOM     19  H   UNL     1     159.853 152.346 146.489  1.00  0.00     0.293 HD
ENDBRANCH  15  18
ENDBRANCH   1  12
BRANCH   2  20
ATOM     20  O   UNL     1     154.489 149.215 149.616  1.00  0.00    -0.502 OA
ATOM     21  H   UNL     1     153.601 148.787 149.380  1.00  0.00     0.293 HD
ENDBRANCH   2  20
BRANCH   6  22
ATOM     22  O   UNL     1     153.549 147.085 154.406  1.00  0.00    -0.507 OA
ATOM     23  H   UNL     1     152.923 147.870 154.498  1.00  0.00     0.293 HD
ENDBRANCH   6  22
BRANCH   8  24
ATOM     24  O   UNL     1     158.054 146.333 155.890  1.00  0.00    -0.508 OA
ATOM     25  H   UNL     1     158.377 145.372 155.880  1.00  0.00     0.293 HD
ENDBRANCH   8  24
TORSDOF 5
ENDMDL
MODEL 5
REMARK VINA RESULT:    -6.046      2.121      3.721
REMARK INTER + INTRA:          -7.239
REMARK INTER:                  -7.375
REMARK INTRA:                   0.136
REMARK UNBOUND:                -0.133
REMARK SMILES O=c1c(O)c(-c2ccc(O)cc2)oc2cc(O)cc(O)c12
REMARK SMILES IDX 5 1 3 2 2 3 1 4 21 5 19 6 18 7 16 8 15 9 14 10 13 11 6 12
REMARK SMILES IDX 7 13 8 14 9 15 12 16 11 17 10 18 4 20 20 22 17 24
REMARK H PARENT 10 19 4 21 20 23 17 25
REMARK Flexibility Score: inf
ROOT
ATOM      1  C   UNL     1     151.689 146.692 152.691  1.00  0.00     0.180 A 
ATOM      2  C   UNL     1     153.066 146.601 152.425  1.00  0.00     0.208 A 
ATOM      3  C   UNL     1     153.977 147.035 153.401  1.00  0.00     0.238 A 
ATOM      4  O   UNL     1     155.207 147.002 153.136  1.00  0.00    -0.285 OA
ATOM      5  C   UNL     1     153.502 147.540 154.635  1.00  0.00     0.111 A 
ATOM      6  C   UNL     1     154.336 147.970 155.711  1.00  0.00     0.134 A 
ATOM      7  C   UNL     1     153.758 148.572 156.835  1.00  0.00     0.093 A 
ATOM      8  C   UNL     1     152.370 148.700 156.950  1.00  0.00     0.123 A 
ATOM      9  C   UNL     1     151.545 148.230 155.932  1.00  0.00     0.094 A 
ATOM     10  C   UNL     1     152.095 147.657 154.782  1.00  0.00     0.146 A 
ATOM     11  O   UNL     1     151.273 147.230 153.831  1.00  0.00    -0.452 OA
ENDROOT
BRANCH   1  12
ATOM     12  C   UNL     1     150.668 146.232 151.722  1.00  0.00     0.021 A 
ATOM     13  C   UNL     1     149.550 145.483 152.135  1.00  0.00     0.016 A 
ATOM     14  C   UNL     1     148.585 145.082 151.205  1.00  0.00     0.047 A 
ATOM     15  C   UNL     1     148.718 145.433 149.856  1.00  0.00     0.115 A 
ATOM     16  C   UNL     1     150.781 146.598 150.370  1.00  0.00     0.016 A 
ATOM     17  C   UNL     1     149.815 146.194 149.443  1.00  0.00     0.047 A 
BRANCH  15  18
ATOM     18  O   UNL     1     147.764 145.037 148.922  1.00  0.00    -0.508 OA
ATOM     19  H   UNL     1     147.983 144.982 147.934  1.00  0.00     0.293 HD
ENDBRANCH  15  18
ENDBRANCH   1  12
BRANCH   2  20
ATOM     20  O   UNL     1     153.514 146.121 151.192  1.00  0.00    -0.502 OA
ATOM     21  H   UNL     1     153.959 146.718 150.504  1.00  0.00     0.293 HD
ENDBRANCH   2  20
BRANCH   6  22
ATOM     22  O   UNL     1     155.724 147.804 155.736  1.00  0.00    -0.507 OA
ATOM     23  H   UNL     1     156.377 148.485 156.089  1.00  0.00     0.293 HD
ENDBRANCH   6  22
BRANCH   8  24
ATOM     24  O   UNL     1     151.802 149.286 158.079  1.00  0.00    -0.508 OA
ATOM     25  H   UNL     1     151.311 150.171 158.026  1.00  0.00     0.293 HD
ENDBRANCH   8  24
TORSDOF 5
ENDMDL
MODEL 6
REMARK VINA RESULT:    -5.985      2.411      7.114
REMARK INTER + INTRA:          -7.168
REMARK INTER:                  -7.089
REMARK INTRA:                  -0.079
REMARK UNBOUND:                -0.133
REMARK SMILES O=c1c(O)c(-c2ccc(O)cc2)oc2cc(O)cc(O)c12
REMARK SMILES IDX 5 1 3 2 2 3 1 4 21 5 19 6 18 7 16 8 15 9 14 10 13 11 6 12
REMARK SMILES IDX 7 13 8 14 9 15 12 16 11 17 10 18 4 20 20 22 17 24
REMARK H PARENT 10 19 4 21 20 23 17 25
REMARK Flexibility Score: inf
ROOT
ATOM      1  C   UNL     1     154.395 147.727 151.621  1.00  0.00     0.180 A 
ATOM      2  C   UNL     1     153.468 146.955 152.341  1.00  0.00     0.208 A 
ATOM      3  C   UNL     1     152.228 146.657 151.753  1.00  0.00     0.238 A 
ATOM      4  O   UNL     1     151.381 146.011 152.423  1.00  0.00    -0.285 OA
ATOM      5  C   UNL     1     151.937 147.121 150.448  1.00  0.00     0.111 A 
ATOM      6  C   UNL     1     150.729 146.844 149.739  1.00  0.00     0.134 A 
ATOM      7  C   UNL     1     150.495 147.463 148.505  1.00  0.00     0.093 A 
ATOM      8  C   UNL     1     151.455 148.298 147.924  1.00  0.00     0.123 A 
ATOM      9  C   UNL     1     152.662 148.526 148.581  1.00  0.00     0.094 A 
ATOM     10  C   UNL     1     152.909 147.951 149.829  1.00  0.00     0.146 A 
ATOM     11  O   UNL     1     154.068 148.203 150.426  1.00  0.00    -0.452 OA
ENDROOT
BRANCH   1  12
ATOM     12  C   UNL     1     155.732 148.062 152.164  1.00  0.00     0.021 A 
ATOM     13  C   UNL     1     156.911 147.670 151.502  1.00  0.00     0.016 A 
ATOM     14  C   UNL     1     158.162 148.020 152.021  1.00  0.00     0.047 A 
ATOM     15  C   UNL     1     158.251 148.773 153.197  1.00  0.00     0.115 A 
ATOM     16  C   UNL     1     155.831 148.836 153.332  1.00  0.00     0.016 A 
ATOM     17  C   UNL     1     157.083 149.183 153.849  1.00  0.00     0.047 A 
BRANCH  15  18
ATOM     18  O   UNL     1     159.492 149.125 153.724  1.00  0.00    -0.508 OA
ATOM     19  H   UNL     1     160.031 149.893 153.341  1.00  0.00     0.293 HD
ENDBRANCH  15  18
ENDBRANCH   1  12
BRANCH   2  20
ATOM     20  O   UNL     1     153.766 146.525 153.637  1.00  0.00    -0.502 OA
ATOM     21  H   UNL     1     153.552 145.590 153.963  1.00  0.00     0.293 HD
ENDBRANCH   2  20
BRANCH   6  22
ATOM     22  O   UNL     1     149.748 145.956 150.188  1.00  0.00    -0.507 OA
ATOM     23  H   UNL     1     149.932 145.038 150.561  1.00  0.00     0.293 HD
ENDBRANCH   6  22
BRANCH   8  24
ATOM     24  O   UNL     1     151.221 148.897 146.688  1.00  0.00    -0.508 OA
ATOM     25  H   UNL     1     151.009 148.346 145.864  1.00  0.00     0.293 HD
ENDBRANCH   8  24
TORSDOF 5
ENDMDL
MODEL 7
REMARK VINA RESULT:    -5.917      1.646      2.138
REMARK INTER + INTRA:          -7.088
REMARK INTER:                  -7.022
REMARK INTRA:                  -0.066
REMARK UNBOUND:                -0.133
REMARK SMILES O=c1c(O)c(-c2ccc(O)cc2)oc2cc(O)cc(O)c12
REMARK SMILES IDX 5 1 3 2 2 3 1 4 21 5 19 6 18 7 16 8 15 9 14 10 13 11 6 12
REMARK SMILES IDX 7 13 8 14 9 15 12 16 11 17 10 18 4 20 20 22 17 24
REMARK H PARENT 10 19 4 21 20 23 17 25
REMARK Flexibility Score: inf
ROOT
ATOM      1  C   UNL     1     150.615 146.637 152.505  1.00  0.00     0.180 A 
ATOM      2  C   UNL     1     150.118 147.201 153.692  1.00  0.00     0.208 A 
ATOM      3  C   UNL     1     151.022 147.761 154.609  1.00  0.00     0.238 A 
ATOM      4  O   UNL     1     150.577 148.215 155.696  1.00  0.00    -0.285 OA
ATOM      5  C   UNL     1     152.408 147.765 154.321  1.00  0.00     0.111 A 
ATOM      6  C   UNL     1     153.409 148.342 155.159  1.00  0.00     0.134 A 
ATOM      7  C   UNL     1     154.761 148.172 154.837  1.00  0.00     0.093 A 
ATOM      8  C   UNL     1     155.146 147.503 153.671  1.00  0.00     0.123 A 
ATOM      9  C   UNL     1     154.174 146.989 152.816  1.00  0.00     0.094 A 
ATOM     10  C   UNL     1     152.818 147.111 153.129  1.00  0.00     0.146 A 
ATOM     11  O   UNL     1     151.925 146.598 152.293  1.00  0.00    -0.452 OA
ENDROOT
BRANCH   1  12
ATOM     12  C   UNL     1     149.723 146.050 151.478  1.00  0.00     0.021 A 
ATOM     13  C   UNL     1     149.706 146.536 150.157  1.00  0.00     0.016 A 
ATOM     14  C   UNL     1     148.873 145.949 149.199  1.00  0.00     0.047 A 
ATOM     15  C   UNL     1     148.059 144.863 149.544  1.00  0.00     0.115 A 
ATOM     16  C   UNL     1     148.918 144.946 151.809  1.00  0.00     0.016 A 
ATOM     17  C   UNL     1     148.087 144.363 150.849  1.00  0.00     0.047 A 
BRANCH  15  18
ATOM     18  O   UNL     1     147.224 144.272 148.598  1.00  0.00    -0.508 OA
ATOM     19  H   UNL     1     146.226 144.189 148.751  1.00  0.00     0.293 HD
ENDBRANCH  15  18
ENDBRANCH   1  12
BRANCH   2  20
ATOM     20  O   UNL     1     148.749 147.167 153.969  1.00  0.00    -0.502 OA
ATOM     21  H   UNL     1     148.300 146.367 154.399  1.00  0.00     0.293 HD
ENDBRANCH   2  20
BRANCH   6  22
ATOM     22  O   UNL     1     153.129 149.106 156.295  1.00  0.00    -0.507 OA
ATOM     23  H   UNL     1     153.789 149.304 157.031  1.00  0.00     0.293 HD
ENDBRANCH   6  22
BRANCH   8  24
ATOM     24  O   UNL     1     156.493 147.353 153.349  1.00  0.00    -0.508 OA
ATOM     25  H   UNL     1     157.094 146.723 153.867  1.00  0.00     0.293 HD
ENDBRANCH   8  24
TORSDOF 5
ENDMDL
MODEL 8
REMARK VINA RESULT:    -5.776      4.499      9.591
REMARK INTER + INTRA:          -6.922
REMARK INTER:                  -6.628
REMARK INTRA:                  -0.294
REMARK UNBOUND:                -0.133
REMARK SMILES O=c1c(O)c(-c2ccc(O)cc2)oc2cc(O)cc(O)c12
REMARK SMILES IDX 5 1 3 2 2 3 1 4 21 5 19 6 18 7 16 8 15 9 14 10 13 11 6 12
REMARK SMILES IDX 7 13 8 14 9 15 12 16 11 17 10 18 4 20 20 22 17 24
REMARK H PARENT 10 19 4 21 20 23 17 25
REMARK Flexibility Score: inf
ROOT
ATOM      1  C   UNL     1     158.528 147.830 153.762  1.00  0.00     0.180 A 
ATOM      2  C   UNL     1     157.732 147.163 154.708  1.00  0.00     0.208 A 
ATOM      3  C   UNL     1     156.366 146.977 154.438  1.00  0.00     0.238 A 
ATOM      4  O   UNL     1     155.646 146.426 155.312  1.00  0.00    -0.285 OA
ATOM      5  C   UNL     1     155.818 147.447 153.221  1.00  0.00     0.111 A 
ATOM      6  C   UNL     1     154.456 147.277 152.825  1.00  0.00     0.134 A 
ATOM      7  C   UNL     1     153.994 147.897 151.658  1.00  0.00     0.093 A 
ATOM      8  C   UNL     1     154.861 148.625 150.837  1.00  0.00     0.123 A 
ATOM      9  C   UNL     1     156.204 148.746 151.184  1.00  0.00     0.094 A 
ATOM     10  C   UNL     1     156.686 148.169 152.361  1.00  0.00     0.146 A 
ATOM     11  O   UNL     1     157.971 148.317 152.660  1.00  0.00    -0.452 OA
ENDROOT
BRANCH   1  12
ATOM     12  C   UNL     1     159.979 148.042 153.964  1.00  0.00     0.021 A 
ATOM     13  C   UNL     1     160.920 147.052 153.622  1.00  0.00     0.016 A 
ATOM     14  C   UNL     1     162.287 147.285 153.799  1.00  0.00     0.047 A 
ATOM     15  C   UNL     1     162.734 148.511 154.306  1.00  0.00     0.115 A 
ATOM     16  C   UNL     1     160.438 149.278 154.452  1.00  0.00     0.016 A 
ATOM     17  C   UNL     1     161.806 149.507 154.628  1.00  0.00     0.047 A 
BRANCH  15  18
ATOM     18  O   UNL     1     164.093 148.753 154.487  1.00  0.00    -0.508 OA
ATOM     19  H   UNL     1     164.754 147.995 154.607  1.00  0.00     0.293 HD
ENDBRANCH  15  18
ENDBRANCH   1  12
BRANCH   2  20
ATOM     20  O   UNL     1     158.287 146.726 155.914  1.00  0.00    -0.502 OA
ATOM     21  H   UNL     1     157.739 146.265 156.631  1.00  0.00     0.293 HD
ENDBRANCH   2  20
BRANCH   6  22
ATOM     22  O   UNL     1     153.533 146.495 153.524  1.00  0.00    -0.507 OA
ATOM     23  H   UNL     1     153.766 145.676 154.064  1.00  0.00     0.293 HD
ENDBRANCH   6  22
BRANCH   8  24
ATOM     24  O   UNL     1     154.396 149.225 149.668  1.00  0.00    -0.508 OA
ATOM     25  H   UNL     1     153.629 148.828 149.138  1.00  0.00     0.293 HD
ENDBRANCH   8  24
TORSDOF 5
ENDMDL
MODEL 9
REMARK VINA RESULT:    -5.741      3.734      7.876
REMARK INTER + INTRA:          -6.881
REMARK INTER:                  -6.617
REMARK INTRA:                  -0.264
REMARK UNBOUND:                -0.133
REMARK SMILES O=c1c(O)c(-c2ccc(O)cc2)oc2cc(O)cc(O)c12
REMARK SMILES IDX 5 1 3 2 2 3 1 4 21 5 19 6 18 7 16 8 15 9 14 10 13 11 6 12
REMARK SMILES IDX 7 13 8 14 9 15 12 16 11 17 10 18 4 20 20 22 17 24
REMARK H PARENT 10 19 4 21 20 23 17 25
REMARK Flexibility Score: inf
ROOT
ATOM      1  C   UNL     1     156.875 149.249 150.305  1.00  0.00     0.180 A 
ATOM      2  C   UNL     1     157.462 149.174 151.580  1.00  0.00     0.208 A 
ATOM      3  C   UNL     1     156.752 148.550 152.619  1.00  0.00     0.238 A 
ATOM      4  O   UNL     1     157.259 148.533 153.772  1.00  0.00    -0.285 OA
ATOM      5  C   UNL     1     155.474 147.998 152.368  1.00  0.00     0.111 A 
ATOM      6  C   UNL     1     154.684 147.307 153.337  1.00  0.00     0.134 A 
ATOM      7  C   UNL     1     153.379 146.917 153.012  1.00  0.00     0.093 A 
ATOM      8  C   UNL     1     152.860 147.132 151.731  1.00  0.00     0.123 A 
ATOM      9  C   UNL     1     153.645 147.751 150.762  1.00  0.00     0.094 A 
ATOM     10  C   UNL     1     154.937 148.185 151.067  1.00  0.00     0.146 A 
ATOM     11  O   UNL     1     155.648 148.779 150.117  1.00  0.00    -0.452 OA
ENDROOT
BRANCH   1  12
ATOM     12  C   UNL     1     157.571 149.868 149.154  1.00  0.00     0.021 A 
ATOM     13  C   UNL     1     157.588 151.265 148.972  1.00  0.00     0.016 A 
ATOM     14  C   UNL     1     158.273 151.828 147.891  1.00  0.00     0.047 A 
ATOM     15  C   UNL     1     158.959 151.008 146.987  1.00  0.00     0.115 A 
ATOM     16  C   UNL     1     158.281 149.055 148.254  1.00  0.00     0.016 A 
ATOM     17  C   UNL     1     158.963 149.622 147.174  1.00  0.00     0.047 A 
BRANCH  15  18
ATOM     18  O   UNL     1     159.643 151.558 145.905  1.00  0.00    -0.508 OA
ATOM     19  H   UNL     1     159.156 152.054 145.168  1.00  0.00     0.293 HD
ENDBRANCH  15  18
ENDBRANCH   1  12
BRANCH   2  20
ATOM     20  O   UNL     1     158.715 149.745 151.813  1.00  0.00    -0.502 OA
ATOM     21  H   UNL     1     158.894 150.367 152.593  1.00  0.00     0.293 HD
ENDBRANCH   2  20
BRANCH   6  22
ATOM     22  O   UNL     1     155.140 146.961 154.612  1.00  0.00    -0.507 OA
ATOM     23  H   UNL     1     156.058 146.600 154.815  1.00  0.00     0.293 HD
ENDBRANCH   6  22
BRANCH   8  24
ATOM     24  O   UNL     1     151.566 146.726 151.412  1.00  0.00    -0.508 OA
ATOM     25  H   UNL     1     151.032 147.184 150.682  1.00  0.00     0.293 HD
ENDBRANCH   8  24
TORSDOF 5
ENDMDL
