MODEL 1
REMARK VINA RESULT:    -6.010      0.000      0.000
REMARK INTER + INTRA:          -8.484
REMARK INTER:                  -7.942
REMARK INTRA:                  -0.542
REMARK UNBOUND:                -0.542
REMARK SMILES CC[C@@H](C=C[C@H](C)[C@@H]1CC[C@H]2[C@H]3CC=C4C[C@@H](O)CC[C@@]4(C)[C@@H]3CC[C@]21C)C(C)C
REMARK SMILES IDX 6 1 7 2 5 3 4 4 3 5 2 6 1 7 28 8 29 9 30 10 8 11 9 12 26 13
REMARK SMILES IDX 10 14 11 15 25 16 27 17 12 18 24 19 23 20 13 21 21 22 14 23
REMARK SMILES IDX 15 24 20 25 22 26 16 27 19 28 17 29 18 30
REMARK H PARENT 18 31
REMARK Flexibility Score: inf
ROOT
ATOM      1  C   UNL     1      -7.243 -25.942  33.441  1.00  0.00     0.012 C 
ATOM      2  C   UNL     1      -7.739 -26.773  32.251  1.00  0.00     0.012 C 
ENDROOT
BRANCH   1   3
ATOM      3  C   UNL     1      -6.401 -26.802  34.363  1.00  0.00    -0.028 C 
ATOM      4  C   UNL     1      -6.810 -27.443  35.485  1.00  0.00    -0.027 C 
BRANCH   4   5
ATOM      5  C   UNL     1      -8.216 -27.471  36.081  1.00  0.00     0.014 C 
BRANCH   5   6
ATOM      6  C   UNL     1      -9.240 -27.345  34.928  1.00  0.00     0.004 C 
ATOM      7  C   UNL     1     -10.230 -28.507  34.881  1.00  0.00     0.004 C 
ENDBRANCH   5   6
BRANCH   5   8
ATOM      8  C   UNL     1      -8.315 -26.303  37.125  1.00  0.00    -0.011 C 
ATOM      9  C   UNL     1      -7.134 -25.317  37.125  1.00  0.00     0.008 C 
ATOM     10  C   UNL     1      -9.624 -25.520  36.935  1.00  0.00     0.008 C 
ENDBRANCH   5   8
ENDBRANCH   4   5
ENDBRANCH   1   3
BRANCH   1  11
ATOM     11  C   UNL     1      -6.538 -24.579  33.083  1.00  0.00     0.002 C 
ATOM     12  C   UNL     1      -5.003 -24.764  33.036  1.00  0.00     0.005 C 
ATOM     13  C   UNL     1      -6.764 -23.281  33.956  1.00  0.00    -0.026 C 
ATOM     14  C   UNL     1      -4.392 -23.854  34.101  1.00  0.00     0.005 C 
ATOM     15  C   UNL     1      -5.564 -23.293  34.922  1.00  0.00    -0.001 C 
ATOM     16  C   UNL     1      -6.670 -22.040  33.007  1.00  0.00     0.007 C 
ATOM     17  C   UNL     1      -8.120 -23.212  34.703  1.00  0.00     0.012 C 
ATOM     18  C   UNL     1      -5.293 -21.927  35.636  1.00  0.00     0.000 C 
ATOM     19  C   UNL     1      -6.536 -20.709  33.754  1.00  0.00     0.005 C 
ATOM     20  C   UNL     1      -5.308 -20.694  34.691  1.00  0.00     0.003 C 
ATOM     21  C   UNL     1      -3.966 -21.963  36.417  1.00  0.00     0.031 C 
ATOM     22  C   UNL     1      -5.157 -19.342  35.504  1.00  0.00    -0.008 C 
ATOM     23  C   UNL     1      -3.579 -20.635  37.000  1.00  0.00    -0.027 C 
ATOM     24  C   UNL     1      -3.991 -19.446  36.501  1.00  0.00    -0.065 C 
ATOM     25  C   UNL     1      -4.870 -18.180  34.501  1.00  0.00     0.014 C 
ATOM     26  C   UNL     1      -6.440 -18.998  36.312  1.00  0.00     0.016 C 
ATOM     27  C   UNL     1      -3.416 -18.179  37.111  1.00  0.00     0.063 C 
ATOM     28  C   UNL     1      -4.408 -16.875  35.164  1.00  0.00     0.033 C 
ATOM     29  C   UNL     1      -3.176 -17.086  36.054  1.00  0.00     0.118 C 
BRANCH  29  30
ATOM     30  O   UNL     1      -2.033 -17.344  35.280  1.00  0.00    -0.393 OA
ATOM     31  H   UNL     1      -1.567 -18.138  35.653  1.00  0.00     0.210 HD
ENDBRANCH  29  30
ENDBRANCH   1  11
TORSDOF 6
ENDMDL
MODEL 2
REMARK VINA RESULT:    -5.940      2.728      8.019
REMARK INTER + INTRA:          -8.393
REMARK INTER:                  -6.690
REMARK INTRA:                  -1.703
REMARK UNBOUND:                -0.542
REMARK SMILES CC[C@@H](C=C[C@H](C)[C@@H]1CC[C@H]2[C@H]3CC=C4C[C@@H](O)CC[C@@]4(C)[C@@H]3CC[C@]21C)C(C)C
REMARK SMILES IDX 6 1 7 2 5 3 4 4 3 5 2 6 1 7 28 8 29 9 30 10 8 11 9 12 26 13
REMARK SMILES IDX 10 14 11 15 25 16 27 17 12 18 24 19 23 20 13 21 21 22 14 23
REMARK SMILES IDX 15 24 20 25 22 26 16 27 19 28 17 29 18 30
REMARK H PARENT 18 31
REMARK Flexibility Score: inf
ROOT
ATOM      1  C   UNL     1      -5.094 -18.327  35.645  1.00  0.00     0.012 C 
ATOM      2  C   UNL     1      -5.633 -16.893  35.556  1.00  0.00     0.012 C 
ENDROOT
BRANCH   1   3
ATOM      3  C   UNL     1      -4.358 -18.528  36.954  1.00  0.00    -0.028 C 
ATOM      4  C   UNL     1      -3.117 -19.046  37.125  1.00  0.00    -0.027 C 
BRANCH   4   5
ATOM      5  C   UNL     1      -2.155 -19.534  36.044  1.00  0.00     0.014 C 
BRANCH   5   6
ATOM      6  C   UNL     1      -1.275 -20.659  36.640  1.00  0.00     0.004 C 
ATOM      7  C   UNL     1      -2.087 -21.865  37.107  1.00  0.00     0.004 C 
ENDBRANCH   5   6
BRANCH   5   8
ATOM      8  C   UNL     1      -1.325 -18.296  35.551  1.00  0.00    -0.011 C 
ATOM      9  C   UNL     1      -1.327 -18.065  34.031  1.00  0.00     0.008 C 
ATOM     10  C   UNL     1      -1.798 -17.015  36.256  1.00  0.00     0.008 C 
ENDBRANCH   5   8
ENDBRANCH   4   5
ENDBRANCH   1   3
BRANCH   1  11
ATOM     11  C   UNL     1      -6.137 -19.473  35.361  1.00  0.00     0.002 C 
ATOM     12  C   UNL     1      -6.939 -19.800  36.643  1.00  0.00     0.005 C 
ATOM     13  C   UNL     1      -5.683 -20.879  34.797  1.00  0.00    -0.026 C 
ATOM     14  C   UNL     1      -6.668 -21.260  37.002  1.00  0.00     0.005 C 
ATOM     15  C   UNL     1      -5.545 -21.740  36.067  1.00  0.00    -0.001 C 
ATOM     16  C   UNL     1      -6.840 -21.435  33.901  1.00  0.00     0.007 C 
ATOM     17  C   UNL     1      -4.385 -20.867  33.952  1.00  0.00     0.012 C 
ATOM     18  C   UNL     1      -5.502 -23.282  35.803  1.00  0.00     0.000 C 
ATOM     19  C   UNL     1      -6.687 -22.920  33.559  1.00  0.00     0.005 C 
ATOM     20  C   UNL     1      -6.595 -23.798  34.828  1.00  0.00     0.003 C 
ATOM     21  C   UNL     1      -5.573 -24.073  37.124  1.00  0.00     0.031 C 
ATOM     22  C   UNL     1      -6.405 -25.339  34.511  1.00  0.00    -0.008 C 
ATOM     23  C   UNL     1      -5.686 -25.556  36.926  1.00  0.00    -0.027 C 
ATOM     24  C   UNL     1      -6.198 -26.130  35.813  1.00  0.00    -0.065 C 
ATOM     25  C   UNL     1      -7.685 -25.867  33.788  1.00  0.00     0.014 C 
ATOM     26  C   UNL     1      -5.174 -25.601  33.598  1.00  0.00     0.016 C 
ATOM     27  C   UNL     1      -6.372 -27.640  35.804  1.00  0.00     0.063 C 
ATOM     28  C   UNL     1      -7.767 -27.396  33.689  1.00  0.00     0.033 C 
ATOM     29  C   UNL     1      -7.651 -28.070  35.063  1.00  0.00     0.118 C 
BRANCH  29  30
ATOM     30  O   UNL     1      -8.805 -27.848  35.832  1.00  0.00    -0.393 OA
ATOM     31  H   UNL     1      -9.249 -27.019  35.510  1.00  0.00     0.210 HD
ENDBRANCH  29  30
ENDBRANCH   1  11
TORSDOF 6
ENDMDL
MODEL 3
REMARK VINA RESULT:    -5.862      2.635      8.176
REMARK INTER + INTRA:          -8.288
REMARK INTER:                  -8.776
REMARK INTRA:                   0.487
REMARK UNBOUND:                -0.542
REMARK SMILES CC[C@@H](C=C[C@H](C)[C@@H]1CC[C@H]2[C@H]3CC=C4C[C@@H](O)CC[C@@]4(C)[C@@H]3CC[C@]21C)C(C)C
REMARK SMILES IDX 6 1 7 2 5 3 4 4 3 5 2 6 1 7 28 8 29 9 30 10 8 11 9 12 26 13
REMARK SMILES IDX 10 14 11 15 25 16 27 17 12 18 24 19 23 20 13 21 21 22 14 23
REMARK SMILES IDX 15 24 20 25 22 26 16 27 19 28 17 29 18 30
REMARK H PARENT 18 31
REMARK Flexibility Score: inf
ROOT
ATOM      1  C   UNL     1      -4.976 -17.372  34.957  1.00  0.00     0.012 C 
ATOM      2  C   UNL     1      -4.396 -17.058  36.342  1.00  0.00     0.012 C 
ENDROOT
BRANCH   1   3
ATOM      3  C   UNL     1      -3.862 -17.474  33.935  1.00  0.00    -0.028 C 
ATOM      4  C   UNL     1      -2.547 -17.695  34.176  1.00  0.00    -0.027 C 
BRANCH   4   5
ATOM      5  C   UNL     1      -1.873 -17.916  35.529  1.00  0.00     0.014 C 
BRANCH   5   6
ATOM      6  C   UNL     1      -0.530 -17.147  35.539  1.00  0.00     0.004 C 
ATOM      7  C   UNL     1       0.006 -16.903  36.948  1.00  0.00     0.004 C 
ENDBRANCH   5   6
BRANCH   5   8
ATOM      8  C   UNL     1      -1.701 -19.463  35.729  1.00  0.00    -0.011 C 
ATOM      9  C   UNL     1      -0.259 -19.984  35.624  1.00  0.00     0.008 C 
ATOM     10  C   UNL     1      -2.298 -19.901  37.076  1.00  0.00     0.008 C 
ENDBRANCH   5   8
ENDBRANCH   4   5
ENDBRANCH   1   3
BRANCH   1  11
ATOM     11  C   UNL     1      -5.968 -18.595  34.887  1.00  0.00     0.002 C 
ATOM     12  C   UNL     1      -6.638 -18.823  36.263  1.00  0.00     0.005 C 
ATOM     13  C   UNL     1      -5.478 -20.027  34.432  1.00  0.00    -0.026 C 
ATOM     14  C   UNL     1      -6.249 -20.219  36.744  1.00  0.00     0.005 C 
ATOM     15  C   UNL     1      -5.182 -20.739  35.767  1.00  0.00    -0.001 C 
ATOM     16  C   UNL     1      -6.669 -20.736  33.705  1.00  0.00     0.007 C 
ATOM     17  C   UNL     1      -4.257 -20.039  33.478  1.00  0.00     0.012 C 
ATOM     18  C   UNL     1      -5.067 -22.295  35.661  1.00  0.00     0.000 C 
ATOM     19  C   UNL     1      -6.455 -22.240  33.506  1.00  0.00     0.005 C 
ATOM     20  C   UNL     1      -6.204 -22.970  34.846  1.00  0.00     0.003 C 
ATOM     21  C   UNL     1      -4.979 -22.942  37.057  1.00  0.00     0.031 C 
ATOM     22  C   UNL     1      -5.948 -24.524  34.673  1.00  0.00    -0.008 C 
ATOM     23  C   UNL     1      -5.017 -24.442  37.024  1.00  0.00    -0.027 C 
ATOM     24  C   UNL     1      -5.585 -25.158  36.026  1.00  0.00    -0.065 C 
ATOM     25  C   UNL     1      -7.249 -25.192  34.126  1.00  0.00     0.014 C 
ATOM     26  C   UNL     1      -4.783 -24.819  33.686  1.00  0.00     0.016 C 
ATOM     27  C   UNL     1      -5.666 -26.667  36.188  1.00  0.00     0.063 C 
ATOM     28  C   UNL     1      -7.245 -26.726  34.192  1.00  0.00     0.033 C 
ATOM     29  C   UNL     1      -6.974 -27.240  35.613  1.00  0.00     0.118 C 
BRANCH  29  30
ATOM     30  O   UNL     1      -8.071 -26.997  36.455  1.00  0.00    -0.393 OA
ATOM     31  H   UNL     1      -8.780 -26.538  35.931  1.00  0.00     0.210 HD
ENDBRANCH  29  30
ENDBRANCH   1  11
TORSDOF 6
ENDMDL
MODEL 4
REMARK VINA RESULT:    -5.615      2.853      8.567
REMARK INTER + INTRA:          -7.962
REMARK INTER:                  -7.576
REMARK INTRA:                  -0.387
REMARK UNBOUND:                -0.542
REMARK SMILES CC[C@@H](C=C[C@H](C)[C@@H]1CC[C@H]2[C@H]3CC=C4C[C@@H](O)CC[C@@]4(C)[C@@H]3CC[C@]21C)C(C)C
REMARK SMILES IDX 6 1 7 2 5 3 4 4 3 5 2 6 1 7 28 8 29 9 30 10 8 11 9 12 26 13
REMARK SMILES IDX 10 14 11 15 25 16 27 17 12 18 24 19 23 20 13 21 21 22 14 23
REMARK SMILES IDX 15 24 20 25 22 26 16 27 19 28 17 29 18 30
REMARK H PARENT 18 31
REMARK Flexibility Score: inf
ROOT
ATOM      1  C   UNL     1      -4.508 -19.261  36.597  1.00  0.00     0.012 C 
ATOM      2  C   UNL     1      -3.135 -19.700  37.125  1.00  0.00     0.012 C 
ENDROOT
BRANCH   1   3
ATOM      3  C   UNL     1      -4.430 -17.848  36.054  1.00  0.00    -0.028 C 
ATOM      4  C   UNL     1      -3.481 -17.337  35.233  1.00  0.00    -0.027 C 
BRANCH   4   5
ATOM      5  C   UNL     1      -2.275 -18.062  34.640  1.00  0.00     0.014 C 
BRANCH   5   6
ATOM      6  C   UNL     1      -1.048 -17.122  34.722  1.00  0.00     0.004 C 
ATOM      7  C   UNL     1       0.059 -17.663  35.622  1.00  0.00     0.004 C 
ENDBRANCH   5   6
BRANCH   5   8
ATOM      8  C   UNL     1      -2.640 -18.475  33.171  1.00  0.00    -0.011 C 
ATOM      9  C   UNL     1      -2.520 -19.975  32.858  1.00  0.00     0.008 C 
ATOM     10  C   UNL     1      -4.058 -17.999  32.814  1.00  0.00     0.008 C 
ENDBRANCH   5   8
ENDBRANCH   4   5
ENDBRANCH   1   3
BRANCH   1  11
ATOM     11  C   UNL     1      -5.208 -20.253  35.593  1.00  0.00     0.002 C 
ATOM     12  C   UNL     1      -6.734 -19.997  35.561  1.00  0.00     0.005 C 
ATOM     13  C   UNL     1      -5.062 -21.819  35.746  1.00  0.00    -0.026 C 
ATOM     14  C   UNL     1      -7.429 -21.276  36.026  1.00  0.00     0.005 C 
ATOM     15  C   UNL     1      -6.324 -22.215  36.536  1.00  0.00    -0.001 C 
ATOM     16  C   UNL     1      -5.112 -22.450  34.314  1.00  0.00     0.007 C 
ATOM     17  C   UNL     1      -3.761 -22.300  36.437  1.00  0.00     0.012 C 
ATOM     18  C   UNL     1      -6.665 -23.742  36.491  1.00  0.00     0.000 C 
ATOM     19  C   UNL     1      -5.317 -23.968  34.322  1.00  0.00     0.005 C 
ATOM     20  C   UNL     1      -6.606 -24.372  35.073  1.00  0.00     0.003 C 
ATOM     21  C   UNL     1      -8.041 -24.022  37.125  1.00  0.00     0.031 C 
ATOM     22  C   UNL     1      -6.833 -25.939  35.128  1.00  0.00    -0.008 C 
ATOM     23  C   UNL     1      -8.487 -25.447  36.978  1.00  0.00    -0.027 C 
ATOM     24  C   UNL     1      -8.062 -26.271  35.992  1.00  0.00    -0.065 C 
ATOM     25  C   UNL     1      -7.070 -26.466  33.677  1.00  0.00     0.014 C 
ATOM     26  C   UNL     1      -5.613 -26.687  35.736  1.00  0.00     0.016 C 
ATOM     27  C   UNL     1      -8.697 -27.648  35.888  1.00  0.00     0.063 C 
ATOM     28  C   UNL     1      -7.597 -27.906  33.608  1.00  0.00     0.033 C 
ATOM     29  C   UNL     1      -8.883 -28.089  34.425  1.00  0.00     0.118 C 
BRANCH  29  30
ATOM     30  O   UNL     1      -9.966 -27.440  33.812  1.00  0.00    -0.393 OA
ATOM     31  H   UNL     1      -9.858 -27.499  32.826  1.00  0.00     0.210 HD
ENDBRANCH  29  30
ENDBRANCH   1  11
TORSDOF 6
ENDMDL
MODEL 5
REMARK VINA RESULT:    -5.422      3.277      8.705
REMARK INTER + INTRA:          -7.707
REMARK INTER:                  -7.249
REMARK INTRA:                  -0.458
REMARK UNBOUND:                -0.542
REMARK SMILES CC[C@@H](C=C[C@H](C)[C@@H]1CC[C@H]2[C@H]3CC=C4C[C@@H](O)CC[C@@]4(C)[C@@H]3CC[C@]21C)C(C)C
REMARK SMILES IDX 6 1 7 2 5 3 4 4 3 5 2 6 1 7 28 8 29 9 30 10 8 11 9 12 26 13
REMARK SMILES IDX 10 14 11 15 25 16 27 17 12 18 24 19 23 20 13 21 21 22 14 23
REMARK SMILES IDX 15 24 20 25 22 26 16 27 19 28 17 29 18 30
REMARK H PARENT 18 31
REMARK Flexibility Score: inf
ROOT
ATOM      1  C   UNL     1      -2.785 -18.405  35.698  1.00  0.00     0.012 C 
ATOM      2  C   UNL     1      -3.598 -17.451  34.813  1.00  0.00     0.012 C 
ENDROOT
BRANCH   1   3
ATOM      3  C   UNL     1      -1.854 -17.617  36.597  1.00  0.00    -0.028 C 
ATOM      4  C   UNL     1      -0.506 -17.728  36.679  1.00  0.00    -0.027 C 
BRANCH   4   5
ATOM      5  C   UNL     1       0.402 -18.657  35.875  1.00  0.00     0.014 C 
BRANCH   5   6
ATOM      6  C   UNL     1       0.931 -19.764  36.819  1.00  0.00     0.004 C 
ATOM      7  C   UNL     1       0.803 -21.164  36.225  1.00  0.00     0.004 C 
ENDBRANCH   5   6
BRANCH   5   8
ATOM      8  C   UNL     1       1.543 -17.782  35.248  1.00  0.00    -0.011 C 
ATOM      9  C   UNL     1       2.299 -16.878  36.236  1.00  0.00     0.008 C 
ATOM     10  C   UNL     1       2.554 -18.668  34.503  1.00  0.00     0.008 C 
ENDBRANCH   5   8
ENDBRANCH   4   5
ENDBRANCH   1   3
BRANCH   1  11
ATOM     11  C   UNL     1      -3.616 -19.483  36.492  1.00  0.00     0.002 C 
ATOM     12  C   UNL     1      -2.694 -20.632  36.964  1.00  0.00     0.005 C 
ATOM     13  C   UNL     1      -4.863 -20.205  35.841  1.00  0.00    -0.026 C 
ATOM     14  C   UNL     1      -3.189 -21.923  36.315  1.00  0.00     0.005 C 
ATOM     15  C   UNL     1      -4.265 -21.516  35.295  1.00  0.00    -0.001 C 
ATOM     16  C   UNL     1      -5.886 -20.522  36.982  1.00  0.00     0.007 C 
ATOM     17  C   UNL     1      -5.601 -19.396  34.745  1.00  0.00     0.012 C 
ATOM     18  C   UNL     1      -5.322 -22.619  34.955  1.00  0.00     0.000 C 
ATOM     19  C   UNL     1      -6.981 -21.509  36.563  1.00  0.00     0.005 C 
ATOM     20  C   UNL     1      -6.391 -22.845  36.058  1.00  0.00     0.003 C 
ATOM     21  C   UNL     1      -4.638 -23.957  34.616  1.00  0.00     0.031 C 
ATOM     22  C   UNL     1      -7.497 -23.878  35.587  1.00  0.00    -0.008 C 
ATOM     23  C   UNL     1      -5.603 -25.090  34.427  1.00  0.00    -0.027 C 
ATOM     24  C   UNL     1      -6.836 -25.130  34.985  1.00  0.00    -0.065 C 
ATOM     25  C   UNL     1      -8.356 -24.297  36.822  1.00  0.00     0.014 C 
ATOM     26  C   UNL     1      -8.439 -23.276  34.506  1.00  0.00     0.016 C 
ATOM     27  C   UNL     1      -7.656 -26.398  34.816  1.00  0.00     0.063 C 
ATOM     28  C   UNL     1      -9.265 -25.509  36.576  1.00  0.00     0.033 C 
ATOM     29  C   UNL     1      -8.477 -26.727  36.076  1.00  0.00     0.118 C 
BRANCH  29  30
ATOM     30  O   UNL     1      -7.680 -27.267  37.097  1.00  0.00    -0.393 OA
ATOM     31  H   UNL     1      -6.935 -27.779  36.685  1.00  0.00     0.210 HD
ENDBRANCH  29  30
ENDBRANCH   1  11
TORSDOF 6
ENDMDL
MODEL 6
REMARK VINA RESULT:    -5.265      1.341      2.896
REMARK INTER + INTRA:          -7.500
REMARK INTER:                  -6.859
REMARK INTRA:                  -0.641
REMARK UNBOUND:                -0.542
REMARK SMILES CC[C@@H](C=C[C@H](C)[C@@H]1CC[C@H]2[C@H]3CC=C4C[C@@H](O)CC[C@@]4(C)[C@@H]3CC[C@]21C)C(C)C
REMARK SMILES IDX 6 1 7 2 5 3 4 4 3 5 2 6 1 7 28 8 29 9 30 10 8 11 9 12 26 13
REMARK SMILES IDX 10 14 11 15 25 16 27 17 12 18 24 19 23 20 13 21 21 22 14 23
REMARK SMILES IDX 15 24 20 25 22 26 16 27 19 28 17 29 18 30
REMARK H PARENT 18 31
REMARK Flexibility Score: inf
ROOT
ATOM      1  C   UNL     1      -7.405 -25.456  33.047  1.00  0.00     0.012 C 
ATOM      2  C   UNL     1      -6.749 -25.219  31.680  1.00  0.00     0.012 C 
ENDROOT
BRANCH   1   3
ATOM      3  C   UNL     1      -7.288 -26.916  33.436  1.00  0.00    -0.028 C 
ATOM      4  C   UNL     1      -7.346 -27.439  34.685  1.00  0.00    -0.027 C 
BRANCH   4   5
ATOM      5  C   UNL     1      -7.561 -26.689  35.998  1.00  0.00     0.014 C 
BRANCH   5   6
ATOM      6  C   UNL     1      -6.456 -27.117  36.994  1.00  0.00     0.004 C 
ATOM      7  C   UNL     1      -5.048 -26.963  36.424  1.00  0.00     0.004 C 
ENDBRANCH   5   6
BRANCH   5   8
ATOM      8  C   UNL     1      -9.010 -27.019  36.503  1.00  0.00    -0.011 C 
ATOM      9  C   UNL     1      -9.855 -25.804  36.918  1.00  0.00     0.008 C 
ATOM     10  C   UNL     1      -9.778 -27.829  35.446  1.00  0.00     0.008 C 
ENDBRANCH   5   8
ENDBRANCH   4   5
ENDBRANCH   1   3
BRANCH   1  11
ATOM     11  C   UNL     1      -6.951 -24.489  34.205  1.00  0.00     0.002 C 
ATOM     12  C   UNL     1      -8.019 -23.394  34.440  1.00  0.00     0.005 C 
ATOM     13  C   UNL     1      -5.579 -23.708  34.136  1.00  0.00    -0.026 C 
ATOM     14  C   UNL     1      -7.366 -22.041  34.167  1.00  0.00     0.005 C 
ATOM     15  C   UNL     1      -5.982 -22.335  33.564  1.00  0.00    -0.001 C 
ATOM     16  C   UNL     1      -5.046 -23.539  35.598  1.00  0.00     0.007 C 
ATOM     17  C   UNL     1      -4.469 -24.390  33.297  1.00  0.00     0.012 C 
ATOM     18  C   UNL     1      -4.911 -21.212  33.758  1.00  0.00     0.000 C 
ATOM     19  C   UNL     1      -3.907 -22.522  35.719  1.00  0.00     0.005 C 
ATOM     20  C   UNL     1      -4.318 -21.129  35.191  1.00  0.00     0.003 C 
ATOM     21  C   UNL     1      -5.470 -19.835  33.350  1.00  0.00     0.031 C 
ATOM     22  C   UNL     1      -3.152 -20.060  35.273  1.00  0.00    -0.008 C 
ATOM     23  C   UNL     1      -4.539 -18.698  33.654  1.00  0.00    -0.027 C 
ATOM     24  C   UNL     1      -3.592 -18.739  34.620  1.00  0.00    -0.065 C 
ATOM     25  C   UNL     1      -2.809 -19.799  36.774  1.00  0.00     0.014 C 
ATOM     26  C   UNL     1      -1.864 -20.540  34.544  1.00  0.00     0.016 C 
ATOM     27  C   UNL     1      -2.808 -17.468  34.905  1.00  0.00     0.063 C 
ATOM     28  C   UNL     1      -1.913 -18.577  37.013  1.00  0.00     0.033 C 
ATOM     29  C   UNL     1      -2.507 -17.299  36.405  1.00  0.00     0.118 C 
BRANCH  29  30
ATOM     30  O   UNL     1      -3.636 -16.876  37.124  1.00  0.00    -0.393 OA
ATOM     31  H   UNL     1      -4.423 -17.402  36.823  1.00  0.00     0.210 HD
ENDBRANCH  29  30
ENDBRANCH   1  11
TORSDOF 6
ENDMDL
MODEL 7
REMARK VINA RESULT:    -4.617      2.766      8.382
REMARK INTER + INTRA:          -6.644
REMARK INTER:                  -6.597
REMARK INTRA:                  -0.046
REMARK UNBOUND:                -0.542
REMARK SMILES CC[C@@H](C=C[C@H](C)[C@@H]1CC[C@H]2[C@H]3CC=C4C[C@@H](O)CC[C@@]4(C)[C@@H]3CC[C@]21C)C(C)C
REMARK SMILES IDX 6 1 7 2 5 3 4 4 3 5 2 6 1 7 28 8 29 9 30 10 8 11 9 12 26 13
REMARK SMILES IDX 10 14 11 15 25 16 27 17 12 18 24 19 23 20 13 21 21 22 14 23
REMARK SMILES IDX 15 24 20 25 22 26 16 27 19 28 17 29 18 30
REMARK H PARENT 18 31
REMARK Flexibility Score: inf
ROOT
ATOM      1  C   UNL     1      -4.592 -17.843  35.991  1.00  0.00     0.012 C 
ATOM      2  C   UNL     1      -5.695 -16.896  35.503  1.00  0.00     0.012 C 
ENDROOT
BRANCH   1   3
ATOM      3  C   UNL     1      -3.573 -17.078  36.813  1.00  0.00    -0.028 C 
ATOM      4  C   UNL     1      -2.241 -16.985  36.586  1.00  0.00    -0.027 C 
BRANCH   4   5
ATOM      5  C   UNL     1      -1.446 -17.610  35.441  1.00  0.00     0.014 C 
BRANCH   5   6
ATOM      6  C   UNL     1      -2.411 -18.464  34.583  1.00  0.00     0.004 C 
ATOM      7  C   UNL     1      -2.311 -18.158  33.091  1.00  0.00     0.004 C 
ENDBRANCH   5   6
BRANCH   5   8
ATOM      8  C   UNL     1      -0.276 -18.444  36.072  1.00  0.00    -0.011 C 
ATOM      9  C   UNL     1      -0.247 -19.933  35.688  1.00  0.00     0.008 C 
ATOM     10  C   UNL     1       1.082 -17.810  35.732  1.00  0.00     0.008 C 
ENDBRANCH   5   8
ENDBRANCH   4   5
ENDBRANCH   1   3
BRANCH   1  11
ATOM     11  C   UNL     1      -5.081 -19.155  36.713  1.00  0.00     0.002 C 
ATOM     12  C   UNL     1      -3.870 -20.026  37.125  1.00  0.00     0.005 C 
ATOM     13  C   UNL     1      -6.081 -20.158  36.010  1.00  0.00    -0.026 C 
ATOM     14  C   UNL     1      -3.990 -21.364  36.396  1.00  0.00     0.005 C 
ATOM     15  C   UNL     1      -5.145 -21.214  35.393  1.00  0.00    -0.001 C 
ATOM     16  C   UNL     1      -6.965 -20.815  37.121  1.00  0.00     0.007 C 
ATOM     17  C   UNL     1      -7.026 -19.524  34.958  1.00  0.00     0.012 C 
ATOM     18  C   UNL     1      -5.853 -22.546  34.979  1.00  0.00     0.000 C 
ATOM     19  C   UNL     1      -7.744 -22.042  36.636  1.00  0.00     0.005 C 
ATOM     20  C   UNL     1      -6.808 -23.128  36.058  1.00  0.00     0.003 C 
ATOM     21  C   UNL     1      -4.825 -23.618  34.568  1.00  0.00     0.031 C 
ATOM     22  C   UNL     1      -7.584 -24.399  35.517  1.00  0.00    -0.008 C 
ATOM     23  C   UNL     1      -5.437 -24.962  34.304  1.00  0.00    -0.027 C 
ATOM     24  C   UNL     1      -6.605 -25.378  34.848  1.00  0.00    -0.065 C 
ATOM     25  C   UNL     1      -8.281 -25.114  36.718  1.00  0.00     0.014 C 
ATOM     26  C   UNL     1      -8.666 -24.022  34.466  1.00  0.00     0.016 C 
ATOM     27  C   UNL     1      -7.039 -26.813  34.597  1.00  0.00     0.063 C 
ATOM     28  C   UNL     1      -8.817 -26.515  36.393  1.00  0.00     0.033 C 
ATOM     29  C   UNL     1      -7.724 -27.432  35.828  1.00  0.00     0.118 C 
BRANCH  29  30
ATOM     30  O   UNL     1      -6.799 -27.787  36.823  1.00  0.00    -0.393 OA
ATOM     31  H   UNL     1      -6.598 -28.757  36.741  1.00  0.00     0.210 HD
ENDBRANCH  29  30
ENDBRANCH   1  11
TORSDOF 6
ENDMDL
MODEL 8
REMARK VINA RESULT:    -4.317      1.801      3.639
REMARK INTER + INTRA:          -6.247
REMARK INTER:                  -5.574
REMARK INTRA:                  -0.673
REMARK UNBOUND:                -0.542
REMARK SMILES CC[C@@H](C=C[C@H](C)[C@@H]1CC[C@H]2[C@H]3CC=C4C[C@@H](O)CC[C@@]4(C)[C@@H]3CC[C@]21C)C(C)C
REMARK SMILES IDX 6 1 7 2 5 3 4 4 3 5 2 6 1 7 28 8 29 9 30 10 8 11 9 12 26 13
REMARK SMILES IDX 10 14 11 15 25 16 27 17 12 18 24 19 23 20 13 21 21 22 14 23
REMARK SMILES IDX 15 24 20 25 22 26 16 27 19 28 17 29 18 30
REMARK H PARENT 18 31
REMARK Flexibility Score: inf
ROOT
ATOM      1  C   UNL     1      -8.577 -22.924  35.066  1.00  0.00     0.012 C 
ATOM      2  C   UNL     1      -9.379 -21.827  34.353  1.00  0.00     0.012 C 
ENDROOT
BRANCH   1   3
ATOM      3  C   UNL     1      -8.275 -24.057  34.106  1.00  0.00    -0.028 C 
ATOM      4  C   UNL     1      -7.762 -25.274  34.411  1.00  0.00    -0.027 C 
BRANCH   4   5
ATOM      5  C   UNL     1      -7.384 -25.805  35.792  1.00  0.00     0.014 C 
BRANCH   5   6
ATOM      6  C   UNL     1      -6.115 -26.680  35.651  1.00  0.00     0.004 C 
ATOM      7  C   UNL     1      -5.509 -27.070  36.997  1.00  0.00     0.004 C 
ENDBRANCH   5   6
BRANCH   5   8
ATOM      8  C   UNL     1      -8.620 -26.594  36.354  1.00  0.00    -0.011 C 
ATOM      9  C   UNL     1      -9.805 -25.727  36.807  1.00  0.00     0.008 C 
ATOM     10  C   UNL     1      -9.114 -27.624  35.325  1.00  0.00     0.008 C 
ENDBRANCH   5   8
ENDBRANCH   4   5
ENDBRANCH   1   3
BRANCH   1  11
ATOM     11  C   UNL     1      -7.297 -22.442  35.848  1.00  0.00     0.002 C 
ATOM     12  C   UNL     1      -7.646 -21.246  36.766  1.00  0.00     0.005 C 
ATOM     13  C   UNL     1      -5.984 -21.999  35.086  1.00  0.00    -0.026 C 
ATOM     14  C   UNL     1      -6.810 -20.051  36.310  1.00  0.00     0.005 C 
ATOM     15  C   UNL     1      -6.129 -20.468  34.997  1.00  0.00    -0.001 C 
ATOM     16  C   UNL     1      -4.758 -22.366  35.986  1.00  0.00     0.007 C 
ATOM     17  C   UNL     1      -5.772 -22.651  33.697  1.00  0.00     0.012 C 
ATOM     18  C   UNL     1      -4.803 -19.710  34.657  1.00  0.00     0.000 C 
ATOM     19  C   UNL     1      -3.451 -21.703  35.538  1.00  0.00     0.005 C 
ATOM     20  C   UNL     1      -3.572 -20.163  35.490  1.00  0.00     0.003 C 
ATOM     21  C   UNL     1      -4.984 -18.186  34.790  1.00  0.00     0.031 C 
ATOM     22  C   UNL     1      -2.247 -19.446  34.999  1.00  0.00    -0.008 C 
ATOM     23  C   UNL     1      -3.708 -17.415  34.622  1.00  0.00    -0.027 C 
ATOM     24  C   UNL     1      -2.480 -17.932  34.859  1.00  0.00    -0.065 C 
ATOM     25  C   UNL     1      -1.119 -19.696  36.050  1.00  0.00     0.014 C 
ATOM     26  C   UNL     1      -1.769 -19.980  33.619  1.00  0.00     0.016 C 
ATOM     27  C   UNL     1      -1.283 -16.999  34.774  1.00  0.00     0.063 C 
ATOM     28  C   UNL     1       0.126 -18.819  35.858  1.00  0.00     0.033 C 
ATOM     29  C   UNL     1      -0.220 -17.324  35.838  1.00  0.00     0.118 C 
BRANCH  29  30
ATOM     30  O   UNL     1      -0.597 -16.876  37.114  1.00  0.00    -0.393 OA
ATOM     31  H   UNL     1       0.025 -16.154  37.395  1.00  0.00     0.210 HD
ENDBRANCH  29  30
ENDBRANCH   1  11
TORSDOF 6
ENDMDL
