MODEL 1
REMARK VINA RESULT:    -3.545      0.000      0.000
REMARK INTER + INTRA:          -7.861
REMARK INTER:                  -6.446
REMARK INTRA:                  -1.416
REMARK UNBOUND:                -1.416
REMARK SMILES CCCCCCCCCCCCCCCC(=O)[O-]
REMARK SMILES IDX 9 1 10 2 11 3 12 4 13 5 14 6 15 7 16 8 17 9 18 10 8 11 7 12
REMARK SMILES IDX 6 13 5 14 4 15 3 16 2 17 1 18
REMARK H PARENT
REMARK Flexibility Score: inf
ROOT
ATOM      1  C   UNL     1      60.282  43.806  18.829  1.00  0.00     0.000 C 
ENDROOT
BRANCH   1   2
ATOM      2  C   UNL     1      59.202  42.777  18.447  1.00  0.00     0.000 C 
BRANCH   2   3
ATOM      3  C   UNL     1      57.863  43.415  18.015  1.00  0.00     0.000 C 
BRANCH   3   4
ATOM      4  C   UNL     1      57.437  42.986  16.600  1.00  0.00     0.000 C 
BRANCH   4   5
ATOM      5  C   UNL     1      57.486  44.144  15.591  1.00  0.00     0.000 C 
BRANCH   5   6
ATOM      6  C   UNL     1      58.015  45.448  16.214  1.00  0.00     0.006 C 
BRANCH   6   7
ATOM      7  C   UNL     1      57.022  46.607  16.064  1.00  0.00     0.053 C 
BRANCH   7   8
ATOM      8  C   UNL     1      56.444  46.673  14.684  1.00  0.00     0.041 C 
ATOM      9  O   UNL     1      55.234  46.381  14.490  1.00  0.00    -0.550 OA
ATOM     10  O   UNL     1      57.248  47.026  13.608  1.00  0.00    -0.550 OA
ENDBRANCH   7   8
ENDBRANCH   6   7
ENDBRANCH   5   6
ENDBRANCH   4   5
ENDBRANCH   3   4
ENDBRANCH   2   3
ENDBRANCH   1   2
BRANCH   1  11
ATOM     11  C   UNL     1      61.605  43.677  18.051  1.00  0.00     0.000 C 
BRANCH  11  12
ATOM     12  C   UNL     1      61.711  44.558  16.790  1.00  0.00    -0.000 C 
BRANCH  12  13
ATOM     13  C   UNL     1      62.883  45.556  16.786  1.00  0.00    -0.000 C 
BRANCH  13  14
ATOM     14  C   UNL     1      63.921  45.257  15.694  1.00  0.00    -0.000 C 
BRANCH  14  15
ATOM     15  C   UNL     1      63.618  43.921  15.000  1.00  0.00    -0.000 C 
BRANCH  15  16
ATOM     16  C   UNL     1      64.746  42.892  15.179  1.00  0.00    -0.000 C 
BRANCH  16  17
ATOM     17  C   UNL     1      64.218  41.476  15.452  1.00  0.00    -0.003 C 
ATOM     18  C   UNL     1      63.980  41.256  16.943  1.00  0.00     0.004 C 
ENDBRANCH  16  17
ENDBRANCH  15  16
ENDBRANCH  14  15
ENDBRANCH  13  14
ENDBRANCH  12  13
ENDBRANCH  11  12
ENDBRANCH   1  11
TORSDOF 14
ENDMDL
MODEL 2
REMARK VINA RESULT:    -3.529      7.891     11.092
REMARK INTER + INTRA:          -7.832
REMARK INTER:                  -5.532
REMARK INTRA:                  -2.300
REMARK UNBOUND:                -1.416
REMARK SMILES CCCCCCCCCCCCCCCC(=O)[O-]
REMARK SMILES IDX 9 1 10 2 11 3 12 4 13 5 14 6 15 7 16 8 17 9 18 10 8 11 7 12
REMARK SMILES IDX 6 13 5 14 4 15 3 16 2 17 1 18
REMARK H PARENT
REMARK Flexibility Score: inf
ROOT
ATOM      1  C   UNL     1      49.736  48.940  15.245  1.00  0.00     0.000 C 
ENDROOT
BRANCH   1   2
ATOM      2  C   UNL     1      49.577  47.560  15.912  1.00  0.00     0.000 C 
BRANCH   2   3
ATOM      3  C   UNL     1      50.918  46.840  16.175  1.00  0.00     0.000 C 
BRANCH   3   4
ATOM      4  C   UNL     1      51.079  45.567  15.325  1.00  0.00     0.000 C 
BRANCH   4   5
ATOM      5  C   UNL     1      49.884  45.327  14.388  1.00  0.00     0.000 C 
BRANCH   5   6
ATOM      6  C   UNL     1      49.014  44.139  14.835  1.00  0.00     0.006 C 
BRANCH   6   7
ATOM      7  C   UNL     1      47.530  44.512  14.933  1.00  0.00     0.053 C 
BRANCH   7   8
ATOM      8  C   UNL     1      46.639  43.354  14.602  1.00  0.00     0.041 C 
ATOM      9  O   UNL     1      47.034  42.458  13.810  1.00  0.00    -0.550 OA
ATOM     10  O   UNL     1      45.362  43.280  15.144  1.00  0.00    -0.550 OA
ENDBRANCH   7   8
ENDBRANCH   6   7
ENDBRANCH   5   6
ENDBRANCH   4   5
ENDBRANCH   3   4
ENDBRANCH   2   3
ENDBRANCH   1   2
BRANCH   1  11
ATOM     11  C   UNL     1      49.017  49.092  13.892  1.00  0.00     0.000 C 
BRANCH  11  12
ATOM     12  C   UNL     1      49.944  49.309  12.679  1.00  0.00    -0.000 C 
BRANCH  12  13
ATOM     13  C   UNL     1      51.449  49.305  12.996  1.00  0.00    -0.000 C 
BRANCH  13  14
ATOM     14  C   UNL     1      52.156  48.023  12.531  1.00  0.00    -0.000 C 
BRANCH  14  15
ATOM     15  C   UNL     1      53.426  47.766  13.355  1.00  0.00    -0.000 C 
BRANCH  15  16
ATOM     16  C   UNL     1      53.656  48.832  14.437  1.00  0.00    -0.000 C 
BRANCH  16  17
ATOM     17  C   UNL     1      54.372  48.275  15.676  1.00  0.00    -0.003 C 
ATOM     18  C   UNL     1      54.646  46.781  15.526  1.00  0.00     0.004 C 
ENDBRANCH  16  17
ENDBRANCH  15  16
ENDBRANCH  14  15
ENDBRANCH  13  14
ENDBRANCH  12  13
ENDBRANCH  11  12
ENDBRANCH   1  11
TORSDOF 14
ENDMDL
MODEL 3
REMARK VINA RESULT:    -3.456      1.184      2.606
REMARK INTER + INTRA:          -7.700
REMARK INTER:                  -6.290
REMARK INTRA:                  -1.411
REMARK UNBOUND:                -1.416
REMARK SMILES CCCCCCCCCCCCCCCC(=O)[O-]
REMARK SMILES IDX 9 1 10 2 11 3 12 4 13 5 14 6 15 7 16 8 17 9 18 10 8 11 7 12
REMARK SMILES IDX 6 13 5 14 4 15 3 16 2 17 1 18
REMARK H PARENT
REMARK Flexibility Score: inf
ROOT
ATOM      1  C   UNL     1      62.340  45.480  17.354  1.00  0.00     0.000 C 
ENDROOT
BRANCH   1   2
ATOM      2  C   UNL     1      61.130  44.570  17.068  1.00  0.00     0.000 C 
BRANCH   2   3
ATOM      3  C   UNL     1      59.779  45.183  17.500  1.00  0.00     0.000 C 
BRANCH   3   4
ATOM      4  C   UNL     1      58.621  44.172  17.413  1.00  0.00     0.000 C 
BRANCH   4   5
ATOM      5  C   UNL     1      57.894  44.220  16.060  1.00  0.00     0.000 C 
BRANCH   5   6
ATOM      6  C   UNL     1      57.492  45.649  15.656  1.00  0.00     0.006 C 
BRANCH   6   7
ATOM      7  C   UNL     1      56.166  45.682  14.885  1.00  0.00     0.053 C 
BRANCH   7   8
ATOM      8  C   UNL     1      56.096  46.844  13.942  1.00  0.00     0.041 C 
ATOM      9  O   UNL     1      57.108  47.175  13.269  1.00  0.00    -0.550 OA
ATOM     10  O   UNL     1      54.924  47.580  13.829  1.00  0.00    -0.550 OA
ENDBRANCH   7   8
ENDBRANCH   6   7
ENDBRANCH   5   6
ENDBRANCH   4   5
ENDBRANCH   3   4
ENDBRANCH   2   3
ENDBRANCH   1   2
BRANCH   1  11
ATOM     11  C   UNL     1      63.505  45.341  16.357  1.00  0.00     0.000 C 
BRANCH  11  12
ATOM     12  C   UNL     1      63.319  44.253  15.280  1.00  0.00    -0.000 C 
BRANCH  12  13
ATOM     13  C   UNL     1      64.549  43.362  15.031  1.00  0.00    -0.000 C 
BRANCH  13  14
ATOM     14  C   UNL     1      64.297  41.885  15.371  1.00  0.00    -0.000 C 
BRANCH  14  15
ATOM     15  C   UNL     1      64.555  41.612  16.860  1.00  0.00    -0.000 C 
BRANCH  15  16
ATOM     16  C   UNL     1      63.435  40.787  17.514  1.00  0.00    -0.000 C 
BRANCH  16  17
ATOM     17  C   UNL     1      62.811  41.492  18.727  1.00  0.00    -0.003 C 
ATOM     18  C   UNL     1      63.671  42.667  19.182  1.00  0.00     0.004 C 
ENDBRANCH  16  17
ENDBRANCH  15  16
ENDBRANCH  14  15
ENDBRANCH  13  14
ENDBRANCH  12  13
ENDBRANCH  11  12
ENDBRANCH   1  11
TORSDOF 14
ENDMDL
MODEL 4
REMARK VINA RESULT:    -3.390      5.574     10.723
REMARK INTER + INTRA:          -7.580
REMARK INTER:                  -5.227
REMARK INTRA:                  -2.354
REMARK UNBOUND:                -1.416
REMARK SMILES CCCCCCCCCCCCCCCC(=O)[O-]
REMARK SMILES IDX 9 1 10 2 11 3 12 4 13 5 14 6 15 7 16 8 17 9 18 10 8 11 7 12
REMARK SMILES IDX 6 13 5 14 4 15 3 16 2 17 1 18
REMARK H PARENT
REMARK Flexibility Score: inf
ROOT
ATOM      1  C   UNL     1      51.473  48.421  12.159  1.00  0.00     0.000 C 
ENDROOT
BRANCH   1   2
ATOM      2  C   UNL     1      52.615  47.900  13.052  1.00  0.00     0.000 C 
BRANCH   2   3
ATOM      3  C   UNL     1      53.121  48.937  14.080  1.00  0.00     0.000 C 
BRANCH   3   4
ATOM      4  C   UNL     1      53.459  48.300  15.440  1.00  0.00     0.000 C 
BRANCH   4   5
ATOM      5  C   UNL     1      53.676  46.782  15.345  1.00  0.00     0.000 C 
BRANCH   5   6
ATOM      6  C   UNL     1      54.666  46.260  16.401  1.00  0.00     0.006 C 
BRANCH   6   7
ATOM      7  C   UNL     1      56.080  46.817  16.193  1.00  0.00     0.053 C 
BRANCH   7   8
ATOM      8  C   UNL     1      56.747  46.216  14.993  1.00  0.00     0.041 C 
ATOM      9  O   UNL     1      56.904  46.901  13.947  1.00  0.00    -0.550 OA
ATOM     10  O   UNL     1      57.166  44.893  15.018  1.00  0.00    -0.550 OA
ENDBRANCH   7   8
ENDBRANCH   6   7
ENDBRANCH   5   6
ENDBRANCH   4   5
ENDBRANCH   3   4
ENDBRANCH   2   3
ENDBRANCH   1   2
BRANCH   1  11
ATOM     11  C   UNL     1      51.088  49.893  12.393  1.00  0.00     0.000 C 
BRANCH  11  12
ATOM     12  C   UNL     1      49.646  50.121  12.892  1.00  0.00    -0.000 C 
BRANCH  12  13
ATOM     13  C   UNL     1      49.057  48.976  13.734  1.00  0.00    -0.000 C 
BRANCH  13  14
ATOM     14  C   UNL     1      49.568  48.974  15.183  1.00  0.00    -0.000 C 
BRANCH  14  15
ATOM     15  C   UNL     1      49.821  47.540  15.674  1.00  0.00    -0.000 C 
BRANCH  15  16
ATOM     16  C   UNL     1      49.165  46.481  14.774  1.00  0.00    -0.000 C 
BRANCH  16  17
ATOM     17  C   UNL     1      50.144  45.378  14.347  1.00  0.00    -0.003 C 
ATOM     18  C   UNL     1      50.702  44.640  15.560  1.00  0.00     0.004 C 
ENDBRANCH  16  17
ENDBRANCH  15  16
ENDBRANCH  14  15
ENDBRANCH  13  14
ENDBRANCH  12  13
ENDBRANCH  11  12
ENDBRANCH   1  11
TORSDOF 14
ENDMDL
MODEL 5
REMARK VINA RESULT:    -3.354      3.441      6.426
REMARK INTER + INTRA:          -7.515
REMARK INTER:                  -5.623
REMARK INTRA:                  -1.892
REMARK UNBOUND:                -1.416
REMARK SMILES CCCCCCCCCCCCCCCC(=O)[O-]
REMARK SMILES IDX 9 1 10 2 11 3 12 4 13 5 14 6 15 7 16 8 17 9 18 10 8 11 7 12
REMARK SMILES IDX 6 13 5 14 4 15 3 16 2 17 1 18
REMARK H PARENT
REMARK Flexibility Score: inf
ROOT
ATOM      1  C   UNL     1      64.856  42.562  15.230  1.00  0.00     0.000 C 
ENDROOT
BRANCH   1   2
ATOM      2  C   UNL     1      64.262  41.199  15.634  1.00  0.00     0.000 C 
BRANCH   2   3
ATOM      3  C   UNL     1      64.386  40.891  17.142  1.00  0.00     0.000 C 
BRANCH   3   4
ATOM      4  C   UNL     1      63.055  41.079  17.893  1.00  0.00     0.000 C 
BRANCH   4   5
ATOM      5  C   UNL     1      63.220  41.869  19.201  1.00  0.00     0.000 C 
BRANCH   5   6
ATOM      6  C   UNL     1      61.871  42.284  19.813  1.00  0.00     0.006 C 
BRANCH   6   7
ATOM      7  C   UNL     1      60.681  41.677  19.058  1.00  0.00     0.053 C 
BRANCH   7   8
ATOM      8  C   UNL     1      59.927  40.694  19.900  1.00  0.00     0.041 C 
ATOM      9  O   UNL     1      60.184  40.584  21.128  1.00  0.00    -0.550 OA
ATOM     10  O   UNL     1      58.962  39.878  19.323  1.00  0.00    -0.550 OA
ENDBRANCH   7   8
ENDBRANCH   6   7
ENDBRANCH   5   6
ENDBRANCH   4   5
ENDBRANCH   3   4
ENDBRANCH   2   3
ENDBRANCH   1   2
BRANCH   1  11
ATOM     11  C   UNL     1      63.818  43.642  14.876  1.00  0.00     0.000 C 
BRANCH  11  12
ATOM     12  C   UNL     1      63.896  44.929  15.722  1.00  0.00    -0.000 C 
BRANCH  12  13
ATOM     13  C   UNL     1      63.079  44.905  17.026  1.00  0.00    -0.000 C 
BRANCH  13  14
ATOM     14  C   UNL     1      61.594  44.588  16.796  1.00  0.00    -0.000 C 
BRANCH  14  15
ATOM     15  C   UNL     1      60.710  45.342  17.801  1.00  0.00    -0.000 C 
BRANCH  15  16
ATOM     16  C   UNL     1      59.254  44.852  17.794  1.00  0.00    -0.000 C 
BRANCH  16  17
ATOM     17  C   UNL     1      58.469  45.343  16.569  1.00  0.00    -0.003 C 
ATOM     18  C   UNL     1      57.741  44.190  15.884  1.00  0.00     0.004 C 
ENDBRANCH  16  17
ENDBRANCH  15  16
ENDBRANCH  14  15
ENDBRANCH  13  14
ENDBRANCH  12  13
ENDBRANCH  11  12
ENDBRANCH   1  11
TORSDOF 14
ENDMDL
MODEL 6
REMARK VINA RESULT:    -3.346      9.125     12.827
REMARK INTER + INTRA:          -7.500
REMARK INTER:                  -5.744
REMARK INTRA:                  -1.756
REMARK UNBOUND:                -1.416
REMARK SMILES CCCCCCCCCCCCCCCC(=O)[O-]
REMARK SMILES IDX 9 1 10 2 11 3 12 4 13 5 14 6 15 7 16 8 17 9 18 10 8 11 7 12
REMARK SMILES IDX 6 13 5 14 4 15 3 16 2 17 1 18
REMARK H PARENT
REMARK Flexibility Score: inf
ROOT
ATOM      1  C   UNL     1      49.205  42.969  16.017  1.00  0.00     0.000 C 
ENDROOT
BRANCH   1   2
ATOM      2  C   UNL     1      50.084  43.879  16.897  1.00  0.00     0.000 C 
BRANCH   2   3
ATOM      3  C   UNL     1      51.529  44.037  16.376  1.00  0.00     0.000 C 
BRANCH   3   4
ATOM      4  C   UNL     1      51.827  45.467  15.893  1.00  0.00     0.000 C 
BRANCH   4   5
ATOM      5  C   UNL     1      50.678  46.444  16.190  1.00  0.00     0.000 C 
BRANCH   5   6
ATOM      6  C   UNL     1      50.330  47.331  14.982  1.00  0.00     0.006 C 
BRANCH   6   7
ATOM      7  C   UNL     1      50.820  46.727  13.660  1.00  0.00     0.053 C 
BRANCH   7   8
ATOM      8  C   UNL     1      51.727  47.662  12.919  1.00  0.00     0.041 C 
ATOM      9  O   UNL     1      52.976  47.559  13.038  1.00  0.00    -0.550 OA
ATOM     10  O   UNL     1      51.191  48.666  12.123  1.00  0.00    -0.550 OA
ENDBRANCH   7   8
ENDBRANCH   6   7
ENDBRANCH   5   6
ENDBRANCH   4   5
ENDBRANCH   3   4
ENDBRANCH   2   3
ENDBRANCH   1   2
BRANCH   1  11
ATOM     11  C   UNL     1      48.605  43.653  14.775  1.00  0.00     0.000 C 
BRANCH  11  12
ATOM     12  C   UNL     1      47.564  44.752  15.072  1.00  0.00    -0.000 C 
BRANCH  12  13
ATOM     13  C   UNL     1      46.098  44.285  15.056  1.00  0.00    -0.000 C 
BRANCH  13  14
ATOM     14  C   UNL     1      45.628  43.740  16.413  1.00  0.00    -0.000 C 
BRANCH  14  15
ATOM     15  C   UNL     1      44.875  42.412  16.240  1.00  0.00    -0.000 C 
BRANCH  15  16
ATOM     16  C   UNL     1      45.522  41.496  15.190  1.00  0.00    -0.000 C 
BRANCH  16  17
ATOM     17  C   UNL     1      45.921  40.128  15.761  1.00  0.00    -0.003 C 
ATOM     18  C   UNL     1      45.374  38.993  14.901  1.00  0.00     0.004 C 
ENDBRANCH  16  17
ENDBRANCH  15  16
ENDBRANCH  14  15
ENDBRANCH  13  14
ENDBRANCH  12  13
ENDBRANCH  11  12
ENDBRANCH   1  11
TORSDOF 14
ENDMDL
MODEL 7
REMARK VINA RESULT:    -3.336     11.422     13.949
REMARK INTER + INTRA:          -7.483
REMARK INTER:                  -5.407
REMARK INTRA:                  -2.076
REMARK UNBOUND:                -1.416
REMARK SMILES CCCCCCCCCCCCCCCC(=O)[O-]
REMARK SMILES IDX 9 1 10 2 11 3 12 4 13 5 14 6 15 7 16 8 17 9 18 10 8 11 7 12
REMARK SMILES IDX 6 13 5 14 4 15 3 16 2 17 1 18
REMARK H PARENT
REMARK Flexibility Score: inf
ROOT
ATOM      1  C   UNL     1      49.763  43.901  15.604  1.00  0.00     0.000 C 
ENDROOT
BRANCH   1   2
ATOM      2  C   UNL     1      48.484  43.067  15.815  1.00  0.00     0.000 C 
BRANCH   2   3
ATOM      3  C   UNL     1      47.600  42.958  14.553  1.00  0.00     0.000 C 
BRANCH   3   4
ATOM      4  C   UNL     1      46.341  43.838  14.638  1.00  0.00     0.000 C 
BRANCH   4   5
ATOM      5  C   UNL     1      45.152  43.109  15.285  1.00  0.00     0.000 C 
BRANCH   5   6
ATOM      6  C   UNL     1      45.234  41.582  15.116  1.00  0.00     0.006 C 
BRANCH   6   7
ATOM      7  C   UNL     1      45.486  40.864  16.448  1.00  0.00     0.053 C 
BRANCH   7   8
ATOM      8  C   UNL     1      46.258  39.594  16.262  1.00  0.00     0.041 C 
ATOM      9  O   UNL     1      47.207  39.311  17.040  1.00  0.00    -0.550 OA
ATOM     10  O   UNL     1      45.950  38.739  15.212  1.00  0.00    -0.550 OA
ENDBRANCH   7   8
ENDBRANCH   6   7
ENDBRANCH   5   6
ENDBRANCH   4   5
ENDBRANCH   3   4
ENDBRANCH   2   3
ENDBRANCH   1   2
BRANCH   1  11
ATOM     11  C   UNL     1      49.733  44.835  14.381  1.00  0.00     0.000 C 
BRANCH  11  12
ATOM     12  C   UNL     1      50.117  46.301  14.667  1.00  0.00    -0.000 C 
BRANCH  12  13
ATOM     13  C   UNL     1      48.932  47.273  14.799  1.00  0.00    -0.000 C 
BRANCH  13  14
ATOM     14  C   UNL     1      48.473  47.465  16.253  1.00  0.00    -0.000 C 
BRANCH  14  15
ATOM     15  C   UNL     1      47.186  46.674  16.531  1.00  0.00    -0.000 C 
BRANCH  15  16
ATOM     16  C   UNL     1      47.290  45.796  17.788  1.00  0.00    -0.000 C 
BRANCH  16  17
ATOM     17  C   UNL     1      45.917  45.396  18.346  1.00  0.00    -0.003 C 
ATOM     18  C   UNL     1      45.894  43.924  18.747  1.00  0.00     0.004 C 
ENDBRANCH  16  17
ENDBRANCH  15  16
ENDBRANCH  14  15
ENDBRANCH  13  14
ENDBRANCH  12  13
ENDBRANCH  11  12
ENDBRANCH   1  11
TORSDOF 14
ENDMDL
MODEL 8
REMARK VINA RESULT:    -3.303      5.546     10.501
REMARK INTER + INTRA:          -7.423
REMARK INTER:                  -5.342
REMARK INTRA:                  -2.080
REMARK UNBOUND:                -1.416
REMARK SMILES CCCCCCCCCCCCCCCC(=O)[O-]
REMARK SMILES IDX 9 1 10 2 11 3 12 4 13 5 14 6 15 7 16 8 17 9 18 10 8 11 7 12
REMARK SMILES IDX 6 13 5 14 4 15 3 16 2 17 1 18
REMARK H PARENT
REMARK Flexibility Score: inf
ROOT
ATOM      1  C   UNL     1      53.119  47.979  12.994  1.00  0.00     0.000 C 
ENDROOT
BRANCH   1   2
ATOM      2  C   UNL     1      53.258  48.447  14.455  1.00  0.00     0.000 C 
BRANCH   2   3
ATOM      3  C   UNL     1      54.446  49.407  14.688  1.00  0.00     0.000 C 
BRANCH   3   4
ATOM      4  C   UNL     1      55.477  49.355  13.546  1.00  0.00     0.000 C 
BRANCH   4   5
ATOM      5  C   UNL     1      56.780  48.651  13.956  1.00  0.00     0.000 C 
BRANCH   5   6
ATOM      6  C   UNL     1      56.860  47.206  13.432  1.00  0.00     0.006 C 
BRANCH   6   7
ATOM      7  C   UNL     1      56.240  46.200  14.410  1.00  0.00     0.053 C 
BRANCH   7   8
ATOM      8  C   UNL     1      56.740  46.398  15.808  1.00  0.00     0.041 C 
ATOM      9  O   UNL     1      57.927  46.100  16.104  1.00  0.00    -0.550 OA
ATOM     10  O   UNL     1      55.886  46.884  16.790  1.00  0.00    -0.550 OA
ENDBRANCH   7   8
ENDBRANCH   6   7
ENDBRANCH   5   6
ENDBRANCH   4   5
ENDBRANCH   3   4
ENDBRANCH   2   3
ENDBRANCH   1   2
BRANCH   1  11
ATOM     11  C   UNL     1      51.813  48.403  12.299  1.00  0.00     0.000 C 
BRANCH  11  12
ATOM     12  C   UNL     1      51.266  49.783  12.720  1.00  0.00    -0.000 C 
BRANCH  12  13
ATOM     13  C   UNL     1      49.807  49.786  13.208  1.00  0.00    -0.000 C 
BRANCH  13  14
ATOM     14  C   UNL     1      49.313  48.394  13.630  1.00  0.00    -0.000 C 
BRANCH  14  15
ATOM     15  C   UNL     1      49.445  48.201  15.148  1.00  0.00    -0.000 C 
BRANCH  15  16
ATOM     16  C   UNL     1      50.033  46.832  15.522  1.00  0.00    -0.000 C 
BRANCH  16  17
ATOM     17  C   UNL     1      50.212  45.911  14.306  1.00  0.00    -0.003 C 
ATOM     18  C   UNL     1      49.638  44.524  14.579  1.00  0.00     0.004 C 
ENDBRANCH  16  17
ENDBRANCH  15  16
ENDBRANCH  14  15
ENDBRANCH  13  14
ENDBRANCH  12  13
ENDBRANCH  11  12
ENDBRANCH   1  11
TORSDOF 14
ENDMDL
MODEL 9
REMARK VINA RESULT:    -3.243     11.188     13.467
REMARK INTER + INTRA:          -7.313
REMARK INTER:                  -5.298
REMARK INTRA:                  -2.015
REMARK UNBOUND:                -1.416
REMARK SMILES CCCCCCCCCCCCCCCC(=O)[O-]
REMARK SMILES IDX 9 1 10 2 11 3 12 4 13 5 14 6 15 7 16 8 17 9 18 10 8 11 7 12
REMARK SMILES IDX 6 13 5 14 4 15 3 16 2 17 1 18
REMARK H PARENT
REMARK Flexibility Score: inf
ROOT
ATOM      1  C   UNL     1      47.658  43.956  18.346  1.00  0.00     0.000 C 
ENDROOT
BRANCH   1   2
ATOM      2  C   UNL     1      46.190  44.284  18.012  1.00  0.00     0.000 C 
BRANCH   2   3
ATOM      3  C   UNL     1      46.029  45.388  16.944  1.00  0.00     0.000 C 
BRANCH   3   4
ATOM      4  C   UNL     1      45.455  44.848  15.621  1.00  0.00     0.000 C 
BRANCH   4   5
ATOM      5  C   UNL     1      44.886  43.427  15.760  1.00  0.00     0.000 C 
BRANCH   5   6
ATOM      6  C   UNL     1      45.671  42.394  14.932  1.00  0.00     0.006 C 
BRANCH   6   7
ATOM      7  C   UNL     1      45.484  40.966  15.461  1.00  0.00     0.053 C 
BRANCH   7   8
ATOM      8  C   UNL     1      46.192  40.756  16.764  1.00  0.00     0.041 C 
ATOM      9  O   UNL     1      47.435  40.554  16.784  1.00  0.00    -0.550 OA
ATOM     10  O   UNL     1      45.475  40.751  17.953  1.00  0.00    -0.550 OA
ENDBRANCH   7   8
ENDBRANCH   6   7
ENDBRANCH   5   6
ENDBRANCH   4   5
ENDBRANCH   3   4
ENDBRANCH   2   3
ENDBRANCH   1   2
BRANCH   1  11
ATOM     11  C   UNL     1      48.690  44.514  17.349  1.00  0.00     0.000 C 
BRANCH  11  12
ATOM     12  C   UNL     1      49.127  43.533  16.242  1.00  0.00    -0.000 C 
BRANCH  12  13
ATOM     13  C   UNL     1      49.019  44.077  14.806  1.00  0.00    -0.000 C 
BRANCH  13  14
ATOM     14  C   UNL     1      49.119  45.608  14.737  1.00  0.00    -0.000 C 
BRANCH  14  15
ATOM     15  C   UNL     1      50.484  46.045  14.185  1.00  0.00    -0.000 C 
BRANCH  15  16
ATOM     16  C   UNL     1      50.504  47.521  13.754  1.00  0.00    -0.000 C 
BRANCH  16  17
ATOM     17  C   UNL     1      49.214  48.264  14.127  1.00  0.00    -0.003 C 
ATOM     18  C   UNL     1      49.497  49.729  14.446  1.00  0.00     0.004 C 
ENDBRANCH  16  17
ENDBRANCH  15  16
ENDBRANCH  14  15
ENDBRANCH  13  14
ENDBRANCH  12  13
ENDBRANCH  11  12
ENDBRANCH   1  11
TORSDOF 14
ENDMDL
