MODEL 1
REMARK VINA RESULT:    -2.537      0.000      0.000
REMARK INTER + INTRA:          -5.648
REMARK INTER:                  -4.020
REMARK INTRA:                  -1.629
REMARK UNBOUND:                -1.629
REMARK SMILES CCCCCCCCCCCC(=O)[O-]
REMARK SMILES IDX 7 1 8 2 9 3 10 4 11 5 12 6 13 7 14 8 6 9 5 10 4 11 3 12 2 13
REMARK SMILES IDX 1 14
REMARK H PARENT
REMARK Flexibility Score: inf
ROOT
ATOM      1  C   UNL     1      11.211 -14.977   7.029  1.00  0.00     0.000 C 
ENDROOT
BRANCH   1   2
ATOM      2  C   UNL     1      10.862 -15.404   5.595  1.00  0.00     0.000 C 
BRANCH   2   3
ATOM      3  C   UNL     1      11.485 -16.757   5.210  1.00  0.00     0.000 C 
BRANCH   3   4
ATOM      4  C   UNL     1      10.427 -17.841   4.933  1.00  0.00     0.006 C 
BRANCH   4   5
ATOM      5  C   UNL     1       9.202 -17.340   4.154  1.00  0.00     0.053 C 
BRANCH   5   6
ATOM      6  C   UNL     1       8.906 -18.196   2.961  1.00  0.00     0.041 C 
ATOM      7  O   UNL     1       7.827 -18.841   2.895  1.00  0.00    -0.550 OA
ATOM      8  O   UNL     1       9.839 -18.308   1.937  1.00  0.00    -0.550 OA
ENDBRANCH   5   6
ENDBRANCH   4   5
ENDBRANCH   3   4
ENDBRANCH   2   3
ENDBRANCH   1   2
BRANCH   1   9
ATOM      9  C   UNL     1       9.961 -14.687   7.878  1.00  0.00     0.000 C 
BRANCH   9  10
ATOM     10  C   UNL     1       8.655 -14.875   7.087  1.00  0.00    -0.000 C 
BRANCH  10  11
ATOM     11  C   UNL     1       7.811 -16.048   7.616  1.00  0.00    -0.000 C 
BRANCH  11  12
ATOM     12  C   UNL     1       8.494 -16.801   8.773  1.00  0.00    -0.000 C 
BRANCH  12  13
ATOM     13  C   UNL     1       9.020 -18.203   8.415  1.00  0.00    -0.003 C 
ATOM     14  C   UNL     1      10.525 -18.350   8.633  1.00  0.00     0.004 C 
ENDBRANCH  12  13
ENDBRANCH  11  12
ENDBRANCH  10  11
ENDBRANCH   9  10
ENDBRANCH   1   9
TORSDOF 10
ENDMDL
MODEL 2
REMARK VINA RESULT:    -2.489      1.537      2.691
REMARK INTER + INTRA:          -5.573
REMARK INTER:                  -4.305
REMARK INTRA:                  -1.269
REMARK UNBOUND:                -1.629
REMARK SMILES CCCCCCCCCCCC(=O)[O-]
REMARK SMILES IDX 7 1 8 2 9 3 10 4 11 5 12 6 13 7 14 8 6 9 5 10 4 11 3 12 2 13
REMARK SMILES IDX 1 14
REMARK H PARENT
REMARK Flexibility Score: inf
ROOT
ATOM      1  C   UNL     1      11.435 -15.425   5.171  1.00  0.00     0.000 C 
ENDROOT
BRANCH   1   2
ATOM      2  C   UNL     1      10.327 -16.187   4.428  1.00  0.00     0.000 C 
BRANCH   2   3
ATOM      3  C   UNL     1       9.932 -17.497   5.130  1.00  0.00     0.000 C 
BRANCH   3   4
ATOM      4  C   UNL     1       8.810 -18.252   4.394  1.00  0.00     0.006 C 
BRANCH   4   5
ATOM      5  C   UNL     1       8.771 -18.000   2.879  1.00  0.00     0.053 C 
BRANCH   5   6
ATOM      6  C   UNL     1       9.647 -18.955   2.128  1.00  0.00     0.041 C 
ATOM      7  O   UNL     1      10.317 -18.558   1.139  1.00  0.00    -0.550 OA
ATOM      8  O   UNL     1       9.697 -20.292   2.502  1.00  0.00    -0.550 OA
ENDBRANCH   5   6
ENDBRANCH   4   5
ENDBRANCH   3   4
ENDBRANCH   2   3
ENDBRANCH   1   2
BRANCH   1   9
ATOM      9  C   UNL     1      12.209 -16.322   6.153  1.00  0.00     0.000 C 
BRANCH   9  10
ATOM     10  C   UNL     1      12.224 -15.754   7.583  1.00  0.00    -0.000 C 
BRANCH  10  11
ATOM     11  C   UNL     1      11.158 -14.665   7.793  1.00  0.00    -0.000 C 
BRANCH  11  12
ATOM     12  C   UNL     1      10.019 -15.115   8.726  1.00  0.00    -0.000 C 
BRANCH  12  13
ATOM     13  C   UNL     1       8.753 -15.620   8.010  1.00  0.00    -0.003 C 
ATOM     14  C   UNL     1       8.199 -14.618   6.999  1.00  0.00     0.004 C 
ENDBRANCH  12  13
ENDBRANCH  11  12
ENDBRANCH  10  11
ENDBRANCH   9  10
ENDBRANCH   1   9
TORSDOF 10
ENDMDL
MODEL 3
REMARK VINA RESULT:    -2.476      4.704      6.856
REMARK INTER + INTRA:          -5.553
REMARK INTER:                  -4.417
REMARK INTRA:                  -1.136
REMARK UNBOUND:                -1.629
REMARK SMILES CCCCCCCCCCCC(=O)[O-]
REMARK SMILES IDX 7 1 8 2 9 3 10 4 11 5 12 6 13 7 14 8 6 9 5 10 4 11 3 12 2 13
REMARK SMILES IDX 1 14
REMARK H PARENT
REMARK Flexibility Score: inf
ROOT
ATOM      1  C   UNL     1       4.105 -19.168   6.118  1.00  0.00     0.000 C 
ENDROOT
BRANCH   1   2
ATOM      2  C   UNL     1       4.515 -20.283   5.145  1.00  0.00     0.000 C 
BRANCH   2   3
ATOM      3  C   UNL     1       6.037 -20.360   4.936  1.00  0.00     0.000 C 
BRANCH   3   4
ATOM      4  C   UNL     1       6.518 -19.510   3.745  1.00  0.00     0.006 C 
BRANCH   4   5
ATOM      5  C   UNL     1       8.030 -19.590   3.485  1.00  0.00     0.053 C 
BRANCH   5   6
ATOM      6  C   UNL     1       8.664 -18.233   3.443  1.00  0.00     0.041 C 
ATOM      7  O   UNL     1       8.907 -17.680   2.339  1.00  0.00    -0.550 OA
ATOM      8  O   UNL     1       9.019 -17.596   4.626  1.00  0.00    -0.550 OA
ENDBRANCH   5   6
ENDBRANCH   4   5
ENDBRANCH   3   4
ENDBRANCH   2   3
ENDBRANCH   1   2
BRANCH   1   9
ATOM      9  C   UNL     1       2.926 -18.331   5.593  1.00  0.00     0.000 C 
BRANCH   9  10
ATOM     10  C   UNL     1       2.431 -18.808   4.217  1.00  0.00    -0.000 C 
BRANCH  10  11
ATOM     11  C   UNL     1       2.808 -17.835   3.087  1.00  0.00    -0.000 C 
BRANCH  11  12
ATOM     12  C   UNL     1       3.646 -18.500   1.980  1.00  0.00    -0.000 C 
BRANCH  12  13
ATOM     13  C   UNL     1       2.984 -19.713   1.302  1.00  0.00    -0.003 C 
ATOM     14  C   UNL     1       3.714 -21.026   1.582  1.00  0.00     0.004 C 
ENDBRANCH  12  13
ENDBRANCH  11  12
ENDBRANCH  10  11
ENDBRANCH   9  10
ENDBRANCH   1   9
TORSDOF 10
ENDMDL
MODEL 4
REMARK VINA RESULT:    -2.474      2.088      3.945
REMARK INTER + INTRA:          -5.549
REMARK INTER:                  -4.074
REMARK INTRA:                  -1.475
REMARK UNBOUND:                -1.629
REMARK SMILES CCCCCCCCCCCC(=O)[O-]
REMARK SMILES IDX 7 1 8 2 9 3 10 4 11 5 12 6 13 7 14 8 6 9 5 10 4 11 3 12 2 13
REMARK SMILES IDX 1 14
REMARK H PARENT
REMARK Flexibility Score: inf
ROOT
ATOM      1  C   UNL     1       7.985 -16.689   9.501  1.00  0.00     0.000 C 
ENDROOT
BRANCH   1   2
ATOM      2  C   UNL     1       7.707 -16.637   7.991  1.00  0.00     0.000 C 
BRANCH   2   3
ATOM      3  C   UNL     1       7.746 -15.206   7.428  1.00  0.00     0.000 C 
BRANCH   3   4
ATOM      4  C   UNL     1       8.901 -14.990   6.433  1.00  0.00     0.006 C 
BRANCH   4   5
ATOM      5  C   UNL     1       9.632 -16.280   6.028  1.00  0.00     0.053 C 
BRANCH   5   6
ATOM      6  C   UNL     1      10.487 -16.082   4.814  1.00  0.00     0.041 C 
ATOM      7  O   UNL     1      11.390 -15.205   4.810  1.00  0.00    -0.550 OA
ATOM      8  O   UNL     1      10.263 -16.845   3.675  1.00  0.00    -0.550 OA
ENDBRANCH   5   6
ENDBRANCH   4   5
ENDBRANCH   3   4
ENDBRANCH   2   3
ENDBRANCH   1   2
BRANCH   1   9
ATOM      9  C   UNL     1       9.476 -16.903   9.818  1.00  0.00     0.000 C 
BRANCH   9  10
ATOM     10  C   UNL     1       9.960 -16.032  10.990  1.00  0.00    -0.000 C 
BRANCH  10  11
ATOM     11  C   UNL     1      11.186 -15.180  10.621  1.00  0.00    -0.000 C 
BRANCH  11  12
ATOM     12  C   UNL     1      10.915 -14.219   9.448  1.00  0.00    -0.000 C 
BRANCH  12  13
ATOM     13  C   UNL     1      11.923 -14.309   8.288  1.00  0.00    -0.003 C 
ATOM     14  C   UNL     1      12.668 -15.643   8.245  1.00  0.00     0.004 C 
ENDBRANCH  12  13
ENDBRANCH  11  12
ENDBRANCH  10  11
ENDBRANCH   9  10
ENDBRANCH   1   9
TORSDOF 10
ENDMDL
MODEL 5
REMARK VINA RESULT:    -2.450      1.429      2.520
REMARK INTER + INTRA:          -5.511
REMARK INTER:                  -4.061
REMARK INTRA:                  -1.449
REMARK UNBOUND:                -1.629
REMARK SMILES CCCCCCCCCCCC(=O)[O-]
REMARK SMILES IDX 7 1 8 2 9 3 10 4 11 5 12 6 13 7 14 8 6 9 5 10 4 11 3 12 2 13
REMARK SMILES IDX 1 14
REMARK H PARENT
REMARK Flexibility Score: inf
ROOT
ATOM      1  C   UNL     1       9.037 -14.877   7.703  1.00  0.00     0.000 C 
ENDROOT
BRANCH   1   2
ATOM      2  C   UNL     1       9.085 -15.957   6.612  1.00  0.00     0.000 C 
BRANCH   2   3
ATOM      3  C   UNL     1       9.979 -15.562   5.424  1.00  0.00     0.000 C 
BRANCH   3   4
ATOM      4  C   UNL     1      10.279 -16.747   4.487  1.00  0.00     0.006 C 
BRANCH   4   5
ATOM      5  C   UNL     1       9.200 -17.840   4.489  1.00  0.00     0.053 C 
BRANCH   5   6
ATOM      6  C   UNL     1       8.584 -18.024   3.136  1.00  0.00     0.041 C 
ATOM      7  O   UNL     1       8.985 -17.341   2.158  1.00  0.00    -0.550 OA
ATOM      8  O   UNL     1       7.542 -18.927   2.964  1.00  0.00    -0.550 OA
ENDBRANCH   5   6
ENDBRANCH   4   5
ENDBRANCH   3   4
ENDBRANCH   2   3
ENDBRANCH   1   2
BRANCH   1   9
ATOM      9  C   UNL     1      10.007 -15.165   8.862  1.00  0.00     0.000 C 
BRANCH   9  10
ATOM     10  C   UNL     1      11.350 -14.431   8.703  1.00  0.00    -0.000 C 
BRANCH  10  11
ATOM     11  C   UNL     1      12.522 -15.397   8.457  1.00  0.00    -0.000 C 
BRANCH  11  12
ATOM     12  C   UNL     1      12.129 -16.874   8.648  1.00  0.00    -0.000 C 
BRANCH  12  13
ATOM     13  C   UNL     1      12.333 -17.767   7.411  1.00  0.00    -0.003 C 
ATOM     14  C   UNL     1      11.369 -18.951   7.364  1.00  0.00     0.004 C 
ENDBRANCH  12  13
ENDBRANCH  11  12
ENDBRANCH  10  11
ENDBRANCH   9  10
ENDBRANCH   1   9
TORSDOF 10
ENDMDL
MODEL 6
REMARK VINA RESULT:    -2.426      5.363      7.752
REMARK INTER + INTRA:          -5.474
REMARK INTER:                  -4.230
REMARK INTRA:                  -1.244
REMARK UNBOUND:                -1.629
REMARK SMILES CCCCCCCCCCCC(=O)[O-]
REMARK SMILES IDX 7 1 8 2 9 3 10 4 11 5 12 6 13 7 14 8 6 9 5 10 4 11 3 12 2 13
REMARK SMILES IDX 1 14
REMARK H PARENT
REMARK Flexibility Score: inf
ROOT
ATOM      1  C   UNL     1       1.837 -19.245   5.243  1.00  0.00     0.000 C 
ENDROOT
BRANCH   1   2
ATOM      2  C   UNL     1       2.847 -18.314   5.930  1.00  0.00     0.000 C 
BRANCH   2   3
ATOM      3  C   UNL     1       3.493 -18.952   7.172  1.00  0.00     0.000 C 
BRANCH   3   4
ATOM      4  C   UNL     1       4.977 -18.573   7.331  1.00  0.00     0.006 C 
BRANCH   4   5
ATOM      5  C   UNL     1       5.279 -17.721   8.574  1.00  0.00     0.053 C 
BRANCH   5   6
ATOM      6  C   UNL     1       5.807 -16.367   8.212  1.00  0.00     0.041 C 
ATOM      7  O   UNL     1       7.048 -16.168   8.141  1.00  0.00    -0.550 OA
ATOM      8  O   UNL     1       4.927 -15.316   7.986  1.00  0.00    -0.550 OA
ENDBRANCH   5   6
ENDBRANCH   4   5
ENDBRANCH   3   4
ENDBRANCH   2   3
ENDBRANCH   1   2
BRANCH   1   9
ATOM      9  C   UNL     1       1.870 -19.122   3.709  1.00  0.00     0.000 C 
BRANCH   9  10
ATOM     10  C   UNL     1       2.678 -17.901   3.234  1.00  0.00    -0.000 C 
BRANCH  10  11
ATOM     11  C   UNL     1       3.857 -18.294   2.327  1.00  0.00    -0.000 C 
BRANCH  11  12
ATOM     12  C   UNL     1       4.278 -19.766   2.499  1.00  0.00    -0.000 C 
BRANCH  12  13
ATOM     13  C   UNL     1       5.453 -19.997   3.466  1.00  0.00    -0.003 C 
ATOM     14  C   UNL     1       5.144 -21.035   4.544  1.00  0.00     0.004 C 
ENDBRANCH  12  13
ENDBRANCH  11  12
ENDBRANCH  10  11
ENDBRANCH   9  10
ENDBRANCH   1   9
TORSDOF 10
ENDMDL
MODEL 7
REMARK VINA RESULT:    -2.404      0.796      2.680
REMARK INTER + INTRA:          -5.438
REMARK INTER:                  -3.871
REMARK INTRA:                  -1.567
REMARK UNBOUND:                -1.629
REMARK SMILES CCCCCCCCCCCC(=O)[O-]
REMARK SMILES IDX 7 1 8 2 9 3 10 4 11 5 12 6 13 7 14 8 6 9 5 10 4 11 3 12 2 13
REMARK SMILES IDX 1 14
REMARK H PARENT
REMARK Flexibility Score: inf
ROOT
ATOM      1  C   UNL     1       8.462 -18.347   7.852  1.00  0.00     0.000 C 
ENDROOT
BRANCH   1   2
ATOM      2  C   UNL     1       9.864 -18.706   7.335  1.00  0.00     0.000 C 
BRANCH   2   3
ATOM      3  C   UNL     1       9.884 -18.994   5.824  1.00  0.00     0.000 C 
BRANCH   3   4
ATOM      4  C   UNL     1      10.398 -17.800   4.998  1.00  0.00     0.006 C 
BRANCH   4   5
ATOM      5  C   UNL     1       9.350 -17.189   4.056  1.00  0.00     0.053 C 
BRANCH   5   6
ATOM      6  C   UNL     1       9.019 -18.103   2.916  1.00  0.00     0.041 C 
ATOM      7  O   UNL     1       9.834 -18.256   1.969  1.00  0.00    -0.550 OA
ATOM      8  O   UNL     1       7.794 -18.758   2.884  1.00  0.00    -0.550 OA
ENDBRANCH   5   6
ENDBRANCH   4   5
ENDBRANCH   3   4
ENDBRANCH   2   3
ENDBRANCH   1   2
BRANCH   1   9
ATOM      9  C   UNL     1       8.406 -16.941   8.472  1.00  0.00     0.000 C 
BRANCH   9  10
ATOM     10  C   UNL     1       7.724 -15.916   7.550  1.00  0.00    -0.000 C 
BRANCH  10  11
ATOM     11  C   UNL     1       8.680 -14.795   7.109  1.00  0.00    -0.000 C 
BRANCH  11  12
ATOM     12  C   UNL     1       9.931 -14.691   8.000  1.00  0.00    -0.000 C 
BRANCH  12  13
ATOM     13  C   UNL     1      11.273 -14.787   7.251  1.00  0.00    -0.003 C 
ATOM     14  C   UNL     1      12.200 -15.860   7.820  1.00  0.00     0.004 C 
ENDBRANCH  12  13
ENDBRANCH  11  12
ENDBRANCH  10  11
ENDBRANCH   9  10
ENDBRANCH   1   9
TORSDOF 10
ENDMDL
MODEL 8
REMARK VINA RESULT:    -2.382      1.203      1.933
REMARK INTER + INTRA:          -5.402
REMARK INTER:                  -4.334
REMARK INTRA:                  -1.069
REMARK UNBOUND:                -1.629
REMARK SMILES CCCCCCCCCCCC(=O)[O-]
REMARK SMILES IDX 7 1 8 2 9 3 10 4 11 5 12 6 13 7 14 8 6 9 5 10 4 11 3 12 2 13
REMARK SMILES IDX 1 14
REMARK H PARENT
REMARK Flexibility Score: inf
ROOT
ATOM      1  C   UNL     1       9.704 -15.027   6.705  1.00  0.00     0.000 C 
ENDROOT
BRANCH   1   2
ATOM      2  C   UNL     1       9.995 -15.386   5.240  1.00  0.00     0.000 C 
BRANCH   2   3
ATOM      3  C   UNL     1      11.133 -16.411   5.094  1.00  0.00     0.000 C 
BRANCH   3   4
ATOM      4  C   UNL     1      10.678 -17.710   4.403  1.00  0.00     0.006 C 
BRANCH   4   5
ATOM      5  C   UNL     1       9.165 -17.963   4.475  1.00  0.00     0.053 C 
BRANCH   5   6
ATOM      6  C   UNL     1       8.564 -18.158   3.116  1.00  0.00     0.041 C 
ATOM      7  O   UNL     1       9.060 -17.581   2.114  1.00  0.00    -0.550 OA
ATOM      8  O   UNL     1       7.434 -18.952   2.964  1.00  0.00    -0.550 OA
ENDBRANCH   5   6
ENDBRANCH   4   5
ENDBRANCH   3   4
ENDBRANCH   2   3
ENDBRANCH   1   2
BRANCH   1   9
ATOM      9  C   UNL     1       8.200 -15.045   7.028  1.00  0.00     0.000 C 
BRANCH   9  10
ATOM     10  C   UNL     1       7.767 -16.331   7.753  1.00  0.00    -0.000 C 
BRANCH  10  11
ATOM     11  C   UNL     1       8.906 -16.946   8.585  1.00  0.00    -0.000 C 
BRANCH  11  12
ATOM     12  C   UNL     1       8.851 -16.537  10.068  1.00  0.00    -0.000 C 
BRANCH  12  13
ATOM     13  C   UNL     1      10.215 -16.216  10.705  1.00  0.00    -0.003 C 
ATOM     14  C   UNL     1      10.845 -14.937  10.156  1.00  0.00     0.004 C 
ENDBRANCH  12  13
ENDBRANCH  11  12
ENDBRANCH  10  11
ENDBRANCH   9  10
ENDBRANCH   1   9
TORSDOF 10
ENDMDL
MODEL 9
REMARK VINA RESULT:    -2.338      2.168      3.765
REMARK INTER + INTRA:          -5.333
REMARK INTER:                  -3.802
REMARK INTRA:                  -1.532
REMARK UNBOUND:                -1.629
REMARK SMILES CCCCCCCCCCCC(=O)[O-]
REMARK SMILES IDX 7 1 8 2 9 3 10 4 11 5 12 6 13 7 14 8 6 9 5 10 4 11 3 12 2 13
REMARK SMILES IDX 1 14
REMARK H PARENT
REMARK Flexibility Score: inf
ROOT
ATOM      1  C   UNL     1       9.251 -16.129  10.159  1.00  0.00     0.000 C 
ENDROOT
BRANCH   1   2
ATOM      2  C   UNL     1       9.833 -15.958   8.748  1.00  0.00     0.000 C 
BRANCH   2   3
ATOM      3  C   UNL     1       9.328 -14.685   8.047  1.00  0.00     0.000 C 
BRANCH   3   4
ATOM      4  C   UNL     1       8.762 -14.966   6.643  1.00  0.00     0.006 C 
BRANCH   4   5
ATOM      5  C   UNL     1       9.279 -16.263   6.003  1.00  0.00     0.053 C 
BRANCH   5   6
ATOM      6  C   UNL     1      10.219 -15.994   4.869  1.00  0.00     0.041 C 
ATOM      7  O   UNL     1      10.036 -16.540   3.749  1.00  0.00    -0.550 OA
ATOM      8  O   UNL     1      11.318 -15.166   5.059  1.00  0.00    -0.550 OA
ENDBRANCH   5   6
ENDBRANCH   4   5
ENDBRANCH   3   4
ENDBRANCH   2   3
ENDBRANCH   1   2
BRANCH   1   9
ATOM      9  C   UNL     1       8.542 -17.482  10.344  1.00  0.00     0.000 C 
BRANCH   9  10
ATOM     10  C   UNL     1       8.798 -18.446   9.172  1.00  0.00    -0.000 C 
BRANCH  10  11
ATOM     11  C   UNL     1       7.508 -19.124   8.677  1.00  0.00    -0.000 C 
BRANCH  11  12
ATOM     12  C   UNL     1       6.726 -18.259   7.672  1.00  0.00    -0.000 C 
BRANCH  12  13
ATOM     13  C   UNL     1       5.440 -17.620   8.227  1.00  0.00    -0.003 C 
ATOM     14  C   UNL     1       5.506 -16.095   8.285  1.00  0.00     0.004 C 
ENDBRANCH  12  13
ENDBRANCH  11  12
ENDBRANCH  10  11
ENDBRANCH   9  10
ENDBRANCH   1   9
TORSDOF 10
ENDMDL
