MODEL 1
REMARK VINA RESULT:    -6.658      0.000      0.000
REMARK INTER + INTRA:          -7.704
REMARK INTER:                  -7.826
REMARK INTRA:                   0.122
REMARK UNBOUND:                 0.122
REMARK SMILES O=C([O-])C=Cc1ccc(O)c(O)c1
REMARK SMILES IDX 6 1 13 2 7 3 11 4 8 5 9 6 5 7 4 8 2 9 1 10 3 11 12 12 10 14
REMARK H PARENT 12 13 10 15
REMARK Flexibility Score: inf
ROOT
ATOM      1  C   UNL     1      13.580 -13.080  28.002  1.00  0.00    -0.022 A 
ATOM      2  C   UNL     1      13.816 -12.297  29.141  1.00  0.00     0.058 A 
ATOM      3  C   UNL     1      12.256 -13.322  27.596  1.00  0.00     0.012 A 
ATOM      4  C   UNL     1      12.744 -11.805  29.900  1.00  0.00     0.157 A 
ATOM      5  C   UNL     1      11.187 -12.833  28.351  1.00  0.00     0.051 A 
ATOM      6  C   UNL     1      11.427 -12.077  29.506  1.00  0.00     0.157 A 
ENDROOT
BRANCH   1   7
ATOM      7  C   UNL     1      14.725 -13.541  27.191  1.00  0.00     0.010 C 
ATOM      8  C   UNL     1      15.294 -14.755  27.266  1.00  0.00     0.025 C 
BRANCH   8   9
ATOM      9  C   UNL     1      15.000 -15.782  28.285  1.00  0.00     0.064 C 
ATOM     10  O   UNL     1      14.668 -15.471  29.459  1.00  0.00    -0.545 OA
ATOM     11  O   UNL     1      15.164 -17.122  27.960  1.00  0.00    -0.545 OA
ENDBRANCH   8   9
ENDBRANCH   1   7
BRANCH   4  12
ATOM     12  O   UNL     1      12.978 -11.043  31.044  1.00  0.00    -0.504 OA
ATOM     13  H   UNL     1      12.542 -10.137  31.175  1.00  0.00     0.293 HD
ENDBRANCH   4  12
BRANCH   6  14
ATOM     14  O   UNL     1      10.364 -11.589  30.264  1.00  0.00    -0.504 OA
ATOM     15  H   UNL     1      10.300 -10.610  30.519  1.00  0.00     0.293 HD
ENDBRANCH   6  14
TORSDOF 4
ENDMDL
MODEL 2
REMARK VINA RESULT:    -6.592      1.326      2.190
REMARK INTER + INTRA:          -7.626
REMARK INTER:                  -7.779
REMARK INTRA:                   0.154
REMARK UNBOUND:                 0.122
REMARK SMILES O=C([O-])C=Cc1ccc(O)c(O)c1
REMARK SMILES IDX 6 1 13 2 7 3 11 4 8 5 9 6 5 7 4 8 2 9 1 10 3 11 12 12 10 14
REMARK H PARENT 12 13 10 15
REMARK Flexibility Score: inf
ROOT
ATOM      1  C   UNL     1      13.744 -13.343  27.361  1.00  0.00    -0.022 A 
ATOM      2  C   UNL     1      12.446 -13.767  27.039  1.00  0.00     0.058 A 
ATOM      3  C   UNL     1      13.914 -12.240  28.218  1.00  0.00     0.012 A 
ATOM      4  C   UNL     1      11.330 -13.068  27.521  1.00  0.00     0.157 A 
ATOM      5  C   UNL     1      12.802 -11.542  28.697  1.00  0.00     0.051 A 
ATOM      6  C   UNL     1      11.508 -11.952  28.348  1.00  0.00     0.157 A 
ENDROOT
BRANCH   1   7
ATOM      7  C   UNL     1      14.901 -14.127  26.885  1.00  0.00     0.010 C 
ATOM      8  C   UNL     1      15.392 -15.228  27.475  1.00  0.00     0.025 C 
BRANCH   8   9
ATOM      9  C   UNL     1      14.983 -15.754  28.792  1.00  0.00     0.064 C 
ATOM     10  O   UNL     1      14.651 -14.988  29.735  1.00  0.00    -0.545 OA
ATOM     11  O   UNL     1      15.033 -17.123  29.019  1.00  0.00    -0.545 OA
ENDBRANCH   8   9
ENDBRANCH   1   7
BRANCH   4  12
ATOM     12  O   UNL     1      10.041 -13.478  27.184  1.00  0.00    -0.504 OA
ATOM     13  H   UNL     1       9.871 -14.107  26.407  1.00  0.00     0.293 HD
ENDBRANCH   4  12
BRANCH   6  14
ATOM     14  O   UNL     1      10.397 -11.257  28.823  1.00  0.00    -0.504 OA
ATOM     15  H   UNL     1      10.494 -10.392  29.341  1.00  0.00     0.293 HD
ENDBRANCH   6  14
TORSDOF 4
ENDMDL
MODEL 3
REMARK VINA RESULT:    -6.452      1.213      4.647
REMARK INTER + INTRA:          -7.461
REMARK INTER:                  -7.189
REMARK INTRA:                  -0.272
REMARK UNBOUND:                 0.122
REMARK SMILES O=C([O-])C=Cc1ccc(O)c(O)c1
REMARK SMILES IDX 6 1 13 2 7 3 11 4 8 5 9 6 5 7 4 8 2 9 1 10 3 11 12 12 10 14
REMARK H PARENT 12 13 10 15
REMARK Flexibility Score: inf
ROOT
ATOM      1  C   UNL     1      14.465 -12.993  28.399  1.00  0.00    -0.022 A 
ATOM      2  C   UNL     1      14.594 -13.832  29.515  1.00  0.00     0.058 A 
ATOM      3  C   UNL     1      14.491 -13.554  27.110  1.00  0.00     0.012 A 
ATOM      4  C   UNL     1      14.800 -15.210  29.348  1.00  0.00     0.157 A 
ATOM      5  C   UNL     1      14.697 -14.925  26.942  1.00  0.00     0.051 A 
ATOM      6  C   UNL     1      14.856 -15.756  28.060  1.00  0.00     0.157 A 
ENDROOT
BRANCH   1   7
ATOM      7  C   UNL     1      14.196 -11.555  28.602  1.00  0.00     0.010 C 
ATOM      8  C   UNL     1      13.003 -11.022  28.914  1.00  0.00     0.025 C 
BRANCH   8   9
ATOM      9  C   UNL     1      11.716 -11.745  28.935  1.00  0.00     0.064 C 
ATOM     10  O   UNL     1      11.226 -12.188  30.007  1.00  0.00    -0.545 OA
ATOM     11  O   UNL     1      11.066 -12.004  27.737  1.00  0.00    -0.545 OA
ENDBRANCH   8   9
ENDBRANCH   1   7
BRANCH   4  12
ATOM     12  O   UNL     1      14.948 -16.041  30.457  1.00  0.00    -0.504 OA
ATOM     13  H   UNL     1      14.505 -16.953  30.499  1.00  0.00     0.293 HD
ENDBRANCH   4  12
BRANCH   6  14
ATOM     14  O   UNL     1      15.064 -17.125  27.897  1.00  0.00    -0.504 OA
ATOM     15  H   UNL     1      15.911 -17.575  28.226  1.00  0.00     0.293 HD
ENDBRANCH   6  14
TORSDOF 4
ENDMDL
MODEL 4
REMARK VINA RESULT:    -6.339      1.641      2.149
REMARK INTER + INTRA:          -7.328
REMARK INTER:                  -7.619
REMARK INTRA:                   0.291
REMARK UNBOUND:                 0.122
REMARK SMILES O=C([O-])C=Cc1ccc(O)c(O)c1
REMARK SMILES IDX 6 1 13 2 7 3 11 4 8 5 9 6 5 7 4 8 2 9 1 10 3 11 12 12 10 14
REMARK H PARENT 12 13 10 15
REMARK Flexibility Score: inf
ROOT
ATOM      1  C   UNL     1      11.918 -12.598  28.020  1.00  0.00    -0.022 A 
ATOM      2  C   UNL     1      12.608 -12.510  29.238  1.00  0.00     0.058 A 
ATOM      3  C   UNL     1      11.151 -11.503  27.585  1.00  0.00     0.012 A 
ATOM      4  C   UNL     1      12.493 -11.365  30.039  1.00  0.00     0.157 A 
ATOM      5  C   UNL     1      11.033 -10.362  28.383  1.00  0.00     0.051 A 
ATOM      6  C   UNL     1      11.701 -10.291  29.613  1.00  0.00     0.157 A 
ENDROOT
BRANCH   1   7
ATOM      7  C   UNL     1      12.098 -13.792  27.169  1.00  0.00     0.010 C 
ATOM      8  C   UNL     1      13.247 -14.469  27.012  1.00  0.00     0.025 C 
BRANCH   8   9
ATOM      9  C   UNL     1      14.570 -14.049  27.511  1.00  0.00     0.064 C 
ATOM     10  O   UNL     1      15.268 -13.199  26.897  1.00  0.00    -0.545 OA
ATOM     11  O   UNL     1      15.089 -14.657  28.646  1.00  0.00    -0.545 OA
ENDBRANCH   8   9
ENDBRANCH   1   7
BRANCH   4  12
ATOM     12  O   UNL     1      13.163 -11.286  31.259  1.00  0.00    -0.504 OA
ATOM     13  H   UNL     1      14.070 -11.720  31.394  1.00  0.00     0.293 HD
ENDBRANCH   4  12
BRANCH   6  14
ATOM     14  O   UNL     1      11.585  -9.156  30.413  1.00  0.00    -0.504 OA
ATOM     15  H   UNL     1      10.751  -8.580  30.400  1.00  0.00     0.293 HD
ENDBRANCH   6  14
TORSDOF 4
ENDMDL
MODEL 5
REMARK VINA RESULT:    -6.294      1.592      2.603
REMARK INTER + INTRA:          -7.275
REMARK INTER:                  -7.992
REMARK INTRA:                   0.716
REMARK UNBOUND:                 0.122
REMARK SMILES O=C([O-])C=Cc1ccc(O)c(O)c1
REMARK SMILES IDX 6 1 13 2 7 3 11 4 8 5 9 6 5 7 4 8 2 9 1 10 3 11 12 12 10 14
REMARK H PARENT 12 13 10 15
REMARK Flexibility Score: inf
ROOT
ATOM      1  C   UNL     1      12.056 -12.537  27.918  1.00  0.00    -0.022 A 
ATOM      2  C   UNL     1      10.789 -12.032  28.247  1.00  0.00     0.058 A 
ATOM      3  C   UNL     1      13.197 -11.975  28.518  1.00  0.00     0.012 A 
ATOM      4  C   UNL     1      10.663 -10.945  29.124  1.00  0.00     0.157 A 
ATOM      5  C   UNL     1      13.073 -10.891  29.391  1.00  0.00     0.051 A 
ATOM      6  C   UNL     1      11.808 -10.371  29.693  1.00  0.00     0.157 A 
ENDROOT
BRANCH   1   7
ATOM      7  C   UNL     1      12.158 -13.716  27.034  1.00  0.00     0.010 C 
ATOM      8  C   UNL     1      13.245 -14.491  26.892  1.00  0.00     0.025 C 
BRANCH   8   9
ATOM      9  C   UNL     1      14.583 -14.209  27.449  1.00  0.00     0.064 C 
ATOM     10  O   UNL     1      15.434 -13.533  26.814  1.00  0.00    -0.545 OA
ATOM     11  O   UNL     1      14.934 -14.762  28.673  1.00  0.00    -0.545 OA
ENDBRANCH   8   9
ENDBRANCH   1   7
BRANCH   4  12
ATOM     12  O   UNL     1       9.406 -10.431  29.436  1.00  0.00    -0.504 OA
ATOM     13  H   UNL     1       9.241  -9.432  29.492  1.00  0.00     0.293 HD
ENDBRANCH   4  12
BRANCH   6  14
ATOM     14  O   UNL     1      11.680  -9.288  30.562  1.00  0.00    -0.504 OA
ATOM     15  H   UNL     1      11.651  -9.416  31.567  1.00  0.00     0.293 HD
ENDBRANCH   6  14
TORSDOF 4
ENDMDL
MODEL 6
REMARK VINA RESULT:    -6.047      1.723      5.109
REMARK INTER + INTRA:          -6.986
REMARK INTER:                  -7.113
REMARK INTRA:                   0.127
REMARK UNBOUND:                 0.122
REMARK SMILES O=C([O-])C=Cc1ccc(O)c(O)c1
REMARK SMILES IDX 6 1 13 2 7 3 11 4 8 5 9 6 5 7 4 8 2 9 1 10 3 11 12 12 10 14
REMARK H PARENT 12 13 10 15
REMARK Flexibility Score: inf
ROOT
ATOM      1  C   UNL     1      13.909 -12.721  29.257  1.00  0.00    -0.022 A 
ATOM      2  C   UNL     1      13.890 -14.116  29.403  1.00  0.00     0.058 A 
ATOM      3  C   UNL     1      14.465 -12.159  28.095  1.00  0.00     0.012 A 
ATOM      4  C   UNL     1      14.468 -14.941  28.426  1.00  0.00     0.157 A 
ATOM      5  C   UNL     1      15.042 -12.978  27.122  1.00  0.00     0.051 A 
ATOM      6  C   UNL     1      15.048 -14.370  27.286  1.00  0.00     0.157 A 
ENDROOT
BRANCH   1   7
ATOM      7  C   UNL     1      13.247 -11.879  30.274  1.00  0.00     0.010 C 
ATOM      8  C   UNL     1      12.327 -10.934  30.023  1.00  0.00     0.025 C 
BRANCH   8   9
ATOM      9  C   UNL     1      11.939 -10.442  28.687  1.00  0.00     0.064 C 
ATOM     10  O   UNL     1      12.401  -9.369  28.218  1.00  0.00    -0.545 OA
ATOM     11  O   UNL     1      10.988 -11.144  27.958  1.00  0.00    -0.545 OA
ENDBRANCH   8   9
ENDBRANCH   1   7
BRANCH   4  12
ATOM     12  O   UNL     1      14.466 -16.326  28.580  1.00  0.00    -0.504 OA
ATOM     13  H   UNL     1      15.185 -16.800  29.116  1.00  0.00     0.293 HD
ENDBRANCH   4  12
BRANCH   6  14
ATOM     14  O   UNL     1      15.624 -15.192  26.318  1.00  0.00    -0.504 OA
ATOM     15  H   UNL     1      16.611 -15.423  26.338  1.00  0.00     0.293 HD
ENDBRANCH   6  14
TORSDOF 4
ENDMDL
MODEL 7
REMARK VINA RESULT:    -6.037      1.637      4.875
REMARK INTER + INTRA:          -6.974
REMARK INTER:                  -6.913
REMARK INTRA:                  -0.061
REMARK UNBOUND:                 0.122
REMARK SMILES O=C([O-])C=Cc1ccc(O)c(O)c1
REMARK SMILES IDX 6 1 13 2 7 3 11 4 8 5 9 6 5 7 4 8 2 9 1 10 3 11 12 12 10 14
REMARK H PARENT 12 13 10 15
REMARK Flexibility Score: inf
ROOT
ATOM      1  C   UNL     1      11.968 -12.831  28.390  1.00  0.00    -0.022 A 
ATOM      2  C   UNL     1      13.006 -13.070  29.303  1.00  0.00     0.058 A 
ATOM      3  C   UNL     1      12.023 -13.423  27.116  1.00  0.00     0.012 A 
ATOM      4  C   UNL     1      14.114 -13.846  28.932  1.00  0.00     0.157 A 
ATOM      5  C   UNL     1      13.126 -14.196  26.745  1.00  0.00     0.051 A 
ATOM      6  C   UNL     1      14.176 -14.407  27.650  1.00  0.00     0.157 A 
ENDROOT
BRANCH   1   7
ATOM      7  C   UNL     1      10.789 -12.054  28.822  1.00  0.00     0.010 C 
ATOM      8  C   UNL     1      10.795 -10.758  29.173  1.00  0.00     0.025 C 
BRANCH   8   9
ATOM      9  C   UNL     1      11.997  -9.923  29.362  1.00  0.00     0.064 C 
ATOM     10  O   UNL     1      12.468  -9.693  30.507  1.00  0.00    -0.545 OA
ATOM     11  O   UNL     1      12.581  -9.320  28.256  1.00  0.00    -0.545 OA
ENDBRANCH   8   9
ENDBRANCH   1   7
BRANCH   4  12
ATOM     12  O   UNL     1      15.155 -14.067  29.832  1.00  0.00    -0.504 OA
ATOM     13  H   UNL     1      15.310 -13.452  30.623  1.00  0.00     0.293 HD
ENDBRANCH   4  12
BRANCH   6  14
ATOM     14  O   UNL     1      15.279 -15.176  27.283  1.00  0.00    -0.504 OA
ATOM     15  H   UNL     1      15.970 -14.832  26.624  1.00  0.00     0.293 HD
ENDBRANCH   6  14
TORSDOF 4
ENDMDL
MODEL 8
REMARK VINA RESULT:    -5.883      1.698      2.370
REMARK INTER + INTRA:          -6.793
REMARK INTER:                  -6.604
REMARK INTRA:                  -0.188
REMARK UNBOUND:                 0.122
REMARK SMILES O=C([O-])C=Cc1ccc(O)c(O)c1
REMARK SMILES IDX 6 1 13 2 7 3 11 4 8 5 9 6 5 7 4 8 2 9 1 10 3 11 12 12 10 14
REMARK H PARENT 12 13 10 15
REMARK Flexibility Score: inf
ROOT
ATOM      1  C   UNL     1      13.446 -11.789  28.628  1.00  0.00    -0.022 A 
ATOM      2  C   UNL     1      12.428 -11.213  27.854  1.00  0.00     0.058 A 
ATOM      3  C   UNL     1      13.193 -12.100  29.975  1.00  0.00     0.012 A 
ATOM      4  C   UNL     1      11.187 -10.902  28.430  1.00  0.00     0.157 A 
ATOM      5  C   UNL     1      11.958 -11.789  30.551  1.00  0.00     0.051 A 
ATOM      6  C   UNL     1      10.954 -11.186  29.782  1.00  0.00     0.157 A 
ENDROOT
BRANCH   1   7
ATOM      7  C   UNL     1      14.724 -12.156  27.985  1.00  0.00     0.010 C 
ATOM      8  C   UNL     1      14.977 -13.319  27.364  1.00  0.00     0.025 C 
BRANCH   8   9
ATOM      9  C   UNL     1      14.098 -14.504  27.362  1.00  0.00     0.064 C 
ATOM     10  O   UNL     1      14.445 -15.584  27.909  1.00  0.00    -0.545 OA
ATOM     11  O   UNL     1      12.889 -14.448  26.681  1.00  0.00    -0.545 OA
ENDBRANCH   8   9
ENDBRANCH   1   7
BRANCH   4  12
ATOM     12  O   UNL     1      10.182 -10.311  27.666  1.00  0.00    -0.504 OA
ATOM     13  H   UNL     1       9.570  -9.601  28.054  1.00  0.00     0.293 HD
ENDBRANCH   4  12
BRANCH   6  14
ATOM     14  O   UNL     1       9.722 -10.873  30.352  1.00  0.00    -0.504 OA
ATOM     15  H   UNL     1       9.389  -9.916  30.403  1.00  0.00     0.293 HD
ENDBRANCH   6  14
TORSDOF 4
ENDMDL
MODEL 9
REMARK VINA RESULT:    -5.877      1.772      5.024
REMARK INTER + INTRA:          -6.786
REMARK INTER:                  -6.837
REMARK INTRA:                   0.051
REMARK UNBOUND:                 0.122
REMARK SMILES O=C([O-])C=Cc1ccc(O)c(O)c1
REMARK SMILES IDX 6 1 13 2 7 3 11 4 8 5 9 6 5 7 4 8 2 9 1 10 3 11 12 12 10 14
REMARK H PARENT 12 13 10 15
REMARK Flexibility Score: inf
ROOT
ATOM      1  C   UNL     1      13.742 -12.157  28.758  1.00  0.00    -0.022 A 
ATOM      2  C   UNL     1      14.512 -12.522  27.644  1.00  0.00     0.058 A 
ATOM      3  C   UNL     1      13.445 -13.123  29.735  1.00  0.00     0.012 A 
ATOM      4  C   UNL     1      14.937 -13.848  27.478  1.00  0.00     0.157 A 
ATOM      5  C   UNL     1      13.867 -14.445  29.571  1.00  0.00     0.051 A 
ATOM      6  C   UNL     1      14.610 -14.812  28.441  1.00  0.00     0.157 A 
ENDROOT
BRANCH   1   7
ATOM      7  C   UNL     1      13.352 -10.743  28.936  1.00  0.00     0.010 C 
ATOM      8  C   UNL     1      12.100 -10.265  28.855  1.00  0.00     0.025 C 
BRANCH   8   9
ATOM      9  C   UNL     1      10.916 -11.021  28.401  1.00  0.00     0.064 C 
ATOM     10  O   UNL     1      10.992 -11.872  27.477  1.00  0.00    -0.545 OA
ATOM     11  O   UNL     1       9.678 -10.736  28.960  1.00  0.00    -0.545 OA
ENDBRANCH   8   9
ENDBRANCH   1   7
BRANCH   4  12
ATOM     12  O   UNL     1      15.686 -14.216  26.361  1.00  0.00    -0.504 OA
ATOM     13  H   UNL     1      16.486 -14.833  26.440  1.00  0.00     0.293 HD
ENDBRANCH   4  12
BRANCH   6  14
ATOM     14  O   UNL     1      15.032 -16.130  28.272  1.00  0.00    -0.504 OA
ATOM     15  H   UNL     1      14.560 -16.759  27.632  1.00  0.00     0.293 HD
ENDBRANCH   6  14
TORSDOF 4
ENDMDL
