MODEL 1
REMARK VINA RESULT:    -5.385      0.000      0.000
REMARK INTER + INTRA:         -11.378
REMARK INTER:                  -9.792
REMARK INTRA:                  -1.586
REMARK UNBOUND:                -1.586
REMARK SMILES CCCCCCCCCCCCCCCC(=O)[O-]
REMARK SMILES IDX 9 1 10 2 11 3 12 4 13 5 14 6 15 7 16 8 17 9 18 10 8 11 7 12
REMARK SMILES IDX 6 13 5 14 4 15 3 16 2 17 1 18
REMARK H PARENT
REMARK Flexibility Score: inf
ROOT
ATOM      1  C   UNL     1       1.139  44.237   8.811  1.00  0.00     0.000 C 
ENDROOT
BRANCH   1   2
ATOM      2  C   UNL     1       1.999  43.037   9.237  1.00  0.00     0.000 C 
BRANCH   2   3
ATOM      3  C   UNL     1       3.491  43.343   9.063  1.00  0.00     0.000 C 
BRANCH   3   4
ATOM      4  C   UNL     1       4.156  43.620  10.418  1.00  0.00     0.000 C 
BRANCH   4   5
ATOM      5  C   UNL     1       3.442  42.925  11.591  1.00  0.00     0.000 C 
BRANCH   5   6
ATOM      6  C   UNL     1       4.086  41.607  12.064  1.00  0.00     0.006 C 
BRANCH   6   7
ATOM      7  C   UNL     1       3.114  40.412  12.104  1.00  0.00     0.053 C 
BRANCH   7   8
ATOM      8  C   UNL     1       3.778  39.149  12.563  1.00  0.00     0.041 C 
ATOM      9  O   UNL     1       4.814  39.201  13.277  1.00  0.00    -0.550 OA
ATOM     10  O   UNL     1       3.278  37.914  12.171  1.00  0.00    -0.550 OA
ENDBRANCH   7   8
ENDBRANCH   6   7
ENDBRANCH   5   6
ENDBRANCH   4   5
ENDBRANCH   3   4
ENDBRANCH   2   3
ENDBRANCH   1   2
BRANCH   1  11
ATOM     11  C   UNL     1       0.580  45.023  10.007  1.00  0.00     0.000 C 
BRANCH  11  12
ATOM     12  C   UNL     1       0.882  46.529   9.917  1.00  0.00    -0.000 C 
BRANCH  12  13
ATOM     13  C   UNL     1       2.377  46.824   9.700  1.00  0.00    -0.000 C 
BRANCH  13  14
ATOM     14  C   UNL     1       2.726  47.467   8.344  1.00  0.00    -0.000 C 
BRANCH  14  15
ATOM     15  C   UNL     1       4.238  47.704   8.138  1.00  0.00    -0.000 C 
BRANCH  15  16
ATOM     16  C   UNL     1       5.082  47.065   9.256  1.00  0.00    -0.000 C 
BRANCH  16  17
ATOM     17  C   UNL     1       6.543  47.536   9.232  1.00  0.00    -0.003 C 
ATOM     18  C   UNL     1       6.673  49.055   9.347  1.00  0.00     0.004 C 
ENDBRANCH  16  17
ENDBRANCH  15  16
ENDBRANCH  14  15
ENDBRANCH  13  14
ENDBRANCH  12  13
ENDBRANCH  11  12
ENDBRANCH   1  11
TORSDOF 14
ENDMDL
MODEL 2
REMARK VINA RESULT:    -5.175      1.217      3.481
REMARK INTER + INTRA:         -10.997
REMARK INTER:                  -9.206
REMARK INTRA:                  -1.790
REMARK UNBOUND:                -1.586
REMARK SMILES CCCCCCCCCCCCCCCC(=O)[O-]
REMARK SMILES IDX 9 1 10 2 11 3 12 4 13 5 14 6 15 7 16 8 17 9 18 10 8 11 7 12
REMARK SMILES IDX 6 13 5 14 4 15 3 16 2 17 1 18
REMARK H PARENT
REMARK Flexibility Score: inf
ROOT
ATOM      1  C   UNL     1       4.523  45.922  10.614  1.00  0.00     0.000 C 
ENDROOT
BRANCH   1   2
ATOM      2  C   UNL     1       4.221  44.438  10.870  1.00  0.00     0.000 C 
BRANCH   2   3
ATOM      3  C   UNL     1       3.789  43.735   9.578  1.00  0.00     0.000 C 
BRANCH   3   4
ATOM      4  C   UNL     1       2.683  42.707   9.856  1.00  0.00     0.000 C 
BRANCH   4   5
ATOM      5  C   UNL     1       2.233  42.692  11.327  1.00  0.00     0.000 C 
BRANCH   5   6
ATOM      6  C   UNL     1       2.463  41.362  12.072  1.00  0.00     0.006 C 
BRANCH   6   7
ATOM      7  C   UNL     1       3.932  40.899  12.089  1.00  0.00     0.053 C 
BRANCH   7   8
ATOM      8  C   UNL     1       4.106  39.570  12.761  1.00  0.00     0.041 C 
ATOM      9  O   UNL     1       5.032  39.398  13.596  1.00  0.00    -0.550 OA
ATOM     10  O   UNL     1       3.271  38.508  12.435  1.00  0.00    -0.550 OA
ENDBRANCH   7   8
ENDBRANCH   6   7
ENDBRANCH   5   6
ENDBRANCH   4   5
ENDBRANCH   3   4
ENDBRANCH   2   3
ENDBRANCH   1   2
BRANCH   1  11
ATOM     11  C   UNL     1       4.707  46.242   9.122  1.00  0.00     0.000 C 
BRANCH  11  12
ATOM     12  C   UNL     1       4.258  47.670   8.766  1.00  0.00    -0.000 C 
BRANCH  12  13
ATOM     13  C   UNL     1       3.215  47.701   7.635  1.00  0.00    -0.000 C 
BRANCH  13  14
ATOM     14  C   UNL     1       1.756  47.887   8.096  1.00  0.00    -0.000 C 
BRANCH  14  15
ATOM     15  C   UNL     1       1.474  47.330   9.509  1.00  0.00    -0.000 C 
BRANCH  15  16
ATOM     16  C   UNL     1       0.706  45.997   9.464  1.00  0.00    -0.000 C 
BRANCH  16  17
ATOM     17  C   UNL     1       0.027  45.754   8.108  1.00  0.00    -0.003 C 
ATOM     18  C   UNL     1       0.429  44.419   7.481  1.00  0.00     0.004 C 
ENDBRANCH  16  17
ENDBRANCH  15  16
ENDBRANCH  14  15
ENDBRANCH  13  14
ENDBRANCH  12  13
ENDBRANCH  11  12
ENDBRANCH   1  11
TORSDOF 14
ENDMDL
MODEL 3
REMARK VINA RESULT:    -5.137      3.530      7.039
REMARK INTER + INTRA:         -10.927
REMARK INTER:                  -9.360
REMARK INTRA:                  -1.567
REMARK UNBOUND:                -1.586
REMARK SMILES CCCCCCCCCCCCCCCC(=O)[O-]
REMARK SMILES IDX 9 1 10 2 11 3 12 4 13 5 14 6 15 7 16 8 17 9 18 10 8 11 7 12
REMARK SMILES IDX 6 13 5 14 4 15 3 16 2 17 1 18
REMARK H PARENT
REMARK Flexibility Score: inf
ROOT
ATOM      1  C   UNL     1       0.889  44.489  10.317  1.00  0.00     0.000 C 
ENDROOT
BRANCH   1   2
ATOM      2  C   UNL     1       0.408  45.874   9.855  1.00  0.00     0.000 C 
BRANCH   2   3
ATOM      3  C   UNL     1       0.578  46.035   8.340  1.00  0.00     0.000 C 
BRANCH   3   4
ATOM      4  C   UNL     1       1.511  47.211   8.015  1.00  0.00     0.000 C 
BRANCH   4   5
ATOM      5  C   UNL     1       2.645  47.379   9.041  1.00  0.00     0.000 C 
BRANCH   5   6
ATOM      6  C   UNL     1       4.069  47.380   8.451  1.00  0.00     0.006 C 
BRANCH   6   7
ATOM      7  C   UNL     1       5.177  47.108   9.486  1.00  0.00     0.053 C 
BRANCH   7   8
ATOM      8  C   UNL     1       6.416  47.910   9.223  1.00  0.00     0.041 C 
ATOM      9  O   UNL     1       7.552  47.384   9.361  1.00  0.00    -0.550 OA
ATOM     10  O   UNL     1       6.319  49.249   8.866  1.00  0.00    -0.550 OA
ENDBRANCH   7   8
ENDBRANCH   6   7
ENDBRANCH   5   6
ENDBRANCH   4   5
ENDBRANCH   3   4
ENDBRANCH   2   3
ENDBRANCH   1   2
BRANCH   1  11
ATOM     11  C   UNL     1       1.741  43.773   9.258  1.00  0.00     0.000 C 
BRANCH  11  12
ATOM     12  C   UNL     1       3.210  43.620   9.689  1.00  0.00    -0.000 C 
BRANCH  12  13
ATOM     13  C   UNL     1       3.496  44.251  11.063  1.00  0.00    -0.000 C 
BRANCH  13  14
ATOM     14  C   UNL     1       4.121  43.299  12.102  1.00  0.00    -0.000 C 
BRANCH  14  15
ATOM     15  C   UNL     1       4.368  41.871  11.569  1.00  0.00    -0.000 C 
BRANCH  15  16
ATOM     16  C   UNL     1       3.303  40.876  12.065  1.00  0.00    -0.000 C 
BRANCH  16  17
ATOM     17  C   UNL     1       3.921  39.602  12.659  1.00  0.00    -0.003 C 
ATOM     18  C   UNL     1       3.082  38.355  12.375  1.00  0.00     0.004 C 
ENDBRANCH  16  17
ENDBRANCH  15  16
ENDBRANCH  14  15
ENDBRANCH  13  14
ENDBRANCH  12  13
ENDBRANCH  11  12
ENDBRANCH   1  11
TORSDOF 14
ENDMDL
MODEL 4
REMARK VINA RESULT:    -5.076      0.954      1.608
REMARK INTER + INTRA:         -10.817
REMARK INTER:                  -9.222
REMARK INTRA:                  -1.596
REMARK UNBOUND:                -1.586
REMARK SMILES CCCCCCCCCCCCCCCC(=O)[O-]
REMARK SMILES IDX 9 1 10 2 11 3 12 4 13 5 14 6 15 7 16 8 17 9 18 10 8 11 7 12
REMARK SMILES IDX 6 13 5 14 4 15 3 16 2 17 1 18
REMARK H PARENT
REMARK Flexibility Score: inf
ROOT
ATOM      1  C   UNL     1       0.246  45.492  10.262  1.00  0.00     0.000 C 
ENDROOT
BRANCH   1   2
ATOM      2  C   UNL     1       1.367  44.486  10.566  1.00  0.00     0.000 C 
BRANCH   2   3
ATOM      3  C   UNL     1       1.795  43.742   9.295  1.00  0.00     0.000 C 
BRANCH   3   4
ATOM      4  C   UNL     1       2.675  42.532   9.638  1.00  0.00     0.000 C 
BRANCH   4   5
ATOM      5  C   UNL     1       3.907  42.904  10.481  1.00  0.00     0.000 C 
BRANCH   5   6
ATOM      6  C   UNL     1       4.095  42.081  11.770  1.00  0.00     0.006 C 
BRANCH   6   7
ATOM      7  C   UNL     1       3.074  40.938  11.939  1.00  0.00     0.053 C 
BRANCH   7   8
ATOM      8  C   UNL     1       3.698  39.691  12.491  1.00  0.00     0.041 C 
ATOM      9  O   UNL     1       3.258  38.560  12.153  1.00  0.00    -0.550 OA
ATOM     10  O   UNL     1       4.736  39.777  13.410  1.00  0.00    -0.550 OA
ENDBRANCH   7   8
ENDBRANCH   6   7
ENDBRANCH   5   6
ENDBRANCH   4   5
ENDBRANCH   3   4
ENDBRANCH   2   3
ENDBRANCH   1   2
BRANCH   1  11
ATOM     11  C   UNL     1      -0.005  45.665   8.756  1.00  0.00     0.000 C 
BRANCH  11  12
ATOM     12  C   UNL     1       0.142  47.126   8.297  1.00  0.00    -0.000 C 
BRANCH  12  13
ATOM     13  C   UNL     1       1.450  47.774   8.784  1.00  0.00    -0.000 C 
BRANCH  13  14
ATOM     14  C   UNL     1       2.455  48.133   7.672  1.00  0.00    -0.000 C 
BRANCH  14  15
ATOM     15  C   UNL     1       3.914  47.750   8.003  1.00  0.00    -0.000 C 
BRANCH  15  16
ATOM     16  C   UNL     1       3.994  46.597   9.020  1.00  0.00    -0.000 C 
BRANCH  16  17
ATOM     17  C   UNL     1       5.132  46.784  10.033  1.00  0.00    -0.003 C 
ATOM     18  C   UNL     1       6.393  47.372   9.398  1.00  0.00     0.004 C 
ENDBRANCH  16  17
ENDBRANCH  15  16
ENDBRANCH  14  15
ENDBRANCH  13  14
ENDBRANCH  12  13
ENDBRANCH  11  12
ENDBRANCH   1  11
TORSDOF 14
ENDMDL
MODEL 5
REMARK VINA RESULT:    -5.016      1.081      3.652
REMARK INTER + INTRA:         -10.708
REMARK INTER:                  -8.967
REMARK INTRA:                  -1.740
REMARK UNBOUND:                -1.586
REMARK SMILES CCCCCCCCCCCCCCCC(=O)[O-]
REMARK SMILES IDX 9 1 10 2 11 3 12 4 13 5 14 6 15 7 16 8 17 9 18 10 8 11 7 12
REMARK SMILES IDX 6 13 5 14 4 15 3 16 2 17 1 18
REMARK H PARENT
REMARK Flexibility Score: inf
ROOT
ATOM      1  C   UNL     1       5.378  47.125   9.503  1.00  0.00     0.000 C 
ENDROOT
BRANCH   1   2
ATOM      2  C   UNL     1       4.540  45.837   9.553  1.00  0.00     0.000 C 
BRANCH   2   3
ATOM      3  C   UNL     1       3.921  45.641  10.942  1.00  0.00     0.000 C 
BRANCH   3   4
ATOM      4  C   UNL     1       4.474  44.377  11.615  1.00  0.00     0.000 C 
BRANCH   4   5
ATOM      5  C   UNL     1       3.434  43.250  11.724  1.00  0.00     0.000 C 
BRANCH   5   6
ATOM      6  C   UNL     1       4.012  41.821  11.736  1.00  0.00     0.006 C 
BRANCH   6   7
ATOM      7  C   UNL     1       2.983  40.731  12.095  1.00  0.00     0.053 C 
BRANCH   7   8
ATOM      8  C   UNL     1       3.630  39.486  12.624  1.00  0.00     0.041 C 
ATOM      9  O   UNL     1       4.752  39.547  13.193  1.00  0.00    -0.550 OA
ATOM     10  O   UNL     1       3.014  38.252  12.453  1.00  0.00    -0.550 OA
ENDBRANCH   7   8
ENDBRANCH   6   7
ENDBRANCH   5   6
ENDBRANCH   4   5
ENDBRANCH   3   4
ENDBRANCH   2   3
ENDBRANCH   1   2
BRANCH   1  11
ATOM     11  C   UNL     1       4.852  48.136   8.472  1.00  0.00     0.000 C 
BRANCH  11  12
ATOM     12  C   UNL     1       3.660  47.591   7.666  1.00  0.00    -0.000 C 
BRANCH  12  13
ATOM     13  C   UNL     1       2.387  48.438   7.841  1.00  0.00    -0.000 C 
BRANCH  13  14
ATOM     14  C   UNL     1       1.093  47.633   8.072  1.00  0.00    -0.000 C 
BRANCH  14  15
ATOM     15  C   UNL     1       0.833  47.282   9.553  1.00  0.00    -0.000 C 
BRANCH  15  16
ATOM     16  C   UNL     1       0.460  45.801   9.741  1.00  0.00    -0.000 C 
BRANCH  16  17
ATOM     17  C   UNL     1       0.741  44.960   8.488  1.00  0.00    -0.003 C 
ATOM     18  C   UNL     1       1.500  43.670   8.803  1.00  0.00     0.004 C 
ENDBRANCH  16  17
ENDBRANCH  15  16
ENDBRANCH  14  15
ENDBRANCH  13  14
ENDBRANCH  12  13
ENDBRANCH  11  12
ENDBRANCH   1  11
TORSDOF 14
ENDMDL
MODEL 6
REMARK VINA RESULT:    -4.949      3.974      5.546
REMARK INTER + INTRA:         -10.586
REMARK INTER:                  -8.892
REMARK INTRA:                  -1.694
REMARK UNBOUND:                -1.586
REMARK SMILES CCCCCCCCCCCCCCCC(=O)[O-]
REMARK SMILES IDX 9 1 10 2 11 3 12 4 13 5 14 6 15 7 16 8 17 9 18 10 8 11 7 12
REMARK SMILES IDX 6 13 5 14 4 15 3 16 2 17 1 18
REMARK H PARENT
REMARK Flexibility Score: inf
ROOT
ATOM      1  C   UNL     1       3.820  42.445  11.701  1.00  0.00     0.000 C 
ENDROOT
BRANCH   1   2
ATOM      2  C   UNL     1       2.575  42.173  10.842  1.00  0.00     0.000 C 
BRANCH   2   3
ATOM      3  C   UNL     1       2.736  42.772   9.440  1.00  0.00     0.000 C 
BRANCH   3   4
ATOM      4  C   UNL     1       1.495  43.585   9.046  1.00  0.00     0.000 C 
BRANCH   4   5
ATOM      5  C   UNL     1       0.995  44.504  10.174  1.00  0.00     0.000 C 
BRANCH   5   6
ATOM      6  C   UNL     1       0.289  45.792   9.708  1.00  0.00     0.006 C 
BRANCH   6   7
ATOM      7  C   UNL     1       0.626  46.205   8.262  1.00  0.00     0.053 C 
BRANCH   7   8
ATOM      8  C   UNL     1       0.662  47.693   8.085  1.00  0.00     0.041 C 
ATOM      9  O   UNL     1       1.741  48.271   7.789  1.00  0.00    -0.550 OA
ATOM     10  O   UNL     1      -0.487  48.448   8.286  1.00  0.00    -0.550 OA
ENDBRANCH   7   8
ENDBRANCH   6   7
ENDBRANCH   5   6
ENDBRANCH   4   5
ENDBRANCH   3   4
ENDBRANCH   2   3
ENDBRANCH   1   2
BRANCH   1  11
ATOM     11  C   UNL     1       3.925  43.911  12.149  1.00  0.00     0.000 C 
BRANCH  11  12
ATOM     12  C   UNL     1       4.870  44.733  11.256  1.00  0.00    -0.000 C 
BRANCH  12  13
ATOM     13  C   UNL     1       4.258  46.075  10.817  1.00  0.00    -0.000 C 
BRANCH  13  14
ATOM     14  C   UNL     1       4.144  46.275   9.294  1.00  0.00    -0.000 C 
BRANCH  14  15
ATOM     15  C   UNL     1       5.070  47.378   8.739  1.00  0.00    -0.000 C 
BRANCH  15  16
ATOM     16  C   UNL     1       6.441  47.389   9.438  1.00  0.00    -0.000 C 
BRANCH  16  17
ATOM     17  C   UNL     1       7.082  48.785   9.455  1.00  0.00    -0.003 C 
ATOM     18  C   UNL     1       6.252  49.821   8.696  1.00  0.00     0.004 C 
ENDBRANCH  16  17
ENDBRANCH  15  16
ENDBRANCH  14  15
ENDBRANCH  13  14
ENDBRANCH  12  13
ENDBRANCH  11  12
ENDBRANCH   1  11
TORSDOF 14
ENDMDL
MODEL 7
REMARK VINA RESULT:    -4.740      3.239      7.005
REMARK INTER + INTRA:         -10.205
REMARK INTER:                  -9.143
REMARK INTRA:                  -1.063
REMARK UNBOUND:                -1.586
REMARK SMILES CCCCCCCCCCCCCCCC(=O)[O-]
REMARK SMILES IDX 9 1 10 2 11 3 12 4 13 5 14 6 15 7 16 8 17 9 18 10 8 11 7 12
REMARK SMILES IDX 6 13 5 14 4 15 3 16 2 17 1 18
REMARK H PARENT
REMARK Flexibility Score: inf
ROOT
ATOM      1  C   UNL     1       4.308  44.521  11.080  1.00  0.00     0.000 C 
ENDROOT
BRANCH   1   2
ATOM      2  C   UNL     1       4.329  46.019  10.740  1.00  0.00     0.000 C 
BRANCH   2   3
ATOM      3  C   UNL     1       4.654  46.240   9.258  1.00  0.00     0.000 C 
BRANCH   3   4
ATOM      4  C   UNL     1       4.340  47.683   8.837  1.00  0.00     0.000 C 
BRANCH   4   5
ATOM      5  C   UNL     1       3.435  47.763   7.596  1.00  0.00     0.000 C 
BRANCH   5   6
ATOM      6  C   UNL     1       1.945  48.029   7.885  1.00  0.00     0.006 C 
BRANCH   6   7
ATOM      7  C   UNL     1       1.500  47.631   9.306  1.00  0.00     0.053 C 
BRANCH   7   8
ATOM      8  C   UNL     1       0.671  46.382   9.318  1.00  0.00     0.041 C 
ATOM      9  O   UNL     1       0.580  45.672   8.283  1.00  0.00    -0.550 OA
ATOM     10  O   UNL     1      -0.035  46.024  10.460  1.00  0.00    -0.550 OA
ENDBRANCH   7   8
ENDBRANCH   6   7
ENDBRANCH   5   6
ENDBRANCH   4   5
ENDBRANCH   3   4
ENDBRANCH   2   3
ENDBRANCH   1   2
BRANCH   1  11
ATOM     11  C   UNL     1       4.035  43.637   9.853  1.00  0.00     0.000 C 
BRANCH  11  12
ATOM     12  C   UNL     1       2.628  43.015   9.876  1.00  0.00    -0.000 C 
BRANCH  12  13
ATOM     13  C   UNL     1       1.888  43.265  11.202  1.00  0.00    -0.000 C 
BRANCH  13  14
ATOM     14  C   UNL     1       1.971  42.113  12.223  1.00  0.00    -0.000 C 
BRANCH  14  15
ATOM     15  C   UNL     1       3.052  41.062  11.889  1.00  0.00    -0.000 C 
BRANCH  15  16
ATOM     16  C   UNL     1       2.781  39.713  12.579  1.00  0.00    -0.000 C 
BRANCH  16  17
ATOM     17  C   UNL     1       4.052  38.864  12.730  1.00  0.00    -0.003 C 
ATOM     18  C   UNL     1       5.176  39.612  13.447  1.00  0.00     0.004 C 
ENDBRANCH  16  17
ENDBRANCH  15  16
ENDBRANCH  14  15
ENDBRANCH  13  14
ENDBRANCH  12  13
ENDBRANCH  11  12
ENDBRANCH   1  11
TORSDOF 14
ENDMDL
MODEL 8
REMARK VINA RESULT:    -4.593      3.388      7.176
REMARK INTER + INTRA:          -9.938
REMARK INTER:                  -9.023
REMARK INTRA:                  -0.915
REMARK UNBOUND:                -1.586
REMARK SMILES CCCCCCCCCCCCCCCC(=O)[O-]
REMARK SMILES IDX 9 1 10 2 11 3 12 4 13 5 14 6 15 7 16 8 17 9 18 10 8 11 7 12
REMARK SMILES IDX 6 13 5 14 4 15 3 16 2 17 1 18
REMARK H PARENT
REMARK Flexibility Score: inf
ROOT
ATOM      1  C   UNL     1       4.217  46.079  10.838  1.00  0.00     0.000 C 
ENDROOT
BRANCH   1   2
ATOM      2  C   UNL     1       4.962  46.583   9.592  1.00  0.00     0.000 C 
BRANCH   2   3
ATOM      3  C   UNL     1       3.993  47.242   8.604  1.00  0.00     0.000 C 
BRANCH   3   4
ATOM      4  C   UNL     1       2.537  47.028   9.038  1.00  0.00     0.000 C 
BRANCH   4   5
ATOM      5  C   UNL     1       1.520  47.461   7.968  1.00  0.00     0.000 C 
BRANCH   5   6
ATOM      6  C   UNL     1       0.056  47.076   8.258  1.00  0.00     0.006 C 
BRANCH   6   7
ATOM      7  C   UNL     1      -0.680  46.454   7.055  1.00  0.00     0.053 C 
BRANCH   7   8
ATOM      8  C   UNL     1      -0.347  45.004   6.868  1.00  0.00     0.041 C 
ATOM      9  O   UNL     1       0.337  44.394   7.731  1.00  0.00    -0.550 OA
ATOM     10  O   UNL     1      -0.758  44.336   5.722  1.00  0.00    -0.550 OA
ENDBRANCH   7   8
ENDBRANCH   6   7
ENDBRANCH   5   6
ENDBRANCH   4   5
ENDBRANCH   3   4
ENDBRANCH   2   3
ENDBRANCH   1   2
BRANCH   1  11
ATOM     11  C   UNL     1       4.645  44.663  11.254  1.00  0.00     0.000 C 
BRANCH  11  12
ATOM     12  C   UNL     1       3.832  43.569  10.540  1.00  0.00    -0.000 C 
BRANCH  12  13
ATOM     13  C   UNL     1       2.398  43.443  11.083  1.00  0.00    -0.000 C 
BRANCH  13  14
ATOM     14  C   UNL     1       2.138  42.205  11.963  1.00  0.00    -0.000 C 
BRANCH  14  15
ATOM     15  C   UNL     1       2.994  40.978  11.580  1.00  0.00    -0.000 C 
BRANCH  15  16
ATOM     16  C   UNL     1       4.165  40.761  12.555  1.00  0.00    -0.000 C 
BRANCH  16  17
ATOM     17  C   UNL     1       4.423  39.275  12.843  1.00  0.00    -0.003 C 
ATOM     18  C   UNL     1       3.250  38.385  12.432  1.00  0.00     0.004 C 
ENDBRANCH  16  17
ENDBRANCH  15  16
ENDBRANCH  14  15
ENDBRANCH  13  14
ENDBRANCH  12  13
ENDBRANCH  11  12
ENDBRANCH   1  11
TORSDOF 14
ENDMDL
MODEL 9
REMARK VINA RESULT:    -4.506      2.772      6.743
REMARK INTER + INTRA:          -9.779
REMARK INTER:                  -8.765
REMARK INTRA:                  -1.014
REMARK UNBOUND:                -1.586
REMARK SMILES CCCCCCCCCCCCCCCC(=O)[O-]
REMARK SMILES IDX 9 1 10 2 11 3 12 4 13 5 14 6 15 7 16 8 17 9 18 10 8 11 7 12
REMARK SMILES IDX 6 13 5 14 4 15 3 16 2 17 1 18
REMARK H PARENT
REMARK Flexibility Score: inf
ROOT
ATOM      1  C   UNL     1       5.176  46.599   9.488  1.00  0.00     0.000 C 
ENDROOT
BRANCH   1   2
ATOM      2  C   UNL     1       4.289  47.472   8.587  1.00  0.00     0.000 C 
BRANCH   2   3
ATOM      3  C   UNL     1       2.814  47.355   8.991  1.00  0.00     0.000 C 
BRANCH   3   4
ATOM      4  C   UNL     1       1.894  47.747   7.827  1.00  0.00     0.000 C 
BRANCH   4   5
ATOM      5  C   UNL     1       0.436  47.973   8.263  1.00  0.00     0.000 C 
BRANCH   5   6
ATOM      6  C   UNL     1      -0.422  46.697   8.371  1.00  0.00     0.006 C 
BRANCH   6   7
ATOM      7  C   UNL     1      -0.581  46.168   9.810  1.00  0.00     0.053 C 
BRANCH   7   8
ATOM      8  C   UNL     1       0.339  45.020  10.102  1.00  0.00     0.041 C 
ATOM      9  O   UNL     1       0.566  44.677  11.292  1.00  0.00    -0.550 OA
ATOM     10  O   UNL     1       0.978  44.355   9.063  1.00  0.00    -0.550 OA
ENDBRANCH   7   8
ENDBRANCH   6   7
ENDBRANCH   5   6
ENDBRANCH   4   5
ENDBRANCH   3   4
ENDBRANCH   2   3
ENDBRANCH   1   2
BRANCH   1  11
ATOM     11  C   UNL     1       4.507  45.269   9.870  1.00  0.00     0.000 C 
BRANCH  11  12
ATOM     12  C   UNL     1       4.182  45.183  11.371  1.00  0.00    -0.000 C 
BRANCH  12  13
ATOM     13  C   UNL     1       4.181  43.737  11.899  1.00  0.00    -0.000 C 
BRANCH  13  14
ATOM     14  C   UNL     1       3.477  42.711  10.990  1.00  0.00    -0.000 C 
BRANCH  14  15
ATOM     15  C   UNL     1       3.088  41.403  11.713  1.00  0.00    -0.000 C 
BRANCH  15  16
ATOM     16  C   UNL     1       4.321  40.573  12.111  1.00  0.00    -0.000 C 
BRANCH  16  17
ATOM     17  C   UNL     1       3.970  39.414  13.055  1.00  0.00    -0.003 C 
ATOM     18  C   UNL     1       3.285  38.254  12.332  1.00  0.00     0.004 C 
ENDBRANCH  16  17
ENDBRANCH  15  16
ENDBRANCH  14  15
ENDBRANCH  13  14
ENDBRANCH  12  13
ENDBRANCH  11  12
ENDBRANCH   1  11
TORSDOF 14
ENDMDL
