MODEL 1
REMARK VINA RESULT:    -6.355      0.000      0.000
REMARK INTER + INTRA:          -7.612
REMARK INTER:                  -7.655
REMARK INTRA:                   0.043
REMARK UNBOUND:                 0.043
REMARK SMILES O=c1c(O)c(-c2ccc(O)c(O)c2)oc2cc(O)cc(O)c12
REMARK SMILES IDX 5 1 3 2 2 3 1 4 22 5 20 6 19 7 17 8 16 9 15 10 14 11 6 12
REMARK SMILES IDX 7 13 8 14 9 15 13 16 11 17 10 18 12 20 4 22 21 24 18 26
REMARK H PARENT 10 19 12 21 4 23 21 25 18 27
REMARK Flexibility Score: inf
ROOT
ATOM      1  C   UNL     1      17.937 -32.117  70.870  1.00  0.00     0.180 A 
ATOM      2  C   UNL     1      17.227 -33.232  71.347  1.00  0.00     0.208 A 
ATOM      3  C   UNL     1      16.170 -33.031  72.249  1.00  0.00     0.238 A 
ATOM      4  O   UNL     1      15.573 -34.037  72.715  1.00  0.00    -0.285 OA
ATOM      5  C   UNL     1      15.824 -31.718  72.648  1.00  0.00     0.111 A 
ATOM      6  C   UNL     1      14.745 -31.395  73.524  1.00  0.00     0.134 A 
ATOM      7  C   UNL     1      14.578 -30.072  73.954  1.00  0.00     0.093 A 
ATOM      8  C   UNL     1      15.406 -29.052  73.489  1.00  0.00     0.123 A 
ATOM      9  C   UNL     1      16.428 -29.348  72.584  1.00  0.00     0.094 A 
ATOM     10  C   UNL     1      16.643 -30.664  72.166  1.00  0.00     0.146 A 
ATOM     11  O   UNL     1      17.632 -30.904  71.313  1.00  0.00    -0.452 OA
ENDROOT
BRANCH   1  12
ATOM     12  C   UNL     1      19.048 -32.247  69.898  1.00  0.00     0.025 A 
ATOM     13  C   UNL     1      18.939 -33.075  68.769  1.00  0.00     0.016 A 
ATOM     14  C   UNL     1      19.991 -33.163  67.852  1.00  0.00     0.051 A 
ATOM     15  C   UNL     1      21.160 -32.416  68.045  1.00  0.00     0.157 A 
ATOM     16  C   UNL     1      20.214 -31.484  70.076  1.00  0.00     0.062 A 
ATOM     17  C   UNL     1      21.270 -31.570  69.161  1.00  0.00     0.158 A 
BRANCH  15  18
ATOM     18  O   UNL     1      22.208 -32.509  67.131  1.00  0.00    -0.504 OA
ATOM     19  H   UNL     1      22.061 -32.844  66.185  1.00  0.00     0.293 HD
ENDBRANCH  15  18
BRANCH  17  20
ATOM     20  O   UNL     1      22.417 -30.808  69.377  1.00  0.00    -0.504 OA
ATOM     21  H   UNL     1      23.293 -31.010  68.910  1.00  0.00     0.293 HD
ENDBRANCH  17  20
ENDBRANCH   1  12
BRANCH   2  22
ATOM     22  O   UNL     1      17.599 -34.522  70.957  1.00  0.00    -0.502 OA
ATOM     23  H   UNL     1      17.399 -35.339  71.520  1.00  0.00     0.293 HD
ENDBRANCH   2  22
BRANCH   6  24
ATOM     24  O   UNL     1      13.802 -32.322  73.976  1.00  0.00    -0.507 OA
ATOM     25  H   UNL     1      13.035 -32.677  73.426  1.00  0.00     0.293 HD
ENDBRANCH   6  24
BRANCH   8  26
ATOM     26  O   UNL     1      15.200 -27.746  73.925  1.00  0.00    -0.508 OA
ATOM     27  H   UNL     1      14.577 -27.115  73.433  1.00  0.00     0.293 HD
ENDBRANCH   8  26
TORSDOF 6
ENDMDL
MODEL 2
REMARK VINA RESULT:    -6.332      3.689      6.090
REMARK INTER + INTRA:          -7.584
REMARK INTER:                  -7.376
REMARK INTRA:                  -0.208
REMARK UNBOUND:                 0.043
REMARK SMILES O=c1c(O)c(-c2ccc(O)c(O)c2)oc2cc(O)cc(O)c12
REMARK SMILES IDX 5 1 3 2 2 3 1 4 22 5 20 6 19 7 17 8 16 9 15 10 14 11 6 12
REMARK SMILES IDX 7 13 8 14 9 15 13 16 11 17 10 18 12 20 4 22 21 24 18 26
REMARK H PARENT 10 19 12 21 4 23 21 25 18 27
REMARK Flexibility Score: inf
ROOT
ATOM      1  C   UNL     1      16.208 -32.576  73.331  1.00  0.00     0.180 A 
ATOM      2  C   UNL     1      16.795 -33.082  74.504  1.00  0.00     0.208 A 
ATOM      3  C   UNL     1      16.638 -34.442  74.813  1.00  0.00     0.238 A 
ATOM      4  O   UNL     1      17.120 -34.876  75.892  1.00  0.00    -0.285 OA
ATOM      5  C   UNL     1      15.912 -35.284  73.937  1.00  0.00     0.111 A 
ATOM      6  C   UNL     1      15.725 -36.686  74.129  1.00  0.00     0.134 A 
ATOM      7  C   UNL     1      14.878 -37.394  73.267  1.00  0.00     0.093 A 
ATOM      8  C   UNL     1      14.265 -36.768  72.183  1.00  0.00     0.123 A 
ATOM      9  C   UNL     1      14.488 -35.409  71.951  1.00  0.00     0.094 A 
ATOM     10  C   UNL     1      15.299 -34.668  72.815  1.00  0.00     0.146 A 
ATOM     11  O   UNL     1      15.477 -33.376  72.564  1.00  0.00    -0.452 OA
ENDROOT
BRANCH   1  12
ATOM     12  C   UNL     1      16.350 -31.158  72.926  1.00  0.00     0.025 A 
ATOM     13  C   UNL     1      17.100 -30.793  71.796  1.00  0.00     0.016 A 
ATOM     14  C   UNL     1      17.200 -29.451  71.418  1.00  0.00     0.051 A 
ATOM     15  C   UNL     1      16.542 -28.458  72.155  1.00  0.00     0.157 A 
ATOM     16  C   UNL     1      15.675 -30.161  73.649  1.00  0.00     0.062 A 
ATOM     17  C   UNL     1      15.773 -28.817  73.274  1.00  0.00     0.158 A 
BRANCH  15  18
ATOM     18  O   UNL     1      16.646 -27.121  71.777  1.00  0.00    -0.504 OA
ATOM     19  H   UNL     1      16.068 -26.729  71.042  1.00  0.00     0.293 HD
ENDBRANCH  15  18
BRANCH  17  20
ATOM     20  O   UNL     1      15.100 -27.854  74.025  1.00  0.00    -0.504 OA
ATOM     21  H   UNL     1      14.928 -27.969  75.017  1.00  0.00     0.293 HD
ENDBRANCH  17  20
ENDBRANCH   1  12
BRANCH   2  22
ATOM     22  O   UNL     1      17.490 -32.228  75.366  1.00  0.00    -0.502 OA
ATOM     23  H   UNL     1      17.475 -31.221  75.262  1.00  0.00     0.293 HD
ENDBRANCH   2  22
BRANCH   6  24
ATOM     24  O   UNL     1      16.364 -37.429  75.126  1.00  0.00    -0.507 OA
ATOM     25  H   UNL     1      16.687 -38.378  75.018  1.00  0.00     0.293 HD
ENDBRANCH   6  24
BRANCH   8  26
ATOM     26  O   UNL     1      13.442 -37.508  71.337  1.00  0.00    -0.508 OA
ATOM     27  H   UNL     1      12.504 -37.198  71.107  1.00  0.00     0.293 HD
ENDBRANCH   8  26
TORSDOF 6
ENDMDL
MODEL 3
REMARK VINA RESULT:    -6.302      4.376      6.368
REMARK INTER + INTRA:          -7.548
REMARK INTER:                  -7.256
REMARK INTRA:                  -0.292
REMARK UNBOUND:                 0.043
REMARK SMILES O=c1c(O)c(-c2ccc(O)c(O)c2)oc2cc(O)cc(O)c12
REMARK SMILES IDX 5 1 3 2 2 3 1 4 22 5 20 6 19 7 17 8 16 9 15 10 14 11 6 12
REMARK SMILES IDX 7 13 8 14 9 15 13 16 11 17 10 18 12 20 4 22 21 24 18 26
REMARK H PARENT 10 19 12 21 4 23 21 25 18 27
REMARK Flexibility Score: inf
ROOT
ATOM      1  C   UNL     1      16.601 -31.514  74.704  1.00  0.00     0.180 A 
ATOM      2  C   UNL     1      15.815 -32.132  73.716  1.00  0.00     0.208 A 
ATOM      3  C   UNL     1      15.402 -31.380  72.605  1.00  0.00     0.238 A 
ATOM      4  O   UNL     1      14.653 -31.925  71.752  1.00  0.00    -0.285 OA
ATOM      5  C   UNL     1      15.794 -30.025  72.485  1.00  0.00     0.111 A 
ATOM      6  C   UNL     1      15.468 -29.181  71.382  1.00  0.00     0.134 A 
ATOM      7  C   UNL     1      15.798 -27.821  71.433  1.00  0.00     0.093 A 
ATOM      8  C   UNL     1      16.499 -27.289  72.513  1.00  0.00     0.123 A 
ATOM      9  C   UNL     1      16.876 -28.118  73.571  1.00  0.00     0.094 A 
ATOM     10  C   UNL     1      16.529 -29.472  73.566  1.00  0.00     0.146 A 
ATOM     11  O   UNL     1      16.897 -30.224  74.597  1.00  0.00    -0.452 OA
ENDROOT
BRANCH   1  12
ATOM     12  C   UNL     1      17.095 -32.247  75.892  1.00  0.00     0.025 A 
ATOM     13  C   UNL     1      18.183 -33.132  75.805  1.00  0.00     0.016 A 
ATOM     14  C   UNL     1      18.648 -33.796  76.944  1.00  0.00     0.051 A 
ATOM     15  C   UNL     1      18.042 -33.574  78.188  1.00  0.00     0.157 A 
ATOM     16  C   UNL     1      16.505 -32.013  77.145  1.00  0.00     0.062 A 
ATOM     17  C   UNL     1      16.967 -32.675  78.288  1.00  0.00     0.158 A 
BRANCH  15  18
ATOM     18  O   UNL     1      18.506 -34.239  79.321  1.00  0.00    -0.504 OA
ATOM     19  H   UNL     1      19.363 -34.780  79.306  1.00  0.00     0.293 HD
ENDBRANCH  15  18
BRANCH  17  20
ATOM     20  O   UNL     1      16.347 -32.427  79.511  1.00  0.00    -0.504 OA
ATOM     21  H   UNL     1      15.689 -31.666  79.636  1.00  0.00     0.293 HD
ENDBRANCH  17  20
ENDBRANCH   1  12
BRANCH   2  22
ATOM     22  O   UNL     1      15.421 -33.465  73.864  1.00  0.00    -0.502 OA
ATOM     23  H   UNL     1      16.083 -34.231  73.866  1.00  0.00     0.293 HD
ENDBRANCH   2  22
BRANCH   6  24
ATOM     24  O   UNL     1      14.849 -29.631  70.212  1.00  0.00    -0.507 OA
ATOM     25  H   UNL     1      15.012 -29.249  69.292  1.00  0.00     0.293 HD
ENDBRANCH   6  24
BRANCH   8  26
ATOM     26  O   UNL     1      16.824 -25.934  72.522  1.00  0.00    -0.508 OA
ATOM     27  H   UNL     1      17.762 -25.616  72.742  1.00  0.00     0.293 HD
ENDBRANCH   8  26
TORSDOF 6
ENDMDL
MODEL 4
REMARK VINA RESULT:    -6.300      4.812      7.970
REMARK INTER + INTRA:          -7.546
REMARK INTER:                  -7.249
REMARK INTRA:                  -0.298
REMARK UNBOUND:                 0.043
REMARK SMILES O=c1c(O)c(-c2ccc(O)c(O)c2)oc2cc(O)cc(O)c12
REMARK SMILES IDX 5 1 3 2 2 3 1 4 22 5 20 6 19 7 17 8 16 9 15 10 14 11 6 12
REMARK SMILES IDX 7 13 8 14 9 15 13 16 11 17 10 18 12 20 4 22 21 24 18 26
REMARK H PARENT 10 19 12 21 4 23 21 25 18 27
REMARK Flexibility Score: inf
ROOT
ATOM      1  C   UNL     1      17.222 -34.412  75.283  1.00  0.00     0.180 A 
ATOM      2  C   UNL     1      17.497 -33.761  74.069  1.00  0.00     0.208 A 
ATOM      3  C   UNL     1      17.118 -34.376  72.865  1.00  0.00     0.238 A 
ATOM      4  O   UNL     1      17.416 -33.813  71.779  1.00  0.00    -0.285 OA
ATOM      5  C   UNL     1      16.454 -35.626  72.891  1.00  0.00     0.111 A 
ATOM      6  C   UNL     1      15.988 -36.321  71.734  1.00  0.00     0.134 A 
ATOM      7  C   UNL     1      15.462 -37.611  71.870  1.00  0.00     0.093 A 
ATOM      8  C   UNL     1      15.323 -38.205  73.123  1.00  0.00     0.123 A 
ATOM      9  C   UNL     1      15.720 -37.511  74.268  1.00  0.00     0.094 A 
ATOM     10  C   UNL     1      16.283 -36.236  74.161  1.00  0.00     0.146 A 
ATOM     11  O   UNL     1      16.657 -35.613  75.272  1.00  0.00    -0.452 OA
ENDROOT
BRANCH   1  12
ATOM     12  C   UNL     1      17.569 -33.815  76.594  1.00  0.00     0.025 A 
ATOM     13  C   UNL     1      16.786 -32.798  77.164  1.00  0.00     0.016 A 
ATOM     14  C   UNL     1      17.118 -32.266  78.414  1.00  0.00     0.051 A 
ATOM     15  C   UNL     1      18.229 -32.752  79.116  1.00  0.00     0.157 A 
ATOM     16  C   UNL     1      18.669 -34.313  77.311  1.00  0.00     0.062 A 
ATOM     17  C   UNL     1      19.006 -33.783  78.562  1.00  0.00     0.158 A 
BRANCH  15  18
ATOM     18  O   UNL     1      18.559 -32.218  80.360  1.00  0.00    -0.504 OA
ATOM     19  H   UNL     1      19.508 -31.943  80.585  1.00  0.00     0.293 HD
ENDBRANCH  15  18
BRANCH  17  20
ATOM     20  O   UNL     1      20.113 -34.294  79.238  1.00  0.00    -0.504 OA
ATOM     21  H   UNL     1      20.443 -35.240  79.090  1.00  0.00     0.293 HD
ENDBRANCH  17  20
ENDBRANCH   1  12
BRANCH   2  22
ATOM     22  O   UNL     1      18.173 -32.537  74.064  1.00  0.00    -0.502 OA
ATOM     23  H   UNL     1      18.413 -32.046  74.916  1.00  0.00     0.293 HD
ENDBRANCH   2  22
BRANCH   6  24
ATOM     24  O   UNL     1      15.995 -35.781  70.445  1.00  0.00    -0.507 OA
ATOM     25  H   UNL     1      15.739 -36.285  69.610  1.00  0.00     0.293 HD
ENDBRANCH   6  24
BRANCH   8  26
ATOM     26  O   UNL     1      14.780 -39.484  73.222  1.00  0.00    -0.508 OA
ATOM     27  H   UNL     1      14.347 -39.812  74.079  1.00  0.00     0.293 HD
ENDBRANCH   8  26
TORSDOF 6
ENDMDL
MODEL 5
REMARK VINA RESULT:    -6.230      1.922      3.867
REMARK INTER + INTRA:          -7.462
REMARK INTER:                  -7.628
REMARK INTRA:                   0.167
REMARK UNBOUND:                 0.043
REMARK SMILES O=c1c(O)c(-c2ccc(O)c(O)c2)oc2cc(O)cc(O)c12
REMARK SMILES IDX 5 1 3 2 2 3 1 4 22 5 20 6 19 7 17 8 16 9 15 10 14 11 6 12
REMARK SMILES IDX 7 13 8 14 9 15 13 16 11 17 10 18 12 20 4 22 21 24 18 26
REMARK H PARENT 10 19 12 21 4 23 21 25 18 27
REMARK Flexibility Score: inf
ROOT
ATOM      1  C   UNL     1      17.985 -33.130  70.173  1.00  0.00     0.180 A 
ATOM      2  C   UNL     1      17.355 -32.161  70.973  1.00  0.00     0.208 A 
ATOM      3  C   UNL     1      16.254 -32.537  71.759  1.00  0.00     0.238 A 
ATOM      4  O   UNL     1      15.661 -31.653  72.431  1.00  0.00    -0.285 OA
ATOM      5  C   UNL     1      15.809 -33.881  71.750  1.00  0.00     0.111 A 
ATOM      6  C   UNL     1      14.730 -34.383  72.539  1.00  0.00     0.134 A 
ATOM      7  C   UNL     1      14.292 -35.700  72.351  1.00  0.00     0.093 A 
ATOM      8  C   UNL     1      14.934 -36.552  71.454  1.00  0.00     0.123 A 
ATOM      9  C   UNL     1      16.028 -36.089  70.721  1.00  0.00     0.094 A 
ATOM     10  C   UNL     1      16.466 -34.769  70.859  1.00  0.00     0.146 A 
ATOM     11  O   UNL     1      17.503 -34.366  70.136  1.00  0.00    -0.452 OA
ENDROOT
BRANCH   1  12
ATOM     12  C   UNL     1      19.166 -32.814  69.336  1.00  0.00     0.025 A 
ATOM     13  C   UNL     1      19.287 -33.311  68.027  1.00  0.00     0.016 A 
ATOM     14  C   UNL     1      20.398 -32.981  67.246  1.00  0.00     0.051 A 
ATOM     15  C   UNL     1      21.397 -32.140  67.756  1.00  0.00     0.157 A 
ATOM     16  C   UNL     1      20.159 -31.956  69.835  1.00  0.00     0.062 A 
ATOM     17  C   UNL     1      21.273 -31.624  69.057  1.00  0.00     0.158 A 
BRANCH  15  18
ATOM     18  O   UNL     1      22.504 -31.816  66.976  1.00  0.00    -0.504 OA
ATOM     19  H   UNL     1      22.917 -32.483  66.334  1.00  0.00     0.293 HD
ENDBRANCH  15  18
BRANCH  17  20
ATOM     20  O   UNL     1      22.245 -30.780  69.592  1.00  0.00    -0.504 OA
ATOM     21  H   UNL     1      22.013 -30.031  70.234  1.00  0.00     0.293 HD
ENDBRANCH  17  20
ENDBRANCH   1  12
BRANCH   2  22
ATOM     22  O   UNL     1      17.797 -30.835  70.950  1.00  0.00    -0.502 OA
ATOM     23  H   UNL     1      18.775 -30.590  70.859  1.00  0.00     0.293 HD
ENDBRANCH   2  22
BRANCH   6  24
ATOM     24  O   UNL     1      14.078 -33.643  73.530  1.00  0.00    -0.507 OA
ATOM     25  H   UNL     1      13.427 -34.026  74.198  1.00  0.00     0.293 HD
ENDBRANCH   6  24
BRANCH   8  26
ATOM     26  O   UNL     1      14.481 -37.861  71.305  1.00  0.00    -0.508 OA
ATOM     27  H   UNL     1      13.784 -38.105  70.610  1.00  0.00     0.293 HD
ENDBRANCH   8  26
TORSDOF 6
ENDMDL
MODEL 6
REMARK VINA RESULT:    -6.178      4.038      5.170
REMARK INTER + INTRA:          -7.399
REMARK INTER:                  -7.087
REMARK INTRA:                  -0.312
REMARK UNBOUND:                 0.043
REMARK SMILES O=c1c(O)c(-c2ccc(O)c(O)c2)oc2cc(O)cc(O)c12
REMARK SMILES IDX 5 1 3 2 2 3 1 4 22 5 20 6 19 7 17 8 16 9 15 10 14 11 6 12
REMARK SMILES IDX 7 13 8 14 9 15 13 16 11 17 10 18 12 20 4 22 21 24 18 26
REMARK H PARENT 10 19 12 21 4 23 21 25 18 27
REMARK Flexibility Score: inf
ROOT
ATOM      1  C   UNL     1      15.518 -33.437  72.597  1.00  0.00     0.180 A 
ATOM      2  C   UNL     1      14.264 -33.087  72.067  1.00  0.00     0.208 A 
ATOM      3  C   UNL     1      13.893 -31.734  72.032  1.00  0.00     0.238 A 
ATOM      4  O   UNL     1      12.747 -31.432  71.606  1.00  0.00    -0.285 OA
ATOM      5  C   UNL     1      14.786 -30.745  72.510  1.00  0.00     0.111 A 
ATOM      6  C   UNL     1      14.530 -29.341  72.485  1.00  0.00     0.134 A 
ATOM      7  C   UNL     1      15.430 -28.465  73.106  1.00  0.00     0.093 A 
ATOM      8  C   UNL     1      16.605 -28.933  73.691  1.00  0.00     0.123 A 
ATOM      9  C   UNL     1      16.894 -30.299  73.669  1.00  0.00     0.094 A 
ATOM     10  C   UNL     1      15.999 -31.202  73.090  1.00  0.00     0.146 A 
ATOM     11  O   UNL     1      16.306 -32.494  73.099  1.00  0.00    -0.452 OA
ENDROOT
BRANCH   1  12
ATOM     12  C   UNL     1      15.990 -34.840  72.646  1.00  0.00     0.025 A 
ATOM     13  C   UNL     1      16.536 -35.467  71.513  1.00  0.00     0.016 A 
ATOM     14  C   UNL     1      16.997 -36.785  71.588  1.00  0.00     0.051 A 
ATOM     15  C   UNL     1      16.932 -37.489  72.798  1.00  0.00     0.157 A 
ATOM     16  C   UNL     1      15.946 -35.543  73.861  1.00  0.00     0.062 A 
ATOM     17  C   UNL     1      16.407 -36.862  73.940  1.00  0.00     0.158 A 
BRANCH  15  18
ATOM     18  O   UNL     1      17.391 -38.802  72.869  1.00  0.00    -0.504 OA
ATOM     19  H   UNL     1      17.771 -39.188  73.726  1.00  0.00     0.293 HD
ENDBRANCH  15  18
BRANCH  17  20
ATOM     20  O   UNL     1      16.335 -37.532  75.161  1.00  0.00    -0.504 OA
ATOM     21  H   UNL     1      15.798 -37.172  75.941  1.00  0.00     0.293 HD
ENDBRANCH  17  20
ENDBRANCH   1  12
BRANCH   2  22
ATOM     22  O   UNL     1      13.388 -34.081  71.619  1.00  0.00    -0.502 OA
ATOM     23  H   UNL     1      13.586 -34.654  70.809  1.00  0.00     0.293 HD
ENDBRANCH   2  22
BRANCH   6  24
ATOM     24  O   UNL     1      13.432 -28.760  71.846  1.00  0.00    -0.507 OA
ATOM     25  H   UNL     1      12.851 -28.038  72.245  1.00  0.00     0.293 HD
ENDBRANCH   6  24
BRANCH   8  26
ATOM     26  O   UNL     1      17.484 -28.031  74.285  1.00  0.00    -0.508 OA
ATOM     27  H   UNL     1      17.512 -27.056  74.007  1.00  0.00     0.293 HD
ENDBRANCH   8  26
TORSDOF 6
ENDMDL
MODEL 7
REMARK VINA RESULT:    -6.163      3.754      5.415
REMARK INTER + INTRA:          -7.380
REMARK INTER:                  -7.057
REMARK INTRA:                  -0.323
REMARK UNBOUND:                 0.043
REMARK SMILES O=c1c(O)c(-c2ccc(O)c(O)c2)oc2cc(O)cc(O)c12
REMARK SMILES IDX 5 1 3 2 2 3 1 4 22 5 20 6 19 7 17 8 16 9 15 10 14 11 6 12
REMARK SMILES IDX 7 13 8 14 9 15 13 16 11 17 10 18 12 20 4 22 21 24 18 26
REMARK H PARENT 10 19 12 21 4 23 21 25 18 27
REMARK Flexibility Score: inf
ROOT
ATOM      1  C   UNL     1      16.855 -33.191  73.343  1.00  0.00     0.180 A 
ATOM      2  C   UNL     1      17.969 -32.478  73.819  1.00  0.00     0.208 A 
ATOM      3  C   UNL     1      17.905 -31.077  73.883  1.00  0.00     0.238 A 
ATOM      4  O   UNL     1      18.925 -30.442  74.258  1.00  0.00    -0.285 OA
ATOM      5  C   UNL     1      16.722 -30.407  73.488  1.00  0.00     0.111 A 
ATOM      6  C   UNL     1      16.532 -28.994  73.551  1.00  0.00     0.134 A 
ATOM      7  C   UNL     1      15.369 -28.430  73.010  1.00  0.00     0.093 A 
ATOM      8  C   UNL     1      14.363 -29.229  72.471  1.00  0.00     0.123 A 
ATOM      9  C   UNL     1      14.512 -30.618  72.460  1.00  0.00     0.094 A 
ATOM     10  C   UNL     1      15.677 -31.208  72.958  1.00  0.00     0.146 A 
ATOM     11  O   UNL     1      15.784 -32.531  72.918  1.00  0.00    -0.452 OA
ENDROOT
BRANCH   1  12
ATOM     12  C   UNL     1      16.837 -34.670  73.269  1.00  0.00     0.025 A 
ATOM     13  C   UNL     1      17.257 -35.349  72.112  1.00  0.00     0.016 A 
ATOM     14  C   UNL     1      17.255 -36.746  72.073  1.00  0.00     0.051 A 
ATOM     15  C   UNL     1      16.847 -37.485  73.192  1.00  0.00     0.157 A 
ATOM     16  C   UNL     1      16.450 -35.415  74.395  1.00  0.00     0.062 A 
ATOM     17  C   UNL     1      16.446 -36.814  74.359  1.00  0.00     0.158 A 
BRANCH  15  18
ATOM     18  O   UNL     1      16.845 -38.877  73.148  1.00  0.00    -0.504 OA
ATOM     19  H   UNL     1      17.531 -39.394  72.610  1.00  0.00     0.293 HD
ENDBRANCH  15  18
BRANCH  17  20
ATOM     20  O   UNL     1      16.042 -37.519  75.492  1.00  0.00    -0.504 OA
ATOM     21  H   UNL     1      16.195 -38.516  75.588  1.00  0.00     0.293 HD
ENDBRANCH  17  20
ENDBRANCH   1  12
BRANCH   2  22
ATOM     22  O   UNL     1      19.135 -33.158  74.183  1.00  0.00    -0.502 OA
ATOM     23  H   UNL     1      19.698 -33.668  73.514  1.00  0.00     0.293 HD
ENDBRANCH   2  22
BRANCH   6  24
ATOM     24  O   UNL     1      17.434 -28.111  74.151  1.00  0.00    -0.507 OA
ATOM     25  H   UNL     1      18.432 -28.122  74.006  1.00  0.00     0.293 HD
ENDBRANCH   6  24
BRANCH   8  26
ATOM     26  O   UNL     1      13.213 -28.634  71.958  1.00  0.00    -0.508 OA
ATOM     27  H   UNL     1      12.732 -29.018  71.151  1.00  0.00     0.293 HD
ENDBRANCH   8  26
TORSDOF 6
ENDMDL
MODEL 8
REMARK VINA RESULT:    -6.156      3.978      6.600
REMARK INTER + INTRA:          -7.372
REMARK INTER:                  -7.164
REMARK INTRA:                  -0.209
REMARK UNBOUND:                 0.043
REMARK SMILES O=c1c(O)c(-c2ccc(O)c(O)c2)oc2cc(O)cc(O)c12
REMARK SMILES IDX 5 1 3 2 2 3 1 4 22 5 20 6 19 7 17 8 16 9 15 10 14 11 6 12
REMARK SMILES IDX 7 13 8 14 9 15 13 16 11 17 10 18 12 20 4 22 21 24 18 26
REMARK H PARENT 10 19 12 21 4 23 21 25 18 27
REMARK Flexibility Score: inf
ROOT
ATOM      1  C   UNL     1      16.781 -32.143  75.272  1.00  0.00     0.180 A 
ATOM      2  C   UNL     1      16.209 -32.999  74.316  1.00  0.00     0.208 A 
ATOM      3  C   UNL     1      15.893 -32.490  73.047  1.00  0.00     0.238 A 
ATOM      4  O   UNL     1      15.331 -33.248  72.213  1.00  0.00    -0.285 OA
ATOM      5  C   UNL     1      16.168 -31.134  72.743  1.00  0.00     0.111 A 
ATOM      6  C   UNL     1      15.927 -30.522  71.476  1.00  0.00     0.134 A 
ATOM      7  C   UNL     1      16.116 -29.142  71.330  1.00  0.00     0.093 A 
ATOM      8  C   UNL     1      16.598 -28.365  72.381  1.00  0.00     0.123 A 
ATOM      9  C   UNL     1      16.895 -28.964  73.607  1.00  0.00     0.094 A 
ATOM     10  C   UNL     1      16.682 -30.332  73.795  1.00  0.00     0.146 A 
ATOM     11  O   UNL     1      16.966 -30.861  74.979  1.00  0.00    -0.452 OA
ENDROOT
BRANCH   1  12
ATOM     12  C   UNL     1      17.164 -32.613  76.623  1.00  0.00     0.025 A 
ATOM     13  C   UNL     1      16.444 -32.223  77.765  1.00  0.00     0.016 A 
ATOM     14  C   UNL     1      16.809 -32.698  79.028  1.00  0.00     0.051 A 
ATOM     15  C   UNL     1      17.889 -33.580  79.166  1.00  0.00     0.157 A 
ATOM     16  C   UNL     1      18.233 -33.513  76.765  1.00  0.00     0.062 A 
ATOM     17  C   UNL     1      18.602 -33.991  78.028  1.00  0.00     0.158 A 
BRANCH  15  18
ATOM     18  O   UNL     1      18.252 -34.050  80.427  1.00  0.00    -0.504 OA
ATOM     19  H   UNL     1      18.448 -35.030  80.592  1.00  0.00     0.293 HD
ENDBRANCH  15  18
BRANCH  17  20
ATOM     20  O   UNL     1      19.677 -34.872  78.130  1.00  0.00    -0.504 OA
ATOM     21  H   UNL     1      20.619 -34.552  78.317  1.00  0.00     0.293 HD
ENDBRANCH  17  20
ENDBRANCH   1  12
BRANCH   2  22
ATOM     22  O   UNL     1      15.926 -34.329  74.643  1.00  0.00    -0.502 OA
ATOM     23  H   UNL     1      16.598 -34.931  75.102  1.00  0.00     0.293 HD
ENDBRANCH   2  22
BRANCH   6  24
ATOM     24  O   UNL     1      15.530 -31.223  70.334  1.00  0.00    -0.507 OA
ATOM     25  H   UNL     1      15.769 -32.183  70.137  1.00  0.00     0.293 HD
ENDBRANCH   6  24
BRANCH   8  26
ATOM     26  O   UNL     1      16.790 -26.998  72.194  1.00  0.00    -0.508 OA
ATOM     27  H   UNL     1      17.472 -26.479  72.736  1.00  0.00     0.293 HD
ENDBRANCH   8  26
TORSDOF 6
ENDMDL
MODEL 9
REMARK VINA RESULT:    -6.082      3.879      5.459
REMARK INTER + INTRA:          -7.284
REMARK INTER:                  -6.949
REMARK INTRA:                  -0.335
REMARK UNBOUND:                 0.043
REMARK SMILES O=c1c(O)c(-c2ccc(O)c(O)c2)oc2cc(O)cc(O)c12
REMARK SMILES IDX 5 1 3 2 2 3 1 4 22 5 20 6 19 7 17 8 16 9 15 10 14 11 6 12
REMARK SMILES IDX 7 13 8 14 9 15 13 16 11 17 10 18 12 20 4 22 21 24 18 26
REMARK H PARENT 10 19 12 21 4 23 21 25 18 27
REMARK Flexibility Score: inf
ROOT
ATOM      1  C   UNL     1      14.806 -31.405  70.958  1.00  0.00     0.180 A 
ATOM      2  C   UNL     1      13.928 -30.654  70.158  1.00  0.00     0.208 A 
ATOM      3  C   UNL     1      13.885 -29.260  70.317  1.00  0.00     0.238 A 
ATOM      4  O   UNL     1      13.057 -28.600  69.636  1.00  0.00    -0.285 OA
ATOM      5  C   UNL     1      14.733 -28.632  71.260  1.00  0.00     0.111 A 
ATOM      6  C   UNL     1      14.803 -27.223  71.476  1.00  0.00     0.134 A 
ATOM      7  C   UNL     1      15.582 -26.723  72.527  1.00  0.00     0.093 A 
ATOM      8  C   UNL     1      16.344 -27.573  73.326  1.00  0.00     0.123 A 
ATOM      9  C   UNL     1      16.330 -28.948  73.086  1.00  0.00     0.094 A 
ATOM     10  C   UNL     1      15.534 -29.480  72.069  1.00  0.00     0.146 A 
ATOM     11  O   UNL     1      15.541 -30.795  71.880  1.00  0.00    -0.452 OA
ENDROOT
BRANCH   1  12
ATOM     12  C   UNL     1      14.925 -32.876  70.832  1.00  0.00     0.025 A 
ATOM     13  C   UNL     1      15.827 -33.462  69.927  1.00  0.00     0.016 A 
ATOM     14  C   UNL     1      15.940 -34.852  69.842  1.00  0.00     0.051 A 
ATOM     15  C   UNL     1      15.165 -35.677  70.669  1.00  0.00     0.157 A 
ATOM     16  C   UNL     1      14.166 -33.706  71.673  1.00  0.00     0.062 A 
ATOM     17  C   UNL     1      14.276 -35.099  71.591  1.00  0.00     0.158 A 
BRANCH  15  18
ATOM     18  O   UNL     1      15.278 -37.062  70.580  1.00  0.00    -0.504 OA
ATOM     19  H   UNL     1      14.926 -37.673  71.309  1.00  0.00     0.293 HD
ENDBRANCH  15  18
BRANCH  17  20
ATOM     20  O   UNL     1      13.496 -35.891  72.433  1.00  0.00    -0.504 OA
ATOM     21  H   UNL     1      13.798 -36.141  73.367  1.00  0.00     0.293 HD
ENDBRANCH  17  20
ENDBRANCH   1  12
BRANCH   2  22
ATOM     22  O   UNL     1      13.083 -31.297  69.248  1.00  0.00    -0.502 OA
ATOM     23  H   UNL     1      12.268 -30.846  68.852  1.00  0.00     0.293 HD
ENDBRANCH   2  22
BRANCH   6  24
ATOM     24  O   UNL     1      14.153 -26.278  70.676  1.00  0.00    -0.507 OA
ATOM     25  H   UNL     1      13.514 -26.501  69.927  1.00  0.00     0.293 HD
ENDBRANCH   6  24
BRANCH   8  26
ATOM     26  O   UNL     1      17.120 -27.039  74.352  1.00  0.00    -0.508 OA
ATOM     27  H   UNL     1      17.638 -26.175  74.231  1.00  0.00     0.293 HD
ENDBRANCH   8  26
TORSDOF 6
ENDMDL
