MODEL 1
REMARK VINA RESULT:    -7.464      0.000      0.000
REMARK INTER + INTRA:          -9.315
REMARK INTER:                  -8.991
REMARK INTRA:                  -0.324
REMARK UNBOUND:                -0.324
REMARK SMILES O=c1c(O)c(-c2ccc(O)c(O)c2)oc2cc(O)cc(O)c12
REMARK SMILES IDX 5 1 3 2 2 3 1 4 22 5 20 6 19 7 17 8 16 9 15 10 14 11 6 12
REMARK SMILES IDX 7 13 8 14 9 15 13 16 11 17 10 18 12 20 4 22 21 24 18 26
REMARK H PARENT 10 19 12 21 4 23 21 25 18 27
REMARK Flexibility Score: inf
ROOT
ATOM      1  C   UNL     1       1.094  55.783  18.160  1.00  0.00     0.180 A 
ATOM      2  C   UNL     1       0.777  54.823  19.140  1.00  0.00     0.208 A 
ATOM      3  C   UNL     1      -0.563  54.664  19.527  1.00  0.00     0.238 A 
ATOM      4  O   UNL     1      -0.856  53.815  20.411  1.00  0.00    -0.285 OA
ATOM      5  C   UNL     1      -1.562  55.448  18.915  1.00  0.00     0.111 A 
ATOM      6  C   UNL     1      -2.936  55.347  19.245  1.00  0.00     0.134 A 
ATOM      7  C   UNL     1      -3.870  56.157  18.584  1.00  0.00     0.093 A 
ATOM      8  C   UNL     1      -3.462  57.064  17.604  1.00  0.00     0.123 A 
ATOM      9  C   UNL     1      -2.106  57.170  17.275  1.00  0.00     0.094 A 
ATOM     10  C   UNL     1      -1.159  56.371  17.922  1.00  0.00     0.146 A 
ATOM     11  O   UNL     1       0.122  56.495  17.595  1.00  0.00    -0.452 OA
ENDROOT
BRANCH   1  12
ATOM     12  C   UNL     1       2.485  56.024  17.714  1.00  0.00     0.025 A 
ATOM     13  C   UNL     1       3.288  56.934  18.420  1.00  0.00     0.016 A 
ATOM     14  C   UNL     1       4.610  57.162  18.030  1.00  0.00     0.051 A 
ATOM     15  C   UNL     1       5.153  56.473  16.937  1.00  0.00     0.157 A 
ATOM     16  C   UNL     1       3.039  55.319  16.630  1.00  0.00     0.062 A 
ATOM     17  C   UNL     1       4.367  55.548  16.239  1.00  0.00     0.158 A 
BRANCH  15  18
ATOM     18  O   UNL     1       6.470  56.699  16.543  1.00  0.00    -0.504 OA
ATOM     19  H   UNL     1       6.748  56.656  15.570  1.00  0.00     0.293 HD
ENDBRANCH  15  18
BRANCH  17  20
ATOM     20  O   UNL     1       4.913  54.853  15.161  1.00  0.00    -0.504 OA
ATOM     21  H   UNL     1       5.682  55.232  14.620  1.00  0.00     0.293 HD
ENDBRANCH  17  20
ENDBRANCH   1  12
BRANCH   2  22
ATOM     22  O   UNL     1       1.781  54.023  19.694  1.00  0.00    -0.502 OA
ATOM     23  H   UNL     1       1.911  53.932  20.695  1.00  0.00     0.293 HD
ENDBRANCH   2  22
BRANCH   6  24
ATOM     24  O   UNL     1      -3.376  54.450  20.218  1.00  0.00    -0.507 OA
ATOM     25  H   UNL     1      -3.656  54.761  21.142  1.00  0.00     0.293 HD
ENDBRANCH   6  24
BRANCH   8  26
ATOM     26  O   UNL     1      -4.412  57.857  16.963  1.00  0.00    -0.508 OA
ATOM     27  H   UNL     1      -4.784  57.606  16.054  1.00  0.00     0.293 HD
ENDBRANCH   8  26
TORSDOF 6
ENDMDL
MODEL 2
REMARK VINA RESULT:    -7.259      1.194      2.965
REMARK INTER + INTRA:          -9.068
REMARK INTER:                  -8.743
REMARK INTRA:                  -0.326
REMARK UNBOUND:                -0.324
REMARK SMILES O=c1c(O)c(-c2ccc(O)c(O)c2)oc2cc(O)cc(O)c12
REMARK SMILES IDX 5 1 3 2 2 3 1 4 22 5 20 6 19 7 17 8 16 9 15 10 14 11 6 12
REMARK SMILES IDX 7 13 8 14 9 15 13 16 11 17 10 18 12 20 4 22 21 24 18 26
REMARK H PARENT 10 19 12 21 4 23 21 25 18 27
REMARK Flexibility Score: inf
ROOT
ATOM      1  C   UNL     1       1.073  55.881  18.088  1.00  0.00     0.180 A 
ATOM      2  C   UNL     1      -0.008  56.539  17.470  1.00  0.00     0.208 A 
ATOM      3  C   UNL     1      -1.312  56.262  17.909  1.00  0.00     0.238 A 
ATOM      4  O   UNL     1      -2.287  56.837  17.356  1.00  0.00    -0.285 OA
ATOM      5  C   UNL     1      -1.512  55.352  18.968  1.00  0.00     0.111 A 
ATOM      6  C   UNL     1      -2.794  55.021  19.472  1.00  0.00     0.134 A 
ATOM      7  C   UNL     1      -2.908  54.112  20.535  1.00  0.00     0.093 A 
ATOM      8  C   UNL     1      -1.773  53.530  21.101  1.00  0.00     0.123 A 
ATOM      9  C   UNL     1      -0.505  53.852  20.607  1.00  0.00     0.094 A 
ATOM     10  C   UNL     1      -0.369  54.755  19.548  1.00  0.00     0.146 A 
ATOM     11  O   UNL     1       0.847  55.039  19.094  1.00  0.00    -0.452 OA
ENDROOT
BRANCH   1  12
ATOM     12  C   UNL     1       2.475  56.104  17.669  1.00  0.00     0.025 A 
ATOM     13  C   UNL     1       3.283  56.989  18.402  1.00  0.00     0.016 A 
ATOM     14  C   UNL     1       4.615  57.199  18.036  1.00  0.00     0.051 A 
ATOM     15  C   UNL     1       5.162  56.518  16.941  1.00  0.00     0.157 A 
ATOM     16  C   UNL     1       3.034  55.406  16.583  1.00  0.00     0.062 A 
ATOM     17  C   UNL     1       4.372  55.617  16.216  1.00  0.00     0.158 A 
BRANCH  15  18
ATOM     18  O   UNL     1       6.490  56.727  16.572  1.00  0.00    -0.504 OA
ATOM     19  H   UNL     1       6.916  57.645  16.622  1.00  0.00     0.293 HD
ENDBRANCH  15  18
BRANCH  17  20
ATOM     20  O   UNL     1       4.924  54.930  15.136  1.00  0.00    -0.504 OA
ATOM     21  H   UNL     1       5.738  54.336  15.245  1.00  0.00     0.293 HD
ENDBRANCH  17  20
ENDBRANCH   1  12
BRANCH   2  22
ATOM     22  O   UNL     1       0.222  57.474  16.457  1.00  0.00    -0.502 OA
ATOM     23  H   UNL     1       0.984  58.140  16.496  1.00  0.00     0.293 HD
ENDBRANCH   2  22
BRANCH   6  24
ATOM     24  O   UNL     1      -3.947  55.586  18.929  1.00  0.00    -0.507 OA
ATOM     25  H   UNL     1      -4.815  55.067  18.861  1.00  0.00     0.293 HD
ENDBRANCH   6  24
BRANCH   8  26
ATOM     26  O   UNL     1      -1.916  52.631  22.156  1.00  0.00    -0.508 OA
ATOM     27  H   UNL     1      -2.158  51.661  21.996  1.00  0.00     0.293 HD
ENDBRANCH   8  26
TORSDOF 6
ENDMDL
MODEL 3
REMARK VINA RESULT:    -7.228      1.787      6.909
REMARK INTER + INTRA:          -9.031
REMARK INTER:                  -9.261
REMARK INTRA:                   0.230
REMARK UNBOUND:                -0.324
REMARK SMILES O=c1c(O)c(-c2ccc(O)c(O)c2)oc2cc(O)cc(O)c12
REMARK SMILES IDX 5 1 3 2 2 3 1 4 22 5 20 6 19 7 17 8 16 9 15 10 14 11 6 12
REMARK SMILES IDX 7 13 8 14 9 15 13 16 11 17 10 18 12 20 4 22 21 24 18 26
REMARK H PARENT 10 19 12 21 4 23 21 25 18 27
REMARK Flexibility Score: inf
ROOT
ATOM      1  C   UNL     1      -1.508  55.497  17.944  1.00  0.00     0.180 A 
ATOM      2  C   UNL     1      -1.474  54.108  18.175  1.00  0.00     0.208 A 
ATOM      3  C   UNL     1      -0.280  53.409  17.939  1.00  0.00     0.238 A 
ATOM      4  O   UNL     1      -0.241  52.164  18.133  1.00  0.00    -0.285 OA
ATOM      5  C   UNL     1       0.861  54.109  17.496  1.00  0.00     0.111 A 
ATOM      6  C   UNL     1       2.103  53.481  17.237  1.00  0.00     0.134 A 
ATOM      7  C   UNL     1       3.195  54.249  16.807  1.00  0.00     0.093 A 
ATOM      8  C   UNL     1       3.071  55.628  16.631  1.00  0.00     0.123 A 
ATOM      9  C   UNL     1       1.846  56.255  16.883  1.00  0.00     0.094 A 
ATOM     10  C   UNL     1       0.745  55.507  17.312  1.00  0.00     0.146 A 
ATOM     11  O   UNL     1      -0.408  56.126  17.539  1.00  0.00    -0.452 OA
ENDROOT
BRANCH   1  12
ATOM     12  C   UNL     1      -2.734  56.300  18.150  1.00  0.00     0.025 A 
ATOM     13  C   UNL     1      -3.017  57.366  17.280  1.00  0.00     0.016 A 
ATOM     14  C   UNL     1      -4.178  58.124  17.444  1.00  0.00     0.051 A 
ATOM     15  C   UNL     1      -5.082  57.819  18.471  1.00  0.00     0.157 A 
ATOM     16  C   UNL     1      -3.654  55.984  19.167  1.00  0.00     0.062 A 
ATOM     17  C   UNL     1      -4.821  56.745  19.331  1.00  0.00     0.158 A 
BRANCH  15  18
ATOM     18  O   UNL     1      -6.240  58.575  18.639  1.00  0.00    -0.504 OA
ATOM     19  H   UNL     1      -6.655  59.089  17.870  1.00  0.00     0.293 HD
ENDBRANCH  15  18
BRANCH  17  20
ATOM     20  O   UNL     1      -5.728  56.435  20.342  1.00  0.00    -0.504 OA
ATOM     21  H   UNL     1      -5.895  57.067  21.117  1.00  0.00     0.293 HD
ENDBRANCH  17  20
ENDBRANCH   1  12
BRANCH   2  22
ATOM     22  O   UNL     1      -2.605  53.446  18.662  1.00  0.00    -0.502 OA
ATOM     23  H   UNL     1      -2.825  52.491  18.408  1.00  0.00     0.293 HD
ENDBRANCH   2  22
BRANCH   6  24
ATOM     24  O   UNL     1       2.261  52.105  17.405  1.00  0.00    -0.507 OA
ATOM     25  H   UNL     1       1.761  51.595  18.125  1.00  0.00     0.293 HD
ENDBRANCH   6  24
BRANCH   8  26
ATOM     26  O   UNL     1       4.171  56.369  16.204  1.00  0.00    -0.508 OA
ATOM     27  H   UNL     1       5.115  56.117  16.471  1.00  0.00     0.293 HD
ENDBRANCH   8  26
TORSDOF 6
ENDMDL
MODEL 4
REMARK VINA RESULT:    -7.138      1.057      1.718
REMARK INTER + INTRA:          -8.923
REMARK INTER:                  -8.591
REMARK INTRA:                  -0.332
REMARK UNBOUND:                -0.324
REMARK SMILES O=c1c(O)c(-c2ccc(O)c(O)c2)oc2cc(O)cc(O)c12
REMARK SMILES IDX 5 1 3 2 2 3 1 4 22 5 20 6 19 7 17 8 16 9 15 10 14 11 6 12
REMARK SMILES IDX 7 13 8 14 9 15 13 16 11 17 10 18 12 20 4 22 21 24 18 26
REMARK H PARENT 10 19 12 21 4 23 21 25 18 27
REMARK Flexibility Score: inf
ROOT
ATOM      1  C   UNL     1       0.229  55.244  18.253  1.00  0.00     0.180 A 
ATOM      2  C   UNL     1      -0.031  54.264  19.232  1.00  0.00     0.208 A 
ATOM      3  C   UNL     1      -1.311  54.200  19.804  1.00  0.00     0.238 A 
ATOM      4  O   UNL     1      -1.552  53.334  20.688  1.00  0.00    -0.285 OA
ATOM      5  C   UNL     1      -2.311  55.098  19.378  1.00  0.00     0.111 A 
ATOM      6  C   UNL     1      -3.627  55.098  19.902  1.00  0.00     0.134 A 
ATOM      7  C   UNL     1      -4.567  56.018  19.418  1.00  0.00     0.093 A 
ATOM      8  C   UNL     1      -4.222  56.937  18.425  1.00  0.00     0.123 A 
ATOM      9  C   UNL     1      -2.923  56.943  17.904  1.00  0.00     0.094 A 
ATOM     10  C   UNL     1      -1.970  56.034  18.373  1.00  0.00     0.146 A 
ATOM     11  O   UNL     1      -0.743  56.065  17.866  1.00  0.00    -0.452 OA
ENDROOT
BRANCH   1  12
ATOM     12  C   UNL     1       1.558  55.388  17.618  1.00  0.00     0.025 A 
ATOM     13  C   UNL     1       1.814  54.740  16.398  1.00  0.00     0.016 A 
ATOM     14  C   UNL     1       3.054  54.878  15.769  1.00  0.00     0.051 A 
ATOM     15  C   UNL     1       4.051  55.678  16.344  1.00  0.00     0.157 A 
ATOM     16  C   UNL     1       2.555  56.206  18.180  1.00  0.00     0.062 A 
ATOM     17  C   UNL     1       3.800  56.346  17.548  1.00  0.00     0.158 A 
BRANCH  15  18
ATOM     18  O   UNL     1       5.290  55.816  15.721  1.00  0.00    -0.504 OA
ATOM     19  H   UNL     1       5.406  55.654  14.727  1.00  0.00     0.293 HD
ENDBRANCH  15  18
BRANCH  17  20
ATOM     20  O   UNL     1       4.788  57.152  18.110  1.00  0.00    -0.504 OA
ATOM     21  H   UNL     1       5.493  56.772  18.731  1.00  0.00     0.293 HD
ENDBRANCH  17  20
ENDBRANCH   1  12
BRANCH   2  22
ATOM     22  O   UNL     1       0.963  53.354  19.600  1.00  0.00    -0.502 OA
ATOM     23  H   UNL     1       1.671  53.574  20.291  1.00  0.00     0.293 HD
ENDBRANCH   2  22
BRANCH   6  24
ATOM     24  O   UNL     1      -4.004  54.192  20.893  1.00  0.00    -0.507 OA
ATOM     25  H   UNL     1      -3.920  54.415  21.879  1.00  0.00     0.293 HD
ENDBRANCH   6  24
BRANCH   8  26
ATOM     26  O   UNL     1      -5.176  57.840  17.962  1.00  0.00    -0.508 OA
ATOM     27  H   UNL     1      -5.371  57.944  16.973  1.00  0.00     0.293 HD
ENDBRANCH   8  26
TORSDOF 6
ENDMDL
MODEL 5
REMARK VINA RESULT:    -7.028      2.019      6.946
REMARK INTER + INTRA:          -8.790
REMARK INTER:                  -8.817
REMARK INTRA:                   0.027
REMARK UNBOUND:                -0.324
REMARK SMILES O=c1c(O)c(-c2ccc(O)c(O)c2)oc2cc(O)cc(O)c12
REMARK SMILES IDX 5 1 3 2 2 3 1 4 22 5 20 6 19 7 17 8 16 9 15 10 14 11 6 12
REMARK SMILES IDX 7 13 8 14 9 15 13 16 11 17 10 18 12 20 4 22 21 24 18 26
REMARK H PARENT 10 19 12 21 4 23 21 25 18 27
REMARK Flexibility Score: inf
ROOT
ATOM      1  C   UNL     1       0.224  55.825  17.917  1.00  0.00     0.180 A 
ATOM      2  C   UNL     1       1.347  56.666  17.797  1.00  0.00     0.208 A 
ATOM      3  C   UNL     1       2.629  56.098  17.848  1.00  0.00     0.238 A 
ATOM      4  O   UNL     1       3.641  56.843  17.752  1.00  0.00    -0.285 OA
ATOM      5  C   UNL     1       2.768  54.703  17.997  1.00  0.00     0.111 A 
ATOM      6  C   UNL     1       4.024  54.052  18.053  1.00  0.00     0.134 A 
ATOM      7  C   UNL     1       4.078  52.657  18.194  1.00  0.00     0.093 A 
ATOM      8  C   UNL     1       2.906  51.903  18.279  1.00  0.00     0.123 A 
ATOM      9  C   UNL     1       1.662  52.541  18.225  1.00  0.00     0.094 A 
ATOM     10  C   UNL     1       1.587  53.930  18.086  1.00  0.00     0.146 A 
ATOM     11  O   UNL     1       0.393  54.511  18.042  1.00  0.00    -0.452 OA
ENDROOT
BRANCH   1  12
ATOM     12  C   UNL     1      -1.160  56.350  17.893  1.00  0.00     0.025 A 
ATOM     13  C   UNL     1      -1.560  57.193  16.843  1.00  0.00     0.016 A 
ATOM     14  C   UNL     1      -2.867  57.685  16.790  1.00  0.00     0.051 A 
ATOM     15  C   UNL     1      -3.797  57.329  17.776  1.00  0.00     0.157 A 
ATOM     16  C   UNL     1      -2.102  55.979  18.870  1.00  0.00     0.062 A 
ATOM     17  C   UNL     1      -3.414  56.471  18.815  1.00  0.00     0.158 A 
BRANCH  15  18
ATOM     18  O   UNL     1      -5.100  57.818  17.727  1.00  0.00    -0.504 OA
ATOM     19  H   UNL     1      -5.297  58.779  17.471  1.00  0.00     0.293 HD
ENDBRANCH  15  18
BRANCH  17  20
ATOM     20  O   UNL     1      -4.345  56.107  19.787  1.00  0.00    -0.504 OA
ATOM     21  H   UNL     1      -4.437  55.148  20.099  1.00  0.00     0.293 HD
ENDBRANCH  17  20
ENDBRANCH   1  12
BRANCH   2  22
ATOM     22  O   UNL     1       1.181  58.040  17.600  1.00  0.00    -0.502 OA
ATOM     23  H   UNL     1       1.842  58.596  17.070  1.00  0.00     0.293 HD
ENDBRANCH   2  22
BRANCH   6  24
ATOM     24  O   UNL     1       5.213  54.776  17.970  1.00  0.00    -0.507 OA
ATOM     25  H   UNL     1       5.599  55.067  17.079  1.00  0.00     0.293 HD
ENDBRANCH   6  24
BRANCH   8  26
ATOM     26  O   UNL     1       2.988  50.519  18.417  1.00  0.00    -0.508 OA
ATOM     27  H   UNL     1       2.983  50.077  19.329  1.00  0.00     0.293 HD
ENDBRANCH   8  26
TORSDOF 6
ENDMDL
MODEL 6
REMARK VINA RESULT:    -6.957      3.352      7.103
REMARK INTER + INTRA:          -8.704
REMARK INTER:                  -8.447
REMARK INTRA:                  -0.257
REMARK UNBOUND:                -0.324
REMARK SMILES O=c1c(O)c(-c2ccc(O)c(O)c2)oc2cc(O)cc(O)c12
REMARK SMILES IDX 5 1 3 2 2 3 1 4 22 5 20 6 19 7 17 8 16 9 15 10 14 11 6 12
REMARK SMILES IDX 7 13 8 14 9 15 13 16 11 17 10 18 12 20 4 22 21 24 18 26
REMARK H PARENT 10 19 12 21 4 23 21 25 18 27
REMARK Flexibility Score: inf
ROOT
ATOM      1  C   UNL     1      -1.909  55.007  19.023  1.00  0.00     0.180 A 
ATOM      2  C   UNL     1      -0.663  55.414  19.540  1.00  0.00     0.208 A 
ATOM      3  C   UNL     1       0.356  54.460  19.683  1.00  0.00     0.238 A 
ATOM      4  O   UNL     1       1.471  54.811  20.155  1.00  0.00    -0.285 OA
ATOM      5  C   UNL     1       0.122  53.126  19.291  1.00  0.00     0.111 A 
ATOM      6  C   UNL     1       1.098  52.105  19.400  1.00  0.00     0.134 A 
ATOM      7  C   UNL     1       0.790  50.803  18.979  1.00  0.00     0.093 A 
ATOM      8  C   UNL     1      -0.467  50.501  18.453  1.00  0.00     0.123 A 
ATOM      9  C   UNL     1      -1.436  51.505  18.345  1.00  0.00     0.094 A 
ATOM     10  C   UNL     1      -1.149  52.809  18.759  1.00  0.00     0.146 A 
ATOM     11  O   UNL     1      -2.088  53.743  18.650  1.00  0.00    -0.452 OA
ENDROOT
BRANCH   1  12
ATOM     12  C   UNL     1      -3.039  55.949  18.860  1.00  0.00     0.025 A 
ATOM     13  C   UNL     1      -3.028  56.863  17.793  1.00  0.00     0.016 A 
ATOM     14  C   UNL     1      -4.094  57.747  17.608  1.00  0.00     0.051 A 
ATOM     15  C   UNL     1      -5.193  57.721  18.478  1.00  0.00     0.157 A 
ATOM     16  C   UNL     1      -4.154  55.912  19.718  1.00  0.00     0.062 A 
ATOM     17  C   UNL     1      -5.224  56.799  19.531  1.00  0.00     0.158 A 
BRANCH  15  18
ATOM     18  O   UNL     1      -6.256  58.603  18.298  1.00  0.00    -0.504 OA
ATOM     19  H   UNL     1      -6.350  59.156  17.454  1.00  0.00     0.293 HD
ENDBRANCH  15  18
BRANCH  17  20
ATOM     20  O   UNL     1      -6.325  56.765  20.386  1.00  0.00    -0.504 OA
ATOM     21  H   UNL     1      -6.805  57.612  20.666  1.00  0.00     0.293 HD
ENDBRANCH  17  20
ENDBRANCH   1  12
BRANCH   2  22
ATOM     22  O   UNL     1      -0.442  56.753  19.874  1.00  0.00    -0.502 OA
ATOM     23  H   UNL     1      -0.955  57.219  20.612  1.00  0.00     0.293 HD
ENDBRANCH   2  22
BRANCH   6  24
ATOM     24  O   UNL     1       2.364  52.374  19.919  1.00  0.00    -0.507 OA
ATOM     25  H   UNL     1       2.739  53.316  19.950  1.00  0.00     0.293 HD
ENDBRANCH   6  24
BRANCH   8  26
ATOM     26  O   UNL     1      -0.746  49.200  18.042  1.00  0.00    -0.508 OA
ATOM     27  H   UNL     1      -1.419  49.009  17.309  1.00  0.00     0.293 HD
ENDBRANCH   8  26
TORSDOF 6
ENDMDL
MODEL 7
REMARK VINA RESULT:    -6.838      1.499      6.566
REMARK INTER + INTRA:          -8.561
REMARK INTER:                  -8.997
REMARK INTRA:                   0.436
REMARK UNBOUND:                -0.324
REMARK SMILES O=c1c(O)c(-c2ccc(O)c(O)c2)oc2cc(O)cc(O)c12
REMARK SMILES IDX 5 1 3 2 2 3 1 4 22 5 20 6 19 7 17 8 16 9 15 10 14 11 6 12
REMARK SMILES IDX 7 13 8 14 9 15 13 16 11 17 10 18 12 20 4 22 21 24 18 26
REMARK H PARENT 10 19 12 21 4 23 21 25 18 27
REMARK Flexibility Score: inf
ROOT
ATOM      1  C   UNL     1      -0.138  55.598  18.329  1.00  0.00     0.180 A 
ATOM      2  C   UNL     1       0.296  54.980  19.518  1.00  0.00     0.208 A 
ATOM      3  C   UNL     1       1.591  54.440  19.569  1.00  0.00     0.238 A 
ATOM      4  O   UNL     1       1.986  53.876  20.624  1.00  0.00    -0.285 OA
ATOM      5  C   UNL     1       2.433  54.543  18.442  1.00  0.00     0.111 A 
ATOM      6  C   UNL     1       3.752  54.027  18.412  1.00  0.00     0.134 A 
ATOM      7  C   UNL     1       4.530  54.178  17.255  1.00  0.00     0.093 A 
ATOM      8  C   UNL     1       4.019  54.830  16.132  1.00  0.00     0.123 A 
ATOM      9  C   UNL     1       2.717  55.340  16.155  1.00  0.00     0.094 A 
ATOM     10  C   UNL     1       1.924  55.200  17.298  1.00  0.00     0.146 A 
ATOM     11  O   UNL     1       0.689  55.689  17.291  1.00  0.00    -0.452 OA
ENDROOT
BRANCH   1  12
ATOM     12  C   UNL     1      -1.495  56.173  18.192  1.00  0.00     0.025 A 
ATOM     13  C   UNL     1      -2.506  55.781  19.085  1.00  0.00     0.016 A 
ATOM     14  C   UNL     1      -3.789  56.326  18.986  1.00  0.00     0.051 A 
ATOM     15  C   UNL     1      -4.076  57.282  18.003  1.00  0.00     0.157 A 
ATOM     16  C   UNL     1      -1.782  57.148  17.219  1.00  0.00     0.062 A 
ATOM     17  C   UNL     1      -3.070  57.696  17.121  1.00  0.00     0.158 A 
BRANCH  15  18
ATOM     18  O   UNL     1      -5.354  57.826  17.901  1.00  0.00    -0.504 OA
ATOM     19  H   UNL     1      -6.184  57.264  18.053  1.00  0.00     0.293 HD
ENDBRANCH  15  18
BRANCH  17  20
ATOM     20  O   UNL     1      -3.355  58.658  16.153  1.00  0.00    -0.504 OA
ATOM     21  H   UNL     1      -3.051  59.619  16.255  1.00  0.00     0.293 HD
ENDBRANCH  17  20
ENDBRANCH   1  12
BRANCH   2  22
ATOM     22  O   UNL     1      -0.540  54.936  20.637  1.00  0.00    -0.502 OA
ATOM     23  H   UNL     1      -1.509  55.231  20.601  1.00  0.00     0.293 HD
ENDBRANCH   2  22
BRANCH   6  24
ATOM     24  O   UNL     1       4.292  53.372  19.518  1.00  0.00    -0.507 OA
ATOM     25  H   UNL     1       4.603  52.409  19.468  1.00  0.00     0.293 HD
ENDBRANCH   6  24
BRANCH   8  26
ATOM     26  O   UNL     1       4.814  54.967  14.996  1.00  0.00    -0.508 OA
ATOM     27  H   UNL     1       4.456  54.761  14.071  1.00  0.00     0.293 HD
ENDBRANCH   8  26
TORSDOF 6
ENDMDL
MODEL 8
REMARK VINA RESULT:    -6.828      2.887      4.393
REMARK INTER + INTRA:          -8.549
REMARK INTER:                  -8.294
REMARK INTRA:                  -0.255
REMARK UNBOUND:                -0.324
REMARK SMILES O=c1c(O)c(-c2ccc(O)c(O)c2)oc2cc(O)cc(O)c12
REMARK SMILES IDX 5 1 3 2 2 3 1 4 22 5 20 6 19 7 17 8 16 9 15 10 14 11 6 12
REMARK SMILES IDX 7 13 8 14 9 15 13 16 11 17 10 18 12 20 4 22 21 24 18 26
REMARK H PARENT 10 19 12 21 4 23 21 25 18 27
REMARK Flexibility Score: inf
ROOT
ATOM      1  C   UNL     1      -1.791  55.261  19.062  1.00  0.00     0.180 A 
ATOM      2  C   UNL     1      -2.064  56.282  18.132  1.00  0.00     0.208 A 
ATOM      3  C   UNL     1      -3.350  56.844  18.098  1.00  0.00     0.238 A 
ATOM      4  O   UNL     1      -3.608  57.752  17.263  1.00  0.00    -0.285 OA
ATOM      5  C   UNL     1      -4.332  56.393  19.004  1.00  0.00     0.111 A 
ATOM      6  C   UNL     1      -5.650  56.909  19.037  1.00  0.00     0.134 A 
ATOM      7  C   UNL     1      -6.567  56.412  19.975  1.00  0.00     0.093 A 
ATOM      8  C   UNL     1      -6.195  55.414  20.877  1.00  0.00     0.123 A 
ATOM      9  C   UNL     1      -4.894  54.899  20.848  1.00  0.00     0.094 A 
ATOM     10  C   UNL     1      -3.966  55.380  19.920  1.00  0.00     0.146 A 
ATOM     11  O   UNL     1      -2.739  54.870  19.911  1.00  0.00    -0.452 OA
ENDROOT
BRANCH   1  12
ATOM     12  C   UNL     1      -0.467  54.605  19.146  1.00  0.00     0.025 A 
ATOM     13  C   UNL     1       0.342  54.825  20.273  1.00  0.00     0.016 A 
ATOM     14  C   UNL     1       1.588  54.200  20.382  1.00  0.00     0.051 A 
ATOM     15  C   UNL     1       2.035  53.335  19.375  1.00  0.00     0.157 A 
ATOM     16  C   UNL     1      -0.023  53.720  18.146  1.00  0.00     0.062 A 
ATOM     17  C   UNL     1       1.226  53.092  18.257  1.00  0.00     0.158 A 
BRANCH  15  18
ATOM     18  O   UNL     1       3.277  52.712  19.480  1.00  0.00    -0.504 OA
ATOM     19  H   UNL     1       4.141  53.237  19.409  1.00  0.00     0.293 HD
ENDBRANCH  15  18
BRANCH  17  20
ATOM     20  O   UNL     1       1.668  52.220  17.263  1.00  0.00    -0.504 OA
ATOM     21  H   UNL     1       1.057  51.918  16.513  1.00  0.00     0.293 HD
ENDBRANCH  17  20
ENDBRANCH   1  12
BRANCH   2  22
ATOM     22  O   UNL     1      -1.058  56.747  17.279  1.00  0.00    -0.502 OA
ATOM     23  H   UNL     1      -0.942  56.395  16.337  1.00  0.00     0.293 HD
ENDBRANCH   2  22
BRANCH   6  24
ATOM     24  O   UNL     1      -6.052  57.908  18.151  1.00  0.00    -0.507 OA
ATOM     25  H   UNL     1      -6.922  58.414  18.277  1.00  0.00     0.293 HD
ENDBRANCH   6  24
BRANCH   8  26
ATOM     26  O   UNL     1      -7.125  54.939  21.799  1.00  0.00    -0.508 OA
ATOM     27  H   UNL     1      -8.019  55.397  21.934  1.00  0.00     0.293 HD
ENDBRANCH   8  26
TORSDOF 6
ENDMDL
MODEL 9
REMARK VINA RESULT:    -6.784      2.044      6.693
REMARK INTER + INTRA:          -8.496
REMARK INTER:                  -8.561
REMARK INTRA:                   0.066
REMARK UNBOUND:                -0.324
REMARK SMILES O=c1c(O)c(-c2ccc(O)c(O)c2)oc2cc(O)cc(O)c12
REMARK SMILES IDX 5 1 3 2 2 3 1 4 22 5 20 6 19 7 17 8 16 9 15 10 14 11 6 12
REMARK SMILES IDX 7 13 8 14 9 15 13 16 11 17 10 18 12 20 4 22 21 24 18 26
REMARK H PARENT 10 19 12 21 4 23 21 25 18 27
REMARK Flexibility Score: inf
ROOT
ATOM      1  C   UNL     1      -0.989  54.594  18.322  1.00  0.00     0.180 A 
ATOM      2  C   UNL     1      -1.171  53.201  18.432  1.00  0.00     0.208 A 
ATOM      3  C   UNL     1      -0.043  52.366  18.411  1.00  0.00     0.238 A 
ATOM      4  O   UNL     1      -0.195  51.118  18.498  1.00  0.00    -0.285 OA
ATOM      5  C   UNL     1       1.243  52.934  18.301  1.00  0.00     0.111 A 
ATOM      6  C   UNL     1       2.430  52.162  18.276  1.00  0.00     0.134 A 
ATOM      7  C   UNL     1       3.673  52.804  18.173  1.00  0.00     0.093 A 
ATOM      8  C   UNL     1       3.754  54.195  18.095  1.00  0.00     0.123 A 
ATOM      9  C   UNL     1       2.584  54.963  18.118  1.00  0.00     0.094 A 
ATOM     10  C   UNL     1       1.335  54.343  18.219  1.00  0.00     0.146 A 
ATOM     11  O   UNL     1       0.240  55.095  18.234  1.00  0.00    -0.452 OA
ENDROOT
BRANCH   1  12
ATOM     12  C   UNL     1      -2.129  55.539  18.317  1.00  0.00     0.025 A 
ATOM     13  C   UNL     1      -3.124  55.426  19.302  1.00  0.00     0.016 A 
ATOM     14  C   UNL     1      -4.198  56.319  19.328  1.00  0.00     0.051 A 
ATOM     15  C   UNL     1      -4.285  57.347  18.379  1.00  0.00     0.157 A 
ATOM     16  C   UNL     1      -2.209  56.584  17.379  1.00  0.00     0.062 A 
ATOM     17  C   UNL     1      -3.287  57.482  17.406  1.00  0.00     0.158 A 
BRANCH  15  18
ATOM     18  O   UNL     1      -5.356  58.238  18.401  1.00  0.00    -0.504 OA
ATOM     19  H   UNL     1      -6.149  58.131  17.780  1.00  0.00     0.293 HD
ENDBRANCH  15  18
BRANCH  17  20
ATOM     20  O   UNL     1      -3.369  58.514  16.473  1.00  0.00    -0.504 OA
ATOM     21  H   UNL     1      -2.615  59.179  16.350  1.00  0.00     0.293 HD
ENDBRANCH  17  20
ENDBRANCH   1  12
BRANCH   2  22
ATOM     22  O   UNL     1      -2.453  52.668  18.591  1.00  0.00    -0.502 OA
ATOM     23  H   UNL     1      -3.284  53.146  18.263  1.00  0.00     0.293 HD
ENDBRANCH   2  22
BRANCH   6  24
ATOM     24  O   UNL     1       2.383  50.771  18.353  1.00  0.00    -0.507 OA
ATOM     25  H   UNL     1       2.555  50.278  19.222  1.00  0.00     0.293 HD
ENDBRANCH   6  24
BRANCH   8  26
ATOM     26  O   UNL     1       5.001  54.807  17.995  1.00  0.00    -0.508 OA
ATOM     27  H   UNL     1       5.500  55.132  18.815  1.00  0.00     0.293 HD
ENDBRANCH   8  26
TORSDOF 6
ENDMDL
