MODEL 1
REMARK VINA RESULT:    31.099      0.000      0.000
REMARK INTER + INTRA:          37.204
REMARK INTER:                  37.462
REMARK INTRA:                  -0.258
REMARK UNBOUND:                -0.258
REMARK SMILES O=c1c(O)c(-c2ccc(O)c(O)c2)oc2cc(O)cc(O)c12
REMARK SMILES IDX 5 1 3 2 2 3 1 4 22 5 20 6 19 7 17 8 16 9 15 10 14 11 6 12
REMARK SMILES IDX 7 13 8 14 9 15 13 16 11 17 10 18 12 20 4 22 21 24 18 26
REMARK H PARENT 10 19 12 21 4 23 21 25 18 27
REMARK Flexibility Score: inf
ROOT
ATOM      1  C   UNL     1       9.427   1.515   8.607  1.00  0.00     0.180 A 
ATOM      2  C   UNL     1      10.211   0.430   8.178  1.00  0.00     0.208 A 
ATOM      3  C   UNL     1      11.250   0.660   7.262  1.00  0.00     0.238 A 
ATOM      4  O   UNL     1      11.899  -0.326   6.825  1.00  0.00    -0.285 OA
ATOM      5  C   UNL     1      11.530   1.980   6.831  1.00  0.00     0.111 A 
ATOM      6  C   UNL     1      12.588   2.337   5.940  1.00  0.00     0.134 A 
ATOM      7  C   UNL     1      12.703   3.660   5.500  1.00  0.00     0.093 A 
ATOM      8  C   UNL     1      11.838   4.654   5.966  1.00  0.00     0.123 A 
ATOM      9  C   UNL     1      10.838   4.326   6.878  1.00  0.00     0.094 A 
ATOM     10  C   UNL     1      10.673   3.007   7.307  1.00  0.00     0.146 A 
ATOM     11  O   UNL     1       9.693   2.736   8.159  1.00  0.00    -0.452 OA
ENDROOT
BRANCH   1  12
ATOM     12  C   UNL     1       8.305   1.348   9.558  1.00  0.00     0.025 A 
ATOM     13  C   UNL     1       8.533   1.118  10.926  1.00  0.00     0.016 A 
ATOM     14  C   UNL     1       7.458   0.939  11.801  1.00  0.00     0.051 A 
ATOM     15  C   UNL     1       6.141   0.975  11.321  1.00  0.00     0.157 A 
ATOM     16  C   UNL     1       6.986   1.361   9.078  1.00  0.00     0.062 A 
ATOM     17  C   UNL     1       5.906   1.184   9.952  1.00  0.00     0.158 A 
BRANCH  15  18
ATOM     18  O   UNL     1       5.071   0.798  12.196  1.00  0.00    -0.504 OA
ATOM     19  H   UNL     1       5.192   0.352  13.098  1.00  0.00     0.293 HD
ENDBRANCH  15  18
BRANCH  17  20
ATOM     20  O   UNL     1       4.609   1.216   9.441  1.00  0.00    -0.504 OA
ATOM     21  H   UNL     1       3.884   0.590   9.771  1.00  0.00     0.293 HD
ENDBRANCH  17  20
ENDBRANCH   1  12
BRANCH   2  22
ATOM     22  O   UNL     1       9.967  -0.854   8.674  1.00  0.00    -0.502 OA
ATOM     23  H   UNL     1       9.184  -1.062   9.283  1.00  0.00     0.293 HD
ENDBRANCH   2  22
BRANCH   6  24
ATOM     24  O   UNL     1      13.561   1.442   5.482  1.00  0.00    -0.507 OA
ATOM     25  H   UNL     1      14.024   1.500   4.589  1.00  0.00     0.293 HD
ENDBRANCH   6  24
BRANCH   8  26
ATOM     26  O   UNL     1      11.971   5.972   5.536  1.00  0.00    -0.508 OA
ATOM     27  H   UNL     1      12.139   6.728   6.190  1.00  0.00     0.293 HD
ENDBRANCH   8  26
TORSDOF 6
ENDMDL
MODEL 2
REMARK VINA RESULT:    31.645      1.212      2.846
REMARK INTER + INTRA:          37.861
REMARK INTER:                  38.076
REMARK INTRA:                  -0.215
REMARK UNBOUND:                -0.258
REMARK SMILES O=c1c(O)c(-c2ccc(O)c(O)c2)oc2cc(O)cc(O)c12
REMARK SMILES IDX 5 1 3 2 2 3 1 4 22 5 20 6 19 7 17 8 16 9 15 10 14 11 6 12
REMARK SMILES IDX 7 13 8 14 9 15 13 16 11 17 10 18 12 20 4 22 21 24 18 26
REMARK H PARENT 10 19 12 21 4 23 21 25 18 27
REMARK Flexibility Score: inf
ROOT
ATOM      1  C   UNL     1       9.504   2.201   8.453  1.00  0.00     0.180 A 
ATOM      2  C   UNL     1       9.589   3.537   8.023  1.00  0.00     0.208 A 
ATOM      3  C   UNL     1      10.635   3.912   7.165  1.00  0.00     0.238 A 
ATOM      4  O   UNL     1      10.748   5.123   6.845  1.00  0.00    -0.285 OA
ATOM      5  C   UNL     1      11.549   2.935   6.700  1.00  0.00     0.111 A 
ATOM      6  C   UNL     1      12.621   3.192   5.791  1.00  0.00     0.134 A 
ATOM      7  C   UNL     1      13.527   2.170   5.485  1.00  0.00     0.093 A 
ATOM      8  C   UNL     1      13.364   0.882   6.004  1.00  0.00     0.123 A 
ATOM      9  C   UNL     1      12.291   0.608   6.847  1.00  0.00     0.094 A 
ATOM     10  C   UNL     1      11.392   1.616   7.202  1.00  0.00     0.146 A 
ATOM     11  O   UNL     1      10.395   1.315   8.026  1.00  0.00    -0.452 OA
ENDROOT
BRANCH   1  12
ATOM     12  C   UNL     1       8.439   1.734   9.369  1.00  0.00     0.025 A 
ATOM     13  C   UNL     1       8.728   1.340  10.687  1.00  0.00     0.016 A 
ATOM     14  C   UNL     1       7.709   0.878  11.525  1.00  0.00     0.051 A 
ATOM     15  C   UNL     1       6.391   0.793  11.056  1.00  0.00     0.157 A 
ATOM     16  C   UNL     1       7.121   1.625   8.897  1.00  0.00     0.062 A 
ATOM     17  C   UNL     1       6.098   1.166   9.734  1.00  0.00     0.158 A 
BRANCH  15  18
ATOM     18  O   UNL     1       5.377   0.334  11.895  1.00  0.00    -0.504 OA
ATOM     19  H   UNL     1       5.169   0.792  12.776  1.00  0.00     0.293 HD
ENDBRANCH  15  18
BRANCH  17  20
ATOM     20  O   UNL     1       4.799   1.084   9.234  1.00  0.00    -0.504 OA
ATOM     21  H   UNL     1       4.578   0.571   8.388  1.00  0.00     0.293 HD
ENDBRANCH  17  20
ENDBRANCH   1  12
BRANCH   2  22
ATOM     22  O   UNL     1       8.632   4.469   8.433  1.00  0.00    -0.502 OA
ATOM     23  H   UNL     1       7.646   4.367   8.220  1.00  0.00     0.293 HD
ENDBRANCH   2  22
BRANCH   6  24
ATOM     24  O   UNL     1      12.824   4.416   5.147  1.00  0.00    -0.507 OA
ATOM     25  H   UNL     1      12.095   5.068   4.902  1.00  0.00     0.293 HD
ENDBRANCH   6  24
BRANCH   8  26
ATOM     26  O   UNL     1      14.261  -0.133   5.680  1.00  0.00    -0.508 OA
ATOM     27  H   UNL     1      13.968  -0.952   5.159  1.00  0.00     0.293 HD
ENDBRANCH   8  26
TORSDOF 6
ENDMDL
MODEL 3
REMARK VINA RESULT:    31.714      4.756      8.167
REMARK INTER + INTRA:          37.944
REMARK INTER:                  38.184
REMARK INTRA:                  -0.240
REMARK UNBOUND:                -0.258
REMARK SMILES O=c1c(O)c(-c2ccc(O)c(O)c2)oc2cc(O)cc(O)c12
REMARK SMILES IDX 5 1 3 2 2 3 1 4 22 5 20 6 19 7 17 8 16 9 15 10 14 11 6 12
REMARK SMILES IDX 7 13 8 14 9 15 13 16 11 17 10 18 12 20 4 22 21 24 18 26
REMARK H PARENT 10 19 12 21 4 23 21 25 18 27
REMARK Flexibility Score: inf
ROOT
ATOM      1  C   UNL     1      14.998   3.637   8.500  1.00  0.00     0.180 A 
ATOM      2  C   UNL     1      14.180   4.721   8.138  1.00  0.00     0.208 A 
ATOM      3  C   UNL     1      13.109   4.503   7.257  1.00  0.00     0.238 A 
ATOM      4  O   UNL     1      12.427   5.490   6.879  1.00  0.00    -0.285 OA
ATOM      5  C   UNL     1      12.833   3.193   6.794  1.00  0.00     0.111 A 
ATOM      6  C   UNL     1      11.746   2.846   5.935  1.00  0.00     0.134 A 
ATOM      7  C   UNL     1      11.636   1.535   5.456  1.00  0.00     0.093 A 
ATOM      8  C   UNL     1      12.535   0.543   5.856  1.00  0.00     0.123 A 
ATOM      9  C   UNL     1      13.565   0.859   6.737  1.00  0.00     0.094 A 
ATOM     10  C   UNL     1      13.725   2.166   7.202  1.00  0.00     0.146 A 
ATOM     11  O   UNL     1      14.734   2.427   8.024  1.00  0.00    -0.452 OA
ENDROOT
BRANCH   1  12
ATOM     12  C   UNL     1      16.154   3.793   9.412  1.00  0.00     0.025 A 
ATOM     13  C   UNL     1      15.977   4.026  10.787  1.00  0.00     0.016 A 
ATOM     14  C   UNL     1      17.084   4.194  11.623  1.00  0.00     0.051 A 
ATOM     15  C   UNL     1      18.382   4.145  11.097  1.00  0.00     0.157 A 
ATOM     16  C   UNL     1      17.456   3.767   8.886  1.00  0.00     0.062 A 
ATOM     17  C   UNL     1      18.567   3.933   9.721  1.00  0.00     0.158 A 
BRANCH  15  18
ATOM     18  O   UNL     1      19.484   4.312  11.934  1.00  0.00    -0.504 OA
ATOM     19  H   UNL     1      19.414   4.821  12.808  1.00  0.00     0.293 HD
ENDBRANCH  15  18
BRANCH  17  20
ATOM     20  O   UNL     1      19.845   3.888   9.165  1.00  0.00    -0.504 OA
ATOM     21  H   UNL     1      20.391   4.725   9.001  1.00  0.00     0.293 HD
ENDBRANCH  17  20
ENDBRANCH   1  12
BRANCH   2  22
ATOM     22  O   UNL     1      14.422   5.993   8.666  1.00  0.00    -0.502 OA
ATOM     23  H   UNL     1      13.911   6.813   8.364  1.00  0.00     0.293 HD
ENDBRANCH   2  22
BRANCH   6  24
ATOM     24  O   UNL     1      10.742   3.738   5.545  1.00  0.00    -0.507 OA
ATOM     25  H   UNL     1      10.881   4.544   4.957  1.00  0.00     0.293 HD
ENDBRANCH   6  24
BRANCH   8  26
ATOM     26  O   UNL     1      12.406  -0.763   5.388  1.00  0.00    -0.508 OA
ATOM     27  H   UNL     1      13.200  -1.393   5.352  1.00  0.00     0.293 HD
ENDBRANCH   8  26
TORSDOF 6
ENDMDL
MODEL 4
REMARK VINA RESULT:    32.133      4.620      7.533
REMARK INTER + INTRA:          38.449
REMARK INTER:                  38.628
REMARK INTRA:                  -0.179
REMARK UNBOUND:                -0.258
REMARK SMILES O=c1c(O)c(-c2ccc(O)c(O)c2)oc2cc(O)cc(O)c12
REMARK SMILES IDX 5 1 3 2 2 3 1 4 22 5 20 6 19 7 17 8 16 9 15 10 14 11 6 12
REMARK SMILES IDX 7 13 8 14 9 15 13 16 11 17 10 18 12 20 4 22 21 24 18 26
REMARK H PARENT 10 19 12 21 4 23 21 25 18 27
REMARK Flexibility Score: inf
ROOT
ATOM      1  C   UNL     1      14.936   2.967   8.365  1.00  0.00     0.180 A 
ATOM      2  C   UNL     1      14.885   1.661   7.846  1.00  0.00     0.208 A 
ATOM      3  C   UNL     1      13.817   1.301   7.008  1.00  0.00     0.238 A 
ATOM      4  O   UNL     1      13.739   0.111   6.608  1.00  0.00    -0.285 OA
ATOM      5  C   UNL     1      12.844   2.267   6.653  1.00  0.00     0.111 A 
ATOM      6  C   UNL     1      11.743   2.027   5.774  1.00  0.00     0.134 A 
ATOM      7  C   UNL     1      10.784   3.027   5.580  1.00  0.00     0.093 A 
ATOM      8  C   UNL     1      10.918   4.282   6.182  1.00  0.00     0.123 A 
ATOM      9  C   UNL     1      12.016   4.544   6.996  1.00  0.00     0.094 A 
ATOM     10  C   UNL     1      12.971   3.554   7.240  1.00  0.00     0.146 A 
ATOM     11  O   UNL     1      13.990   3.840   8.039  1.00  0.00    -0.452 OA
ENDROOT
BRANCH   1  12
ATOM     12  C   UNL     1      16.022   3.415   9.266  1.00  0.00     0.025 A 
ATOM     13  C   UNL     1      15.764   3.777  10.600  1.00  0.00     0.016 A 
ATOM     14  C   UNL     1      16.802   4.222  11.423  1.00  0.00     0.051 A 
ATOM     15  C   UNL     1      18.107   4.323  10.924  1.00  0.00     0.157 A 
ATOM     16  C   UNL     1      17.327   3.540   8.764  1.00  0.00     0.062 A 
ATOM     17  C   UNL     1      18.369   3.983   9.587  1.00  0.00     0.158 A 
BRANCH  15  18
ATOM     18  O   UNL     1      19.140   4.765  11.749  1.00  0.00    -0.504 OA
ATOM     19  H   UNL     1      19.560   4.159  12.445  1.00  0.00     0.293 HD
ENDBRANCH  15  18
BRANCH  17  20
ATOM     20  O   UNL     1      19.655   4.081   9.057  1.00  0.00    -0.504 OA
ATOM     21  H   UNL     1      19.887   4.742   8.324  1.00  0.00     0.293 HD
ENDBRANCH  17  20
ENDBRANCH   1  12
BRANCH   2  22
ATOM     22  O   UNL     1      15.897   0.745   8.147  1.00  0.00    -0.502 OA
ATOM     23  H   UNL     1      16.037   0.378   9.081  1.00  0.00     0.293 HD
ENDBRANCH   2  22
BRANCH   6  24
ATOM     24  O   UNL     1      11.561   0.842   5.054  1.00  0.00    -0.507 OA
ATOM     25  H   UNL     1      11.517  -0.080   5.459  1.00  0.00     0.293 HD
ENDBRANCH   6  24
BRANCH   8  26
ATOM     26  O   UNL     1       9.967   5.277   5.969  1.00  0.00    -0.508 OA
ATOM     27  H   UNL     1      10.081   5.972   5.239  1.00  0.00     0.293 HD
ENDBRANCH   8  26
TORSDOF 6
ENDMDL
