MODEL 1
REMARK VINA RESULT:    -3.437      0.000      0.000
REMARK INTER + INTRA:         -12.365
REMARK INTER:                  -7.858
REMARK INTRA:                  -4.507
REMARK UNBOUND:                -4.507
REMARK SMILES CCCCCCCCCCCCCCCCCCCCCCCC(=O)[O-]
REMARK SMILES IDX 13 1 14 2 15 3 16 4 17 5 18 6 19 7 20 8 21 9 22 10 23 11
REMARK SMILES IDX 24 12 25 13 26 14 12 15 11 16 10 17 9 18 8 19 7 20 6 21 5 22
REMARK SMILES IDX 4 23 3 24 2 25 1 26
REMARK H PARENT
REMARK Flexibility Score: inf
ROOT
ATOM      1  C   UNL     1      20.452   4.943  31.160  1.00  0.00     0.000 C 
ENDROOT
BRANCH   1   2
ATOM      2  C   UNL     1      21.389   6.161  31.140  1.00  0.00     0.000 C 
BRANCH   2   3
ATOM      3  C   UNL     1      22.822   5.740  30.781  1.00  0.00     0.000 C 
BRANCH   3   4
ATOM      4  C   UNL     1      23.862   6.197  31.820  1.00  0.00     0.000 C 
BRANCH   4   5
ATOM      5  C   UNL     1      25.141   5.338  31.885  1.00  0.00     0.000 C 
BRANCH   5   6
ATOM      6  C   UNL     1      26.428   6.051  31.433  1.00  0.00     0.000 C 
BRANCH   6   7
ATOM      7  C   UNL     1      26.372   6.514  29.971  1.00  0.00     0.000 C 
BRANCH   7   8
ATOM      8  C   UNL     1      26.373   8.044  29.881  1.00  0.00     0.000 C 
BRANCH   8   9
ATOM      9  C   UNL     1      25.364   8.538  28.837  1.00  0.00     0.000 C 
BRANCH   9  10
ATOM     10  C   UNL     1      24.829   7.375  27.995  1.00  0.00     0.006 C 
BRANCH  10  11
ATOM     11  C   UNL     1      23.694   7.834  27.073  1.00  0.00     0.053 C 
BRANCH  11  12
ATOM     12  C   UNL     1      23.282   6.743  26.133  1.00  0.00     0.041 C 
ATOM     13  O   UNL     1      22.128   6.240  26.204  1.00  0.00    -0.550 OA
ATOM     14  O   UNL     1      24.180   6.263  25.188  1.00  0.00    -0.550 OA
ENDBRANCH  11  12
ENDBRANCH  10  11
ENDBRANCH   9  10
ENDBRANCH   8   9
ENDBRANCH   7   8
ENDBRANCH   6   7
ENDBRANCH   5   6
ENDBRANCH   4   5
ENDBRANCH   3   4
ENDBRANCH   2   3
ENDBRANCH   1   2
BRANCH   1  15
ATOM     15  C   UNL     1      19.905   4.624  32.561  1.00  0.00     0.000 C 
BRANCH  15  16
ATOM     16  C   UNL     1      20.943   4.080  33.562  1.00  0.00     0.000 C 
BRANCH  16  17
ATOM     17  C   UNL     1      21.479   2.673  33.212  1.00  0.00     0.000 C 
BRANCH  17  18
ATOM     18  C   UNL     1      23.015   2.611  33.245  1.00  0.00    -0.000 C 
BRANCH  18  19
ATOM     19  C   UNL     1      23.630   2.176  31.901  1.00  0.00    -0.000 C 
BRANCH  19  20
ATOM     20  C   UNL     1      22.623   1.964  30.752  1.00  0.00    -0.000 C 
BRANCH  20  21
ATOM     21  C   UNL     1      23.220   2.011  29.334  1.00  0.00    -0.000 C 
BRANCH  21  22
ATOM     22  C   UNL     1      23.272   3.426  28.740  1.00  0.00    -0.000 C 
BRANCH  22  23
ATOM     23  C   UNL     1      24.604   3.662  28.018  1.00  0.00    -0.000 C 
BRANCH  23  24
ATOM     24  C   UNL     1      25.612   2.547  28.335  1.00  0.00    -0.000 C 
BRANCH  24  25
ATOM     25  C   UNL     1      26.745   3.021  29.258  1.00  0.00    -0.003 C 
ATOM     26  C   UNL     1      27.041   2.034  30.387  1.00  0.00     0.004 C 
ENDBRANCH  24  25
ENDBRANCH  23  24
ENDBRANCH  22  23
ENDBRANCH  21  22
ENDBRANCH  20  21
ENDBRANCH  19  20
ENDBRANCH  18  19
ENDBRANCH  17  18
ENDBRANCH  16  17
ENDBRANCH  15  16
ENDBRANCH   1  15
TORSDOF 22
ENDMDL
MODEL 2
REMARK VINA RESULT:    -3.349      2.419      5.008
REMARK INTER + INTRA:         -12.164
REMARK INTER:                  -8.017
REMARK INTRA:                  -4.147
REMARK UNBOUND:                -4.507
REMARK SMILES CCCCCCCCCCCCCCCCCCCCCCCC(=O)[O-]
REMARK SMILES IDX 13 1 14 2 15 3 16 4 17 5 18 6 19 7 20 8 21 9 22 10 23 11
REMARK SMILES IDX 24 12 25 13 26 14 12 15 11 16 10 17 9 18 8 19 7 20 6 21 5 22
REMARK SMILES IDX 4 23 3 24 2 25 1 26
REMARK H PARENT
REMARK Flexibility Score: inf
ROOT
ATOM      1  C   UNL     1      24.350   2.299  27.596  1.00  0.00     0.000 C 
ENDROOT
BRANCH   1   2
ATOM      2  C   UNL     1      25.351   3.089  28.454  1.00  0.00     0.000 C 
BRANCH   2   3
ATOM      3  C   UNL     1      24.957   4.572  28.524  1.00  0.00     0.000 C 
BRANCH   3   4
ATOM      4  C   UNL     1      23.486   4.823  28.144  1.00  0.00     0.000 C 
BRANCH   4   5
ATOM      5  C   UNL     1      23.273   5.783  26.957  1.00  0.00     0.000 C 
BRANCH   5   6
ATOM      6  C   UNL     1      24.245   6.976  26.901  1.00  0.00     0.000 C 
BRANCH   6   7
ATOM      7  C   UNL     1      23.917   8.060  27.938  1.00  0.00     0.000 C 
BRANCH   7   8
ATOM      8  C   UNL     1      25.051   8.202  28.959  1.00  0.00     0.000 C 
BRANCH   8   9
ATOM      9  C   UNL     1      24.686   9.208  30.056  1.00  0.00     0.000 C 
BRANCH   9  10
ATOM     10  C   UNL     1      23.196   9.562  30.004  1.00  0.00     0.006 C 
BRANCH  10  11
ATOM     11  C   UNL     1      22.967  11.043  30.328  1.00  0.00     0.053 C 
BRANCH  11  12
ATOM     12  C   UNL     1      23.034  11.887  29.091  1.00  0.00     0.041 C 
ATOM     13  O   UNL     1      22.506  11.490  28.018  1.00  0.00    -0.550 OA
ATOM     14  O   UNL     1      23.701  13.105  29.117  1.00  0.00    -0.550 OA
ENDBRANCH  11  12
ENDBRANCH  10  11
ENDBRANCH   9  10
ENDBRANCH   8   9
ENDBRANCH   7   8
ENDBRANCH   6   7
ENDBRANCH   5   6
ENDBRANCH   4   5
ENDBRANCH   3   4
ENDBRANCH   2   3
ENDBRANCH   1   2
BRANCH   1  15
ATOM     15  C   UNL     1      23.621   1.195  28.380  1.00  0.00     0.000 C 
BRANCH  15  16
ATOM     16  C   UNL     1      23.740   1.292  29.914  1.00  0.00     0.000 C 
BRANCH  16  17
ATOM     17  C   UNL     1      22.559   2.022  30.593  1.00  0.00     0.000 C 
BRANCH  17  18
ATOM     18  C   UNL     1      22.937   2.581  31.975  1.00  0.00    -0.000 C 
BRANCH  18  19
ATOM     19  C   UNL     1      24.159   3.517  31.933  1.00  0.00    -0.000 C 
BRANCH  19  20
ATOM     20  C   UNL     1      24.293   4.482  33.130  1.00  0.00    -0.000 C 
BRANCH  20  21
ATOM     21  C   UNL     1      23.412   5.741  33.066  1.00  0.00    -0.000 C 
BRANCH  21  22
ATOM     22  C   UNL     1      23.125   6.213  31.633  1.00  0.00    -0.000 C 
BRANCH  22  23
ATOM     23  C   UNL     1      21.628   6.479  31.438  1.00  0.00    -0.000 C 
BRANCH  23  24
ATOM     24  C   UNL     1      20.983   5.398  30.557  1.00  0.00    -0.000 C 
BRANCH  24  25
ATOM     25  C   UNL     1      19.798   4.704  31.247  1.00  0.00    -0.003 C 
ATOM     26  C   UNL     1      19.895   4.745  32.773  1.00  0.00     0.004 C 
ENDBRANCH  24  25
ENDBRANCH  23  24
ENDBRANCH  22  23
ENDBRANCH  21  22
ENDBRANCH  20  21
ENDBRANCH  19  20
ENDBRANCH  18  19
ENDBRANCH  17  18
ENDBRANCH  16  17
ENDBRANCH  15  16
ENDBRANCH   1  15
TORSDOF 22
ENDMDL
MODEL 3
REMARK VINA RESULT:    -3.347      0.921      2.595
REMARK INTER + INTRA:         -12.158
REMARK INTER:                  -7.711
REMARK INTRA:                  -4.447
REMARK UNBOUND:                -4.507
REMARK SMILES CCCCCCCCCCCCCCCCCCCCCCCC(=O)[O-]
REMARK SMILES IDX 13 1 14 2 15 3 16 4 17 5 18 6 19 7 20 8 21 9 22 10 23 11
REMARK SMILES IDX 24 12 25 13 26 14 12 15 11 16 10 17 9 18 8 19 7 20 6 21 5 22
REMARK SMILES IDX 4 23 3 24 2 25 1 26
REMARK H PARENT
REMARK Flexibility Score: inf
ROOT
ATOM      1  C   UNL     1      23.106   5.931  30.971  1.00  0.00     0.000 C 
ENDROOT
BRANCH   1   2
ATOM      2  C   UNL     1      24.106   6.019  32.134  1.00  0.00     0.000 C 
BRANCH   2   3
ATOM      3  C   UNL     1      25.297   5.076  31.902  1.00  0.00     0.000 C 
BRANCH   3   4
ATOM      4  C   UNL     1      26.636   5.821  31.757  1.00  0.00     0.000 C 
BRANCH   4   5
ATOM      5  C   UNL     1      26.831   6.558  30.416  1.00  0.00     0.000 C 
BRANCH   5   6
ATOM      6  C   UNL     1      27.217   8.043  30.539  1.00  0.00     0.000 C 
BRANCH   6   7
ATOM      7  C   UNL     1      26.419   8.947  29.589  1.00  0.00     0.000 C 
BRANCH   7   8
ATOM      8  C   UNL     1      24.935   8.967  29.971  1.00  0.00     0.000 C 
BRANCH   8   9
ATOM      9  C   UNL     1      24.045   8.706  28.750  1.00  0.00     0.000 C 
BRANCH   9  10
ATOM     10  C   UNL     1      24.786   7.873  27.697  1.00  0.00     0.006 C 
BRANCH  10  11
ATOM     11  C   UNL     1      24.143   6.492  27.531  1.00  0.00     0.053 C 
BRANCH  11  12
ATOM     12  C   UNL     1      23.407   6.388  26.229  1.00  0.00     0.041 C 
ATOM     13  O   UNL     1      22.147   6.401  26.205  1.00  0.00    -0.550 OA
ATOM     14  O   UNL     1      24.114   6.254  25.041  1.00  0.00    -0.550 OA
ENDBRANCH  11  12
ENDBRANCH  10  11
ENDBRANCH   9  10
ENDBRANCH   8   9
ENDBRANCH   7   8
ENDBRANCH   6   7
ENDBRANCH   5   6
ENDBRANCH   4   5
ENDBRANCH   3   4
ENDBRANCH   2   3
ENDBRANCH   1   2
BRANCH   1  15
ATOM     15  C   UNL     1      21.650   6.166  31.406  1.00  0.00     0.000 C 
BRANCH  15  16
ATOM     16  C   UNL     1      20.691   4.987  31.150  1.00  0.00     0.000 C 
BRANCH  16  17
ATOM     17  C   UNL     1      19.765   4.658  32.342  1.00  0.00     0.000 C 
BRANCH  17  18
ATOM     18  C   UNL     1      20.555   4.282  33.607  1.00  0.00    -0.000 C 
BRANCH  18  19
ATOM     19  C   UNL     1      21.348   2.970  33.456  1.00  0.00    -0.000 C 
BRANCH  19  20
ATOM     20  C   UNL     1      22.830   3.043  33.877  1.00  0.00    -0.000 C 
BRANCH  20  21
ATOM     21  C   UNL     1      23.749   1.986  33.240  1.00  0.00    -0.000 C 
BRANCH  21  22
ATOM     22  C   UNL     1      23.152   1.332  31.986  1.00  0.00    -0.000 C 
BRANCH  22  23
ATOM     23  C   UNL     1      23.897   1.793  30.727  1.00  0.00    -0.000 C 
BRANCH  23  24
ATOM     24  C   UNL     1      22.935   2.448  29.723  1.00  0.00    -0.000 C 
BRANCH  24  25
ATOM     25  C   UNL     1      23.669   3.089  28.536  1.00  0.00    -0.003 C 
ATOM     26  C   UNL     1      25.183   3.156  28.742  1.00  0.00     0.004 C 
ENDBRANCH  24  25
ENDBRANCH  23  24
ENDBRANCH  22  23
ENDBRANCH  21  22
ENDBRANCH  20  21
ENDBRANCH  19  20
ENDBRANCH  18  19
ENDBRANCH  17  18
ENDBRANCH  16  17
ENDBRANCH  15  16
ENDBRANCH   1  15
TORSDOF 22
ENDMDL
MODEL 4
REMARK VINA RESULT:    -3.291      2.262      2.935
REMARK INTER + INTRA:         -12.030
REMARK INTER:                  -8.081
REMARK INTRA:                  -3.949
REMARK UNBOUND:                -4.507
REMARK SMILES CCCCCCCCCCCCCCCCCCCCCCCC(=O)[O-]
REMARK SMILES IDX 13 1 14 2 15 3 16 4 17 5 18 6 19 7 20 8 21 9 22 10 23 11
REMARK SMILES IDX 24 12 25 13 26 14 12 15 11 16 10 17 9 18 8 19 7 20 6 21 5 22
REMARK SMILES IDX 4 23 3 24 2 25 1 26
REMARK H PARENT
REMARK Flexibility Score: inf
ROOT
ATOM      1  C   UNL     1      20.231   4.594  31.578  1.00  0.00     0.000 C 
ENDROOT
BRANCH   1   2
ATOM      2  C   UNL     1      21.276   5.181  30.616  1.00  0.00     0.000 C 
BRANCH   2   3
ATOM      3  C   UNL     1      21.884   6.469  31.192  1.00  0.00     0.000 C 
BRANCH   3   4
ATOM      4  C   UNL     1      23.397   6.358  31.448  1.00  0.00     0.000 C 
BRANCH   4   5
ATOM      5  C   UNL     1      24.089   5.161  30.763  1.00  0.00     0.000 C 
BRANCH   5   6
ATOM      6  C   UNL     1      24.954   5.522  29.542  1.00  0.00     0.000 C 
BRANCH   6   7
ATOM      7  C   UNL     1      24.160   5.522  28.228  1.00  0.00     0.000 C 
BRANCH   7   8
ATOM      8  C   UNL     1      24.439   6.795  27.421  1.00  0.00     0.000 C 
BRANCH   8   9
ATOM      9  C   UNL     1      23.506   7.935  27.845  1.00  0.00     0.000 C 
BRANCH   9  10
ATOM     10  C   UNL     1      24.248   8.958  28.713  1.00  0.00     0.006 C 
BRANCH  10  11
ATOM     11  C   UNL     1      23.294   9.646  29.696  1.00  0.00     0.053 C 
BRANCH  11  12
ATOM     12  C   UNL     1      22.890  11.002  29.204  1.00  0.00     0.041 C 
ATOM     13  O   UNL     1      22.867  11.986  29.992  1.00  0.00    -0.550 OA
ATOM     14  O   UNL     1      22.517  11.177  27.878  1.00  0.00    -0.550 OA
ENDBRANCH  11  12
ENDBRANCH  10  11
ENDBRANCH   9  10
ENDBRANCH   8   9
ENDBRANCH   7   8
ENDBRANCH   6   7
ENDBRANCH   5   6
ENDBRANCH   4   5
ENDBRANCH   3   4
ENDBRANCH   2   3
ENDBRANCH   1   2
BRANCH   1  15
ATOM     15  C   UNL     1      20.332   5.164  33.002  1.00  0.00     0.000 C 
BRANCH  15  16
ATOM     16  C   UNL     1      21.145   4.310  33.994  1.00  0.00     0.000 C 
BRANCH  16  17
ATOM     17  C   UNL     1      21.530   2.914  33.457  1.00  0.00     0.000 C 
BRANCH  17  18
ATOM     18  C   UNL     1      23.053   2.709  33.407  1.00  0.00    -0.000 C 
BRANCH  18  19
ATOM     19  C   UNL     1      23.502   1.795  32.252  1.00  0.00    -0.000 C 
BRANCH  19  20
ATOM     20  C   UNL     1      22.496   1.657  31.090  1.00  0.00    -0.000 C 
BRANCH  20  21
ATOM     21  C   UNL     1      23.038   0.966  29.827  1.00  0.00    -0.000 C 
BRANCH  21  22
ATOM     22  C   UNL     1      23.569   1.949  28.773  1.00  0.00    -0.000 C 
BRANCH  22  23
ATOM     23  C   UNL     1      25.099   1.886  28.694  1.00  0.00    -0.000 C 
BRANCH  23  24
ATOM     24  C   UNL     1      25.582   1.954  27.237  1.00  0.00    -0.000 C 
BRANCH  24  25
ATOM     25  C   UNL     1      24.544   1.408  26.245  1.00  0.00    -0.003 C 
ATOM     26  C   UNL     1      24.696   2.000  24.844  1.00  0.00     0.004 C 
ENDBRANCH  24  25
ENDBRANCH  23  24
ENDBRANCH  22  23
ENDBRANCH  21  22
ENDBRANCH  20  21
ENDBRANCH  19  20
ENDBRANCH  18  19
ENDBRANCH  17  18
ENDBRANCH  16  17
ENDBRANCH  15  16
ENDBRANCH   1  15
TORSDOF 22
ENDMDL
MODEL 5
REMARK VINA RESULT:    -3.281      2.068      5.403
REMARK INTER + INTRA:         -12.008
REMARK INTER:                  -8.326
REMARK INTRA:                  -3.682
REMARK UNBOUND:                -4.507
REMARK SMILES CCCCCCCCCCCCCCCCCCCCCCCC(=O)[O-]
REMARK SMILES IDX 13 1 14 2 15 3 16 4 17 5 18 6 19 7 20 8 21 9 22 10 23 11
REMARK SMILES IDX 24 12 25 13 26 14 12 15 11 16 10 17 9 18 8 19 7 20 6 21 5 22
REMARK SMILES IDX 4 23 3 24 2 25 1 26
REMARK H PARENT
REMARK Flexibility Score: inf
ROOT
ATOM      1  C   UNL     1      22.879   9.026  26.972  1.00  0.00     0.000 C 
ENDROOT
BRANCH   1   2
ATOM      2  C   UNL     1      23.766   7.771  26.979  1.00  0.00     0.000 C 
BRANCH   2   3
ATOM      3  C   UNL     1      22.926   6.508  26.735  1.00  0.00     0.000 C 
BRANCH   3   4
ATOM      4  C   UNL     1      23.354   5.321  27.615  1.00  0.00     0.000 C 
BRANCH   4   5
ATOM      5  C   UNL     1      24.570   5.589  28.527  1.00  0.00     0.000 C 
BRANCH   5   6
ATOM      6  C   UNL     1      24.849   4.500  29.578  1.00  0.00     0.000 C 
BRANCH   6   7
ATOM      7  C   UNL     1      26.297   3.991  29.539  1.00  0.00     0.000 C 
BRANCH   7   8
ATOM      8  C   UNL     1      26.411   2.732  28.673  1.00  0.00     0.000 C 
BRANCH   8   9
ATOM      9  C   UNL     1      25.248   1.769  28.939  1.00  0.00     0.000 C 
BRANCH   9  10
ATOM     10  C   UNL     1      24.694   1.201  27.628  1.00  0.00     0.006 C 
BRANCH  10  11
ATOM     11  C   UNL     1      24.604   2.286  26.549  1.00  0.00     0.053 C 
BRANCH  11  12
ATOM     12  C   UNL     1      25.169   1.806  25.246  1.00  0.00     0.041 C 
ATOM     13  O   UNL     1      24.536   1.986  24.171  1.00  0.00    -0.550 OA
ATOM     14  O   UNL     1      26.387   1.138  25.222  1.00  0.00    -0.550 OA
ENDBRANCH  11  12
ENDBRANCH  10  11
ENDBRANCH   9  10
ENDBRANCH   8   9
ENDBRANCH   7   8
ENDBRANCH   6   7
ENDBRANCH   5   6
ENDBRANCH   4   5
ENDBRANCH   3   4
ENDBRANCH   2   3
ENDBRANCH   1   2
BRANCH   1  15
ATOM     15  C   UNL     1      22.989   9.852  28.265  1.00  0.00     0.000 C 
BRANCH  15  16
ATOM     16  C   UNL     1      23.786   9.184  29.403  1.00  0.00     0.000 C 
BRANCH  16  17
ATOM     17  C   UNL     1      22.953   8.901  30.673  1.00  0.00     0.000 C 
BRANCH  17  18
ATOM     18  C   UNL     1      23.068   7.437  31.130  1.00  0.00    -0.000 C 
BRANCH  18  19
ATOM     19  C   UNL     1      21.718   6.830  31.554  1.00  0.00    -0.000 C 
BRANCH  19  20
ATOM     20  C   UNL     1      21.181   5.710  30.639  1.00  0.00    -0.000 C 
BRANCH  20  21
ATOM     21  C   UNL     1      20.180   4.744  31.295  1.00  0.00    -0.000 C 
BRANCH  21  22
ATOM     22  C   UNL     1      20.218   4.774  32.830  1.00  0.00    -0.000 C 
BRANCH  22  23
ATOM     23  C   UNL     1      21.034   3.596  33.376  1.00  0.00    -0.000 C 
BRANCH  23  24
ATOM     24  C   UNL     1      22.470   4.025  33.712  1.00  0.00    -0.000 C 
BRANCH  24  25
ATOM     25  C   UNL     1      23.523   3.227  32.928  1.00  0.00    -0.003 C 
ATOM     26  C   UNL     1      22.906   2.325  31.858  1.00  0.00     0.004 C 
ENDBRANCH  24  25
ENDBRANCH  23  24
ENDBRANCH  22  23
ENDBRANCH  21  22
ENDBRANCH  20  21
ENDBRANCH  19  20
ENDBRANCH  18  19
ENDBRANCH  17  18
ENDBRANCH  16  17
ENDBRANCH  15  16
ENDBRANCH   1  15
TORSDOF 22
ENDMDL
MODEL 6
REMARK VINA RESULT:    -3.269      2.214      3.131
REMARK INTER + INTRA:         -11.980
REMARK INTER:                  -7.724
REMARK INTRA:                  -4.257
REMARK UNBOUND:                -4.507
REMARK SMILES CCCCCCCCCCCCCCCCCCCCCCCC(=O)[O-]
REMARK SMILES IDX 13 1 14 2 15 3 16 4 17 5 18 6 19 7 20 8 21 9 22 10 23 11
REMARK SMILES IDX 24 12 25 13 26 14 12 15 11 16 10 17 9 18 8 19 7 20 6 21 5 22
REMARK SMILES IDX 4 23 3 24 2 25 1 26
REMARK H PARENT
REMARK Flexibility Score: inf
ROOT
ATOM      1  C   UNL     1      20.195   4.605  31.325  1.00  0.00     0.000 C 
ENDROOT
BRANCH   1   2
ATOM      2  C   UNL     1      21.474   5.262  30.783  1.00  0.00     0.000 C 
BRANCH   2   3
ATOM      3  C   UNL     1      21.576   6.722  31.250  1.00  0.00     0.000 C 
BRANCH   3   4
ATOM      4  C   UNL     1      22.990   7.105  31.725  1.00  0.00     0.000 C 
BRANCH   4   5
ATOM      5  C   UNL     1      23.936   5.914  31.983  1.00  0.00     0.000 C 
BRANCH   5   6
ATOM      6  C   UNL     1      25.371   6.097  31.456  1.00  0.00     0.000 C 
BRANCH   6   7
ATOM      7  C   UNL     1      25.712   7.563  31.152  1.00  0.00     0.000 C 
BRANCH   7   8
ATOM      8  C   UNL     1      26.318   7.704  29.751  1.00  0.00     0.000 C 
BRANCH   8   9
ATOM      9  C   UNL     1      25.453   8.604  28.861  1.00  0.00     0.000 C 
BRANCH   9  10
ATOM     10  C   UNL     1      24.800   9.724  29.680  1.00  0.00     0.006 C 
BRANCH  10  11
ATOM     11  C   UNL     1      23.325   9.898  29.303  1.00  0.00     0.053 C 
BRANCH  11  12
ATOM     12  C   UNL     1      22.940  11.346  29.267  1.00  0.00     0.041 C 
ATOM     13  O   UNL     1      23.152  12.037  28.234  1.00  0.00    -0.550 OA
ATOM     14  O   UNL     1      22.366  11.940  30.384  1.00  0.00    -0.550 OA
ENDBRANCH  11  12
ENDBRANCH  10  11
ENDBRANCH   9  10
ENDBRANCH   8   9
ENDBRANCH   7   8
ENDBRANCH   6   7
ENDBRANCH   5   6
ENDBRANCH   4   5
ENDBRANCH   3   4
ENDBRANCH   2   3
ENDBRANCH   1   2
BRANCH   1  15
ATOM     15  C   UNL     1      19.928   4.930  32.804  1.00  0.00     0.000 C 
BRANCH  15  16
ATOM     16  C   UNL     1      20.923   4.306  33.803  1.00  0.00     0.000 C 
BRANCH  16  17
ATOM     17  C   UNL     1      21.371   2.874  33.435  1.00  0.00     0.000 C 
BRANCH  17  18
ATOM     18  C   UNL     1      22.810   2.580  33.887  1.00  0.00    -0.000 C 
BRANCH  18  19
ATOM     19  C   UNL     1      23.790   2.410  32.711  1.00  0.00    -0.000 C 
BRANCH  19  20
ATOM     20  C   UNL     1      23.137   2.095  31.349  1.00  0.00    -0.000 C 
BRANCH  20  21
ATOM     21  C   UNL     1      24.101   2.043  30.151  1.00  0.00    -0.000 C 
BRANCH  21  22
ATOM     22  C   UNL     1      23.561   2.752  28.900  1.00  0.00    -0.000 C 
BRANCH  22  23
ATOM     23  C   UNL     1      24.380   4.011  28.593  1.00  0.00    -0.000 C 
BRANCH  23  24
ATOM     24  C   UNL     1      23.856   4.720  27.335  1.00  0.00    -0.000 C 
BRANCH  24  25
ATOM     25  C   UNL     1      23.299   6.120  27.636  1.00  0.00    -0.003 C 
ATOM     26  C   UNL     1      23.142   6.977  26.380  1.00  0.00     0.004 C 
ENDBRANCH  24  25
ENDBRANCH  23  24
ENDBRANCH  22  23
ENDBRANCH  21  22
ENDBRANCH  20  21
ENDBRANCH  19  20
ENDBRANCH  18  19
ENDBRANCH  17  18
ENDBRANCH  16  17
ENDBRANCH  15  16
ENDBRANCH   1  15
TORSDOF 22
ENDMDL
MODEL 7
REMARK VINA RESULT:    -3.212      2.401      4.793
REMARK INTER + INTRA:         -11.850
REMARK INTER:                  -7.388
REMARK INTRA:                  -4.462
REMARK UNBOUND:                -4.507
REMARK SMILES CCCCCCCCCCCCCCCCCCCCCCCC(=O)[O-]
REMARK SMILES IDX 13 1 14 2 15 3 16 4 17 5 18 6 19 7 20 8 21 9 22 10 23 11
REMARK SMILES IDX 24 12 25 13 26 14 12 15 11 16 10 17 9 18 8 19 7 20 6 21 5 22
REMARK SMILES IDX 4 23 3 24 2 25 1 26
REMARK H PARENT
REMARK Flexibility Score: inf
ROOT
ATOM      1  C   UNL     1      23.336   5.201  27.985  1.00  0.00     0.000 C 
ENDROOT
BRANCH   1   2
ATOM      2  C   UNL     1      23.278   5.845  26.590  1.00  0.00     0.000 C 
BRANCH   2   3
ATOM      3  C   UNL     1      23.869   7.263  26.619  1.00  0.00     0.000 C 
BRANCH   3   4
ATOM      4  C   UNL     1      23.928   7.861  28.036  1.00  0.00     0.000 C 
BRANCH   4   5
ATOM      5  C   UNL     1      25.339   8.256  28.519  1.00  0.00     0.000 C 
BRANCH   5   6
ATOM      6  C   UNL     1      25.948   7.326  29.583  1.00  0.00     0.000 C 
BRANCH   6   7
ATOM      7  C   UNL     1      26.013   7.974  30.974  1.00  0.00     0.000 C 
BRANCH   7   8
ATOM      8  C   UNL     1      25.568   9.440  30.916  1.00  0.00     0.000 C 
BRANCH   8   9
ATOM      9  C   UNL     1      24.325   9.676  31.781  1.00  0.00     0.000 C 
BRANCH   9  10
ATOM     10  C   UNL     1      23.077   9.866  30.911  1.00  0.00     0.006 C 
BRANCH  10  11
ATOM     11  C   UNL     1      22.878  11.341  30.543  1.00  0.00     0.053 C 
BRANCH  11  12
ATOM     12  C   UNL     1      23.289  11.608  29.127  1.00  0.00     0.041 C 
ATOM     13  O   UNL     1      24.442  12.048  28.870  1.00  0.00    -0.550 OA
ATOM     14  O   UNL     1      22.390  11.394  28.091  1.00  0.00    -0.550 OA
ENDBRANCH  11  12
ENDBRANCH  10  11
ENDBRANCH   9  10
ENDBRANCH   8   9
ENDBRANCH   7   8
ENDBRANCH   6   7
ENDBRANCH   5   6
ENDBRANCH   4   5
ENDBRANCH   3   4
ENDBRANCH   2   3
ENDBRANCH   1   2
BRANCH   1  15
ATOM     15  C   UNL     1      24.465   4.167  28.127  1.00  0.00     0.000 C 
BRANCH  15  16
ATOM     16  C   UNL     1      24.186   3.026  29.125  1.00  0.00     0.000 C 
BRANCH  16  17
ATOM     17  C   UNL     1      22.701   2.891  29.530  1.00  0.00     0.000 C 
BRANCH  17  18
ATOM     18  C   UNL     1      22.531   2.239  30.912  1.00  0.00    -0.000 C 
BRANCH  18  19
ATOM     19  C   UNL     1      23.825   2.251  31.748  1.00  0.00    -0.000 C 
BRANCH  19  20
ATOM     20  C   UNL     1      23.829   3.225  32.945  1.00  0.00    -0.000 C 
BRANCH  20  21
ATOM     21  C   UNL     1      24.541   4.566  32.702  1.00  0.00    -0.000 C 
BRANCH  21  22
ATOM     22  C   UNL     1      23.595   5.776  32.736  1.00  0.00    -0.000 C 
BRANCH  22  23
ATOM     23  C   UNL     1      23.012   6.048  31.344  1.00  0.00    -0.000 C 
BRANCH  23  24
ATOM     24  C   UNL     1      21.527   6.431  31.430  1.00  0.00    -0.000 C 
BRANCH  24  25
ATOM     25  C   UNL     1      20.669   5.326  32.065  1.00  0.00    -0.003 C 
ATOM     26  C   UNL     1      19.711   4.673  31.068  1.00  0.00     0.004 C 
ENDBRANCH  24  25
ENDBRANCH  23  24
ENDBRANCH  22  23
ENDBRANCH  21  22
ENDBRANCH  20  21
ENDBRANCH  19  20
ENDBRANCH  18  19
ENDBRANCH  17  18
ENDBRANCH  16  17
ENDBRANCH  15  16
ENDBRANCH   1  15
TORSDOF 22
ENDMDL
MODEL 8
REMARK VINA RESULT:    -3.211      2.332      4.793
REMARK INTER + INTRA:         -11.849
REMARK INTER:                  -7.815
REMARK INTRA:                  -4.033
REMARK UNBOUND:                -4.507
REMARK SMILES CCCCCCCCCCCCCCCCCCCCCCCC(=O)[O-]
REMARK SMILES IDX 13 1 14 2 15 3 16 4 17 5 18 6 19 7 20 8 21 9 22 10 23 11
REMARK SMILES IDX 24 12 25 13 26 14 12 15 11 16 10 17 9 18 8 19 7 20 6 21 5 22
REMARK SMILES IDX 4 23 3 24 2 25 1 26
REMARK H PARENT
REMARK Flexibility Score: inf
ROOT
ATOM      1  C   UNL     1      22.209   1.676  30.408  1.00  0.00     0.000 C 
ENDROOT
BRANCH   1   2
ATOM      2  C   UNL     1      22.805   2.839  29.600  1.00  0.00     0.000 C 
BRANCH   2   3
ATOM      3  C   UNL     1      23.826   2.324  28.575  1.00  0.00     0.000 C 
BRANCH   3   4
ATOM      4  C   UNL     1      24.299   3.414  27.595  1.00  0.00     0.000 C 
BRANCH   4   5
ATOM      5  C   UNL     1      23.795   4.838  27.911  1.00  0.00     0.000 C 
BRANCH   5   6
ATOM      6  C   UNL     1      23.353   5.659  26.687  1.00  0.00     0.000 C 
BRANCH   6   7
ATOM      7  C   UNL     1      23.423   7.173  26.927  1.00  0.00     0.000 C 
BRANCH   7   8
ATOM      8  C   UNL     1      24.848   7.603  27.296  1.00  0.00     0.000 C 
BRANCH   8   9
ATOM      9  C   UNL     1      24.901   8.188  28.712  1.00  0.00     0.000 C 
BRANCH   9  10
ATOM     10  C   UNL     1      23.675   9.065  28.990  1.00  0.00     0.006 C 
BRANCH  10  11
ATOM     11  C   UNL     1      24.059  10.320  29.782  1.00  0.00     0.053 C 
BRANCH  11  12
ATOM     12  C   UNL     1      23.097  11.440  29.529  1.00  0.00     0.041 C 
ATOM     13  O   UNL     1      22.320  11.832  30.441  1.00  0.00    -0.550 OA
ATOM     14  O   UNL     1      23.041  12.038  28.277  1.00  0.00    -0.550 OA
ENDBRANCH  11  12
ENDBRANCH  10  11
ENDBRANCH   9  10
ENDBRANCH   8   9
ENDBRANCH   7   8
ENDBRANCH   6   7
ENDBRANCH   5   6
ENDBRANCH   4   5
ENDBRANCH   3   4
ENDBRANCH   2   3
ENDBRANCH   1   2
BRANCH   1  15
ATOM     15  C   UNL     1      22.525   1.759  31.910  1.00  0.00     0.000 C 
BRANCH  15  16
ATOM     16  C   UNL     1      23.999   1.513  32.285  1.00  0.00     0.000 C 
BRANCH  16  17
ATOM     17  C   UNL     1      24.488   2.339  33.496  1.00  0.00     0.000 C 
BRANCH  17  18
ATOM     18  C   UNL     1      25.736   3.174  33.166  1.00  0.00    -0.000 C 
BRANCH  18  19
ATOM     19  C   UNL     1      26.068   3.194  31.662  1.00  0.00    -0.000 C 
BRANCH  19  20
ATOM     20  C   UNL     1      25.772   4.524  30.938  1.00  0.00    -0.000 C 
BRANCH  20  21
ATOM     21  C   UNL     1      25.107   5.611  31.800  1.00  0.00    -0.000 C 
BRANCH  21  22
ATOM     22  C   UNL     1      23.627   5.839  31.461  1.00  0.00    -0.000 C 
BRANCH  22  23
ATOM     23  C   UNL     1      22.733   5.450  32.645  1.00  0.00    -0.000 C 
BRANCH  23  24
ATOM     24  C   UNL     1      21.278   5.884  32.407  1.00  0.00    -0.000 C 
BRANCH  24  25
ATOM     25  C   UNL     1      20.323   4.690  32.263  1.00  0.00    -0.003 C 
ATOM     26  C   UNL     1      19.568   4.693  30.933  1.00  0.00     0.004 C 
ENDBRANCH  24  25
ENDBRANCH  23  24
ENDBRANCH  22  23
ENDBRANCH  21  22
ENDBRANCH  20  21
ENDBRANCH  19  20
ENDBRANCH  18  19
ENDBRANCH  17  18
ENDBRANCH  16  17
ENDBRANCH  15  16
ENDBRANCH   1  15
TORSDOF 22
ENDMDL
MODEL 9
REMARK VINA RESULT:    -3.095      1.539      4.155
REMARK INTER + INTRA:         -11.583
REMARK INTER:                  -7.217
REMARK INTRA:                  -4.365
REMARK UNBOUND:                -4.507
REMARK SMILES CCCCCCCCCCCCCCCCCCCCCCCC(=O)[O-]
REMARK SMILES IDX 13 1 14 2 15 3 16 4 17 5 18 6 19 7 20 8 21 9 22 10 23 11
REMARK SMILES IDX 24 12 25 13 26 14 12 15 11 16 10 17 9 18 8 19 7 20 6 21 5 22
REMARK SMILES IDX 4 23 3 24 2 25 1 26
REMARK H PARENT
REMARK Flexibility Score: inf
ROOT
ATOM      1  C   UNL     1      21.662   4.276  30.907  1.00  0.00     0.000 C 
ENDROOT
BRANCH   1   2
ATOM      2  C   UNL     1      21.861   2.867  30.325  1.00  0.00     0.000 C 
BRANCH   2   3
ATOM      3  C   UNL     1      22.874   2.071  31.162  1.00  0.00     0.000 C 
BRANCH   3   4
ATOM      4  C   UNL     1      23.590   2.930  32.219  1.00  0.00     0.000 C 
BRANCH   4   5
ATOM      5  C   UNL     1      25.115   2.715  32.312  1.00  0.00     0.000 C 
BRANCH   5   6
ATOM      6  C   UNL     1      25.963   3.711  31.501  1.00  0.00     0.000 C 
BRANCH   6   7
ATOM      7  C   UNL     1      25.236   5.038  31.240  1.00  0.00     0.000 C 
BRANCH   7   8
ATOM      8  C   UNL     1      25.286   5.405  29.752  1.00  0.00     0.000 C 
BRANCH   8   9
ATOM      9  C   UNL     1      25.186   4.155  28.870  1.00  0.00     0.000 C 
BRANCH   9  10
ATOM     10  C   UNL     1      24.115   4.330  27.788  1.00  0.00     0.006 C 
BRANCH  10  11
ATOM     11  C   UNL     1      23.373   5.661  27.952  1.00  0.00     0.053 C 
BRANCH  11  12
ATOM     12  C   UNL     1      23.541   6.530  26.743  1.00  0.00     0.041 C 
ATOM     13  O   UNL     1      22.653   6.555  25.848  1.00  0.00    -0.550 OA
ATOM     14  O   UNL     1      24.688   7.298  26.592  1.00  0.00    -0.550 OA
ENDBRANCH  11  12
ENDBRANCH  10  11
ENDBRANCH   9  10
ENDBRANCH   8   9
ENDBRANCH   7   8
ENDBRANCH   6   7
ENDBRANCH   5   6
ENDBRANCH   4   5
ENDBRANCH   3   4
ENDBRANCH   2   3
ENDBRANCH   1   2
BRANCH   1  15
ATOM     15  C   UNL     1      20.183   4.636  31.125  1.00  0.00     0.000 C 
BRANCH  15  16
ATOM     16  C   UNL     1      19.728   4.671  32.597  1.00  0.00     0.000 C 
BRANCH  16  17
ATOM     17  C   UNL     1      20.881   4.850  33.610  1.00  0.00     0.000 C 
BRANCH  17  18
ATOM     18  C   UNL     1      21.039   6.312  34.060  1.00  0.00    -0.000 C 
BRANCH  18  19
ATOM     19  C   UNL     1      22.292   6.991  33.477  1.00  0.00    -0.000 C 
BRANCH  19  20
ATOM     20  C   UNL     1      22.090   7.698  32.120  1.00  0.00    -0.000 C 
BRANCH  20  21
ATOM     21  C   UNL     1      23.372   8.228  31.455  1.00  0.00    -0.000 C 
BRANCH  21  22
ATOM     22  C   UNL     1      23.163   8.682  30.003  1.00  0.00    -0.000 C 
BRANCH  22  23
ATOM     23  C   UNL     1      24.376   9.475  29.502  1.00  0.00    -0.000 C 
BRANCH  23  24
ATOM     24  C   UNL     1      25.445   9.603  30.599  1.00  0.00    -0.000 C 
BRANCH  24  25
ATOM     25  C   UNL     1      26.733   8.837  30.259  1.00  0.00    -0.003 C 
ATOM     26  C   UNL     1      27.471   9.425  29.056  1.00  0.00     0.004 C 
ENDBRANCH  24  25
ENDBRANCH  23  24
ENDBRANCH  22  23
ENDBRANCH  21  22
ENDBRANCH  20  21
ENDBRANCH  19  20
ENDBRANCH  18  19
ENDBRANCH  17  18
ENDBRANCH  16  17
ENDBRANCH  15  16
ENDBRANCH   1  15
TORSDOF 22
ENDMDL
