MODEL 1
REMARK VINA RESULT:    50.108      0.000      0.000
REMARK INTER + INTRA:          65.075
REMARK INTER:                  66.219
REMARK INTRA:                  -1.145
REMARK UNBOUND:                -1.145
REMARK SMILES CC[C@@H](C=C[C@@H](C)[C@H]1CC[C@@H]2[C@H]3CC=C4C[C@H](O)CC[C@@]4(C)[C@@H]3CC[C@]21C)C(C)C
REMARK SMILES IDX 6 1 7 2 5 3 4 4 3 5 2 6 1 7 28 8 29 9 30 10 8 11 9 12 26 13
REMARK SMILES IDX 10 14 11 15 25 16 27 17 12 18 24 19 23 20 13 21 21 22 14 23
REMARK SMILES IDX 15 24 20 25 22 26 16 27 19 28 17 29 18 30
REMARK H PARENT 18 31
REMARK Flexibility Score: inf
ROOT
ATOM      1  C   UNL     1     -29.521  32.531  -2.593  1.00  0.00     0.012 C 
ATOM      2  C   UNL     1     -29.782  33.697  -1.609  1.00  0.00     0.012 C 
ENDROOT
BRANCH   1   3
ATOM      3  C   UNL     1     -30.544  31.442  -2.326  1.00  0.00    -0.028 C 
ATOM      4  C   UNL     1     -31.792  31.496  -2.824  1.00  0.00    -0.027 C 
BRANCH   4   5
ATOM      5  C   UNL     1     -32.808  30.402  -2.575  1.00  0.00     0.014 C 
BRANCH   5   6
ATOM      6  C   UNL     1     -32.397  29.148  -3.384  1.00  0.00     0.004 C 
ATOM      7  C   UNL     1     -31.627  28.114  -2.559  1.00  0.00     0.004 C 
ENDBRANCH   5   6
BRANCH   5   8
ATOM      8  C   UNL     1     -34.267  30.893  -2.839  1.00  0.00    -0.011 C 
ATOM      9  C   UNL     1     -34.774  30.417  -4.210  1.00  0.00     0.008 C 
ATOM     10  C   UNL     1     -35.271  30.495  -1.740  1.00  0.00     0.008 C 
ENDBRANCH   5   8
ENDBRANCH   4   5
ENDBRANCH   1   3
BRANCH   1  11
ATOM     11  C   UNL     1     -28.059  31.962  -2.504  1.00  0.00     0.002 C 
ATOM     12  C   UNL     1     -28.040  30.438  -2.145  1.00  0.00     0.005 C 
ATOM     13  C   UNL     1     -27.164  32.041  -3.789  1.00  0.00    -0.026 C 
ATOM     14  C   UNL     1     -27.405  29.683  -3.317  1.00  0.00     0.005 C 
ATOM     15  C   UNL     1     -27.433  30.686  -4.456  1.00  0.00    -0.001 C 
ATOM     16  C   UNL     1     -27.481  33.131  -4.841  1.00  0.00     0.007 C 
ATOM     17  C   UNL     1     -25.687  32.213  -3.302  1.00  0.00     0.012 C 
ATOM     18  C   UNL     1     -26.520  30.408  -5.673  1.00  0.00     0.000 C 
ATOM     19  C   UNL     1     -26.606  32.974  -6.101  1.00  0.00     0.005 C 
ATOM     20  C   UNL     1     -26.693  31.545  -6.726  1.00  0.00     0.003 C 
ATOM     21  C   UNL     1     -26.884  29.062  -6.321  1.00  0.00     0.031 C 
ATOM     22  C   UNL     1     -25.739  31.330  -7.962  1.00  0.00    -0.008 C 
ATOM     23  C   UNL     1     -26.241  28.864  -7.666  1.00  0.00    -0.027 C 
ATOM     24  C   UNL     1     -25.838  29.879  -8.463  1.00  0.00    -0.065 C 
ATOM     25  C   UNL     1     -26.179  32.291  -9.111  1.00  0.00     0.014 C 
ATOM     26  C   UNL     1     -24.255  31.615  -7.598  1.00  0.00     0.016 C 
ATOM     27  C   UNL     1     -25.299  29.543  -9.842  1.00  0.00     0.063 C 
ATOM     28  C   UNL     1     -25.526  31.976 -10.466  1.00  0.00     0.033 C 
ATOM     29  C   UNL     1     -25.816  30.534 -10.893  1.00  0.00     0.118 C 
BRANCH  29  30
ATOM     30  O   UNL     1     -25.193  30.287 -12.125  1.00  0.00    -0.393 OA
ATOM     31  H   UNL     1     -25.897  30.358 -12.821  1.00  0.00     0.210 HD
ENDBRANCH  29  30
ENDBRANCH   1  11
TORSDOF 6
ENDMDL
