MODEL 1
REMARK VINA RESULT:    73.602      0.000      0.000
REMARK INTER + INTRA:         106.874
REMARK INTER:                 108.024
REMARK INTRA:                  -1.150
REMARK UNBOUND:                -1.150
REMARK SMILES O=c1c(O[C@H]2O[C@H](CO)[C@H](O)[C@H](O)[C@@H]2O)c(-c2ccc(O)c(O)c2)oc2cc(O)cc(O)c12
REMARK SMILES IDX 4 1 3 2 16 3 25 4 2 5 26 6 1 7 33 8 27 9 31 10 28 11 30 12
REMARK SMILES IDX 17 13 18 14 19 15 20 16 24 17 22 18 21 19 23 21 32 23 29 25
REMARK SMILES IDX 5 27 14 28 6 29 12 30 7 31 10 32 15 33 13 35 8 37 9 38 11 40
REMARK H PARENT 21 20 23 22 32 24 29 26 15 34 13 36 9 39 11 41
REMARK Flexibility Score: inf
ROOT
ATOM      1  O   UNL     1     -39.043  30.732 -23.884  1.00  0.00    -0.454 OA
ENDROOT
BRANCH   1   2
ATOM      2  C   UNL     1     -40.122  30.667 -22.993  1.00  0.00     0.214 A 
ATOM      3  C   UNL     1     -40.135  29.758 -21.915  1.00  0.00     0.180 A 
ATOM      4  O   UNL     1     -41.210  29.668 -21.139  1.00  0.00    -0.452 OA
ATOM      5  C   UNL     1     -41.223  31.513 -23.177  1.00  0.00     0.239 A 
ATOM      6  C   UNL     1     -42.288  30.428 -21.297  1.00  0.00     0.146 A 
ATOM      7  O   UNL     1     -41.203  32.357 -24.114  1.00  0.00    -0.285 OA
ATOM      8  C   UNL     1     -42.340  31.400 -22.324  1.00  0.00     0.111 A 
ATOM      9  C   UNL     1     -43.370  30.263 -20.428  1.00  0.00     0.094 A 
ATOM     10  C   UNL     1     -43.501  32.199 -22.458  1.00  0.00     0.134 A 
ATOM     11  C   UNL     1     -44.515  31.054 -20.566  1.00  0.00     0.123 A 
ATOM     12  C   UNL     1     -44.576  32.016 -21.576  1.00  0.00     0.093 A 
BRANCH   3  13
ATOM     13  C   UNL     1     -38.975  28.898 -21.603  1.00  0.00     0.025 A 
ATOM     14  C   UNL     1     -38.743  27.711 -22.317  1.00  0.00     0.016 A 
ATOM     15  C   UNL     1     -37.638  26.911 -22.016  1.00  0.00     0.051 A 
ATOM     16  C   UNL     1     -36.742  27.294 -21.008  1.00  0.00     0.157 A 
ATOM     17  C   UNL     1     -38.064  29.289 -20.608  1.00  0.00     0.062 A 
ATOM     18  C   UNL     1     -36.957  28.490 -20.304  1.00  0.00     0.158 A 
BRANCH  16  19
ATOM     19  O   UNL     1     -35.642  26.493 -20.709  1.00  0.00    -0.504 OA
ATOM     20  H   UNL     1     -34.716  26.709 -21.058  1.00  0.00     0.293 HD
ENDBRANCH  16  19
BRANCH  18  21
ATOM     21  O   UNL     1     -36.080  28.902 -19.300  1.00  0.00    -0.504 OA
ATOM     22  H   UNL     1     -35.255  28.368 -19.055  1.00  0.00     0.293 HD
ENDBRANCH  18  21
ENDBRANCH   3  13
BRANCH  10  23
ATOM     23  O   UNL     1     -43.594  33.168 -23.459  1.00  0.00    -0.507 OA
ATOM     24  H   UNL     1     -42.980  33.974 -23.479  1.00  0.00     0.293 HD
ENDBRANCH  10  23
BRANCH  11  25
ATOM     25  O   UNL     1     -45.597  30.894 -19.703  1.00  0.00    -0.508 OA
ATOM     26  H   UNL     1     -46.414  30.359 -19.971  1.00  0.00     0.293 HD
ENDBRANCH  11  25
ENDBRANCH   1   2
BRANCH   1  27
ATOM     27  C   UNL     1     -37.842  31.446 -23.572  1.00  0.00     0.339 C 
ATOM     28  C   UNL     1     -37.910  32.891 -24.103  1.00  0.00     0.214 C 
ATOM     29  O   UNL     1     -36.699  30.755 -24.058  1.00  0.00    -0.332 OA
ATOM     30  C   UNL     1     -37.822  32.905 -25.643  1.00  0.00     0.180 C 
ATOM     31  C   UNL     1     -36.709  30.666 -25.476  1.00  0.00     0.179 C 
ATOM     32  C   UNL     1     -36.629  32.066 -26.125  1.00  0.00     0.177 C 
BRANCH  28  33
ATOM     33  O   UNL     1     -36.859  33.636 -23.538  1.00  0.00    -0.384 OA
ATOM     34  H   UNL     1     -37.094  34.595 -23.640  1.00  0.00     0.211 HD
ENDBRANCH  28  33
BRANCH  30  35
ATOM     35  O   UNL     1     -37.701  34.220 -26.125  1.00  0.00    -0.387 OA
ATOM     36  H   UNL     1     -38.302  34.784 -25.569  1.00  0.00     0.211 HD
ENDBRANCH  30  35
BRANCH  31  37
ATOM     37  C   UNL     1     -35.560  29.756 -25.933  1.00  0.00     0.191 C 
BRANCH  37  38
ATOM     38  O   UNL     1     -35.213  28.850 -24.922  1.00  0.00    -0.394 OA
ATOM     39  H   UNL     1     -35.851  29.011 -24.179  1.00  0.00     0.210 HD
ENDBRANCH  37  38
ENDBRANCH  31  37
BRANCH  32  40
ATOM     40  O   UNL     1     -35.425  32.703 -25.773  1.00  0.00    -0.387 OA
ATOM     41  H   UNL     1     -35.108  33.203 -26.571  1.00  0.00     0.211 HD
ENDBRANCH  32  40
ENDBRANCH   1  27
TORSDOF 12
ENDMDL
MODEL 2
REMARK VINA RESULT:    75.382      2.024      5.436
REMARK INTER + INTRA:         109.487
REMARK INTER:                 107.874
REMARK INTRA:                   1.613
REMARK UNBOUND:                -1.150
REMARK SMILES O=c1c(O[C@H]2O[C@H](CO)[C@H](O)[C@H](O)[C@@H]2O)c(-c2ccc(O)c(O)c2)oc2cc(O)cc(O)c12
REMARK SMILES IDX 4 1 3 2 16 3 25 4 2 5 26 6 1 7 33 8 27 9 31 10 28 11 30 12
REMARK SMILES IDX 17 13 18 14 19 15 20 16 24 17 22 18 21 19 23 21 32 23 29 25
REMARK SMILES IDX 5 27 14 28 6 29 12 30 7 31 10 32 15 33 13 35 8 37 9 38 11 40
REMARK H PARENT 21 20 23 22 32 24 29 26 15 34 13 36 9 39 11 41
REMARK Flexibility Score: inf
ROOT
ATOM      1  O   UNL     1     -38.695  28.707 -21.740  1.00  0.00    -0.454 OA
ENDROOT
BRANCH   1   2
ATOM      2  C   UNL     1     -39.810  29.511 -22.011  1.00  0.00     0.214 A 
ATOM      3  C   UNL     1     -39.748  30.565 -22.945  1.00  0.00     0.180 A 
ATOM      4  O   UNL     1     -40.801  31.358 -23.118  1.00  0.00    -0.452 OA
ATOM      5  C   UNL     1     -41.014  29.276 -21.337  1.00  0.00     0.239 A 
ATOM      6  C   UNL     1     -41.952  31.191 -22.476  1.00  0.00     0.146 A 
ATOM      7  O   UNL     1     -41.090  28.310 -20.530  1.00  0.00    -0.285 OA
ATOM      8  C   UNL     1     -42.115  30.128 -21.557  1.00  0.00     0.111 A 
ATOM      9  C   UNL     1     -43.005  32.075 -22.726  1.00  0.00     0.094 A 
ATOM     10  C   UNL     1     -43.358  29.974 -20.896  1.00  0.00     0.134 A 
ATOM     11  C   UNL     1     -44.230  31.918 -22.069  1.00  0.00     0.123 A 
ATOM     12  C   UNL     1     -44.402  30.872 -21.161  1.00  0.00     0.093 A 
BRANCH   3  13
ATOM     13  C   UNL     1     -38.542  30.819 -23.761  1.00  0.00     0.025 A 
ATOM     14  C   UNL     1     -37.477  29.904 -23.780  1.00  0.00     0.016 A 
ATOM     15  C   UNL     1     -36.346  30.153 -24.562  1.00  0.00     0.051 A 
ATOM     16  C   UNL     1     -36.273  31.312 -25.347  1.00  0.00     0.157 A 
ATOM     17  C   UNL     1     -38.474  31.969 -24.565  1.00  0.00     0.062 A 
ATOM     18  C   UNL     1     -37.343  32.222 -25.350  1.00  0.00     0.158 A 
BRANCH  16  19
ATOM     19  O   UNL     1     -35.143  31.559 -26.125  1.00  0.00    -0.504 OA
ATOM     20  H   UNL     1     -34.986  32.458 -26.563  1.00  0.00     0.293 HD
ENDBRANCH  16  19
BRANCH  18  21
ATOM     21  O   UNL     1     -37.303  33.380 -26.125  1.00  0.00    -0.504 OA
ATOM     22  H   UNL     1     -36.781  34.201 -25.838  1.00  0.00     0.293 HD
ENDBRANCH  18  21
ENDBRANCH   3  13
BRANCH  10  23
ATOM     23  O   UNL     1     -43.561  28.939 -19.981  1.00  0.00    -0.507 OA
ATOM     24  H   UNL     1     -43.248  27.994 -20.167  1.00  0.00     0.293 HD
ENDBRANCH  10  23
BRANCH  11  25
ATOM     25  O   UNL     1     -45.284  32.796 -22.315  1.00  0.00    -0.508 OA
ATOM     26  H   UNL     1     -46.139  32.486 -22.759  1.00  0.00     0.293 HD
ENDBRANCH  11  25
ENDBRANCH   1   2
BRANCH   1  27
ATOM     27  C   UNL     1     -38.179  27.774 -22.697  1.00  0.00     0.339 C 
ATOM     28  C   UNL     1     -39.316  27.182 -23.551  1.00  0.00     0.214 C 
ATOM     29  O   UNL     1     -37.413  26.763 -22.057  1.00  0.00    -0.332 OA
ATOM     30  C   UNL     1     -40.185  26.226 -22.707  1.00  0.00     0.180 C 
ATOM     31  C   UNL     1     -38.211  25.979 -21.182  1.00  0.00     0.179 C 
ATOM     32  C   UNL     1     -39.306  25.213 -21.959  1.00  0.00     0.177 C 
BRANCH  28  33
ATOM     33  O   UNL     1     -38.756  26.505 -24.650  1.00  0.00    -0.384 OA
ATOM     34  H   UNL     1     -39.394  26.598 -25.406  1.00  0.00     0.211 HD
ENDBRANCH  28  33
BRANCH  30  35
ATOM     35  O   UNL     1     -41.110  25.545 -23.517  1.00  0.00    -0.387 OA
ATOM     36  H   UNL     1     -41.708  25.040 -22.905  1.00  0.00     0.211 HD
ENDBRANCH  30  35
BRANCH  31  37
ATOM     37  C   UNL     1     -37.306  25.031 -20.383  1.00  0.00     0.191 C 
BRANCH  37  38
ATOM     38  O   UNL     1     -38.034  23.930 -19.914  1.00  0.00    -0.394 OA
ATOM     39  H   UNL     1     -38.988  24.132 -20.099  1.00  0.00     0.210 HD
ENDBRANCH  37  38
ENDBRANCH  31  37
BRANCH  32  40
ATOM     40  O   UNL     1     -38.723  24.319 -22.877  1.00  0.00    -0.387 OA
ATOM     41  H   UNL     1     -39.170  23.440 -22.761  1.00  0.00     0.211 HD
ENDBRANCH  32  40
ENDBRANCH   1  27
TORSDOF 12
ENDMDL
