MODEL 1
REMARK VINA RESULT:    -5.206      0.000      0.000
REMARK INTER + INTRA:         -15.686
REMARK INTER:                 -11.901
REMARK INTRA:                  -3.785
REMARK UNBOUND:                -3.785
REMARK SMILES CCCCCCCCCCCCCCCCCCCCCCCC(=O)[O-]
REMARK SMILES IDX 13 1 14 2 15 3 16 4 17 5 18 6 19 7 20 8 21 9 22 10 23 11
REMARK SMILES IDX 24 12 25 13 26 14 12 15 11 16 10 17 9 18 8 19 7 20 6 21 5 22
REMARK SMILES IDX 4 23 3 24 2 25 1 26
REMARK H PARENT
REMARK Flexibility Score: inf
ROOT
ATOM      1  C   UNL     1      74.852  13.895  18.192  1.00  0.00     0.000 C 
ENDROOT
BRANCH   1   2
ATOM      2  C   UNL     1      75.178  13.411  16.766  1.00  0.00     0.000 C 
BRANCH   2   3
ATOM      3  C   UNL     1      74.910  14.483  15.695  1.00  0.00     0.000 C 
BRANCH   3   4
ATOM      4  C   UNL     1      75.063  15.913  16.238  1.00  0.00     0.000 C 
BRANCH   4   5
ATOM      5  C   UNL     1      75.037  16.973  15.123  1.00  0.00     0.000 C 
BRANCH   5   6
ATOM      6  C   UNL     1      76.241  17.938  15.187  1.00  0.00     0.000 C 
BRANCH   6   7
ATOM      7  C   UNL     1      77.423  17.407  16.020  1.00  0.00     0.000 C 
BRANCH   7   8
ATOM      8  C   UNL     1      78.782  17.387  15.294  1.00  0.00     0.000 C 
BRANCH   8   9
ATOM      9  C   UNL     1      78.996  16.204  14.329  1.00  0.00     0.000 C 
BRANCH   9  10
ATOM     10  C   UNL     1      78.727  14.807  14.925  1.00  0.00     0.006 C 
BRANCH  10  11
ATOM     11  C   UNL     1      77.842  13.909  14.042  1.00  0.00     0.053 C 
BRANCH  11  12
ATOM     12  C   UNL     1      78.612  12.796  13.397  1.00  0.00     0.041 C 
ATOM     13  O   UNL     1      79.534  13.055  12.579  1.00  0.00    -0.550 OA
ATOM     14  O   UNL     1      78.339  11.473  13.726  1.00  0.00    -0.550 OA
ENDBRANCH  11  12
ENDBRANCH  10  11
ENDBRANCH   9  10
ENDBRANCH   8   9
ENDBRANCH   7   8
ENDBRANCH   6   7
ENDBRANCH   5   6
ENDBRANCH   4   5
ENDBRANCH   3   4
ENDBRANCH   2   3
ENDBRANCH   1   2
BRANCH   1  15
ATOM     15  C   UNL     1      73.736  13.107  18.903  1.00  0.00     0.000 C 
BRANCH  15  16
ATOM     16  C   UNL     1      74.245  11.812  19.561  1.00  0.00     0.000 C 
BRANCH  16  17
ATOM     17  C   UNL     1      75.626  11.987  20.213  1.00  0.00     0.000 C 
BRANCH  17  18
ATOM     18  C   UNL     1      76.566  10.805  19.914  1.00  0.00    -0.000 C 
BRANCH  18  19
ATOM     19  C   UNL     1      77.864  11.243  19.217  1.00  0.00    -0.000 C 
BRANCH  19  20
ATOM     20  C   UNL     1      78.319  12.652  19.637  1.00  0.00    -0.000 C 
BRANCH  20  21
ATOM     21  C   UNL     1      78.481  13.602  18.441  1.00  0.00    -0.000 C 
BRANCH  21  22
ATOM     22  C   UNL     1      78.174  15.066  18.804  1.00  0.00    -0.000 C 
BRANCH  22  23
ATOM     23  C   UNL     1      79.434  15.944  18.851  1.00  0.00    -0.000 C 
BRANCH  23  24
ATOM     24  C   UNL     1      80.232  15.764  20.155  1.00  0.00    -0.000 C 
BRANCH  24  25
ATOM     25  C   UNL     1      81.621  15.152  19.913  1.00  0.00    -0.003 C 
ATOM     26  C   UNL     1      82.005  14.120  20.973  1.00  0.00     0.004 C 
ENDBRANCH  24  25
ENDBRANCH  23  24
ENDBRANCH  22  23
ENDBRANCH  21  22
ENDBRANCH  20  21
ENDBRANCH  19  20
ENDBRANCH  18  19
ENDBRANCH  17  18
ENDBRANCH  16  17
ENDBRANCH  15  16
ENDBRANCH   1  15
TORSDOF 22
ENDMDL
MODEL 2
REMARK VINA RESULT:    -5.168      2.675      4.456
REMARK INTER + INTRA:         -15.600
REMARK INTER:                 -11.765
REMARK INTRA:                  -3.836
REMARK UNBOUND:                -3.785
REMARK SMILES CCCCCCCCCCCCCCCCCCCCCCCC(=O)[O-]
REMARK SMILES IDX 13 1 14 2 15 3 16 4 17 5 18 6 19 7 20 8 21 9 22 10 23 11
REMARK SMILES IDX 24 12 25 13 26 14 12 15 11 16 10 17 9 18 8 19 7 20 6 21 5 22
REMARK SMILES IDX 4 23 3 24 2 25 1 26
REMARK H PARENT
REMARK Flexibility Score: inf
ROOT
ATOM      1  C   UNL     1      75.544  14.117  16.349  1.00  0.00     0.000 C 
ENDROOT
BRANCH   1   2
ATOM      2  C   UNL     1      75.602  15.020  15.102  1.00  0.00     0.000 C 
BRANCH   2   3
ATOM      3  C   UNL     1      74.754  16.295  15.247  1.00  0.00     0.000 C 
BRANCH   3   4
ATOM      4  C   UNL     1      75.572  17.578  15.030  1.00  0.00     0.000 C 
BRANCH   4   5
ATOM      5  C   UNL     1      76.447  17.933  16.245  1.00  0.00     0.000 C 
BRANCH   5   6
ATOM      6  C   UNL     1      77.955  17.949  15.914  1.00  0.00     0.000 C 
BRANCH   6   7
ATOM      7  C   UNL     1      78.842  17.320  17.005  1.00  0.00     0.000 C 
BRANCH   7   8
ATOM      8  C   UNL     1      78.672  15.801  17.195  1.00  0.00     0.000 C 
BRANCH   8   9
ATOM      9  C   UNL     1      78.507  15.334  18.656  1.00  0.00     0.000 C 
BRANCH   9  10
ATOM     10  C   UNL     1      79.489  15.962  19.665  1.00  0.00     0.006 C 
BRANCH  10  11
ATOM     11  C   UNL     1      80.072  14.960  20.678  1.00  0.00     0.053 C 
BRANCH  11  12
ATOM     12  C   UNL     1      81.534  14.708  20.465  1.00  0.00     0.041 C 
ATOM     13  O   UNL     1      82.148  15.294  19.534  1.00  0.00    -0.550 OA
ATOM     14  O   UNL     1      82.230  13.855  21.314  1.00  0.00    -0.550 OA
ENDBRANCH  11  12
ENDBRANCH  10  11
ENDBRANCH   9  10
ENDBRANCH   8   9
ENDBRANCH   7   8
ENDBRANCH   6   7
ENDBRANCH   5   6
ENDBRANCH   4   5
ENDBRANCH   3   4
ENDBRANCH   2   3
ENDBRANCH   1   2
BRANCH   1  15
ATOM     15  C   UNL     1      75.108  14.830  17.643  1.00  0.00     0.000 C 
BRANCH  15  16
ATOM     16  C   UNL     1      74.143  13.985  18.494  1.00  0.00     0.000 C 
BRANCH  16  17
ATOM     17  C   UNL     1      74.362  12.475  18.308  1.00  0.00     0.000 C 
BRANCH  17  18
ATOM     18  C   UNL     1      74.699  11.767  19.633  1.00  0.00    -0.000 C 
BRANCH  18  19
ATOM     19  C   UNL     1      76.133  12.051  20.108  1.00  0.00    -0.000 C 
BRANCH  19  20
ATOM     20  C   UNL     1      77.018  10.793  20.112  1.00  0.00    -0.000 C 
BRANCH  20  21
ATOM     21  C   UNL     1      76.574   9.754  19.071  1.00  0.00    -0.000 C 
BRANCH  21  22
ATOM     22  C   UNL     1      77.579   9.609  17.915  1.00  0.00    -0.000 C 
BRANCH  22  23
ATOM     23  C   UNL     1      77.322  10.607  16.775  1.00  0.00    -0.000 C 
BRANCH  23  24
ATOM     24  C   UNL     1      78.117  11.914  16.941  1.00  0.00    -0.000 C 
BRANCH  24  25
ATOM     25  C   UNL     1      79.629  11.670  17.066  1.00  0.00    -0.003 C 
ATOM     26  C   UNL     1      80.165  11.985  18.462  1.00  0.00     0.004 C 
ENDBRANCH  24  25
ENDBRANCH  23  24
ENDBRANCH  22  23
ENDBRANCH  21  22
ENDBRANCH  20  21
ENDBRANCH  19  20
ENDBRANCH  18  19
ENDBRANCH  17  18
ENDBRANCH  16  17
ENDBRANCH  15  16
ENDBRANCH   1  15
TORSDOF 22
ENDMDL
MODEL 3
REMARK VINA RESULT:    -5.106      1.312      4.816
REMARK INTER + INTRA:         -15.458
REMARK INTER:                 -11.796
REMARK INTRA:                  -3.663
REMARK UNBOUND:                -3.785
REMARK SMILES CCCCCCCCCCCCCCCCCCCCCCCC(=O)[O-]
REMARK SMILES IDX 13 1 14 2 15 3 16 4 17 5 18 6 19 7 20 8 21 9 22 10 23 11
REMARK SMILES IDX 24 12 25 13 26 14 12 15 11 16 10 17 9 18 8 19 7 20 6 21 5 22
REMARK SMILES IDX 4 23 3 24 2 25 1 26
REMARK H PARENT
REMARK Flexibility Score: inf
ROOT
ATOM      1  C   UNL     1      75.539  14.762  17.375  1.00  0.00     0.000 C 
ENDROOT
BRANCH   1   2
ATOM      2  C   UNL     1      74.707  14.431  18.629  1.00  0.00     0.000 C 
BRANCH   2   3
ATOM      3  C   UNL     1      73.860  13.157  18.465  1.00  0.00     0.000 C 
BRANCH   3   4
ATOM      4  C   UNL     1      74.304  12.026  19.406  1.00  0.00     0.000 C 
BRANCH   4   5
ATOM      5  C   UNL     1      75.448  11.182  18.817  1.00  0.00     0.000 C 
BRANCH   5   6
ATOM      6  C   UNL     1      76.578  10.913  19.835  1.00  0.00     0.000 C 
BRANCH   6   7
ATOM      7  C   UNL     1      77.305  12.185  20.312  1.00  0.00     0.000 C 
BRANCH   7   8
ATOM      8  C   UNL     1      78.134  12.912  19.236  1.00  0.00     0.000 C 
BRANCH   8   9
ATOM      9  C   UNL     1      79.259  12.074  18.593  1.00  0.00     0.000 C 
BRANCH   9  10
ATOM     10  C   UNL     1      79.049  11.713  17.109  1.00  0.00     0.006 C 
BRANCH  10  11
ATOM     11  C   UNL     1      78.220  12.745  16.324  1.00  0.00     0.053 C 
BRANCH  11  12
ATOM     12  C   UNL     1      77.471  12.134  15.179  1.00  0.00     0.041 C 
ATOM     13  O   UNL     1      76.239  11.891  15.286  1.00  0.00    -0.550 OA
ATOM     14  O   UNL     1      78.121  11.865  13.980  1.00  0.00    -0.550 OA
ENDBRANCH  11  12
ENDBRANCH  10  11
ENDBRANCH   9  10
ENDBRANCH   8   9
ENDBRANCH   7   8
ENDBRANCH   6   7
ENDBRANCH   5   6
ENDBRANCH   4   5
ENDBRANCH   3   4
ENDBRANCH   2   3
ENDBRANCH   1   2
BRANCH   1  15
ATOM     15  C   UNL     1      74.725  14.894  16.074  1.00  0.00     0.000 C 
BRANCH  15  16
ATOM     16  C   UNL     1      75.404  15.802  15.034  1.00  0.00     0.000 C 
BRANCH  16  17
ATOM     17  C   UNL     1      75.353  17.287  15.427  1.00  0.00     0.000 C 
BRANCH  17  18
ATOM     18  C   UNL     1      76.651  18.032  15.066  1.00  0.00    -0.000 C 
BRANCH  18  19
ATOM     19  C   UNL     1      77.622  18.139  16.252  1.00  0.00    -0.000 C 
BRANCH  19  20
ATOM     20  C   UNL     1      78.525  16.902  16.394  1.00  0.00    -0.000 C 
BRANCH  20  21
ATOM     21  C   UNL     1      78.578  16.371  17.834  1.00  0.00    -0.000 C 
BRANCH  21  22
ATOM     22  C   UNL     1      79.902  16.711  18.541  1.00  0.00    -0.000 C 
BRANCH  22  23
ATOM     23  C   UNL     1      79.833  16.506  20.063  1.00  0.00    -0.000 C 
BRANCH  23  24
ATOM     24  C   UNL     1      80.357  15.126  20.499  1.00  0.00    -0.000 C 
BRANCH  24  25
ATOM     25  C   UNL     1      81.610  14.700  19.716  1.00  0.00    -0.003 C 
ATOM     26  C   UNL     1      82.610  13.928  20.575  1.00  0.00     0.004 C 
ENDBRANCH  24  25
ENDBRANCH  23  24
ENDBRANCH  22  23
ENDBRANCH  21  22
ENDBRANCH  20  21
ENDBRANCH  19  20
ENDBRANCH  18  19
ENDBRANCH  17  18
ENDBRANCH  16  17
ENDBRANCH  15  16
ENDBRANCH   1  15
TORSDOF 22
ENDMDL
MODEL 4
REMARK VINA RESULT:    -5.050      1.647      3.753
REMARK INTER + INTRA:         -15.329
REMARK INTER:                 -11.823
REMARK INTRA:                  -3.506
REMARK UNBOUND:                -3.785
REMARK SMILES CCCCCCCCCCCCCCCCCCCCCCCC(=O)[O-]
REMARK SMILES IDX 13 1 14 2 15 3 16 4 17 5 18 6 19 7 20 8 21 9 22 10 23 11
REMARK SMILES IDX 24 12 25 13 26 14 12 15 11 16 10 17 9 18 8 19 7 20 6 21 5 22
REMARK SMILES IDX 4 23 3 24 2 25 1 26
REMARK H PARENT
REMARK Flexibility Score: inf
ROOT
ATOM      1  C   UNL     1      75.458  16.068  14.891  1.00  0.00     0.000 C 
ENDROOT
BRANCH   1   2
ATOM      2  C   UNL     1      75.375  17.558  15.272  1.00  0.00     0.000 C 
BRANCH   2   3
ATOM      3  C   UNL     1      76.665  18.332  14.948  1.00  0.00     0.000 C 
BRANCH   3   4
ATOM      4  C   UNL     1      77.577  18.501  16.175  1.00  0.00     0.000 C 
BRANCH   4   5
ATOM      5  C   UNL     1      78.874  17.681  16.064  1.00  0.00     0.000 C 
BRANCH   5   6
ATOM      6  C   UNL     1      78.938  16.832  14.776  1.00  0.00     0.000 C 
BRANCH   6   7
ATOM      7  C   UNL     1      79.207  15.336  15.026  1.00  0.00     0.000 C 
BRANCH   7   8
ATOM      8  C   UNL     1      78.651  14.380  13.953  1.00  0.00     0.000 C 
BRANCH   8   9
ATOM      9  C   UNL     1      79.704  13.771  13.004  1.00  0.00     0.000 C 
BRANCH   9  10
ATOM     10  C   UNL     1      79.455  14.010  11.501  1.00  0.00     0.006 C 
BRANCH  10  11
ATOM     11  C   UNL     1      78.453  13.028  10.868  1.00  0.00     0.053 C 
BRANCH  11  12
ATOM     12  C   UNL     1      78.889  11.599  10.992  1.00  0.00     0.041 C 
ATOM     13  O   UNL     1      79.872  11.177  10.328  1.00  0.00    -0.550 OA
ATOM     14  O   UNL     1      78.234  10.740  11.868  1.00  0.00    -0.550 OA
ENDBRANCH  11  12
ENDBRANCH  10  11
ENDBRANCH   9  10
ENDBRANCH   8   9
ENDBRANCH   7   8
ENDBRANCH   6   7
ENDBRANCH   5   6
ENDBRANCH   4   5
ENDBRANCH   3   4
ENDBRANCH   2   3
ENDBRANCH   1   2
BRANCH   1  15
ATOM     15  C   UNL     1      74.829  15.103  15.912  1.00  0.00     0.000 C 
BRANCH  15  16
ATOM     16  C   UNL     1      75.348  13.661  15.771  1.00  0.00     0.000 C 
BRANCH  16  17
ATOM     17  C   UNL     1      74.887  12.754  16.923  1.00  0.00     0.000 C 
BRANCH  17  18
ATOM     18  C   UNL     1      74.168  13.540  18.034  1.00  0.00    -0.000 C 
BRANCH  18  19
ATOM     19  C   UNL     1      73.897  12.686  19.283  1.00  0.00    -0.000 C 
BRANCH  19  20
ATOM     20  C   UNL     1      74.849  11.483  19.399  1.00  0.00    -0.000 C 
BRANCH  20  21
ATOM     21  C   UNL     1      75.999  11.732  20.387  1.00  0.00    -0.000 C 
BRANCH  21  22
ATOM     22  C   UNL     1      77.215  10.827  20.118  1.00  0.00    -0.000 C 
BRANCH  22  23
ATOM     23  C   UNL     1      78.287  11.513  19.255  1.00  0.00    -0.000 C 
BRANCH  23  24
ATOM     24  C   UNL     1      78.388  13.024  19.528  1.00  0.00    -0.000 C 
BRANCH  24  25
ATOM     25  C   UNL     1      78.289  13.860  18.242  1.00  0.00    -0.003 C 
ATOM     26  C   UNL     1      77.500  15.154  18.437  1.00  0.00     0.004 C 
ENDBRANCH  24  25
ENDBRANCH  23  24
ENDBRANCH  22  23
ENDBRANCH  21  22
ENDBRANCH  20  21
ENDBRANCH  19  20
ENDBRANCH  18  19
ENDBRANCH  17  18
ENDBRANCH  16  17
ENDBRANCH  15  16
ENDBRANCH   1  15
TORSDOF 22
ENDMDL
MODEL 5
REMARK VINA RESULT:    -5.047      1.560      5.751
REMARK INTER + INTRA:         -15.324
REMARK INTER:                 -11.444
REMARK INTRA:                  -3.880
REMARK UNBOUND:                -3.785
REMARK SMILES CCCCCCCCCCCCCCCCCCCCCCCC(=O)[O-]
REMARK SMILES IDX 13 1 14 2 15 3 16 4 17 5 18 6 19 7 20 8 21 9 22 10 23 11
REMARK SMILES IDX 24 12 25 13 26 14 12 15 11 16 10 17 9 18 8 19 7 20 6 21 5 22
REMARK SMILES IDX 4 23 3 24 2 25 1 26
REMARK H PARENT
REMARK Flexibility Score: inf
ROOT
ATOM      1  C   UNL     1      80.901  12.469  17.821  1.00  0.00     0.000 C 
ENDROOT
BRANCH   1   2
ATOM      2  C   UNL     1      79.363  12.512  17.906  1.00  0.00     0.000 C 
BRANCH   2   3
ATOM      3  C   UNL     1      78.810  11.762  19.131  1.00  0.00     0.000 C 
BRANCH   3   4
ATOM      4  C   UNL     1      77.771  12.585  19.909  1.00  0.00     0.000 C 
BRANCH   4   5
ATOM      5  C   UNL     1      76.671  11.708  20.533  1.00  0.00     0.000 C 
BRANCH   5   6
ATOM      6  C   UNL     1      75.596  11.280  19.510  1.00  0.00     0.000 C 
BRANCH   6   7
ATOM      7  C   UNL     1      74.283  12.081  19.610  1.00  0.00     0.000 C 
BRANCH   7   8
ATOM      8  C   UNL     1      73.935  12.930  18.373  1.00  0.00     0.000 C 
BRANCH   8   9
ATOM      9  C   UNL     1      74.779  14.209  18.193  1.00  0.00     0.000 C 
BRANCH   9  10
ATOM     10  C   UNL     1      75.856  14.142  17.092  1.00  0.00     0.006 C 
BRANCH  10  11
ATOM     11  C   UNL     1      75.863  12.821  16.303  1.00  0.00     0.053 C 
BRANCH  11  12
ATOM     12  C   UNL     1      76.834  12.836  15.161  1.00  0.00     0.041 C 
ATOM     13  O   UNL     1      77.240  11.753  14.661  1.00  0.00    -0.550 OA
ATOM     14  O   UNL     1      77.265  14.043  14.623  1.00  0.00    -0.550 OA
ENDBRANCH  11  12
ENDBRANCH  10  11
ENDBRANCH   9  10
ENDBRANCH   8   9
ENDBRANCH   7   8
ENDBRANCH   6   7
ENDBRANCH   5   6
ENDBRANCH   4   5
ENDBRANCH   3   4
ENDBRANCH   2   3
ENDBRANCH   1   2
BRANCH   1  15
ATOM     15  C   UNL     1      81.572  11.451  18.763  1.00  0.00     0.000 C 
BRANCH  15  16
ATOM     16  C   UNL     1      82.589  12.100  19.717  1.00  0.00     0.000 C 
BRANCH  16  17
ATOM     17  C   UNL     1      82.577  13.635  19.635  1.00  0.00     0.000 C 
BRANCH  17  18
ATOM     18  C   UNL     1      82.026  14.285  20.917  1.00  0.00    -0.000 C 
BRANCH  18  19
ATOM     19  C   UNL     1      80.542  14.669  20.796  1.00  0.00    -0.000 C 
BRANCH  19  20
ATOM     20  C   UNL     1      80.325  15.950  19.973  1.00  0.00    -0.000 C 
BRANCH  20  21
ATOM     21  C   UNL     1      78.941  16.000  19.309  1.00  0.00    -0.000 C 
BRANCH  21  22
ATOM     22  C   UNL     1      79.025  16.132  17.778  1.00  0.00    -0.000 C 
BRANCH  22  23
ATOM     23  C   UNL     1      79.433  17.542  17.324  1.00  0.00    -0.000 C 
BRANCH  23  24
ATOM     24  C   UNL     1      78.277  18.309  16.659  1.00  0.00    -0.000 C 
BRANCH  24  25
ATOM     25  C   UNL     1      77.112  17.386  16.263  1.00  0.00    -0.003 C 
ATOM     26  C   UNL     1      76.329  17.906  15.059  1.00  0.00     0.004 C 
ENDBRANCH  24  25
ENDBRANCH  23  24
ENDBRANCH  22  23
ENDBRANCH  21  22
ENDBRANCH  20  21
ENDBRANCH  19  20
ENDBRANCH  18  19
ENDBRANCH  17  18
ENDBRANCH  16  17
ENDBRANCH  15  16
ENDBRANCH   1  15
TORSDOF 22
ENDMDL
MODEL 6
REMARK VINA RESULT:    -5.038      1.161      4.580
REMARK INTER + INTRA:         -15.304
REMARK INTER:                 -11.514
REMARK INTRA:                  -3.789
REMARK UNBOUND:                -3.785
REMARK SMILES CCCCCCCCCCCCCCCCCCCCCCCC(=O)[O-]
REMARK SMILES IDX 13 1 14 2 15 3 16 4 17 5 18 6 19 7 20 8 21 9 22 10 23 11
REMARK SMILES IDX 24 12 25 13 26 14 12 15 11 16 10 17 9 18 8 19 7 20 6 21 5 22
REMARK SMILES IDX 4 23 3 24 2 25 1 26
REMARK H PARENT
REMARK Flexibility Score: inf
ROOT
ATOM      1  C   UNL     1      74.537  13.287  17.310  1.00  0.00     0.000 C 
ENDROOT
BRANCH   1   2
ATOM      2  C   UNL     1      73.759  13.262  18.639  1.00  0.00     0.000 C 
BRANCH   2   3
ATOM      3  C   UNL     1      74.117  12.052  19.520  1.00  0.00     0.000 C 
BRANCH   3   4
ATOM      4  C   UNL     1      75.527  11.511  19.236  1.00  0.00     0.000 C 
BRANCH   4   5
ATOM      5  C   UNL     1      76.525  11.843  20.360  1.00  0.00     0.000 C 
BRANCH   5   6
ATOM      6  C   UNL     1      77.759  12.620  19.854  1.00  0.00     0.000 C 
BRANCH   6   7
ATOM      7  C   UNL     1      78.065  12.404  18.359  1.00  0.00     0.000 C 
BRANCH   7   8
ATOM      8  C   UNL     1      79.518  12.694  17.937  1.00  0.00     0.000 C 
BRANCH   8   9
ATOM      9  C   UNL     1      79.678  13.698  16.776  1.00  0.00     0.000 C 
BRANCH   9  10
ATOM     10  C   UNL     1      78.520  13.722  15.758  1.00  0.00     0.006 C 
BRANCH  10  11
ATOM     11  C   UNL     1      78.726  14.713  14.599  1.00  0.00     0.053 C 
BRANCH  11  12
ATOM     12  C   UNL     1      79.046  14.028  13.304  1.00  0.00     0.041 C 
ATOM     13  O   UNL     1      79.838  14.562  12.484  1.00  0.00    -0.550 OA
ATOM     14  O   UNL     1      78.499  12.782  13.017  1.00  0.00    -0.550 OA
ENDBRANCH  11  12
ENDBRANCH  10  11
ENDBRANCH   9  10
ENDBRANCH   8   9
ENDBRANCH   7   8
ENDBRANCH   6   7
ENDBRANCH   5   6
ENDBRANCH   4   5
ENDBRANCH   3   4
ENDBRANCH   2   3
ENDBRANCH   1   2
BRANCH   1  15
ATOM     15  C   UNL     1      75.280  14.605  17.020  1.00  0.00     0.000 C 
BRANCH  15  16
ATOM     16  C   UNL     1      75.094  15.089  15.571  1.00  0.00     0.000 C 
BRANCH  16  17
ATOM     17  C   UNL     1      74.499  16.504  15.495  1.00  0.00     0.000 C 
BRANCH  17  18
ATOM     18  C   UNL     1      75.490  17.581  15.971  1.00  0.00    -0.000 C 
BRANCH  18  19
ATOM     19  C   UNL     1      76.434  18.053  14.853  1.00  0.00    -0.000 C 
BRANCH  19  20
ATOM     20  C   UNL     1      77.880  18.249  15.340  1.00  0.00    -0.000 C 
BRANCH  20  21
ATOM     21  C   UNL     1      78.077  17.812  16.800  1.00  0.00    -0.000 C 
BRANCH  21  22
ATOM     22  C   UNL     1      79.541  17.459  17.118  1.00  0.00    -0.000 C 
BRANCH  22  23
ATOM     23  C   UNL     1      79.865  17.566  18.617  1.00  0.00    -0.000 C 
BRANCH  23  24
ATOM     24  C   UNL     1      79.612  16.249  19.373  1.00  0.00    -0.000 C 
BRANCH  24  25
ATOM     25  C   UNL     1      80.916  15.572  19.824  1.00  0.00    -0.003 C 
ATOM     26  C   UNL     1      80.702  14.578  20.964  1.00  0.00     0.004 C 
ENDBRANCH  24  25
ENDBRANCH  23  24
ENDBRANCH  22  23
ENDBRANCH  21  22
ENDBRANCH  20  21
ENDBRANCH  19  20
ENDBRANCH  18  19
ENDBRANCH  17  18
ENDBRANCH  16  17
ENDBRANCH  15  16
ENDBRANCH   1  15
TORSDOF 22
ENDMDL
MODEL 7
REMARK VINA RESULT:    -5.022      1.417      4.174
REMARK INTER + INTRA:         -15.267
REMARK INTER:                 -11.079
REMARK INTRA:                  -4.188
REMARK UNBOUND:                -3.785
REMARK SMILES CCCCCCCCCCCCCCCCCCCCCCCC(=O)[O-]
REMARK SMILES IDX 13 1 14 2 15 3 16 4 17 5 18 6 19 7 20 8 21 9 22 10 23 11
REMARK SMILES IDX 24 12 25 13 26 14 12 15 11 16 10 17 9 18 8 19 7 20 6 21 5 22
REMARK SMILES IDX 4 23 3 24 2 25 1 26
REMARK H PARENT
REMARK Flexibility Score: inf
ROOT
ATOM      1  C   UNL     1      74.283  13.285  17.341  1.00  0.00     0.000 C 
ENDROOT
BRANCH   1   2
ATOM      2  C   UNL     1      73.794  13.021  18.778  1.00  0.00     0.000 C 
BRANCH   2   3
ATOM      3  C   UNL     1      74.392  11.741  19.388  1.00  0.00     0.000 C 
BRANCH   3   4
ATOM      4  C   UNL     1      75.664  12.013  20.206  1.00  0.00     0.000 C 
BRANCH   4   5
ATOM      5  C   UNL     1      76.934  11.483  19.517  1.00  0.00     0.000 C 
BRANCH   5   6
ATOM      6  C   UNL     1      77.686  12.576  18.727  1.00  0.00     0.000 C 
BRANCH   6   7
ATOM      7  C   UNL     1      78.152  12.126  17.328  1.00  0.00     0.000 C 
BRANCH   7   8
ATOM      8  C   UNL     1      77.060  11.498  16.442  1.00  0.00     0.000 C 
BRANCH   8   9
ATOM      9  C   UNL     1      77.200  11.771  14.930  1.00  0.00     0.000 C 
BRANCH   9  10
ATOM     10  C   UNL     1      78.481  12.519  14.510  1.00  0.00     0.006 C 
BRANCH  10  11
ATOM     11  C   UNL     1      78.299  13.432  13.284  1.00  0.00     0.053 C 
BRANCH  11  12
ATOM     12  C   UNL     1      78.776  12.795  12.014  1.00  0.00     0.041 C 
ATOM     13  O   UNL     1      78.192  13.041  10.925  1.00  0.00    -0.550 OA
ATOM     14  O   UNL     1      79.886  11.959  12.023  1.00  0.00    -0.550 OA
ENDBRANCH  11  12
ENDBRANCH  10  11
ENDBRANCH   9  10
ENDBRANCH   8   9
ENDBRANCH   7   8
ENDBRANCH   6   7
ENDBRANCH   5   6
ENDBRANCH   4   5
ENDBRANCH   3   4
ENDBRANCH   2   3
ENDBRANCH   1   2
BRANCH   1  15
ATOM     15  C   UNL     1      74.921  14.669  17.119  1.00  0.00     0.000 C 
BRANCH  15  16
ATOM     16  C   UNL     1      75.168  14.981  15.632  1.00  0.00     0.000 C 
BRANCH  16  17
ATOM     17  C   UNL     1      76.526  15.659  15.391  1.00  0.00     0.000 C 
BRANCH  17  18
ATOM     18  C   UNL     1      77.356  15.780  16.682  1.00  0.00    -0.000 C 
BRANCH  18  19
ATOM     19  C   UNL     1      78.866  15.876  16.409  1.00  0.00    -0.000 C 
BRANCH  19  20
ATOM     20  C   UNL     1      79.716  15.573  17.655  1.00  0.00    -0.000 C 
BRANCH  20  21
ATOM     21  C   UNL     1      79.004  15.953  18.962  1.00  0.00    -0.000 C 
BRANCH  21  22
ATOM     22  C   UNL     1      79.968  16.025  20.160  1.00  0.00    -0.000 C 
BRANCH  22  23
ATOM     23  C   UNL     1      80.306  14.640  20.735  1.00  0.00    -0.000 C 
BRANCH  23  24
ATOM     24  C   UNL     1      81.821  14.415  20.884  1.00  0.00    -0.000 C 
BRANCH  24  25
ATOM     25  C   UNL     1      82.273  13.062  20.310  1.00  0.00    -0.003 C 
ATOM     26  C   UNL     1      81.415  12.605  19.130  1.00  0.00     0.004 C 
ENDBRANCH  24  25
ENDBRANCH  23  24
ENDBRANCH  22  23
ENDBRANCH  21  22
ENDBRANCH  20  21
ENDBRANCH  19  20
ENDBRANCH  18  19
ENDBRANCH  17  18
ENDBRANCH  16  17
ENDBRANCH  15  16
ENDBRANCH   1  15
TORSDOF 22
ENDMDL
MODEL 8
REMARK VINA RESULT:    -4.993      2.680      4.511
REMARK INTER + INTRA:         -15.201
REMARK INTER:                 -11.394
REMARK INTRA:                  -3.807
REMARK UNBOUND:                -3.785
REMARK SMILES CCCCCCCCCCCCCCCCCCCCCCCC(=O)[O-]
REMARK SMILES IDX 13 1 14 2 15 3 16 4 17 5 18 6 19 7 20 8 21 9 22 10 23 11
REMARK SMILES IDX 24 12 25 13 26 14 12 15 11 16 10 17 9 18 8 19 7 20 6 21 5 22
REMARK SMILES IDX 4 23 3 24 2 25 1 26
REMARK H PARENT
REMARK Flexibility Score: inf
ROOT
ATOM      1  C   UNL     1      74.596  13.319  17.313  1.00  0.00     0.000 C 
ENDROOT
BRANCH   1   2
ATOM      2  C   UNL     1      75.030  14.777  17.072  1.00  0.00     0.000 C 
BRANCH   2   3
ATOM      3  C   UNL     1      75.137  15.131  15.579  1.00  0.00     0.000 C 
BRANCH   3   4
ATOM      4  C   UNL     1      74.782  16.599  15.291  1.00  0.00     0.000 C 
BRANCH   4   5
ATOM      5  C   UNL     1      76.019  17.449  14.949  1.00  0.00     0.000 C 
BRANCH   5   6
ATOM      6  C   UNL     1      76.822  17.868  16.201  1.00  0.00     0.000 C 
BRANCH   6   7
ATOM      7  C   UNL     1      78.221  17.228  16.289  1.00  0.00     0.000 C 
BRANCH   7   8
ATOM      8  C   UNL     1      78.693  16.873  17.712  1.00  0.00     0.000 C 
BRANCH   8   9
ATOM      9  C   UNL     1      79.878  17.706  18.239  1.00  0.00     0.000 C 
BRANCH   9  10
ATOM     10  C   UNL     1      80.739  17.022  19.321  1.00  0.00     0.006 C 
BRANCH  10  11
ATOM     11  C   UNL     1      80.784  15.487  19.207  1.00  0.00     0.053 C 
BRANCH  11  12
ATOM     12  C   UNL     1      81.019  14.818  20.527  1.00  0.00     0.041 C 
ATOM     13  O   UNL     1      80.045  14.529  21.272  1.00  0.00    -0.550 OA
ATOM     14  O   UNL     1      82.308  14.476  20.920  1.00  0.00    -0.550 OA
ENDBRANCH  11  12
ENDBRANCH  10  11
ENDBRANCH   9  10
ENDBRANCH   8   9
ENDBRANCH   7   8
ENDBRANCH   6   7
ENDBRANCH   5   6
ENDBRANCH   4   5
ENDBRANCH   3   4
ENDBRANCH   2   3
ENDBRANCH   1   2
BRANCH   1  15
ATOM     15  C   UNL     1      73.614  13.120  18.483  1.00  0.00     0.000 C 
BRANCH  15  16
ATOM     16  C   UNL     1      74.115  12.093  19.514  1.00  0.00     0.000 C 
BRANCH  16  17
ATOM     17  C   UNL     1      75.472  11.484  19.128  1.00  0.00     0.000 C 
BRANCH  17  18
ATOM     18  C   UNL     1      76.492  11.554  20.278  1.00  0.00    -0.000 C 
BRANCH  18  19
ATOM     19  C   UNL     1      77.871  12.055  19.818  1.00  0.00    -0.000 C 
BRANCH  19  20
ATOM     20  C   UNL     1      77.789  13.363  19.012  1.00  0.00    -0.000 C 
BRANCH  20  21
ATOM     21  C   UNL     1      78.309  13.205  17.575  1.00  0.00    -0.000 C 
BRANCH  21  22
ATOM     22  C   UNL     1      78.747  11.763  17.260  1.00  0.00    -0.000 C 
BRANCH  22  23
ATOM     23  C   UNL     1      77.812  11.063  16.261  1.00  0.00    -0.000 C 
BRANCH  23  24
ATOM     24  C   UNL     1      77.175  12.043  15.260  1.00  0.00    -0.000 C 
BRANCH  24  25
ATOM     25  C   UNL     1      78.136  12.429  14.124  1.00  0.00    -0.003 C 
ATOM     26  C   UNL     1      78.325  13.940  13.997  1.00  0.00     0.004 C 
ENDBRANCH  24  25
ENDBRANCH  23  24
ENDBRANCH  22  23
ENDBRANCH  21  22
ENDBRANCH  20  21
ENDBRANCH  19  20
ENDBRANCH  18  19
ENDBRANCH  17  18
ENDBRANCH  16  17
ENDBRANCH  15  16
ENDBRANCH   1  15
TORSDOF 22
ENDMDL
MODEL 9
REMARK VINA RESULT:    -4.973      2.330      6.114
REMARK INTER + INTRA:         -15.154
REMARK INTER:                 -11.055
REMARK INTRA:                  -4.099
REMARK UNBOUND:                -3.785
REMARK SMILES CCCCCCCCCCCCCCCCCCCCCCCC(=O)[O-]
REMARK SMILES IDX 13 1 14 2 15 3 16 4 17 5 18 6 19 7 20 8 21 9 22 10 23 11
REMARK SMILES IDX 24 12 25 13 26 14 12 15 11 16 10 17 9 18 8 19 7 20 6 21 5 22
REMARK SMILES IDX 4 23 3 24 2 25 1 26
REMARK H PARENT
REMARK Flexibility Score: inf
ROOT
ATOM      1  C   UNL     1      74.993  13.258  17.438  1.00  0.00     0.000 C 
ENDROOT
BRANCH   1   2
ATOM      2  C   UNL     1      74.020  13.100  18.621  1.00  0.00     0.000 C 
BRANCH   2   3
ATOM      3  C   UNL     1      74.438  11.983  19.594  1.00  0.00     0.000 C 
BRANCH   3   4
ATOM      4  C   UNL     1      75.947  11.986  19.885  1.00  0.00     0.000 C 
BRANCH   4   5
ATOM      5  C   UNL     1      76.602  10.619  19.619  1.00  0.00     0.000 C 
BRANCH   5   6
ATOM      6  C   UNL     1      78.121  10.723  19.360  1.00  0.00     0.000 C 
BRANCH   6   7
ATOM      7  C   UNL     1      78.526  11.934  18.498  1.00  0.00     0.000 C 
BRANCH   7   8
ATOM      8  C   UNL     1      79.669  12.795  19.069  1.00  0.00     0.000 C 
BRANCH   8   9
ATOM      9  C   UNL     1      79.235  13.896  20.058  1.00  0.00     0.000 C 
BRANCH   9  10
ATOM     10  C   UNL     1      78.876  15.253  19.420  1.00  0.00     0.006 C 
BRANCH  10  11
ATOM     11  C   UNL     1      79.778  16.416  19.873  1.00  0.00     0.053 C 
BRANCH  11  12
ATOM     12  C   UNL     1      80.680  16.905  18.781  1.00  0.00     0.041 C 
ATOM     13  O   UNL     1      80.797  18.140  18.563  1.00  0.00    -0.550 OA
ATOM     14  O   UNL     1      81.422  16.003  18.027  1.00  0.00    -0.550 OA
ENDBRANCH  11  12
ENDBRANCH  10  11
ENDBRANCH   9  10
ENDBRANCH   8   9
ENDBRANCH   7   8
ENDBRANCH   6   7
ENDBRANCH   5   6
ENDBRANCH   4   5
ENDBRANCH   3   4
ENDBRANCH   2   3
ENDBRANCH   1   2
BRANCH   1  15
ATOM     15  C   UNL     1      75.316  14.715  17.056  1.00  0.00     0.000 C 
BRANCH  15  16
ATOM     16  C   UNL     1      75.119  14.998  15.557  1.00  0.00     0.000 C 
BRANCH  16  17
ATOM     17  C   UNL     1      74.662  16.440  15.284  1.00  0.00     0.000 C 
BRANCH  17  18
ATOM     18  C   UNL     1      75.308  17.450  16.250  1.00  0.00    -0.000 C 
BRANCH  18  19
ATOM     19  C   UNL     1      76.613  18.046  15.698  1.00  0.00    -0.000 C 
BRANCH  19  20
ATOM     20  C   UNL     1      77.867  17.443  16.356  1.00  0.00    -0.000 C 
BRANCH  20  21
ATOM     21  C   UNL     1      78.706  16.611  15.376  1.00  0.00    -0.000 C 
BRANCH  21  22
ATOM     22  C   UNL     1      78.758  15.121  15.760  1.00  0.00    -0.000 C 
BRANCH  22  23
ATOM     23  C   UNL     1      78.649  14.189  14.542  1.00  0.00    -0.000 C 
BRANCH  23  24
ATOM     24  C   UNL     1      78.715  12.701  14.927  1.00  0.00    -0.000 C 
BRANCH  24  25
ATOM     25  C   UNL     1      77.333  12.028  14.905  1.00  0.00    -0.003 C 
ATOM     26  C   UNL     1      77.361  10.603  15.457  1.00  0.00     0.004 C 
ENDBRANCH  24  25
ENDBRANCH  23  24
ENDBRANCH  22  23
ENDBRANCH  21  22
ENDBRANCH  20  21
ENDBRANCH  19  20
ENDBRANCH  18  19
ENDBRANCH  17  18
ENDBRANCH  16  17
ENDBRANCH  15  16
ENDBRANCH   1  15
TORSDOF 22
ENDMDL
