MODEL 1
REMARK VINA RESULT:    -6.574      0.000      0.000
REMARK INTER + INTRA:          -8.196
REMARK INTER:                  -7.919
REMARK INTRA:                  -0.276
REMARK UNBOUND:                -0.276
REMARK SMILES Oc1cc(O)c2cc(O)c(-c3ccc(O)c(O)c3)[o+]c2c1.[Cl-]
REMARK SMILES IDX 10 1 19 2 20 3 21 4 2 5 3 6 4 7 6 8 7 9 8 10 11 11 12 12
REMARK SMILES IDX 13 13 14 14 18 15 16 16 15 17 17 19 9 21 1 23 5 25
REMARK H PARENT 15 18 17 20 9 22 1 24 5 26
REMARK Flexibility Score: inf
ROOT
ATOM      1  C   UNL     1    -118.511  -2.260  77.183  1.00  0.00     0.402 A 
ATOM      2  O   UNL     1    -117.268  -2.729  77.252  1.00  0.00    -0.202 OA
ATOM      3  C   UNL     1    -116.271  -2.072  77.837  1.00  0.00     0.368 A 
ATOM      4  C   UNL     1    -114.997  -2.645  77.856  1.00  0.00     0.162 A 
ATOM      5  C   UNL     1    -113.933  -1.977  78.460  1.00  0.00     0.128 A 
ATOM      6  C   UNL     1    -114.140  -0.725  79.050  1.00  0.00     0.093 A 
ATOM      7  C   UNL     1    -115.407  -0.129  79.044  1.00  0.00     0.136 A 
ATOM      8  C   UNL     1    -116.494  -0.807  78.432  1.00  0.00     0.125 A 
ATOM      9  C   UNL     1    -117.800  -0.292  78.391  1.00  0.00     0.078 A 
ATOM     10  C   UNL     1    -118.821  -1.021  77.773  1.00  0.00     0.223 A 
ENDROOT
BRANCH   1  11
ATOM     11  C   UNL     1    -119.532  -3.083  76.495  1.00  0.00     0.087 A 
ATOM     12  C   UNL     1    -120.523  -3.775  77.216  1.00  0.00     0.022 A 
ATOM     13  C   UNL     1    -121.489  -4.527  76.544  1.00  0.00     0.051 A 
ATOM     14  C   UNL     1    -121.492  -4.590  75.147  1.00  0.00     0.157 A 
ATOM     15  C   UNL     1    -119.551  -3.131  75.092  1.00  0.00     0.068 A 
ATOM     16  C   UNL     1    -120.521  -3.887  74.416  1.00  0.00     0.158 A 
BRANCH  14  17
ATOM     17  O   UNL     1    -122.469  -5.351  74.505  1.00  0.00    -0.504 OA
ATOM     18  H   UNL     1    -123.207  -5.820  75.015  1.00  0.00     0.293 HD
ENDBRANCH  14  17
BRANCH  16  19
ATOM     19  O   UNL     1    -120.522  -3.939  73.023  1.00  0.00    -0.504 OA
ATOM     20  H   UNL     1    -121.249  -4.422  72.511  1.00  0.00     0.293 HD
ENDBRANCH  16  19
ENDBRANCH   1  11
BRANCH  10  21
ATOM     21  O   UNL     1    -120.128  -0.533  77.775  1.00  0.00    -0.500 OA
ATOM     22  H   UNL     1    -120.339   0.422  78.040  1.00  0.00     0.294 HD
ENDBRANCH  10  21
BRANCH   5  23
ATOM     23  O   UNL     1    -112.669  -2.565  78.470  1.00  0.00    -0.507 OA
ATOM     24  H   UNL     1    -111.858  -2.083  78.102  1.00  0.00     0.293 HD
ENDBRANCH   5  23
BRANCH   7  25
ATOM     25  O   UNL     1    -115.532   1.124  79.650  1.00  0.00    -0.507 OA
ATOM     26  H   UNL     1    -116.303   1.398  80.242  1.00  0.00     0.293 HD
ENDBRANCH   7  25
TORSDOF 6
ENDMDL
MODEL 2
REMARK VINA RESULT:    -6.272      7.252     10.547
REMARK INTER + INTRA:          -7.831
REMARK INTER:                  -7.686
REMARK INTRA:                  -0.145
REMARK UNBOUND:                -0.276
REMARK SMILES Oc1cc(O)c2cc(O)c(-c3ccc(O)c(O)c3)[o+]c2c1.[Cl-]
REMARK SMILES IDX 10 1 19 2 20 3 21 4 2 5 3 6 4 7 6 8 7 9 8 10 11 11 12 12
REMARK SMILES IDX 13 13 14 14 18 15 16 16 15 17 17 19 9 21 1 23 5 25
REMARK H PARENT 15 18 17 20 9 22 1 24 5 26
REMARK Flexibility Score: inf
ROOT
ATOM      1  C   UNL     1    -108.830  -1.231  74.756  1.00  0.00     0.402 A 
ATOM      2  O   UNL     1    -108.463  -2.492  74.542  1.00  0.00    -0.202 OA
ATOM      3  C   UNL     1    -107.233  -2.843  74.179  1.00  0.00     0.368 A 
ATOM      4  C   UNL     1    -106.944  -4.194  73.974  1.00  0.00     0.162 A 
ATOM      5  C   UNL     1    -105.663  -4.590  73.590  1.00  0.00     0.128 A 
ATOM      6  C   UNL     1    -104.662  -3.630  73.407  1.00  0.00     0.093 A 
ATOM      7  C   UNL     1    -104.927  -2.270  73.605  1.00  0.00     0.136 A 
ATOM      8  C   UNL     1    -106.228  -1.862  73.999  1.00  0.00     0.125 A 
ATOM      9  C   UNL     1    -106.581  -0.523  74.233  1.00  0.00     0.078 A 
ATOM     10  C   UNL     1    -107.884  -0.199  74.623  1.00  0.00     0.223 A 
ENDROOT
BRANCH   1  11
ATOM     11  C   UNL     1    -110.235  -0.968  75.147  1.00  0.00     0.087 A 
ATOM     12  C   UNL     1    -111.307  -1.324  74.310  1.00  0.00     0.022 A 
ATOM     13  C   UNL     1    -112.624  -1.087  74.710  1.00  0.00     0.051 A 
ATOM     14  C   UNL     1    -112.893  -0.506  75.953  1.00  0.00     0.157 A 
ATOM     15  C   UNL     1    -110.508  -0.406  76.404  1.00  0.00     0.068 A 
ATOM     16  C   UNL     1    -111.830  -0.166  76.807  1.00  0.00     0.158 A 
BRANCH  14  17
ATOM     17  O   UNL     1    -114.218  -0.280  76.324  1.00  0.00    -0.504 OA
ATOM     18  H   UNL     1    -114.561   0.643  76.556  1.00  0.00     0.293 HD
ENDBRANCH  14  17
BRANCH  16  19
ATOM     19  O   UNL     1    -112.090   0.406  78.051  1.00  0.00    -0.504 OA
ATOM     20  H   UNL     1    -112.296   1.393  78.149  1.00  0.00     0.293 HD
ENDBRANCH  16  19
ENDBRANCH   1  11
BRANCH  10  21
ATOM     21  O   UNL     1    -108.221   1.125  74.904  1.00  0.00    -0.500 OA
ATOM     22  H   UNL     1    -108.246   1.478  75.853  1.00  0.00     0.294 HD
ENDBRANCH  10  21
BRANCH   5  23
ATOM     23  O   UNL     1    -105.393  -5.943  73.392  1.00  0.00    -0.507 OA
ATOM     24  H   UNL     1    -105.584  -6.633  74.108  1.00  0.00     0.293 HD
ENDBRANCH   5  23
BRANCH   7  25
ATOM     25  O   UNL     1    -103.875  -1.373  73.399  1.00  0.00    -0.507 OA
ATOM     26  H   UNL     1    -103.965  -0.367  73.441  1.00  0.00     0.293 HD
ENDBRANCH   7  25
TORSDOF 6
ENDMDL
MODEL 3
REMARK VINA RESULT:    -6.021      8.370      9.605
REMARK INTER + INTRA:          -7.529
REMARK INTER:                  -7.257
REMARK INTRA:                  -0.272
REMARK UNBOUND:                -0.276
REMARK SMILES Oc1cc(O)c2cc(O)c(-c3ccc(O)c(O)c3)[o+]c2c1.[Cl-]
REMARK SMILES IDX 10 1 19 2 20 3 21 4 2 5 3 6 4 7 6 8 7 9 8 10 11 11 12 12
REMARK SMILES IDX 13 13 14 14 18 15 16 16 15 17 17 19 9 21 1 23 5 25
REMARK H PARENT 15 18 17 20 9 22 1 24 5 26
REMARK Flexibility Score: inf
ROOT
ATOM      1  C   UNL     1    -115.752  -9.996  80.538  1.00  0.00     0.402 A 
ATOM      2  O   UNL     1    -115.512 -10.496  79.329  1.00  0.00    -0.202 OA
ATOM      3  C   UNL     1    -114.752  -9.886  78.424  1.00  0.00     0.368 A 
ATOM      4  C   UNL     1    -114.561 -10.489  77.179  1.00  0.00     0.162 A 
ATOM      5  C   UNL     1    -113.771  -9.870  76.210  1.00  0.00     0.128 A 
ATOM      6  C   UNL     1    -113.168  -8.638  76.485  1.00  0.00     0.093 A 
ATOM      7  C   UNL     1    -113.345  -8.013  77.725  1.00  0.00     0.136 A 
ATOM      8  C   UNL     1    -114.146  -8.640  78.715  1.00  0.00     0.125 A 
ATOM      9  C   UNL     1    -114.367  -8.094  79.990  1.00  0.00     0.078 A 
ATOM     10  C   UNL     1    -115.165  -8.774  80.915  1.00  0.00     0.223 A 
ENDROOT
BRANCH   1  11
ATOM     11  C   UNL     1    -116.624 -10.767  81.454  1.00  0.00     0.087 A 
ATOM     12  C   UNL     1    -116.169 -11.939  82.085  1.00  0.00     0.022 A 
ATOM     13  C   UNL     1    -117.001 -12.638  82.962  1.00  0.00     0.051 A 
ATOM     14  C   UNL     1    -118.292 -12.173  83.234  1.00  0.00     0.157 A 
ATOM     15  C   UNL     1    -117.912 -10.292  81.746  1.00  0.00     0.068 A 
ATOM     16  C   UNL     1    -118.750 -10.993  82.626  1.00  0.00     0.158 A 
BRANCH  14  17
ATOM     17  O   UNL     1    -119.101 -12.893  84.113  1.00  0.00    -0.504 OA
ATOM     18  H   UNL     1    -118.885 -12.974  85.099  1.00  0.00     0.293 HD
ENDBRANCH  14  17
BRANCH  16  19
ATOM     19  O   UNL     1    -120.033 -10.519  82.898  1.00  0.00    -0.504 OA
ATOM     20  H   UNL     1    -120.826 -11.145  82.966  1.00  0.00     0.293 HD
ENDBRANCH  16  19
ENDBRANCH   1  11
BRANCH  10  21
ATOM     21  O   UNL     1    -115.345  -8.256  82.197  1.00  0.00    -0.500 OA
ATOM     22  H   UNL     1    -116.186  -8.437  82.732  1.00  0.00     0.294 HD
ENDBRANCH  10  21
BRANCH   5  23
ATOM     23  O   UNL     1    -113.592 -10.488  74.974  1.00  0.00    -0.507 OA
ATOM     24  H   UNL     1    -113.156 -11.399  74.894  1.00  0.00     0.293 HD
ENDBRANCH   5  23
BRANCH   7  25
ATOM     25  O   UNL     1    -112.712  -6.782  77.921  1.00  0.00    -0.507 OA
ATOM     26  H   UNL     1    -112.853  -6.189  78.727  1.00  0.00     0.293 HD
ENDBRANCH   7  25
TORSDOF 6
ENDMDL
MODEL 4
REMARK VINA RESULT:    -5.937      7.463     10.325
REMARK INTER + INTRA:          -7.428
REMARK INTER:                  -7.082
REMARK INTRA:                  -0.346
REMARK UNBOUND:                -0.276
REMARK SMILES Oc1cc(O)c2cc(O)c(-c3ccc(O)c(O)c3)[o+]c2c1.[Cl-]
REMARK SMILES IDX 10 1 19 2 20 3 21 4 2 5 3 6 4 7 6 8 7 9 8 10 11 11 12 12
REMARK SMILES IDX 13 13 14 14 18 15 16 16 15 17 17 19 9 21 1 23 5 25
REMARK H PARENT 15 18 17 20 9 22 1 24 5 26
REMARK Flexibility Score: inf
ROOT
ATOM      1  C   UNL     1    -108.976  -2.783  74.176  1.00  0.00     0.402 A 
ATOM      2  O   UNL     1    -108.145  -1.976  74.830  1.00  0.00    -0.202 OA
ATOM      3  C   UNL     1    -106.827  -1.990  74.656  1.00  0.00     0.368 A 
ATOM      4  C   UNL     1    -106.034  -1.106  75.393  1.00  0.00     0.162 A 
ATOM      5  C   UNL     1    -104.649  -1.100  75.232  1.00  0.00     0.128 A 
ATOM      6  C   UNL     1    -104.048  -1.985  74.330  1.00  0.00     0.093 A 
ATOM      7  C   UNL     1    -104.820  -2.881  73.580  1.00  0.00     0.136 A 
ATOM      8  C   UNL     1    -106.231  -2.888  73.739  1.00  0.00     0.125 A 
ATOM      9  C   UNL     1    -107.084  -3.741  73.020  1.00  0.00     0.078 A 
ATOM     10  C   UNL     1    -108.465  -3.687  73.227  1.00  0.00     0.223 A 
ENDROOT
BRANCH   1  11
ATOM     11  C   UNL     1    -110.425  -2.678  74.466  1.00  0.00     0.087 A 
ATOM     12  C   UNL     1    -111.013  -3.390  75.527  1.00  0.00     0.022 A 
ATOM     13  C   UNL     1    -112.377  -3.258  75.796  1.00  0.00     0.051 A 
ATOM     14  C   UNL     1    -113.172  -2.406  75.022  1.00  0.00     0.157 A 
ATOM     15  C   UNL     1    -111.221  -1.807  73.705  1.00  0.00     0.068 A 
ATOM     16  C   UNL     1    -112.592  -1.674  73.973  1.00  0.00     0.158 A 
BRANCH  14  17
ATOM     17  O   UNL     1    -114.531  -2.296  75.313  1.00  0.00    -0.504 OA
ATOM     18  H   UNL     1    -114.931  -1.452  75.703  1.00  0.00     0.293 HD
ENDBRANCH  14  17
BRANCH  16  19
ATOM     19  O   UNL     1    -113.376  -0.817  73.203  1.00  0.00    -0.504 OA
ATOM     20  H   UNL     1    -113.077  -0.502  72.288  1.00  0.00     0.293 HD
ENDBRANCH  16  19
ENDBRANCH   1  11
BRANCH  10  21
ATOM     21  O   UNL     1    -109.317  -4.500  72.478  1.00  0.00    -0.500 OA
ATOM     22  H   UNL     1    -110.312  -4.546  72.667  1.00  0.00     0.294 HD
ENDBRANCH  10  21
BRANCH   5  23
ATOM     23  O   UNL     1    -103.875  -0.211  75.975  1.00  0.00    -0.507 OA
ATOM     24  H   UNL     1    -104.110   0.025  76.932  1.00  0.00     0.293 HD
ENDBRANCH   5  23
BRANCH   7  25
ATOM     25  O   UNL     1    -104.145  -3.734  72.703  1.00  0.00    -0.507 OA
ATOM     26  H   UNL     1    -103.600  -3.425  71.911  1.00  0.00     0.293 HD
ENDBRANCH   7  25
TORSDOF 6
ENDMDL
MODEL 5
REMARK VINA RESULT:    -5.906      7.597     10.209
REMARK INTER + INTRA:          -7.391
REMARK INTER:                  -7.111
REMARK INTRA:                  -0.280
REMARK UNBOUND:                -0.276
REMARK SMILES Oc1cc(O)c2cc(O)c(-c3ccc(O)c(O)c3)[o+]c2c1.[Cl-]
REMARK SMILES IDX 10 1 19 2 20 3 21 4 2 5 3 6 4 7 6 8 7 9 8 10 11 11 12 12
REMARK SMILES IDX 13 13 14 14 18 15 16 16 15 17 17 19 9 21 1 23 5 25
REMARK H PARENT 15 18 17 20 9 22 1 24 5 26
REMARK Flexibility Score: inf
ROOT
ATOM      1  C   UNL     1    -108.905  -1.786  74.323  1.00  0.00     0.402 A 
ATOM      2  O   UNL     1    -108.098  -2.790  73.988  1.00  0.00    -0.202 OA
ATOM      3  C   UNL     1    -106.775  -2.676  73.933  1.00  0.00     0.368 A 
ATOM      4  C   UNL     1    -106.012  -3.787  73.566  1.00  0.00     0.162 A 
ATOM      5  C   UNL     1    -104.622  -3.696  73.498  1.00  0.00     0.128 A 
ATOM      6  C   UNL     1    -103.987  -2.485  73.796  1.00  0.00     0.093 A 
ATOM      7  C   UNL     1    -104.730  -1.357  74.166  1.00  0.00     0.136 A 
ATOM      8  C   UNL     1    -106.144  -1.447  74.239  1.00  0.00     0.125 A 
ATOM      9  C   UNL     1    -106.968  -0.372  74.614  1.00  0.00     0.078 A 
ATOM     10  C   UNL     1    -108.355  -0.538  74.667  1.00  0.00     0.223 A 
ENDROOT
BRANCH   1  11
ATOM     11  C   UNL     1    -110.365  -2.037  74.338  1.00  0.00     0.087 A 
ATOM     12  C   UNL     1    -110.970  -2.778  75.368  1.00  0.00     0.022 A 
ATOM     13  C   UNL     1    -112.352  -2.982  75.374  1.00  0.00     0.051 A 
ATOM     14  C   UNL     1    -113.151  -2.440  74.362  1.00  0.00     0.157 A 
ATOM     15  C   UNL     1    -111.173  -1.475  73.337  1.00  0.00     0.068 A 
ATOM     16  C   UNL     1    -112.560  -1.680  73.339  1.00  0.00     0.158 A 
BRANCH  14  17
ATOM     17  O   UNL     1    -114.528  -2.662  74.393  1.00  0.00    -0.504 OA
ATOM     18  H   UNL     1    -115.114  -2.513  73.581  1.00  0.00     0.293 HD
ENDBRANCH  14  17
BRANCH  16  19
ATOM     19  O   UNL     1    -113.351  -1.130  72.332  1.00  0.00    -0.504 OA
ATOM     20  H   UNL     1    -114.347  -1.311  72.281  1.00  0.00     0.293 HD
ENDBRANCH  16  19
ENDBRANCH   1  11
BRANCH  10  21
ATOM     21  O   UNL     1    -109.169   0.514  75.087  1.00  0.00    -0.500 OA
ATOM     22  H   UNL     1    -110.139   0.584  74.801  1.00  0.00     0.294 HD
ENDBRANCH  10  21
BRANCH   5  23
ATOM     23  O   UNL     1    -103.877  -4.815  73.130  1.00  0.00    -0.507 OA
ATOM     24  H   UNL     1    -103.811  -5.628  73.730  1.00  0.00     0.293 HD
ENDBRANCH   5  23
BRANCH   7  25
ATOM     25  O   UNL     1    -104.023  -0.184  74.445  1.00  0.00    -0.507 OA
ATOM     26  H   UNL     1    -103.124  -0.155  74.906  1.00  0.00     0.293 HD
ENDBRANCH   7  25
TORSDOF 6
ENDMDL
MODEL 6
REMARK VINA RESULT:    -5.879      7.088     11.135
REMARK INTER + INTRA:          -7.358
REMARK INTER:                  -7.005
REMARK INTRA:                  -0.353
REMARK UNBOUND:                -0.276
REMARK SMILES Oc1cc(O)c2cc(O)c(-c3ccc(O)c(O)c3)[o+]c2c1.[Cl-]
REMARK SMILES IDX 10 1 19 2 20 3 21 4 2 5 3 6 4 7 6 8 7 9 8 10 11 11 12 12
REMARK SMILES IDX 13 13 14 14 18 15 16 16 15 17 17 19 9 21 1 23 5 25
REMARK H PARENT 15 18 17 20 9 22 1 24 5 26
REMARK Flexibility Score: inf
ROOT
ATOM      1  C   UNL     1    -108.868  -2.473  74.621  1.00  0.00     0.402 A 
ATOM      2  O   UNL     1    -109.739  -2.256  73.639  1.00  0.00    -0.202 OA
ATOM      3  C   UNL     1    -110.939  -1.718  73.834  1.00  0.00     0.368 A 
ATOM      4  C   UNL     1    -111.787  -1.533  72.740  1.00  0.00     0.162 A 
ATOM      5  C   UNL     1    -113.052  -0.973  72.915  1.00  0.00     0.128 A 
ATOM      6  C   UNL     1    -113.476  -0.595  74.194  1.00  0.00     0.093 A 
ATOM      7  C   UNL     1    -112.645  -0.771  75.307  1.00  0.00     0.136 A 
ATOM      8  C   UNL     1    -111.356  -1.338  75.132  1.00  0.00     0.125 A 
ATOM      9  C   UNL     1    -110.451  -1.538  76.188  1.00  0.00     0.078 A 
ATOM     10  C   UNL     1    -109.195  -2.099  75.937  1.00  0.00     0.223 A 
ENDROOT
BRANCH   1  11
ATOM     11  C   UNL     1    -107.565  -3.089  74.277  1.00  0.00     0.087 A 
ATOM     12  C   UNL     1    -107.381  -4.483  74.320  1.00  0.00     0.022 A 
ATOM     13  C   UNL     1    -106.151  -5.043  73.969  1.00  0.00     0.051 A 
ATOM     14  C   UNL     1    -105.092  -4.227  73.557  1.00  0.00     0.157 A 
ATOM     15  C   UNL     1    -106.508  -2.275  73.842  1.00  0.00     0.068 A 
ATOM     16  C   UNL     1    -105.271  -2.836  73.490  1.00  0.00     0.158 A 
BRANCH  14  17
ATOM     17  O   UNL     1    -103.875  -4.815  73.215  1.00  0.00    -0.504 OA
ATOM     18  H   UNL     1    -103.756  -5.820  73.173  1.00  0.00     0.293 HD
ENDBRANCH  14  17
BRANCH  16  19
ATOM     19  O   UNL     1    -104.224  -2.016  73.073  1.00  0.00    -0.504 OA
ATOM     20  H   UNL     1    -103.371  -2.401  72.686  1.00  0.00     0.293 HD
ENDBRANCH  16  19
ENDBRANCH   1  11
BRANCH  10  21
ATOM     21  O   UNL     1    -108.278  -2.253  76.977  1.00  0.00    -0.500 OA
ATOM     22  H   UNL     1    -107.925  -3.164  77.245  1.00  0.00     0.294 HD
ENDBRANCH  10  21
BRANCH   5  23
ATOM     23  O   UNL     1    -113.884  -0.795  71.811  1.00  0.00    -0.507 OA
ATOM     24  H   UNL     1    -114.573  -0.053  71.780  1.00  0.00     0.293 HD
ENDBRANCH   5  23
BRANCH   7  25
ATOM     25  O   UNL     1    -113.142  -0.371  76.551  1.00  0.00    -0.507 OA
ATOM     26  H   UNL     1    -113.016  -0.888  77.409  1.00  0.00     0.293 HD
ENDBRANCH   7  25
TORSDOF 6
ENDMDL
MODEL 7
REMARK VINA RESULT:    -5.877      3.291      4.254
REMARK INTER + INTRA:          -7.356
REMARK INTER:                  -7.045
REMARK INTRA:                  -0.311
REMARK UNBOUND:                -0.276
REMARK SMILES Oc1cc(O)c2cc(O)c(-c3ccc(O)c(O)c3)[o+]c2c1.[Cl-]
REMARK SMILES IDX 10 1 19 2 20 3 21 4 2 5 3 6 4 7 6 8 7 9 8 10 11 11 12 12
REMARK SMILES IDX 13 13 14 14 18 15 16 16 15 17 17 19 9 21 1 23 5 25
REMARK H PARENT 15 18 17 20 9 22 1 24 5 26
REMARK Flexibility Score: inf
ROOT
ATOM      1  C   UNL     1    -117.021  -1.636  79.552  1.00  0.00     0.402 A 
ATOM      2  O   UNL     1    -117.048  -2.635  80.430  1.00  0.00    -0.202 OA
ATOM      3  C   UNL     1    -116.287  -2.669  81.520  1.00  0.00     0.368 A 
ATOM      4  C   UNL     1    -116.384  -3.765  82.382  1.00  0.00     0.162 A 
ATOM      5  C   UNL     1    -115.596  -3.829  83.531  1.00  0.00     0.128 A 
ATOM      6  C   UNL     1    -114.702  -2.793  83.822  1.00  0.00     0.093 A 
ATOM      7  C   UNL     1    -114.586  -1.685  82.974  1.00  0.00     0.136 A 
ATOM      8  C   UNL     1    -115.388  -1.614  81.805  1.00  0.00     0.125 A 
ATOM      9  C   UNL     1    -115.348  -0.537  80.905  1.00  0.00     0.078 A 
ATOM     10  C   UNL     1    -116.173  -0.536  79.776  1.00  0.00     0.223 A 
ENDROOT
BRANCH   1  11
ATOM     11  C   UNL     1    -117.911  -1.718  78.371  1.00  0.00     0.087 A 
ATOM     12  C   UNL     1    -117.594  -2.536  77.271  1.00  0.00     0.022 A 
ATOM     13  C   UNL     1    -118.459  -2.616  76.178  1.00  0.00     0.051 A 
ATOM     14  C   UNL     1    -119.657  -1.895  76.169  1.00  0.00     0.157 A 
ATOM     15  C   UNL     1    -119.124  -1.013  78.368  1.00  0.00     0.068 A 
ATOM     16  C   UNL     1    -119.994  -1.091  77.271  1.00  0.00     0.158 A 
BRANCH  14  17
ATOM     17  O   UNL     1    -120.501  -1.993  75.063  1.00  0.00    -0.504 OA
ATOM     18  H   UNL     1    -121.406  -1.542  75.036  1.00  0.00     0.293 HD
ENDBRANCH  14  17
BRANCH  16  19
ATOM     19  O   UNL     1    -121.190  -0.375  77.273  1.00  0.00    -0.504 OA
ATOM     20  H   UNL     1    -122.058  -0.791  77.589  1.00  0.00     0.293 HD
ENDBRANCH  16  19
ENDBRANCH   1  11
BRANCH  10  21
ATOM     21  O   UNL     1    -116.169   0.557  78.908  1.00  0.00    -0.500 OA
ATOM     22  H   UNL     1    -117.020   0.894  78.473  1.00  0.00     0.294 HD
ENDBRANCH  10  21
BRANCH   5  23
ATOM     23  O   UNL     1    -115.707  -4.929  84.379  1.00  0.00    -0.507 OA
ATOM     24  H   UNL     1    -115.174  -4.992  85.239  1.00  0.00     0.293 HD
ENDBRANCH   5  23
BRANCH   7  25
ATOM     25  O   UNL     1    -113.668  -0.693  83.332  1.00  0.00    -0.507 OA
ATOM     26  H   UNL     1    -112.724  -0.634  82.979  1.00  0.00     0.293 HD
ENDBRANCH   7  25
TORSDOF 6
ENDMDL
MODEL 8
REMARK VINA RESULT:    -5.852     16.284     17.520
REMARK INTER + INTRA:          -7.325
REMARK INTER:                  -7.012
REMARK INTRA:                  -0.313
REMARK UNBOUND:                -0.276
REMARK SMILES Oc1cc(O)c2cc(O)c(-c3ccc(O)c(O)c3)[o+]c2c1.[Cl-]
REMARK SMILES IDX 10 1 19 2 20 3 21 4 2 5 3 6 4 7 6 8 7 9 8 10 11 11 12 12
REMARK SMILES IDX 13 13 14 14 18 15 16 16 15 17 17 19 9 21 1 23 5 25
REMARK H PARENT 15 18 17 20 9 22 1 24 5 26
REMARK Flexibility Score: inf
ROOT
ATOM      1  C   UNL     1    -118.001 -14.073  88.423  1.00  0.00     0.402 A 
ATOM      2  O   UNL     1    -116.971 -14.906  88.543  1.00  0.00    -0.202 OA
ATOM      3  C   UNL     1    -117.069 -16.112  89.094  1.00  0.00     0.368 A 
ATOM      4  C   UNL     1    -115.929 -16.916  89.179  1.00  0.00     0.162 A 
ATOM      5  C   UNL     1    -116.002 -18.184  89.754  1.00  0.00     0.128 A 
ATOM      6  C   UNL     1    -117.221 -18.655  90.253  1.00  0.00     0.093 A 
ATOM      7  C   UNL     1    -118.378 -17.868  90.181  1.00  0.00     0.136 A 
ATOM      8  C   UNL     1    -118.309 -16.578  89.593  1.00  0.00     0.125 A 
ATOM      9  C   UNL     1    -119.419 -15.727  89.466  1.00  0.00     0.078 A 
ATOM     10  C   UNL     1    -119.274 -14.470  88.871  1.00  0.00     0.223 A 
ENDROOT
BRANCH   1  11
ATOM     11  C   UNL     1    -117.762 -12.751  87.799  1.00  0.00     0.087 A 
ATOM     12  C   UNL     1    -118.122 -12.496  86.463  1.00  0.00     0.022 A 
ATOM     13  C   UNL     1    -117.908 -11.235  85.903  1.00  0.00     0.051 A 
ATOM     14  C   UNL     1    -117.345 -10.207  86.666  1.00  0.00     0.157 A 
ATOM     15  C   UNL     1    -117.217 -11.711  88.569  1.00  0.00     0.068 A 
ATOM     16  C   UNL     1    -117.000 -10.444  88.007  1.00  0.00     0.158 A 
BRANCH  14  17
ATOM     17  O   UNL     1    -117.141  -8.959  86.078  1.00  0.00    -0.504 OA
ATOM     18  H   UNL     1    -116.608  -8.230  86.536  1.00  0.00     0.293 HD
ENDBRANCH  14  17
BRANCH  16  19
ATOM     19  O   UNL     1    -116.446  -9.422  88.776  1.00  0.00    -0.504 OA
ATOM     20  H   UNL     1    -117.026  -8.737  89.246  1.00  0.00     0.293 HD
ENDBRANCH  16  19
ENDBRANCH   1  11
BRANCH  10  21
ATOM     21  O   UNL     1    -120.386 -13.645  88.700  1.00  0.00    -0.500 OA
ATOM     22  H   UNL     1    -121.244 -13.987  88.284  1.00  0.00     0.294 HD
ENDBRANCH  10  21
BRANCH   5  23
ATOM     23  O   UNL     1    -114.854 -18.971  89.829  1.00  0.00    -0.507 OA
ATOM     24  H   UNL     1    -114.283 -18.999  90.665  1.00  0.00     0.293 HD
ENDBRANCH   5  23
BRANCH   7  25
ATOM     25  O   UNL     1    -119.557 -18.408  90.703  1.00  0.00    -0.507 OA
ATOM     26  H   UNL     1    -120.185 -17.917  91.323  1.00  0.00     0.293 HD
ENDBRANCH   7  25
TORSDOF 6
ENDMDL
MODEL 9
REMARK VINA RESULT:    -5.694     14.418     15.542
REMARK INTER + INTRA:          -7.135
REMARK INTER:                  -6.785
REMARK INTRA:                  -0.351
REMARK UNBOUND:                -0.276
REMARK SMILES Oc1cc(O)c2cc(O)c(-c3ccc(O)c(O)c3)[o+]c2c1.[Cl-]
REMARK SMILES IDX 10 1 19 2 20 3 21 4 2 5 3 6 4 7 6 8 7 9 8 10 11 11 12 12
REMARK SMILES IDX 13 13 14 14 18 15 16 16 15 17 17 19 9 21 1 23 5 25
REMARK H PARENT 15 18 17 20 9 22 1 24 5 26
REMARK Flexibility Score: inf
ROOT
ATOM      1  C   UNL     1    -118.437 -13.611  87.138  1.00  0.00     0.402 A 
ATOM      2  O   UNL     1    -118.799 -13.637  85.857  1.00  0.00    -0.202 OA
ATOM      3  C   UNL     1    -118.511 -12.665  84.998  1.00  0.00     0.368 A 
ATOM      4  C   UNL     1    -118.938 -12.780  83.673  1.00  0.00     0.162 A 
ATOM      5  C   UNL     1    -118.653 -11.774  82.750  1.00  0.00     0.128 A 
ATOM      6  C   UNL     1    -117.938 -10.641  83.153  1.00  0.00     0.093 A 
ATOM      7  C   UNL     1    -117.500 -10.501  84.476  1.00  0.00     0.136 A 
ATOM      8  C   UNL     1    -117.786 -11.524  85.417  1.00  0.00     0.125 A 
ATOM      9  C   UNL     1    -117.375 -11.474  86.759  1.00  0.00     0.078 A 
ATOM     10  C   UNL     1    -117.690 -12.524  87.627  1.00  0.00     0.223 A 
ENDROOT
BRANCH   1  11
ATOM     11  C   UNL     1    -118.826 -14.752  87.998  1.00  0.00     0.087 A 
ATOM     12  C   UNL     1    -119.977 -14.702  88.805  1.00  0.00     0.022 A 
ATOM     13  C   UNL     1    -120.337 -15.799  89.591  1.00  0.00     0.051 A 
ATOM     14  C   UNL     1    -119.566 -16.966  89.574  1.00  0.00     0.157 A 
ATOM     15  C   UNL     1    -118.067 -15.932  87.967  1.00  0.00     0.068 A 
ATOM     16  C   UNL     1    -118.426 -17.035  88.756  1.00  0.00     0.158 A 
BRANCH  14  17
ATOM     17  O   UNL     1    -119.949 -18.044  90.371  1.00  0.00    -0.504 OA
ATOM     18  H   UNL     1    -120.804 -18.560  90.202  1.00  0.00     0.293 HD
ENDBRANCH  14  17
BRANCH  16  19
ATOM     19  O   UNL     1    -117.656 -18.197  88.728  1.00  0.00    -0.504 OA
ATOM     20  H   UNL     1    -116.697 -18.206  89.052  1.00  0.00     0.293 HD
ENDBRANCH  16  19
ENDBRANCH   1  11
BRANCH  10  21
ATOM     21  O   UNL     1    -117.241 -12.499  88.948  1.00  0.00    -0.500 OA
ATOM     22  H   UNL     1    -117.349 -11.677  89.531  1.00  0.00     0.294 HD
ENDBRANCH  10  21
BRANCH   5  23
ATOM     23  O   UNL     1    -119.085 -11.908  81.432  1.00  0.00    -0.507 OA
ATOM     24  H   UNL     1    -118.431 -12.017  80.667  1.00  0.00     0.293 HD
ENDBRANCH   5  23
BRANCH   7  25
ATOM     25  O   UNL     1    -116.795  -9.338  84.800  1.00  0.00    -0.507 OA
ATOM     26  H   UNL     1    -117.164  -8.584  85.361  1.00  0.00     0.293 HD
ENDBRANCH   7  25
TORSDOF 6
ENDMDL
