MODEL 1
REMARK VINA RESULT:     0.512      0.000      0.000
REMARK INTER + INTRA:           0.567
REMARK INTER:                   1.349
REMARK INTRA:                  -0.782
REMARK UNBOUND:                -0.782
REMARK SMILES CCCCCCCCCCCCCCCCCCCCCCCCCCCCCC(=O)[O-]
REMARK SMILES IDX 16 1 17 2 18 3 19 4 20 5 21 6 22 7 23 8 24 9 25 10 26 11
REMARK SMILES IDX 27 12 28 13 29 14 30 15 31 16 32 17 15 18 14 19 13 20 12 21
REMARK SMILES IDX 11 22 10 23 9 24 8 25 7 26 6 27 5 28 4 29 3 30 2 31 1 32
REMARK H PARENT
REMARK Flexibility Score: inf
ROOT
ATOM      1  C   UNL     1     -17.034  -6.581 -21.617  1.00  0.00     0.000 C 
ENDROOT
BRANCH   1   2
ATOM      2  C   UNL     1     -16.308  -5.602 -20.670  1.00  0.00     0.000 C 
BRANCH   2   3
ATOM      3  C   UNL     1     -15.248  -6.275 -19.775  1.00  0.00     0.000 C 
BRANCH   3   4
ATOM      4  C   UNL     1     -13.814  -5.749 -19.953  1.00  0.00     0.000 C 
BRANCH   4   5
ATOM      5  C   UNL     1     -13.241  -5.137 -18.663  1.00  0.00     0.000 C 
BRANCH   5   6
ATOM      6  C   UNL     1     -14.275  -5.069 -17.523  1.00  0.00     0.000 C 
BRANCH   6   7
ATOM      7  C   UNL     1     -13.721  -4.605 -16.162  1.00  0.00     0.000 C 
BRANCH   7   8
ATOM      8  C   UNL     1     -14.052  -3.148 -15.783  1.00  0.00     0.000 C 
BRANCH   8   9
ATOM      9  C   UNL     1     -12.852  -2.300 -15.308  1.00  0.00     0.000 C 
BRANCH   9  10
ATOM     10  C   UNL     1     -12.504  -2.426 -13.810  1.00  0.00     0.000 C 
BRANCH  10  11
ATOM     11  C   UNL     1     -13.035  -3.706 -13.127  1.00  0.00     0.000 C 
BRANCH  11  12
ATOM     12  C   UNL     1     -12.424  -3.985 -11.739  1.00  0.00     0.000 C 
BRANCH  12  13
ATOM     13  C   UNL     1     -12.688  -2.874 -10.700  1.00  0.00     0.006 C 
BRANCH  13  14
ATOM     14  C   UNL     1     -13.244  -3.407  -9.369  1.00  0.00     0.053 C 
BRANCH  14  15
ATOM     15  C   UNL     1     -13.260  -4.905  -9.338  1.00  0.00     0.041 C 
ATOM     16  O   UNL     1     -12.183  -5.552  -9.424  1.00  0.00    -0.550 OA
ATOM     17  O   UNL     1     -14.464  -5.588  -9.221  1.00  0.00    -0.550 OA
ENDBRANCH  14  15
ENDBRANCH  13  14
ENDBRANCH  12  13
ENDBRANCH  11  12
ENDBRANCH  10  11
ENDBRANCH   9  10
ENDBRANCH   8   9
ENDBRANCH   7   8
ENDBRANCH   6   7
ENDBRANCH   5   6
ENDBRANCH   4   5
ENDBRANCH   3   4
ENDBRANCH   2   3
ENDBRANCH   1   2
BRANCH   1  18
ATOM     18  C   UNL     1     -16.814  -6.231 -23.099  1.00  0.00     0.000 C 
BRANCH  18  19
ATOM     19  C   UNL     1     -16.888  -7.460 -24.026  1.00  0.00     0.000 C 
BRANCH  19  20
ATOM     20  C   UNL     1     -16.165  -7.309 -25.379  1.00  0.00     0.000 C 
BRANCH  20  21
ATOM     21  C   UNL     1     -15.590  -8.636 -25.908  1.00  0.00     0.000 C 
BRANCH  21  22
ATOM     22  C   UNL     1     -16.162  -9.864 -25.181  1.00  0.00     0.000 C 
BRANCH  22  23
ATOM     23  C   UNL     1     -15.429 -11.166 -25.545  1.00  0.00     0.000 C 
BRANCH  23  24
ATOM     24  C   UNL     1     -16.357 -12.394 -25.483  1.00  0.00    -0.000 C 
BRANCH  24  25
ATOM     25  C   UNL     1     -15.608 -13.737 -25.325  1.00  0.00    -0.000 C 
BRANCH  25  26
ATOM     26  C   UNL     1     -14.674 -13.783 -24.101  1.00  0.00    -0.000 C 
BRANCH  26  27
ATOM     27  C   UNL     1     -13.885 -15.104 -24.011  1.00  0.00    -0.000 C 
BRANCH  27  28
ATOM     28  C   UNL     1     -12.627 -15.100 -24.902  1.00  0.00    -0.000 C 
BRANCH  28  29
ATOM     29  C   UNL     1     -12.103 -13.688 -25.233  1.00  0.00    -0.000 C 
BRANCH  29  30
ATOM     30  C   UNL     1     -12.068 -13.401 -26.744  1.00  0.00    -0.000 C 
BRANCH  30  31
ATOM     31  C   UNL     1     -12.334 -14.659 -27.586  1.00  0.00    -0.003 C 
ATOM     32  C   UNL     1     -13.815 -14.852 -27.912  1.00  0.00     0.004 C 
ENDBRANCH  30  31
ENDBRANCH  29  30
ENDBRANCH  28  29
ENDBRANCH  27  28
ENDBRANCH  26  27
ENDBRANCH  25  26
ENDBRANCH  24  25
ENDBRANCH  23  24
ENDBRANCH  22  23
ENDBRANCH  21  22
ENDBRANCH  20  21
ENDBRANCH  19  20
ENDBRANCH  18  19
ENDBRANCH   1  18
TORSDOF 28
ENDMDL
MODEL 2
REMARK VINA RESULT:     0.939      4.784     14.313
REMARK INTER + INTRA:           1.694
REMARK INTER:                   1.664
REMARK INTRA:                   0.030
REMARK UNBOUND:                -0.782
REMARK SMILES CCCCCCCCCCCCCCCCCCCCCCCCCCCCCC(=O)[O-]
REMARK SMILES IDX 16 1 17 2 18 3 19 4 20 5 21 6 22 7 23 8 24 9 25 10 26 11
REMARK SMILES IDX 27 12 28 13 29 14 30 15 31 16 32 17 15 18 14 19 13 20 12 21
REMARK SMILES IDX 11 22 10 23 9 24 8 25 7 26 6 27 5 28 4 29 3 30 2 31 1 32
REMARK H PARENT
REMARK Flexibility Score: inf
ROOT
ATOM      1  C   UNL     1     -16.382  -6.354 -21.145  1.00  0.00     0.000 C 
ENDROOT
BRANCH   1   2
ATOM      2  C   UNL     1     -16.732  -4.993 -21.783  1.00  0.00     0.000 C 
BRANCH   2   3
ATOM      3  C   UNL     1     -17.017  -5.073 -23.297  1.00  0.00     0.000 C 
BRANCH   3   4
ATOM      4  C   UNL     1     -17.255  -6.491 -23.843  1.00  0.00     0.000 C 
BRANCH   4   5
ATOM      5  C   UNL     1     -16.740  -6.668 -25.282  1.00  0.00     0.000 C 
BRANCH   5   6
ATOM      6  C   UNL     1     -15.691  -7.788 -25.409  1.00  0.00     0.000 C 
BRANCH   6   7
ATOM      7  C   UNL     1     -16.176  -9.190 -24.991  1.00  0.00     0.000 C 
BRANCH   7   8
ATOM      8  C   UNL     1     -15.324 -10.361 -25.522  1.00  0.00     0.000 C 
BRANCH   8   9
ATOM      9  C   UNL     1     -15.679 -11.749 -24.950  1.00  0.00     0.000 C 
BRANCH   9  10
ATOM     10  C   UNL     1     -16.624 -12.604 -25.822  1.00  0.00     0.000 C 
BRANCH  10  11
ATOM     11  C   UNL     1     -16.669 -14.103 -25.452  1.00  0.00     0.000 C 
BRANCH  11  12
ATOM     12  C   UNL     1     -15.419 -14.900 -25.876  1.00  0.00     0.000 C 
BRANCH  12  13
ATOM     13  C   UNL     1     -14.247 -14.811 -24.874  1.00  0.00     0.006 C 
BRANCH  13  14
ATOM     14  C   UNL     1     -12.881 -15.118 -25.510  1.00  0.00     0.053 C 
BRANCH  14  15
ATOM     15  C   UNL     1     -12.336 -13.933 -26.247  1.00  0.00     0.041 C 
ATOM     16  O   UNL     1     -12.240 -13.957 -27.503  1.00  0.00    -0.550 OA
ATOM     17  O   UNL     1     -11.927 -12.804 -25.549  1.00  0.00    -0.550 OA
ENDBRANCH  14  15
ENDBRANCH  13  14
ENDBRANCH  12  13
ENDBRANCH  11  12
ENDBRANCH  10  11
ENDBRANCH   9  10
ENDBRANCH   8   9
ENDBRANCH   7   8
ENDBRANCH   6   7
ENDBRANCH   5   6
ENDBRANCH   4   5
ENDBRANCH   3   4
ENDBRANCH   2   3
ENDBRANCH   1   2
BRANCH   1  18
ATOM     18  C   UNL     1     -15.936  -6.214 -19.679  1.00  0.00     0.000 C 
BRANCH  18  19
ATOM     19  C   UNL     1     -14.574  -6.877 -19.397  1.00  0.00     0.000 C 
BRANCH  19  20
ATOM     20  C   UNL     1     -13.361  -5.928 -19.426  1.00  0.00     0.000 C 
BRANCH  20  21
ATOM     21  C   UNL     1     -13.045  -5.308 -18.053  1.00  0.00     0.000 C 
BRANCH  21  22
ATOM     22  C   UNL     1     -14.260  -4.609 -17.422  1.00  0.00     0.000 C 
BRANCH  22  23
ATOM     23  C   UNL     1     -13.938  -3.967 -16.062  1.00  0.00     0.000 C 
BRANCH  23  24
ATOM     24  C   UNL     1     -13.400  -2.531 -16.206  1.00  0.00    -0.000 C 
BRANCH  24  25
ATOM     25  C   UNL     1     -13.119  -1.830 -14.858  1.00  0.00    -0.000 C 
BRANCH  25  26
ATOM     26  C   UNL     1     -12.523  -2.763 -13.788  1.00  0.00    -0.000 C 
BRANCH  26  27
ATOM     27  C   UNL     1     -13.604  -3.566 -13.038  1.00  0.00    -0.000 C 
BRANCH  27  28
ATOM     28  C   UNL     1     -13.115  -4.073 -11.667  1.00  0.00    -0.000 C 
BRANCH  28  29
ATOM     29  C   UNL     1     -12.050  -3.170 -11.013  1.00  0.00    -0.000 C 
BRANCH  29  30
ATOM     30  C   UNL     1     -11.995  -3.320  -9.482  1.00  0.00    -0.000 C 
BRANCH  30  31
ATOM     31  C   UNL     1     -12.334  -4.747  -9.022  1.00  0.00    -0.003 C 
ATOM     32  C   UNL     1     -13.821  -5.077  -9.158  1.00  0.00     0.004 C 
ENDBRANCH  30  31
ENDBRANCH  29  30
ENDBRANCH  28  29
ENDBRANCH  27  28
ENDBRANCH  26  27
ENDBRANCH  25  26
ENDBRANCH  24  25
ENDBRANCH  23  24
ENDBRANCH  22  23
ENDBRANCH  21  22
ENDBRANCH  20  21
ENDBRANCH  19  20
ENDBRANCH  18  19
ENDBRANCH   1  18
TORSDOF 28
ENDMDL
MODEL 3
REMARK VINA RESULT:     1.584      4.856     13.813
REMARK INTER + INTRA:           3.395
REMARK INTER:                   5.268
REMARK INTRA:                  -1.873
REMARK UNBOUND:                -0.782
REMARK SMILES CCCCCCCCCCCCCCCCCCCCCCCCCCCCCC(=O)[O-]
REMARK SMILES IDX 16 1 17 2 18 3 19 4 20 5 21 6 22 7 23 8 24 9 25 10 26 11
REMARK SMILES IDX 27 12 28 13 29 14 30 15 31 16 32 17 15 18 14 19 13 20 12 21
REMARK SMILES IDX 11 22 10 23 9 24 8 25 7 26 6 27 5 28 4 29 3 30 2 31 1 32
REMARK H PARENT
REMARK Flexibility Score: inf
ROOT
ATOM      1  C   UNL     1     -14.926  -5.238 -18.667  1.00  0.00     0.000 C 
ENDROOT
BRANCH   1   2
ATOM      2  C   UNL     1     -16.334  -5.335 -19.291  1.00  0.00     0.000 C 
BRANCH   2   3
ATOM      3  C   UNL     1     -16.418  -6.310 -20.483  1.00  0.00     0.000 C 
BRANCH   3   4
ATOM      4  C   UNL     1     -16.485  -5.645 -21.868  1.00  0.00     0.000 C 
BRANCH   4   5
ATOM      5  C   UNL     1     -17.295  -6.468 -22.885  1.00  0.00     0.000 C 
BRANCH   5   6
ATOM      6  C   UNL     1     -17.102  -5.985 -24.334  1.00  0.00     0.000 C 
BRANCH   6   7
ATOM      7  C   UNL     1     -16.979  -7.104 -25.387  1.00  0.00     0.000 C 
BRANCH   7   8
ATOM      8  C   UNL     1     -15.585  -7.755 -25.490  1.00  0.00     0.000 C 
BRANCH   8   9
ATOM      9  C   UNL     1     -15.569  -9.204 -26.019  1.00  0.00     0.000 C 
BRANCH   9  10
ATOM     10  C   UNL     1     -16.151 -10.266 -25.061  1.00  0.00     0.000 C 
BRANCH  10  11
ATOM     11  C   UNL     1     -15.333 -11.573 -24.969  1.00  0.00     0.000 C 
BRANCH  11  12
ATOM     12  C   UNL     1     -16.120 -12.843 -25.352  1.00  0.00     0.000 C 
BRANCH  12  13
ATOM     13  C   UNL     1     -15.337 -14.156 -25.138  1.00  0.00     0.006 C 
BRANCH  13  14
ATOM     14  C   UNL     1     -14.387 -14.493 -26.300  1.00  0.00     0.053 C 
BRANCH  14  15
ATOM     15  C   UNL     1     -12.956 -14.245 -25.933  1.00  0.00     0.041 C 
ATOM     16  O   UNL     1     -12.243 -13.485 -26.639  1.00  0.00    -0.550 OA
ATOM     17  O   UNL     1     -12.405 -14.860 -24.814  1.00  0.00    -0.550 OA
ENDBRANCH  14  15
ENDBRANCH  13  14
ENDBRANCH  12  13
ENDBRANCH  11  12
ENDBRANCH  10  11
ENDBRANCH   9  10
ENDBRANCH   8   9
ENDBRANCH   7   8
ENDBRANCH   6   7
ENDBRANCH   5   6
ENDBRANCH   4   5
ENDBRANCH   3   4
ENDBRANCH   2   3
ENDBRANCH   1   2
BRANCH   1  18
ATOM     18  C   UNL     1     -13.866  -5.983 -19.497  1.00  0.00     0.000 C 
BRANCH  18  19
ATOM     19  C   UNL     1     -13.229  -7.164 -18.741  1.00  0.00     0.000 C 
BRANCH  19  20
ATOM     20  C   UNL     1     -14.182  -8.331 -18.418  1.00  0.00     0.000 C 
BRANCH  20  21
ATOM     21  C   UNL     1     -13.990  -8.893 -16.997  1.00  0.00     0.000 C 
BRANCH  21  22
ATOM     22  C   UNL     1     -13.261  -7.912 -16.064  1.00  0.00     0.000 C 
BRANCH  22  23
ATOM     23  C   UNL     1     -14.210  -7.214 -15.075  1.00  0.00     0.000 C 
BRANCH  23  24
ATOM     24  C   UNL     1     -13.602  -5.924 -14.494  1.00  0.00    -0.000 C 
BRANCH  24  25
ATOM     25  C   UNL     1     -14.158  -4.628 -15.127  1.00  0.00    -0.000 C 
BRANCH  25  26
ATOM     26  C   UNL     1     -13.891  -3.366 -14.288  1.00  0.00    -0.000 C 
BRANCH  26  27
ATOM     27  C   UNL     1     -13.924  -3.646 -12.773  1.00  0.00    -0.000 C 
BRANCH  27  28
ATOM     28  C   UNL     1     -12.519  -3.891 -12.190  1.00  0.00    -0.000 C 
BRANCH  28  29
ATOM     29  C   UNL     1     -12.239  -3.110 -10.890  1.00  0.00    -0.000 C 
BRANCH  29  30
ATOM     30  C   UNL     1     -13.175  -3.513  -9.736  1.00  0.00    -0.000 C 
BRANCH  30  31
ATOM     31  C   UNL     1     -12.752  -4.833  -9.073  1.00  0.00    -0.003 C 
ATOM     32  C   UNL     1     -13.747  -5.967  -9.321  1.00  0.00     0.004 C 
ENDBRANCH  30  31
ENDBRANCH  29  30
ENDBRANCH  28  29
ENDBRANCH  27  28
ENDBRANCH  26  27
ENDBRANCH  25  26
ENDBRANCH  24  25
ENDBRANCH  23  24
ENDBRANCH  22  23
ENDBRANCH  21  22
ENDBRANCH  20  21
ENDBRANCH  19  20
ENDBRANCH  18  19
ENDBRANCH   1  18
TORSDOF 28
ENDMDL
MODEL 4
REMARK VINA RESULT:     2.282      1.225      3.267
REMARK INTER + INTRA:           5.235
REMARK INTER:                   5.215
REMARK INTRA:                   0.020
REMARK UNBOUND:                -0.782
REMARK SMILES CCCCCCCCCCCCCCCCCCCCCCCCCCCCCC(=O)[O-]
REMARK SMILES IDX 16 1 17 2 18 3 19 4 20 5 21 6 22 7 23 8 24 9 25 10 26 11
REMARK SMILES IDX 27 12 28 13 29 14 30 15 31 16 32 17 15 18 14 19 13 20 12 21
REMARK SMILES IDX 11 22 10 23 9 24 8 25 7 26 6 27 5 28 4 29 3 30 2 31 1 32
REMARK H PARENT
REMARK Flexibility Score: inf
ROOT
ATOM      1  C   UNL     1     -13.431  -6.393 -19.083  1.00  0.00     0.000 C 
ENDROOT
BRANCH   1   2
ATOM      2  C   UNL     1     -12.684  -5.746 -20.268  1.00  0.00     0.000 C 
BRANCH   2   3
ATOM      3  C   UNL     1     -12.026  -4.394 -19.923  1.00  0.00     0.000 C 
BRANCH   3   4
ATOM      4  C   UNL     1     -12.322  -3.866 -18.509  1.00  0.00     0.000 C 
BRANCH   4   5
ATOM      5  C   UNL     1     -11.908  -2.395 -18.326  1.00  0.00     0.000 C 
BRANCH   5   6
ATOM      6  C   UNL     1     -11.935  -1.946 -16.853  1.00  0.00     0.000 C 
BRANCH   6   7
ATOM      7  C   UNL     1     -13.305  -2.062 -16.157  1.00  0.00     0.000 C 
BRANCH   7   8
ATOM      8  C   UNL     1     -13.252  -2.132 -14.617  1.00  0.00     0.000 C 
BRANCH   8   9
ATOM      9  C   UNL     1     -13.690  -3.477 -14.002  1.00  0.00     0.000 C 
BRANCH   9  10
ATOM     10  C   UNL     1     -14.733  -3.379 -12.867  1.00  0.00     0.000 C 
BRANCH  10  11
ATOM     11  C   UNL     1     -14.138  -3.344 -11.442  1.00  0.00     0.000 C 
BRANCH  11  12
ATOM     12  C   UNL     1     -12.644  -3.715 -11.368  1.00  0.00     0.000 C 
BRANCH  12  13
ATOM     13  C   UNL     1     -11.982  -3.392 -10.011  1.00  0.00     0.006 C 
BRANCH  13  14
ATOM     14  C   UNL     1     -12.439  -4.326  -8.877  1.00  0.00     0.053 C 
BRANCH  14  15
ATOM     15  C   UNL     1     -13.511  -5.268  -9.335  1.00  0.00     0.041 C 
ATOM     16  O   UNL     1     -13.205  -6.392  -9.813  1.00  0.00    -0.550 OA
ATOM     17  O   UNL     1     -14.848  -4.902  -9.241  1.00  0.00    -0.550 OA
ENDBRANCH  14  15
ENDBRANCH  13  14
ENDBRANCH  12  13
ENDBRANCH  11  12
ENDBRANCH  10  11
ENDBRANCH   9  10
ENDBRANCH   8   9
ENDBRANCH   7   8
ENDBRANCH   6   7
ENDBRANCH   5   6
ENDBRANCH   4   5
ENDBRANCH   3   4
ENDBRANCH   2   3
ENDBRANCH   1   2
BRANCH   1  18
ATOM     18  C   UNL     1     -14.922  -6.617 -19.384  1.00  0.00     0.000 C 
BRANCH  18  19
ATOM     19  C   UNL     1     -15.491  -5.608 -20.401  1.00  0.00     0.000 C 
BRANCH  19  20
ATOM     20  C   UNL     1     -16.898  -5.935 -20.938  1.00  0.00     0.000 C 
BRANCH  20  21
ATOM     21  C   UNL     1     -16.871  -6.762 -22.236  1.00  0.00     0.000 C 
BRANCH  21  22
ATOM     22  C   UNL     1     -16.887  -5.885 -23.499  1.00  0.00     0.000 C 
BRANCH  22  23
ATOM     23  C   UNL     1     -16.494  -6.661 -24.768  1.00  0.00     0.000 C 
BRANCH  23  24
ATOM     24  C   UNL     1     -16.798  -8.167 -24.649  1.00  0.00    -0.000 C 
BRANCH  24  25
ATOM     25  C   UNL     1     -15.726  -9.075 -25.293  1.00  0.00    -0.000 C 
BRANCH  25  26
ATOM     26  C   UNL     1     -16.247 -10.473 -25.673  1.00  0.00    -0.000 C 
BRANCH  26  27
ATOM     27  C   UNL     1     -15.508 -11.601 -24.926  1.00  0.00    -0.000 C 
BRANCH  27  28
ATOM     28  C   UNL     1     -15.834 -12.995 -25.494  1.00  0.00    -0.000 C 
BRANCH  28  29
ATOM     29  C   UNL     1     -14.818 -14.084 -25.094  1.00  0.00    -0.000 C 
BRANCH  29  30
ATOM     30  C   UNL     1     -14.043 -14.651 -26.296  1.00  0.00    -0.000 C 
BRANCH  30  31
ATOM     31  C   UNL     1     -12.580 -14.180 -26.324  1.00  0.00    -0.003 C 
ATOM     32  C   UNL     1     -12.383 -12.814 -25.667  1.00  0.00     0.004 C 
ENDBRANCH  30  31
ENDBRANCH  29  30
ENDBRANCH  28  29
ENDBRANCH  27  28
ENDBRANCH  26  27
ENDBRANCH  25  26
ENDBRANCH  24  25
ENDBRANCH  23  24
ENDBRANCH  22  23
ENDBRANCH  21  22
ENDBRANCH  20  21
ENDBRANCH  19  20
ENDBRANCH  18  19
ENDBRANCH   1  18
TORSDOF 28
ENDMDL
MODEL 5
REMARK VINA RESULT:     2.647      1.121      1.694
REMARK INTER + INTRA:           6.198
REMARK INTER:                   7.325
REMARK INTRA:                  -1.127
REMARK UNBOUND:                -0.782
REMARK SMILES CCCCCCCCCCCCCCCCCCCCCCCCCCCCCC(=O)[O-]
REMARK SMILES IDX 16 1 17 2 18 3 19 4 20 5 21 6 22 7 23 8 24 9 25 10 26 11
REMARK SMILES IDX 27 12 28 13 29 14 30 15 31 16 32 17 15 18 14 19 13 20 12 21
REMARK SMILES IDX 11 22 10 23 9 24 8 25 7 26 6 27 5 28 4 29 3 30 2 31 1 32
REMARK H PARENT
REMARK Flexibility Score: inf
ROOT
ATOM      1  C   UNL     1     -16.627  -5.127 -21.253  1.00  0.00     0.000 C 
ENDROOT
BRANCH   1   2
ATOM      2  C   UNL     1     -15.776  -5.835 -20.177  1.00  0.00     0.000 C 
BRANCH   2   3
ATOM      3  C   UNL     1     -14.257  -5.734 -20.423  1.00  0.00     0.000 C 
BRANCH   3   4
ATOM      4  C   UNL     1     -13.375  -6.091 -19.214  1.00  0.00     0.000 C 
BRANCH   4   5
ATOM      5  C   UNL     1     -14.198  -6.458 -17.966  1.00  0.00     0.000 C 
BRANCH   5   6
ATOM      6  C   UNL     1     -13.336  -7.045 -16.834  1.00  0.00     0.000 C 
BRANCH   6   7
ATOM      7  C   UNL     1     -14.056  -7.213 -15.481  1.00  0.00     0.000 C 
BRANCH   7   8
ATOM      8  C   UNL     1     -14.032  -5.970 -14.570  1.00  0.00     0.000 C 
BRANCH   8   9
ATOM      9  C   UNL     1     -13.368  -4.717 -15.178  1.00  0.00     0.000 C 
BRANCH   9  10
ATOM     10  C   UNL     1     -14.136  -3.394 -14.973  1.00  0.00     0.000 C 
BRANCH  10  11
ATOM     11  C   UNL     1     -13.924  -2.728 -13.595  1.00  0.00     0.000 C 
BRANCH  11  12
ATOM     12  C   UNL     1     -12.465  -2.746 -13.098  1.00  0.00     0.000 C 
BRANCH  12  13
ATOM     13  C   UNL     1     -12.273  -3.448 -11.736  1.00  0.00     0.006 C 
BRANCH  13  14
ATOM     14  C   UNL     1     -13.549  -4.139 -11.226  1.00  0.00     0.053 C 
BRANCH  14  15
ATOM     15  C   UNL     1     -13.266  -5.022 -10.049  1.00  0.00     0.041 C 
ATOM     16  O   UNL     1     -12.121  -5.030  -9.524  1.00  0.00    -0.550 OA
ATOM     17  O   UNL     1     -14.263  -5.842  -9.535  1.00  0.00    -0.550 OA
ENDBRANCH  14  15
ENDBRANCH  13  14
ENDBRANCH  12  13
ENDBRANCH  11  12
ENDBRANCH  10  11
ENDBRANCH   9  10
ENDBRANCH   8   9
ENDBRANCH   7   8
ENDBRANCH   6   7
ENDBRANCH   5   6
ENDBRANCH   4   5
ENDBRANCH   3   4
ENDBRANCH   2   3
ENDBRANCH   1   2
BRANCH   1  18
ATOM     18  C   UNL     1     -17.329  -6.123 -22.192  1.00  0.00     0.000 C 
BRANCH  18  19
ATOM     19  C   UNL     1     -16.362  -6.807 -23.177  1.00  0.00     0.000 C 
BRANCH  19  20
ATOM     20  C   UNL     1     -16.827  -6.832 -24.646  1.00  0.00     0.000 C 
BRANCH  20  21
ATOM     21  C   UNL     1     -16.048  -7.842 -25.509  1.00  0.00     0.000 C 
BRANCH  21  22
ATOM     22  C   UNL     1     -15.899  -9.213 -24.830  1.00  0.00     0.000 C 
BRANCH  22  23
ATOM     23  C   UNL     1     -16.071 -10.386 -25.811  1.00  0.00     0.000 C 
BRANCH  23  24
ATOM     24  C   UNL     1     -15.122 -11.557 -25.493  1.00  0.00    -0.000 C 
BRANCH  24  25
ATOM     25  C   UNL     1     -15.823 -12.772 -24.844  1.00  0.00    -0.000 C 
BRANCH  25  26
ATOM     26  C   UNL     1     -15.989 -13.971 -25.795  1.00  0.00    -0.000 C 
BRANCH  26  27
ATOM     27  C   UNL     1     -14.785 -14.932 -25.750  1.00  0.00    -0.000 C 
BRANCH  27  28
ATOM     28  C   UNL     1     -13.794 -14.580 -24.624  1.00  0.00    -0.000 C 
BRANCH  28  29
ATOM     29  C   UNL     1     -12.359 -15.085 -24.878  1.00  0.00    -0.000 C 
BRANCH  29  30
ATOM     30  C   UNL     1     -11.984 -15.098 -26.371  1.00  0.00    -0.000 C 
BRANCH  30  31
ATOM     31  C   UNL     1     -12.338 -13.779 -27.075  1.00  0.00    -0.003 C 
ATOM     32  C   UNL     1     -11.876 -12.548 -26.296  1.00  0.00     0.004 C 
ENDBRANCH  30  31
ENDBRANCH  29  30
ENDBRANCH  28  29
ENDBRANCH  27  28
ENDBRANCH  26  27
ENDBRANCH  25  26
ENDBRANCH  24  25
ENDBRANCH  23  24
ENDBRANCH  22  23
ENDBRANCH  21  22
ENDBRANCH  20  21
ENDBRANCH  19  20
ENDBRANCH  18  19
ENDBRANCH   1  18
TORSDOF 28
ENDMDL
MODEL 6
REMARK VINA RESULT:     2.658      2.393      3.209
REMARK INTER + INTRA:           6.226
REMARK INTER:                   6.960
REMARK INTRA:                  -0.734
REMARK UNBOUND:                -0.782
REMARK SMILES CCCCCCCCCCCCCCCCCCCCCCCCCCCCCC(=O)[O-]
REMARK SMILES IDX 16 1 17 2 18 3 19 4 20 5 21 6 22 7 23 8 24 9 25 10 26 11
REMARK SMILES IDX 27 12 28 13 29 14 30 15 31 16 32 17 15 18 14 19 13 20 12 21
REMARK SMILES IDX 11 22 10 23 9 24 8 25 7 26 6 27 5 28 4 29 3 30 2 31 1 32
REMARK H PARENT
REMARK Flexibility Score: inf
ROOT
ATOM      1  C   UNL     1     -17.139  -6.107 -21.308  1.00  0.00     0.000 C 
ENDROOT
BRANCH   1   2
ATOM      2  C   UNL     1     -15.989  -5.405 -20.556  1.00  0.00     0.000 C 
BRANCH   2   3
ATOM      3  C   UNL     1     -15.076  -6.373 -19.775  1.00  0.00     0.000 C 
BRANCH   3   4
ATOM      4  C   UNL     1     -14.061  -5.700 -18.836  1.00  0.00     0.000 C 
BRANCH   4   5
ATOM      5  C   UNL     1     -13.187  -6.716 -18.080  1.00  0.00     0.000 C 
BRANCH   5   6
ATOM      6  C   UNL     1     -13.993  -7.577 -17.090  1.00  0.00     0.000 C 
BRANCH   6   7
ATOM      7  C   UNL     1     -13.395  -7.680 -15.673  1.00  0.00     0.000 C 
BRANCH   7   8
ATOM      8  C   UNL     1     -14.069  -6.786 -14.612  1.00  0.00     0.000 C 
BRANCH   8   9
ATOM      9  C   UNL     1     -13.824  -5.271 -14.773  1.00  0.00     0.000 C 
BRANCH   9  10
ATOM     10  C   UNL     1     -14.241  -4.401 -13.568  1.00  0.00     0.000 C 
BRANCH  10  11
ATOM     11  C   UNL     1     -13.143  -4.205 -12.499  1.00  0.00     0.000 C 
BRANCH  11  12
ATOM     12  C   UNL     1     -12.213  -3.002 -12.757  1.00  0.00     0.000 C 
BRANCH  12  13
ATOM     13  C   UNL     1     -12.749  -2.008 -13.809  1.00  0.00     0.006 C 
BRANCH  13  14
ATOM     14  C   UNL     1     -12.018  -2.101 -15.159  1.00  0.00     0.053 C 
BRANCH  14  15
ATOM     15  C   UNL     1     -12.977  -2.075 -16.310  1.00  0.00     0.041 C 
ATOM     16  O   UNL     1     -12.573  -1.779 -17.465  1.00  0.00    -0.550 OA
ATOM     17  O   UNL     1     -14.319  -2.371 -16.106  1.00  0.00    -0.550 OA
ENDBRANCH  14  15
ENDBRANCH  13  14
ENDBRANCH  12  13
ENDBRANCH  11  12
ENDBRANCH  10  11
ENDBRANCH   9  10
ENDBRANCH   8   9
ENDBRANCH   7   8
ENDBRANCH   6   7
ENDBRANCH   5   6
ENDBRANCH   4   5
ENDBRANCH   3   4
ENDBRANCH   2   3
ENDBRANCH   1   2
BRANCH   1  18
ATOM     18  C   UNL     1     -17.119  -5.807 -22.817  1.00  0.00     0.000 C 
BRANCH  18  19
ATOM     19  C   UNL     1     -16.746  -7.035 -23.670  1.00  0.00     0.000 C 
BRANCH  19  20
ATOM     20  C   UNL     1     -16.860  -6.836 -25.194  1.00  0.00     0.000 C 
BRANCH  20  21
ATOM     21  C   UNL     1     -15.770  -7.583 -25.984  1.00  0.00     0.000 C 
BRANCH  21  22
ATOM     22  C   UNL     1     -16.074  -9.081 -26.147  1.00  0.00     0.000 C 
BRANCH  22  23
ATOM     23  C   UNL     1     -15.481  -9.936 -25.015  1.00  0.00     0.000 C 
BRANCH  23  24
ATOM     24  C   UNL     1     -16.230 -11.270 -24.836  1.00  0.00    -0.000 C 
BRANCH  24  25
ATOM     25  C   UNL     1     -16.166 -12.195 -26.072  1.00  0.00    -0.000 C 
BRANCH  25  26
ATOM     26  C   UNL     1     -16.541 -13.657 -25.770  1.00  0.00    -0.000 C 
BRANCH  26  27
ATOM     27  C   UNL     1     -15.572 -14.321 -24.773  1.00  0.00    -0.000 C 
BRANCH  27  28
ATOM     28  C   UNL     1     -14.437 -15.089 -25.478  1.00  0.00    -0.000 C 
BRANCH  28  29
ATOM     29  C   UNL     1     -13.110 -15.099 -24.692  1.00  0.00    -0.000 C 
BRANCH  29  30
ATOM     30  C   UNL     1     -12.016 -14.243 -25.354  1.00  0.00    -0.000 C 
BRANCH  30  31
ATOM     31  C   UNL     1     -12.435 -13.725 -26.738  1.00  0.00    -0.003 C 
ATOM     32  C   UNL     1     -12.766 -14.851 -27.718  1.00  0.00     0.004 C 
ENDBRANCH  30  31
ENDBRANCH  29  30
ENDBRANCH  28  29
ENDBRANCH  27  28
ENDBRANCH  26  27
ENDBRANCH  25  26
ENDBRANCH  24  25
ENDBRANCH  23  24
ENDBRANCH  22  23
ENDBRANCH  21  22
ENDBRANCH  20  21
ENDBRANCH  19  20
ENDBRANCH  18  19
ENDBRANCH   1  18
TORSDOF 28
ENDMDL
MODEL 7
REMARK VINA RESULT:     2.859      1.631      2.705
REMARK INTER + INTRA:           6.757
REMARK INTER:                   8.569
REMARK INTRA:                  -1.812
REMARK UNBOUND:                -0.782
REMARK SMILES CCCCCCCCCCCCCCCCCCCCCCCCCCCCCC(=O)[O-]
REMARK SMILES IDX 16 1 17 2 18 3 19 4 20 5 21 6 22 7 23 8 24 9 25 10 26 11
REMARK SMILES IDX 27 12 28 13 29 14 30 15 31 16 32 17 15 18 14 19 13 20 12 21
REMARK SMILES IDX 11 22 10 23 9 24 8 25 7 26 6 27 5 28 4 29 3 30 2 31 1 32
REMARK H PARENT
REMARK Flexibility Score: inf
ROOT
ATOM      1  C   UNL     1     -16.337  -5.030 -20.133  1.00  0.00     0.000 C 
ENDROOT
BRANCH   1   2
ATOM      2  C   UNL     1     -15.391  -5.561 -19.035  1.00  0.00     0.000 C 
BRANCH   2   3
ATOM      3  C   UNL     1     -13.939  -5.767 -19.513  1.00  0.00     0.000 C 
BRANCH   3   4
ATOM      4  C   UNL     1     -13.210  -6.967 -18.886  1.00  0.00     0.000 C 
BRANCH   4   5
ATOM      5  C   UNL     1     -14.071  -8.242 -18.866  1.00  0.00     0.000 C 
BRANCH   5   6
ATOM      6  C   UNL     1     -14.079  -8.936 -17.491  1.00  0.00     0.000 C 
BRANCH   6   7
ATOM      7  C   UNL     1     -13.403  -8.146 -16.353  1.00  0.00     0.000 C 
BRANCH   7   8
ATOM      8  C   UNL     1     -14.366  -7.352 -15.448  1.00  0.00     0.000 C 
BRANCH   8   9
ATOM      9  C   UNL     1     -13.689  -6.415 -14.425  1.00  0.00     0.000 C 
BRANCH   9  10
ATOM     10  C   UNL     1     -13.620  -4.928 -14.833  1.00  0.00     0.000 C 
BRANCH  10  11
ATOM     11  C   UNL     1     -14.207  -3.944 -13.797  1.00  0.00     0.000 C 
BRANCH  11  12
ATOM     12  C   UNL     1     -13.305  -2.732 -13.490  1.00  0.00     0.000 C 
BRANCH  12  13
ATOM     13  C   UNL     1     -11.965  -3.100 -12.817  1.00  0.00     0.006 C 
BRANCH  13  14
ATOM     14  C   UNL     1     -12.133  -4.024 -11.599  1.00  0.00     0.053 C 
BRANCH  14  15
ATOM     15  C   UNL     1     -12.832  -3.328 -10.470  1.00  0.00     0.041 C 
ATOM     16  O   UNL     1     -13.907  -3.793 -10.008  1.00  0.00    -0.550 OA
ATOM     17  O   UNL     1     -12.301  -2.162  -9.933  1.00  0.00    -0.550 OA
ENDBRANCH  14  15
ENDBRANCH  13  14
ENDBRANCH  12  13
ENDBRANCH  11  12
ENDBRANCH  10  11
ENDBRANCH   9  10
ENDBRANCH   8   9
ENDBRANCH   7   8
ENDBRANCH   6   7
ENDBRANCH   5   6
ENDBRANCH   4   5
ENDBRANCH   3   4
ENDBRANCH   2   3
ENDBRANCH   1   2
BRANCH   1  18
ATOM     18  C   UNL     1     -16.908  -6.159 -21.008  1.00  0.00     0.000 C 
BRANCH  18  19
ATOM     19  C   UNL     1     -17.071  -5.754 -22.486  1.00  0.00     0.000 C 
BRANCH  19  20
ATOM     20  C   UNL     1     -17.094  -6.923 -23.491  1.00  0.00     0.000 C 
BRANCH  20  21
ATOM     21  C   UNL     1     -16.755  -6.490 -24.929  1.00  0.00     0.000 C 
BRANCH  21  22
ATOM     22  C   UNL     1     -15.953  -7.553 -25.696  1.00  0.00     0.000 C 
BRANCH  22  23
ATOM     23  C   UNL     1     -16.380  -8.989 -25.346  1.00  0.00     0.000 C 
BRANCH  23  24
ATOM     24  C   UNL     1     -15.263 -10.013 -25.622  1.00  0.00    -0.000 C 
BRANCH  24  25
ATOM     25  C   UNL     1     -15.431 -11.344 -24.854  1.00  0.00    -0.000 C 
BRANCH  25  26
ATOM     26  C   UNL     1     -16.638 -12.178 -25.320  1.00  0.00    -0.000 C 
BRANCH  26  27
ATOM     27  C   UNL     1     -16.218 -13.467 -26.054  1.00  0.00    -0.000 C 
BRANCH  27  28
ATOM     28  C   UNL     1     -15.590 -14.506 -25.105  1.00  0.00    -0.000 C 
BRANCH  28  29
ATOM     29  C   UNL     1     -14.095 -14.772 -25.375  1.00  0.00    -0.000 C 
BRANCH  29  30
ATOM     30  C   UNL     1     -13.227 -13.509 -25.237  1.00  0.00    -0.000 C 
BRANCH  30  31
ATOM     31  C   UNL     1     -11.875 -13.646 -25.954  1.00  0.00    -0.003 C 
ATOM     32  C   UNL     1     -11.994 -14.327 -27.318  1.00  0.00     0.004 C 
ENDBRANCH  30  31
ENDBRANCH  29  30
ENDBRANCH  28  29
ENDBRANCH  27  28
ENDBRANCH  26  27
ENDBRANCH  25  26
ENDBRANCH  24  25
ENDBRANCH  23  24
ENDBRANCH  22  23
ENDBRANCH  21  22
ENDBRANCH  20  21
ENDBRANCH  19  20
ENDBRANCH  18  19
ENDBRANCH   1  18
TORSDOF 28
ENDMDL
MODEL 8
REMARK VINA RESULT:     2.867      4.888     13.726
REMARK INTER + INTRA:           6.777
REMARK INTER:                   7.910
REMARK INTRA:                  -1.133
REMARK UNBOUND:                -0.782
REMARK SMILES CCCCCCCCCCCCCCCCCCCCCCCCCCCCCC(=O)[O-]
REMARK SMILES IDX 16 1 17 2 18 3 19 4 20 5 21 6 22 7 23 8 24 9 25 10 26 11
REMARK SMILES IDX 27 12 28 13 29 14 30 15 31 16 32 17 15 18 14 19 13 20 12 21
REMARK SMILES IDX 11 22 10 23 9 24 8 25 7 26 6 27 5 28 4 29 3 30 2 31 1 32
REMARK H PARENT
REMARK Flexibility Score: inf
ROOT
ATOM      1  C   UNL     1     -13.774  -9.482 -17.550  1.00  0.00     0.000 C 
ENDROOT
BRANCH   1   2
ATOM      2  C   UNL     1     -14.656  -8.604 -18.464  1.00  0.00     0.000 C 
BRANCH   2   3
ATOM      3  C   UNL     1     -13.852  -7.713 -19.432  1.00  0.00     0.000 C 
BRANCH   3   4
ATOM      4  C   UNL     1     -14.004  -6.199 -19.206  1.00  0.00     0.000 C 
BRANCH   4   5
ATOM      5  C   UNL     1     -14.789  -5.506 -20.333  1.00  0.00     0.000 C 
BRANCH   5   6
ATOM      6  C   UNL     1     -16.311  -5.522 -20.098  1.00  0.00     0.000 C 
BRANCH   6   7
ATOM      7  C   UNL     1     -17.128  -6.306 -21.144  1.00  0.00     0.000 C 
BRANCH   7   8
ATOM      8  C   UNL     1     -16.871  -5.903 -22.610  1.00  0.00     0.000 C 
BRANCH   8   9
ATOM      9  C   UNL     1     -17.240  -6.970 -23.663  1.00  0.00     0.000 C 
BRANCH   9  10
ATOM     10  C   UNL     1     -16.340  -7.001 -24.917  1.00  0.00     0.000 C 
BRANCH  10  11
ATOM     11  C   UNL     1     -16.481  -8.272 -25.783  1.00  0.00     0.000 C 
BRANCH  11  12
ATOM     12  C   UNL     1     -15.509  -9.409 -25.406  1.00  0.00     0.000 C 
BRANCH  12  13
ATOM     13  C   UNL     1     -16.184 -10.790 -25.260  1.00  0.00     0.006 C 
BRANCH  13  14
ATOM     14  C   UNL     1     -15.199 -11.910 -24.887  1.00  0.00     0.053 C 
BRANCH  14  15
ATOM     15  C   UNL     1     -15.687 -13.250 -25.345  1.00  0.00     0.041 C 
ATOM     16  O   UNL     1     -16.807 -13.358 -25.910  1.00  0.00    -0.550 OA
ATOM     17  O   UNL     1     -14.908 -14.383 -25.142  1.00  0.00    -0.550 OA
ENDBRANCH  14  15
ENDBRANCH  13  14
ENDBRANCH  12  13
ENDBRANCH  11  12
ENDBRANCH  10  11
ENDBRANCH   9  10
ENDBRANCH   8   9
ENDBRANCH   7   8
ENDBRANCH   6   7
ENDBRANCH   5   6
ENDBRANCH   4   5
ENDBRANCH   3   4
ENDBRANCH   2   3
ENDBRANCH   1   2
BRANCH   1  18
ATOM     18  C   UNL     1     -13.454  -8.794 -16.212  1.00  0.00     0.000 C 
BRANCH  18  19
ATOM     19  C   UNL     1     -13.972  -7.345 -16.139  1.00  0.00     0.000 C 
BRANCH  19  20
ATOM     20  C   UNL     1     -13.876  -6.680 -14.752  1.00  0.00     0.000 C 
BRANCH  20  21
ATOM     21  C   UNL     1     -13.731  -5.149 -14.824  1.00  0.00     0.000 C 
BRANCH  21  22
ATOM     22  C   UNL     1     -14.111  -4.580 -16.201  1.00  0.00     0.000 C 
BRANCH  22  23
ATOM     23  C   UNL     1     -14.152  -3.043 -16.219  1.00  0.00     0.000 C 
BRANCH  23  24
ATOM     24  C   UNL     1     -13.911  -2.436 -14.824  1.00  0.00    -0.000 C 
BRANCH  24  25
ATOM     25  C   UNL     1     -12.421  -2.375 -14.416  1.00  0.00    -0.000 C 
BRANCH  25  26
ATOM     26  C   UNL     1     -12.193  -1.870 -12.980  1.00  0.00    -0.000 C 
BRANCH  26  27
ATOM     27  C   UNL     1     -11.880  -3.013 -11.995  1.00  0.00    -0.000 C 
BRANCH  27  28
ATOM     28  C   UNL     1     -12.894  -4.168 -12.092  1.00  0.00    -0.000 C 
BRANCH  28  29
ATOM     29  C   UNL     1     -14.126  -3.994 -11.180  1.00  0.00    -0.000 C 
BRANCH  29  30
ATOM     30  C   UNL     1     -13.754  -3.573  -9.747  1.00  0.00    -0.000 C 
BRANCH  30  31
ATOM     31  C   UNL     1     -13.324  -4.766  -8.879  1.00  0.00    -0.003 C 
ATOM     32  C   UNL     1     -14.019  -6.069  -9.274  1.00  0.00     0.004 C 
ENDBRANCH  30  31
ENDBRANCH  29  30
ENDBRANCH  28  29
ENDBRANCH  27  28
ENDBRANCH  26  27
ENDBRANCH  25  26
ENDBRANCH  24  25
ENDBRANCH  23  24
ENDBRANCH  22  23
ENDBRANCH  21  22
ENDBRANCH  20  21
ENDBRANCH  19  20
ENDBRANCH  18  19
ENDBRANCH   1  18
TORSDOF 28
ENDMDL
