MODEL 1
REMARK VINA RESULT:    -6.258      0.000      0.000
REMARK INTER + INTRA:         -17.065
REMARK INTER:                 -14.307
REMARK INTRA:                  -2.757
REMARK UNBOUND:                -2.757
REMARK SMILES CCCCCCCCCCCCCCCCCCCCCCCC(=O)[O-]
REMARK SMILES IDX 13 1 14 2 15 3 16 4 17 5 18 6 19 7 20 8 21 9 22 10 23 11
REMARK SMILES IDX 24 12 25 13 26 14 12 15 11 16 10 17 9 18 8 19 7 20 6 21 5 22
REMARK SMILES IDX 4 23 3 24 2 25 1 26
REMARK H PARENT
REMARK Flexibility Score: inf
ROOT
ATOM      1  C   UNL     1      10.259   2.288  20.757  1.00  0.00     0.000 C 
ENDROOT
BRANCH   1   2
ATOM      2  C   UNL     1      10.181   3.737  20.247  1.00  0.00     0.000 C 
BRANCH   2   3
ATOM      3  C   UNL     1       9.472   4.679  21.237  1.00  0.00     0.000 C 
BRANCH   3   4
ATOM      4  C   UNL     1       8.359   5.553  20.622  1.00  0.00     0.000 C 
BRANCH   4   5
ATOM      5  C   UNL     1       7.695   4.978  19.356  1.00  0.00     0.000 C 
BRANCH   5   6
ATOM      6  C   UNL     1       7.998   5.744  18.051  1.00  0.00     0.000 C 
BRANCH   6   7
ATOM      7  C   UNL     1       8.957   6.938  18.201  1.00  0.00     0.000 C 
BRANCH   7   8
ATOM      8  C   UNL     1      10.413   6.578  17.858  1.00  0.00     0.000 C 
BRANCH   8   9
ATOM      9  C   UNL     1      11.440   7.492  18.555  1.00  0.00     0.000 C 
BRANCH   9  10
ATOM     10  C   UNL     1      11.905   7.016  19.945  1.00  0.00     0.006 C 
BRANCH  10  11
ATOM     11  C   UNL     1      11.345   7.868  21.091  1.00  0.00     0.053 C 
BRANCH  11  12
ATOM     12  C   UNL     1      12.403   8.768  21.649  1.00  0.00     0.041 C 
ATOM     13  O   UNL     1      12.086   9.740  22.385  1.00  0.00    -0.550 OA
ATOM     14  O   UNL     1      13.742   8.529  21.364  1.00  0.00    -0.550 OA
ENDBRANCH  11  12
ENDBRANCH  10  11
ENDBRANCH   9  10
ENDBRANCH   8   9
ENDBRANCH   7   8
ENDBRANCH   6   7
ENDBRANCH   5   6
ENDBRANCH   4   5
ENDBRANCH   3   4
ENDBRANCH   2   3
ENDBRANCH   1   2
BRANCH   1  15
ATOM     15  C   UNL     1      10.658   2.199  22.239  1.00  0.00     0.000 C 
BRANCH  15  16
ATOM     16  C   UNL     1      10.690   0.775  22.827  1.00  0.00     0.000 C 
BRANCH  16  17
ATOM     17  C   UNL     1      11.494   0.654  24.139  1.00  0.00     0.000 C 
BRANCH  17  18
ATOM     18  C   UNL     1      10.604   0.302  25.345  1.00  0.00    -0.000 C 
BRANCH  18  19
ATOM     19  C   UNL     1      11.405  -0.301  26.511  1.00  0.00    -0.000 C 
BRANCH  19  20
ATOM     20  C   UNL     1      12.613  -1.125  26.030  1.00  0.00    -0.000 C 
BRANCH  20  21
ATOM     21  C   UNL     1      13.857  -0.916  26.908  1.00  0.00    -0.000 C 
BRANCH  21  22
ATOM     22  C   UNL     1      13.720   0.297  27.846  1.00  0.00    -0.000 C 
BRANCH  22  23
ATOM     23  C   UNL     1      14.431   1.549  27.289  1.00  0.00    -0.000 C 
BRANCH  23  24
ATOM     24  C   UNL     1      15.424   1.240  26.155  1.00  0.00    -0.000 C 
BRANCH  24  25
ATOM     25  C   UNL     1      15.061   1.928  24.831  1.00  0.00    -0.003 C 
ATOM     26  C   UNL     1      13.946   2.951  25.033  1.00  0.00     0.004 C 
ENDBRANCH  24  25
ENDBRANCH  23  24
ENDBRANCH  22  23
ENDBRANCH  21  22
ENDBRANCH  20  21
ENDBRANCH  19  20
ENDBRANCH  18  19
ENDBRANCH  17  18
ENDBRANCH  16  17
ENDBRANCH  15  16
ENDBRANCH   1  15
TORSDOF 22
ENDMDL
MODEL 2
REMARK VINA RESULT:    -6.066      2.211      3.221
REMARK INTER + INTRA:         -16.626
REMARK INTER:                 -13.775
REMARK INTRA:                  -2.851
REMARK UNBOUND:                -2.757
REMARK SMILES CCCCCCCCCCCCCCCCCCCCCCCC(=O)[O-]
REMARK SMILES IDX 13 1 14 2 15 3 16 4 17 5 18 6 19 7 20 8 21 9 22 10 23 11
REMARK SMILES IDX 24 12 25 13 26 14 12 15 11 16 10 17 9 18 8 19 7 20 6 21 5 22
REMARK SMILES IDX 4 23 3 24 2 25 1 26
REMARK H PARENT
REMARK Flexibility Score: inf
ROOT
ATOM      1  C   UNL     1      10.387   1.363  21.535  1.00  0.00     0.000 C 
ENDROOT
BRANCH   1   2
ATOM      2  C   UNL     1      10.401   2.653  20.697  1.00  0.00     0.000 C 
BRANCH   2   3
ATOM      3  C   UNL     1       9.901   2.435  19.258  1.00  0.00     0.000 C 
BRANCH   3   4
ATOM      4  C   UNL     1      10.607   3.289  18.185  1.00  0.00     0.000 C 
BRANCH   4   5
ATOM      5  C   UNL     1      11.707   4.230  18.714  1.00  0.00     0.000 C 
BRANCH   5   6
ATOM      6  C   UNL     1      11.543   5.714  18.326  1.00  0.00     0.000 C 
BRANCH   6   7
ATOM      7  C   UNL     1      12.356   6.707  19.175  1.00  0.00     0.000 C 
BRANCH   7   8
ATOM      8  C   UNL     1      11.483   7.499  20.163  1.00  0.00     0.000 C 
BRANCH   8   9
ATOM      9  C   UNL     1      10.771   6.601  21.192  1.00  0.00     0.000 C 
BRANCH   9  10
ATOM     10  C   UNL     1       9.248   6.809  21.303  1.00  0.00     0.006 C 
BRANCH  10  11
ATOM     11  C   UNL     1       8.443   5.536  21.011  1.00  0.00     0.053 C 
BRANCH  11  12
ATOM     12  C   UNL     1       7.976   5.520  19.589  1.00  0.00     0.041 C 
ATOM     13  O   UNL     1       8.243   6.483  18.822  1.00  0.00    -0.550 OA
ATOM     14  O   UNL     1       7.252   4.437  19.106  1.00  0.00    -0.550 OA
ENDBRANCH  11  12
ENDBRANCH  10  11
ENDBRANCH   9  10
ENDBRANCH   8   9
ENDBRANCH   7   8
ENDBRANCH   6   7
ENDBRANCH   5   6
ENDBRANCH   4   5
ENDBRANCH   3   4
ENDBRANCH   2   3
ENDBRANCH   1   2
BRANCH   1  15
ATOM     15  C   UNL     1      10.918   1.574  22.962  1.00  0.00     0.000 C 
BRANCH  15  16
ATOM     16  C   UNL     1      11.030   0.298  23.818  1.00  0.00     0.000 C 
BRANCH  16  17
ATOM     17  C   UNL     1      10.385   0.418  25.215  1.00  0.00     0.000 C 
BRANCH  17  18
ATOM     18  C   UNL     1      11.386   0.137  26.351  1.00  0.00    -0.000 C 
BRANCH  18  19
ATOM     19  C   UNL     1      12.296  -1.065  26.049  1.00  0.00    -0.000 C 
BRANCH  19  20
ATOM     20  C   UNL     1      13.750  -0.827  26.493  1.00  0.00    -0.000 C 
BRANCH  20  21
ATOM     21  C   UNL     1      13.854   0.148  27.677  1.00  0.00    -0.000 C 
BRANCH  21  22
ATOM     22  C   UNL     1      14.613   1.438  27.314  1.00  0.00    -0.000 C 
BRANCH  22  23
ATOM     23  C   UNL     1      15.417   1.293  26.004  1.00  0.00    -0.000 C 
BRANCH  23  24
ATOM     24  C   UNL     1      14.957   2.250  24.890  1.00  0.00    -0.000 C 
BRANCH  24  25
ATOM     25  C   UNL     1      13.564   2.846  25.146  1.00  0.00    -0.003 C 
ATOM     26  C   UNL     1      13.347   4.107  24.313  1.00  0.00     0.004 C 
ENDBRANCH  24  25
ENDBRANCH  23  24
ENDBRANCH  22  23
ENDBRANCH  21  22
ENDBRANCH  20  21
ENDBRANCH  19  20
ENDBRANCH  18  19
ENDBRANCH  17  18
ENDBRANCH  16  17
ENDBRANCH  15  16
ENDBRANCH   1  15
TORSDOF 22
ENDMDL
MODEL 3
REMARK VINA RESULT:    -5.948      3.364      4.974
REMARK INTER + INTRA:         -16.355
REMARK INTER:                 -13.588
REMARK INTRA:                  -2.767
REMARK UNBOUND:                -2.757
REMARK SMILES CCCCCCCCCCCCCCCCCCCCCCCC(=O)[O-]
REMARK SMILES IDX 13 1 14 2 15 3 16 4 17 5 18 6 19 7 20 8 21 9 22 10 23 11
REMARK SMILES IDX 24 12 25 13 26 14 12 15 11 16 10 17 9 18 8 19 7 20 6 21 5 22
REMARK SMILES IDX 4 23 3 24 2 25 1 26
REMARK H PARENT
REMARK Flexibility Score: inf
ROOT
ATOM      1  C   UNL     1      12.049   3.881  22.630  1.00  0.00     0.000 C 
ENDROOT
BRANCH   1   2
ATOM      2  C   UNL     1      11.342   4.514  21.419  1.00  0.00     0.000 C 
BRANCH   2   3
ATOM      3  C   UNL     1      11.294   6.050  21.493  1.00  0.00     0.000 C 
BRANCH   3   4
ATOM      4  C   UNL     1       9.908   6.673  21.225  1.00  0.00     0.000 C 
BRANCH   4   5
ATOM      5  C   UNL     1       8.745   5.668  21.116  1.00  0.00     0.000 C 
BRANCH   5   6
ATOM      6  C   UNL     1       8.227   5.416  19.686  1.00  0.00     0.000 C 
BRANCH   6   7
ATOM      7  C   UNL     1       9.016   6.124  18.570  1.00  0.00     0.000 C 
BRANCH   7   8
ATOM      8  C   UNL     1       9.530   5.152  17.495  1.00  0.00     0.000 C 
BRANCH   8   9
ATOM      9  C   UNL     1      10.319   3.966  18.082  1.00  0.00     0.000 C 
BRANCH   9  10
ATOM     10  C   UNL     1       9.816   2.571  17.666  1.00  0.00     0.006 C 
BRANCH  10  11
ATOM     11  C   UNL     1       8.863   1.944  18.693  1.00  0.00     0.053 C 
BRANCH  11  12
ATOM     12  C   UNL     1       8.424   0.584  18.248  1.00  0.00     0.041 C 
ATOM     13  O   UNL     1       8.556  -0.408  19.014  1.00  0.00    -0.550 OA
ATOM     14  O   UNL     1       7.860   0.411  16.990  1.00  0.00    -0.550 OA
ENDBRANCH  11  12
ENDBRANCH  10  11
ENDBRANCH   9  10
ENDBRANCH   8   9
ENDBRANCH   7   8
ENDBRANCH   6   7
ENDBRANCH   5   6
ENDBRANCH   4   5
ENDBRANCH   3   4
ENDBRANCH   2   3
ENDBRANCH   1   2
BRANCH   1  15
ATOM     15  C   UNL     1      12.909   4.890  23.410  1.00  0.00     0.000 C 
BRANCH  15  16
ATOM     16  C   UNL     1      13.518   4.358  24.722  1.00  0.00     0.000 C 
BRANCH  16  17
ATOM     17  C   UNL     1      13.642   2.821  24.780  1.00  0.00     0.000 C 
BRANCH  17  18
ATOM     18  C   UNL     1      15.108   2.349  24.806  1.00  0.00    -0.000 C 
BRANCH  18  19
ATOM     19  C   UNL     1      15.384   1.352  25.943  1.00  0.00    -0.000 C 
BRANCH  19  20
ATOM     20  C   UNL     1      14.525   1.631  27.190  1.00  0.00    -0.000 C 
BRANCH  20  21
ATOM     21  C   UNL     1      13.709   0.405  27.630  1.00  0.00    -0.000 C 
BRANCH  21  22
ATOM     22  C   UNL     1      13.842  -0.775  26.650  1.00  0.00    -0.000 C 
BRANCH  22  23
ATOM     23  C   UNL     1      12.519  -1.073  25.912  1.00  0.00    -0.000 C 
BRANCH  23  24
ATOM     24  C   UNL     1      11.301  -0.355  26.519  1.00  0.00    -0.000 C 
BRANCH  24  25
ATOM     25  C   UNL     1      10.511   0.467  25.489  1.00  0.00    -0.003 C 
ATOM     26  C   UNL     1      11.186   0.424  24.120  1.00  0.00     0.004 C 
ENDBRANCH  24  25
ENDBRANCH  23  24
ENDBRANCH  22  23
ENDBRANCH  21  22
ENDBRANCH  20  21
ENDBRANCH  19  20
ENDBRANCH  18  19
ENDBRANCH  17  18
ENDBRANCH  16  17
ENDBRANCH  15  16
ENDBRANCH   1  15
TORSDOF 22
ENDMDL
MODEL 4
REMARK VINA RESULT:    -5.895      1.736      2.423
REMARK INTER + INTRA:         -16.235
REMARK INTER:                 -13.239
REMARK INTRA:                  -2.996
REMARK UNBOUND:                -2.757
REMARK SMILES CCCCCCCCCCCCCCCCCCCCCCCC(=O)[O-]
REMARK SMILES IDX 13 1 14 2 15 3 16 4 17 5 18 6 19 7 20 8 21 9 22 10 23 11
REMARK SMILES IDX 24 12 25 13 26 14 12 15 11 16 10 17 9 18 8 19 7 20 6 21 5 22
REMARK SMILES IDX 4 23 3 24 2 25 1 26
REMARK H PARENT
REMARK Flexibility Score: inf
ROOT
ATOM      1  C   UNL     1      10.188   1.904  20.655  1.00  0.00     0.000 C 
ENDROOT
BRANCH   1   2
ATOM      2  C   UNL     1      10.674   3.080  19.791  1.00  0.00     0.000 C 
BRANCH   2   3
ATOM      3  C   UNL     1       9.930   3.179  18.447  1.00  0.00     0.000 C 
BRANCH   3   4
ATOM      4  C   UNL     1       9.061   4.441  18.273  1.00  0.00     0.000 C 
BRANCH   4   5
ATOM      5  C   UNL     1       7.741   4.445  19.069  1.00  0.00     0.000 C 
BRANCH   5   6
ATOM      6  C   UNL     1       7.592   5.592  20.088  1.00  0.00     0.000 C 
BRANCH   6   7
ATOM      7  C   UNL     1       8.527   5.510  21.308  1.00  0.00     0.000 C 
BRANCH   7   8
ATOM      8  C   UNL     1       9.620   6.592  21.296  1.00  0.00     0.000 C 
BRANCH   8   9
ATOM      9  C   UNL     1      10.998   6.062  21.736  1.00  0.00     0.000 C 
BRANCH   9  10
ATOM     10  C   UNL     1      12.162   6.386  20.780  1.00  0.00     0.006 C 
BRANCH  10  11
ATOM     11  C   UNL     1      11.797   7.433  19.719  1.00  0.00     0.053 C 
BRANCH  11  12
ATOM     12  C   UNL     1      11.679   6.799  18.368  1.00  0.00     0.041 C 
ATOM     13  O   UNL     1      12.371   5.787  18.079  1.00  0.00    -0.550 OA
ATOM     14  O   UNL     1      10.796   7.319  17.430  1.00  0.00    -0.550 OA
ENDBRANCH  11  12
ENDBRANCH  10  11
ENDBRANCH   9  10
ENDBRANCH   8   9
ENDBRANCH   7   8
ENDBRANCH   6   7
ENDBRANCH   5   6
ENDBRANCH   4   5
ENDBRANCH   3   4
ENDBRANCH   2   3
ENDBRANCH   1   2
BRANCH   1  15
ATOM     15  C   UNL     1      10.634   2.020  22.122  1.00  0.00     0.000 C 
BRANCH  15  16
ATOM     16  C   UNL     1      10.625   0.701  22.919  1.00  0.00     0.000 C 
BRANCH  16  17
ATOM     17  C   UNL     1      11.458   0.744  24.217  1.00  0.00     0.000 C 
BRANCH  17  18
ATOM     18  C   UNL     1      10.646   0.314  25.453  1.00  0.00    -0.000 C 
BRANCH  18  19
ATOM     19  C   UNL     1      11.541  -0.184  26.600  1.00  0.00    -0.000 C 
BRANCH  19  20
ATOM     20  C   UNL     1      12.864  -0.786  26.094  1.00  0.00    -0.000 C 
BRANCH  20  21
ATOM     21  C   UNL     1      14.048  -0.476  27.024  1.00  0.00    -0.000 C 
BRANCH  21  22
ATOM     22  C   UNL     1      14.460   1.007  26.980  1.00  0.00    -0.000 C 
BRANCH  22  23
ATOM     23  C   UNL     1      15.487   1.294  25.863  1.00  0.00    -0.000 C 
BRANCH  23  24
ATOM     24  C   UNL     1      14.974   2.276  24.794  1.00  0.00    -0.000 C 
BRANCH  24  25
ATOM     25  C   UNL     1      13.644   2.942  25.175  1.00  0.00    -0.003 C 
ATOM     26  C   UNL     1      13.289   4.057  24.195  1.00  0.00     0.004 C 
ENDBRANCH  24  25
ENDBRANCH  23  24
ENDBRANCH  22  23
ENDBRANCH  21  22
ENDBRANCH  20  21
ENDBRANCH  19  20
ENDBRANCH  18  19
ENDBRANCH  17  18
ENDBRANCH  16  17
ENDBRANCH  15  16
ENDBRANCH   1  15
TORSDOF 22
ENDMDL
MODEL 5
REMARK VINA RESULT:    -5.868      2.263      8.581
REMARK INTER + INTRA:         -16.172
REMARK INTER:                 -13.629
REMARK INTRA:                  -2.544
REMARK UNBOUND:                -2.757
REMARK SMILES CCCCCCCCCCCCCCCCCCCCCCCC(=O)[O-]
REMARK SMILES IDX 13 1 14 2 15 3 16 4 17 5 18 6 19 7 20 8 21 9 22 10 23 11
REMARK SMILES IDX 24 12 25 13 26 14 12 15 11 16 10 17 9 18 8 19 7 20 6 21 5 22
REMARK SMILES IDX 4 23 3 24 2 25 1 26
REMARK H PARENT
REMARK Flexibility Score: inf
ROOT
ATOM      1  C   UNL     1      10.040   2.930  19.369  1.00  0.00     0.000 C 
ENDROOT
BRANCH   1   2
ATOM      2  C   UNL     1      10.533   3.153  20.809  1.00  0.00     0.000 C 
BRANCH   2   3
ATOM      3  C   UNL     1      10.267   1.945  21.725  1.00  0.00     0.000 C 
BRANCH   3   4
ATOM      4  C   UNL     1      11.189   1.844  22.957  1.00  0.00     0.000 C 
BRANCH   4   5
ATOM      5  C   UNL     1      11.155   0.491  23.694  1.00  0.00     0.000 C 
BRANCH   5   6
ATOM      6  C   UNL     1      10.254   0.447  24.945  1.00  0.00     0.000 C 
BRANCH   6   7
ATOM      7  C   UNL     1      10.972   0.081  26.257  1.00  0.00     0.000 C 
BRANCH   7   8
ATOM      8  C   UNL     1      12.145  -0.890  26.043  1.00  0.00     0.000 C 
BRANCH   8   9
ATOM      9  C   UNL     1      13.288  -0.687  27.055  1.00  0.00     0.000 C 
BRANCH   9  10
ATOM     10  C   UNL     1      14.521   0.062  26.512  1.00  0.00     0.006 C 
BRANCH  10  11
ATOM     11  C   UNL     1      14.405   1.586  26.642  1.00  0.00     0.053 C 
BRANCH  11  12
ATOM     12  C   UNL     1      14.641   2.250  25.321  1.00  0.00     0.041 C 
ATOM     13  O   UNL     1      13.807   3.079  24.869  1.00  0.00    -0.550 OA
ATOM     14  O   UNL     1      15.789   1.963  24.593  1.00  0.00    -0.550 OA
ENDBRANCH  11  12
ENDBRANCH  10  11
ENDBRANCH   9  10
ENDBRANCH   8   9
ENDBRANCH   7   8
ENDBRANCH   6   7
ENDBRANCH   5   6
ENDBRANCH   4   5
ENDBRANCH   3   4
ENDBRANCH   2   3
ENDBRANCH   1   2
BRANCH   1  15
ATOM     15  C   UNL     1      11.020   3.471  18.315  1.00  0.00     0.000 C 
BRANCH  15  16
ATOM     16  C   UNL     1      12.140   4.376  18.862  1.00  0.00     0.000 C 
BRANCH  16  17
ATOM     17  C   UNL     1      12.145   5.800  18.267  1.00  0.00     0.000 C 
BRANCH  17  18
ATOM     18  C   UNL     1      10.819   6.150  17.566  1.00  0.00    -0.000 C 
BRANCH  18  19
ATOM     19  C   UNL     1      10.439   7.630  17.734  1.00  0.00    -0.000 C 
BRANCH  19  20
ATOM     20  C   UNL     1       9.305   7.834  18.754  1.00  0.00    -0.000 C 
BRANCH  20  21
ATOM     21  C   UNL     1       9.056   6.586  19.617  1.00  0.00    -0.000 C 
BRANCH  21  22
ATOM     22  C   UNL     1       9.599   6.741  21.049  1.00  0.00    -0.000 C 
BRANCH  22  23
ATOM     23  C   UNL     1      10.581   7.925  21.176  1.00  0.00    -0.000 C 
BRANCH  23  24
ATOM     24  C   UNL     1      12.023   7.496  21.500  1.00  0.00    -0.000 C 
BRANCH  24  25
ATOM     25  C   UNL     1      13.003   8.678  21.565  1.00  0.00    -0.003 C 
ATOM     26  C   UNL     1      12.389   9.858  22.314  1.00  0.00     0.004 C 
ENDBRANCH  24  25
ENDBRANCH  23  24
ENDBRANCH  22  23
ENDBRANCH  21  22
ENDBRANCH  20  21
ENDBRANCH  19  20
ENDBRANCH  18  19
ENDBRANCH  17  18
ENDBRANCH  16  17
ENDBRANCH  15  16
ENDBRANCH   1  15
TORSDOF 22
ENDMDL
MODEL 6
REMARK VINA RESULT:    -5.857      1.061      2.080
REMARK INTER + INTRA:         -16.147
REMARK INTER:                 -13.731
REMARK INTRA:                  -2.415
REMARK UNBOUND:                -2.757
REMARK SMILES CCCCCCCCCCCCCCCCCCCCCCCC(=O)[O-]
REMARK SMILES IDX 13 1 14 2 15 3 16 4 17 5 18 6 19 7 20 8 21 9 22 10 23 11
REMARK SMILES IDX 24 12 25 13 26 14 12 15 11 16 10 17 9 18 8 19 7 20 6 21 5 22
REMARK SMILES IDX 4 23 3 24 2 25 1 26
REMARK H PARENT
REMARK Flexibility Score: inf
ROOT
ATOM      1  C   UNL     1       9.892   2.564  19.579  1.00  0.00     0.000 C 
ENDROOT
BRANCH   1   2
ATOM      2  C   UNL     1      10.609   3.381  18.490  1.00  0.00     0.000 C 
BRANCH   2   3
ATOM      3  C   UNL     1      11.760   4.237  19.049  1.00  0.00     0.000 C 
BRANCH   3   4
ATOM      4  C   UNL     1      12.323   5.291  18.073  1.00  0.00     0.000 C 
BRANCH   4   5
ATOM      5  C   UNL     1      11.830   6.733  18.308  1.00  0.00     0.000 C 
BRANCH   5   6
ATOM      6  C   UNL     1      10.422   7.042  17.761  1.00  0.00     0.000 C 
BRANCH   6   7
ATOM      7  C   UNL     1       9.407   7.535  18.807  1.00  0.00     0.000 C 
BRANCH   7   8
ATOM      8  C   UNL     1       9.074   6.468  19.863  1.00  0.00     0.000 C 
BRANCH   8   9
ATOM      9  C   UNL     1       9.563   6.844  21.275  1.00  0.00     0.000 C 
BRANCH   9  10
ATOM     10  C   UNL     1      10.452   8.101  21.349  1.00  0.00     0.006 C 
BRANCH  10  11
ATOM     11  C   UNL     1      11.951   7.777  21.364  1.00  0.00     0.053 C 
BRANCH  11  12
ATOM     12  C   UNL     1      12.719   8.854  22.066  1.00  0.00     0.041 C 
ATOM     13  O   UNL     1      12.190   9.978  22.272  1.00  0.00    -0.550 OA
ATOM     14  O   UNL     1      14.016   8.614  22.501  1.00  0.00    -0.550 OA
ENDBRANCH  11  12
ENDBRANCH  10  11
ENDBRANCH   9  10
ENDBRANCH   8   9
ENDBRANCH   7   8
ENDBRANCH   6   7
ENDBRANCH   5   6
ENDBRANCH   4   5
ENDBRANCH   3   4
ENDBRANCH   2   3
ENDBRANCH   1   2
BRANCH   1  15
ATOM     15  C   UNL     1      10.458   2.822  20.985  1.00  0.00     0.000 C 
BRANCH  15  16
ATOM     16  C   UNL     1      10.323   1.647  21.974  1.00  0.00     0.000 C 
BRANCH  16  17
ATOM     17  C   UNL     1      11.254   1.748  23.201  1.00  0.00     0.000 C 
BRANCH  17  18
ATOM     18  C   UNL     1      11.369   0.415  23.963  1.00  0.00    -0.000 C 
BRANCH  18  19
ATOM     19  C   UNL     1      10.624   0.441  25.308  1.00  0.00    -0.000 C 
BRANCH  19  20
ATOM     20  C   UNL     1      11.539   0.089  26.494  1.00  0.00    -0.000 C 
BRANCH  20  21
ATOM     21  C   UNL     1      12.492  -1.075  26.180  1.00  0.00    -0.000 C 
BRANCH  21  22
ATOM     22  C   UNL     1      13.973  -0.680  26.324  1.00  0.00    -0.000 C 
BRANCH  22  23
ATOM     23  C   UNL     1      14.144   0.733  26.922  1.00  0.00    -0.000 C 
BRANCH  23  24
ATOM     24  C   UNL     1      15.392   1.473  26.407  1.00  0.00    -0.000 C 
BRANCH  24  25
ATOM     25  C   UNL     1      15.221   2.020  24.982  1.00  0.00    -0.003 C 
ATOM     26  C   UNL     1      14.039   2.983  24.903  1.00  0.00     0.004 C 
ENDBRANCH  24  25
ENDBRANCH  23  24
ENDBRANCH  22  23
ENDBRANCH  21  22
ENDBRANCH  20  21
ENDBRANCH  19  20
ENDBRANCH  18  19
ENDBRANCH  17  18
ENDBRANCH  16  17
ENDBRANCH  15  16
ENDBRANCH   1  15
TORSDOF 22
ENDMDL
MODEL 7
REMARK VINA RESULT:    -5.844      2.402      3.592
REMARK INTER + INTRA:         -16.118
REMARK INTER:                 -13.526
REMARK INTRA:                  -2.592
REMARK UNBOUND:                -2.757
REMARK SMILES CCCCCCCCCCCCCCCCCCCCCCCC(=O)[O-]
REMARK SMILES IDX 13 1 14 2 15 3 16 4 17 5 18 6 19 7 20 8 21 9 22 10 23 11
REMARK SMILES IDX 24 12 25 13 26 14 12 15 11 16 10 17 9 18 8 19 7 20 6 21 5 22
REMARK SMILES IDX 4 23 3 24 2 25 1 26
REMARK H PARENT
REMARK Flexibility Score: inf
ROOT
ATOM      1  C   UNL     1       9.849   2.149  19.994  1.00  0.00     0.000 C 
ENDROOT
BRANCH   1   2
ATOM      2  C   UNL     1       9.988   2.667  18.552  1.00  0.00     0.000 C 
BRANCH   2   3
ATOM      3  C   UNL     1      11.299   3.439  18.320  1.00  0.00     0.000 C 
BRANCH   3   4
ATOM      4  C   UNL     1      11.125   4.925  17.947  1.00  0.00     0.000 C 
BRANCH   4   5
ATOM      5  C   UNL     1      12.311   5.839  18.315  1.00  0.00     0.000 C 
BRANCH   5   6
ATOM      6  C   UNL     1      11.927   7.268  18.750  1.00  0.00     0.000 C 
BRANCH   6   7
ATOM      7  C   UNL     1      12.137   7.576  20.243  1.00  0.00     0.000 C 
BRANCH   7   8
ATOM      8  C   UNL     1      11.551   6.492  21.163  1.00  0.00     0.000 C 
BRANCH   8   9
ATOM      9  C   UNL     1      10.116   6.807  21.628  1.00  0.00     0.000 C 
BRANCH   9  10
ATOM     10  C   UNL     1       9.046   6.778  20.520  1.00  0.00     0.006 C 
BRANCH  10  11
ATOM     11  C   UNL     1       8.120   5.557  20.609  1.00  0.00     0.053 C 
BRANCH  11  12
ATOM     12  C   UNL     1       7.636   5.159  19.250  1.00  0.00     0.041 C 
ATOM     13  O   UNL     1       7.856   5.901  18.255  1.00  0.00    -0.550 OA
ATOM     14  O   UNL     1       6.951   3.963  19.077  1.00  0.00    -0.550 OA
ENDBRANCH  11  12
ENDBRANCH  10  11
ENDBRANCH   9  10
ENDBRANCH   8   9
ENDBRANCH   7   8
ENDBRANCH   6   7
ENDBRANCH   5   6
ENDBRANCH   4   5
ENDBRANCH   3   4
ENDBRANCH   2   3
ENDBRANCH   1   2
BRANCH   1  15
ATOM     15  C   UNL     1      10.549   3.054  21.021  1.00  0.00     0.000 C 
BRANCH  15  16
ATOM     16  C   UNL     1      10.625   2.488  22.452  1.00  0.00     0.000 C 
BRANCH  16  17
ATOM     17  C   UNL     1      10.742   0.950  22.514  1.00  0.00     0.000 C 
BRANCH  17  18
ATOM     18  C   UNL     1      11.285   0.455  23.868  1.00  0.00    -0.000 C 
BRANCH  18  19
ATOM     19  C   UNL     1      10.221   0.493  24.977  1.00  0.00    -0.000 C 
BRANCH  19  20
ATOM     20  C   UNL     1      10.685  -0.216  26.262  1.00  0.00    -0.000 C 
BRANCH  20  21
ATOM     21  C   UNL     1      12.104   0.196  26.684  1.00  0.00    -0.000 C 
BRANCH  21  22
ATOM     22  C   UNL     1      13.122  -0.947  26.522  1.00  0.00    -0.000 C 
BRANCH  22  23
ATOM     23  C   UNL     1      14.580  -0.451  26.641  1.00  0.00    -0.000 C 
BRANCH  23  24
ATOM     24  C   UNL     1      14.701   1.078  26.771  1.00  0.00    -0.000 C 
BRANCH  24  25
ATOM     25  C   UNL     1      15.171   1.757  25.477  1.00  0.00    -0.003 C 
ATOM     26  C   UNL     1      14.077   2.651  24.899  1.00  0.00     0.004 C 
ENDBRANCH  24  25
ENDBRANCH  23  24
ENDBRANCH  22  23
ENDBRANCH  21  22
ENDBRANCH  20  21
ENDBRANCH  19  20
ENDBRANCH  18  19
ENDBRANCH  17  18
ENDBRANCH  16  17
ENDBRANCH  15  16
ENDBRANCH   1  15
TORSDOF 22
ENDMDL
MODEL 8
REMARK VINA RESULT:    -5.844      1.263      2.835
REMARK INTER + INTRA:         -16.116
REMARK INTER:                 -13.188
REMARK INTRA:                  -2.928
REMARK UNBOUND:                -2.757
REMARK SMILES CCCCCCCCCCCCCCCCCCCCCCCC(=O)[O-]
REMARK SMILES IDX 13 1 14 2 15 3 16 4 17 5 18 6 19 7 20 8 21 9 22 10 23 11
REMARK SMILES IDX 24 12 25 13 26 14 12 15 11 16 10 17 9 18 8 19 7 20 6 21 5 22
REMARK SMILES IDX 4 23 3 24 2 25 1 26
REMARK H PARENT
REMARK Flexibility Score: inf
ROOT
ATOM      1  C   UNL     1      10.899   3.474  18.253  1.00  0.00     0.000 C 
ENDROOT
BRANCH   1   2
ATOM      2  C   UNL     1      11.845   4.432  18.996  1.00  0.00     0.000 C 
BRANCH   2   3
ATOM      3  C   UNL     1      11.902   5.830  18.354  1.00  0.00     0.000 C 
BRANCH   3   4
ATOM      4  C   UNL     1      10.739   6.156  17.395  1.00  0.00     0.000 C 
BRANCH   4   5
ATOM      5  C   UNL     1       9.894   7.386  17.780  1.00  0.00     0.000 C 
BRANCH   5   6
ATOM      6  C   UNL     1       8.424   7.086  18.135  1.00  0.00     0.000 C 
BRANCH   6   7
ATOM      7  C   UNL     1       8.031   5.598  18.097  1.00  0.00     0.000 C 
BRANCH   7   8
ATOM      8  C   UNL     1       7.696   5.036  19.489  1.00  0.00     0.000 C 
BRANCH   8   9
ATOM      9  C   UNL     1       8.023   6.017  20.631  1.00  0.00     0.000 C 
BRANCH   9  10
ATOM     10  C   UNL     1       9.422   5.852  21.257  1.00  0.00     0.006 C 
BRANCH  10  11
ATOM     11  C   UNL     1      10.160   7.185  21.439  1.00  0.00     0.053 C 
BRANCH  11  12
ATOM     12  C   UNL     1      11.606   6.951  21.751  1.00  0.00     0.041 C 
ATOM     13  O   UNL     1      12.446   7.878  21.599  1.00  0.00    -0.550 OA
ATOM     14  O   UNL     1      12.025   5.713  22.221  1.00  0.00    -0.550 OA
ENDBRANCH  11  12
ENDBRANCH  10  11
ENDBRANCH   9  10
ENDBRANCH   8   9
ENDBRANCH   7   8
ENDBRANCH   6   7
ENDBRANCH   5   6
ENDBRANCH   4   5
ENDBRANCH   3   4
ENDBRANCH   2   3
ENDBRANCH   1   2
BRANCH   1  15
ATOM     15  C   UNL     1      10.173   2.503  19.199  1.00  0.00     0.000 C 
BRANCH  15  16
ATOM     16  C   UNL     1      10.400   2.757  20.702  1.00  0.00     0.000 C 
BRANCH  16  17
ATOM     17  C   UNL     1      10.319   1.486  21.574  1.00  0.00     0.000 C 
BRANCH  17  18
ATOM     18  C   UNL     1      11.023   1.658  22.933  1.00  0.00    -0.000 C 
BRANCH  18  19
ATOM     19  C   UNL     1      11.004   0.369  23.771  1.00  0.00    -0.000 C 
BRANCH  19  20
ATOM     20  C   UNL     1      10.562   0.620  25.224  1.00  0.00    -0.000 C 
BRANCH  20  21
ATOM     21  C   UNL     1      11.278  -0.300  26.226  1.00  0.00    -0.000 C 
BRANCH  21  22
ATOM     22  C   UNL     1      12.546  -0.942  25.636  1.00  0.00    -0.000 C 
BRANCH  22  23
ATOM     23  C   UNL     1      13.603  -1.251  26.718  1.00  0.00    -0.000 C 
BRANCH  23  24
ATOM     24  C   UNL     1      14.801  -0.285  26.702  1.00  0.00    -0.000 C 
BRANCH  24  25
ATOM     25  C   UNL     1      14.428   1.130  26.237  1.00  0.00    -0.003 C 
ATOM     26  C   UNL     1      15.434   1.656  25.216  1.00  0.00     0.004 C 
ENDBRANCH  24  25
ENDBRANCH  23  24
ENDBRANCH  22  23
ENDBRANCH  21  22
ENDBRANCH  20  21
ENDBRANCH  19  20
ENDBRANCH  18  19
ENDBRANCH  17  18
ENDBRANCH  16  17
ENDBRANCH  15  16
ENDBRANCH   1  15
TORSDOF 22
ENDMDL
MODEL 9
REMARK VINA RESULT:    -5.726      1.382      2.124
REMARK INTER + INTRA:         -15.848
REMARK INTER:                 -13.235
REMARK INTRA:                  -2.613
REMARK UNBOUND:                -2.757
REMARK SMILES CCCCCCCCCCCCCCCCCCCCCCCC(=O)[O-]
REMARK SMILES IDX 13 1 14 2 15 3 16 4 17 5 18 6 19 7 20 8 21 9 22 10 23 11
REMARK SMILES IDX 24 12 25 13 26 14 12 15 11 16 10 17 9 18 8 19 7 20 6 21 5 22
REMARK SMILES IDX 4 23 3 24 2 25 1 26
REMARK H PARENT
REMARK Flexibility Score: inf
ROOT
ATOM      1  C   UNL     1      10.008   3.551  21.002  1.00  0.00     0.000 C 
ENDROOT
BRANCH   1   2
ATOM      2  C   UNL     1       9.902   2.689  19.733  1.00  0.00     0.000 C 
BRANCH   2   3
ATOM      3  C   UNL     1       8.894   3.250  18.714  1.00  0.00     0.000 C 
BRANCH   3   4
ATOM      4  C   UNL     1       8.027   4.417  19.228  1.00  0.00     0.000 C 
BRANCH   4   5
ATOM      5  C   UNL     1       7.897   5.614  18.266  1.00  0.00     0.000 C 
BRANCH   5   6
ATOM      6  C   UNL     1       9.066   5.789  17.276  1.00  0.00     0.000 C 
BRANCH   6   7
ATOM      7  C   UNL     1       9.620   7.220  17.164  1.00  0.00     0.000 C 
BRANCH   7   8
ATOM      8  C   UNL     1      11.041   7.356  17.739  1.00  0.00     0.000 C 
BRANCH   8   9
ATOM      9  C   UNL     1      11.267   6.491  18.994  1.00  0.00     0.000 C 
BRANCH   9  10
ATOM     10  C   UNL     1      10.815   7.129  20.322  1.00  0.00     0.006 C 
BRANCH  10  11
ATOM     11  C   UNL     1      11.917   7.141  21.390  1.00  0.00     0.053 C 
BRANCH  11  12
ATOM     12  C   UNL     1      12.608   8.468  21.423  1.00  0.00     0.041 C 
ATOM     13  O   UNL     1      12.168   9.394  22.155  1.00  0.00    -0.550 OA
ATOM     14  O   UNL     1      13.744   8.681  20.653  1.00  0.00    -0.550 OA
ENDBRANCH  11  12
ENDBRANCH  10  11
ENDBRANCH   9  10
ENDBRANCH   8   9
ENDBRANCH   7   8
ENDBRANCH   6   7
ENDBRANCH   5   6
ENDBRANCH   4   5
ENDBRANCH   3   4
ENDBRANCH   2   3
ENDBRANCH   1   2
BRANCH   1  15
ATOM     15  C   UNL     1      10.813   2.867  22.120  1.00  0.00     0.000 C 
BRANCH  15  16
ATOM     16  C   UNL     1      10.632   1.339  22.220  1.00  0.00     0.000 C 
BRANCH  16  17
ATOM     17  C   UNL     1      11.046   0.745  23.582  1.00  0.00     0.000 C 
BRANCH  17  18
ATOM     18  C   UNL     1      12.135   1.579  24.283  1.00  0.00    -0.000 C 
BRANCH  18  19
ATOM     19  C   UNL     1      12.608   0.941  25.599  1.00  0.00    -0.000 C 
BRANCH  19  20
ATOM     20  C   UNL     1      11.825  -0.337  25.948  1.00  0.00    -0.000 C 
BRANCH  20  21
ATOM     21  C   UNL     1      12.744  -1.502  26.350  1.00  0.00    -0.000 C 
BRANCH  21  22
ATOM     22  C   UNL     1      14.228  -1.204  26.073  1.00  0.00    -0.000 C 
BRANCH  22  23
ATOM     23  C   UNL     1      15.107  -1.404  27.326  1.00  0.00    -0.000 C 
BRANCH  23  24
ATOM     24  C   UNL     1      14.315  -1.368  28.646  1.00  0.00    -0.000 C 
BRANCH  24  25
ATOM     25  C   UNL     1      14.428  -0.024  29.380  1.00  0.00    -0.003 C 
ATOM     26  C   UNL     1      13.111   0.746  29.319  1.00  0.00     0.004 C 
ENDBRANCH  24  25
ENDBRANCH  23  24
ENDBRANCH  22  23
ENDBRANCH  21  22
ENDBRANCH  20  21
ENDBRANCH  19  20
ENDBRANCH  18  19
ENDBRANCH  17  18
ENDBRANCH  16  17
ENDBRANCH  15  16
ENDBRANCH   1  15
TORSDOF 22
ENDMDL
