MODEL 1
REMARK VINA RESULT:    -5.508      0.000      0.000
REMARK INTER + INTRA:         -12.648
REMARK INTER:                 -10.659
REMARK INTRA:                  -1.989
REMARK UNBOUND:                -1.989
REMARK SMILES CCCCCCCCCCCCCCCCCC(=O)[O-]
REMARK SMILES IDX 10 1 11 2 12 3 13 4 14 5 15 6 16 7 17 8 18 9 19 10 20 11
REMARK SMILES IDX 9 12 8 13 7 14 6 15 5 16 4 17 3 18 2 19 1 20
REMARK H PARENT
REMARK Flexibility Score: inf
ROOT
ATOM      1  C   UNL     1      10.083  21.117  -7.167  1.00  0.00     0.000 C 
ENDROOT
BRANCH   1   2
ATOM      2  C   UNL     1      10.570  21.236  -8.619  1.00  0.00     0.000 C 
BRANCH   2   3
ATOM      3  C   UNL     1      10.124  22.569  -9.238  1.00  0.00     0.000 C 
BRANCH   3   4
ATOM      4  C   UNL     1      11.100  23.080 -10.310  1.00  0.00     0.000 C 
BRANCH   4   5
ATOM      5  C   UNL     1      11.833  24.360  -9.881  1.00  0.00     0.000 C 
BRANCH   5   6
ATOM      6  C   UNL     1      12.185  24.316  -8.389  1.00  0.00     0.000 C 
BRANCH   6   7
ATOM      7  C   UNL     1      13.661  23.951  -8.181  1.00  0.00     0.006 C 
BRANCH   7   8
ATOM      8  C   UNL     1      13.801  22.544  -7.591  1.00  0.00     0.053 C 
BRANCH   8   9
ATOM      9  C   UNL     1      13.910  22.611  -6.100  1.00  0.00     0.041 C 
ATOM     10  O   UNL     1      12.905  22.364  -5.381  1.00  0.00    -0.550 OA
ATOM     11  O   UNL     1      15.131  22.899  -5.504  1.00  0.00    -0.550 OA
ENDBRANCH   8   9
ENDBRANCH   7   8
ENDBRANCH   6   7
ENDBRANCH   5   6
ENDBRANCH   4   5
ENDBRANCH   3   4
ENDBRANCH   2   3
ENDBRANCH   1   2
BRANCH   1  12
ATOM     12  C   UNL     1       9.335  22.371  -6.686  1.00  0.00     0.000 C 
BRANCH  12  13
ATOM     13  C   UNL     1       8.557  22.130  -5.380  1.00  0.00    -0.000 C 
BRANCH  13  14
ATOM     14  C   UNL     1       7.351  23.073  -5.216  1.00  0.00    -0.000 C 
BRANCH  14  15
ATOM     15  C   UNL     1       6.597  23.416  -6.515  1.00  0.00    -0.000 C 
BRANCH  15  16
ATOM     16  C   UNL     1       6.962  24.800  -7.075  1.00  0.00    -0.000 C 
BRANCH  16  17
ATOM     17  C   UNL     1       7.368  24.754  -8.558  1.00  0.00    -0.000 C 
BRANCH  17  18
ATOM     18  C   UNL     1       6.237  24.281  -9.496  1.00  0.00    -0.000 C 
BRANCH  18  19
ATOM     19  C   UNL     1       6.591  22.972 -10.216  1.00  0.00    -0.003 C 
ATOM     20  C   UNL     1       5.357  22.095 -10.407  1.00  0.00     0.004 C 
ENDBRANCH  18  19
ENDBRANCH  17  18
ENDBRANCH  16  17
ENDBRANCH  15  16
ENDBRANCH  14  15
ENDBRANCH  13  14
ENDBRANCH  12  13
ENDBRANCH   1  12
TORSDOF 16
ENDMDL
MODEL 2
REMARK VINA RESULT:    -5.476      1.147      1.604
REMARK INTER + INTRA:         -12.587
REMARK INTER:                 -10.500
REMARK INTRA:                  -2.087
REMARK UNBOUND:                -1.989
REMARK SMILES CCCCCCCCCCCCCCCCCC(=O)[O-]
REMARK SMILES IDX 10 1 11 2 12 3 13 4 14 5 15 6 16 7 17 8 18 9 19 10 20 11
REMARK SMILES IDX 9 12 8 13 7 14 6 15 5 16 4 17 3 18 2 19 1 20
REMARK H PARENT
REMARK Flexibility Score: inf
ROOT
ATOM      1  C   UNL     1       9.801  22.230  -6.523  1.00  0.00     0.000 C 
ENDROOT
BRANCH   1   2
ATOM      2  C   UNL     1      10.054  21.318  -7.733  1.00  0.00     0.000 C 
BRANCH   2   3
ATOM      3  C   UNL     1       9.233  21.778  -8.947  1.00  0.00     0.000 C 
BRANCH   3   4
ATOM      4  C   UNL     1       9.904  22.930  -9.712  1.00  0.00     0.000 C 
BRANCH   4   5
ATOM      5  C   UNL     1      11.431  22.939  -9.549  1.00  0.00     0.000 C 
BRANCH   5   6
ATOM      6  C   UNL     1      11.934  24.340  -9.180  1.00  0.00     0.000 C 
BRANCH   6   7
ATOM      7  C   UNL     1      13.178  24.262  -8.287  1.00  0.00     0.006 C 
BRANCH   7   8
ATOM      8  C   UNL     1      13.369  22.847  -7.733  1.00  0.00     0.053 C 
BRANCH   8   9
ATOM      9  C   UNL     1      13.867  22.899  -6.323  1.00  0.00     0.041 C 
ATOM     10  O   UNL     1      13.213  22.346  -5.400  1.00  0.00    -0.550 OA
ATOM     11  O   UNL     1      15.077  23.518  -6.036  1.00  0.00    -0.550 OA
ENDBRANCH   8   9
ENDBRANCH   7   8
ENDBRANCH   6   7
ENDBRANCH   5   6
ENDBRANCH   4   5
ENDBRANCH   3   4
ENDBRANCH   2   3
ENDBRANCH   1   2
BRANCH   1  12
ATOM     12  C   UNL     1       8.480  21.911  -5.804  1.00  0.00     0.000 C 
BRANCH  12  13
ATOM     13  C   UNL     1       7.630  23.167  -5.546  1.00  0.00    -0.000 C 
BRANCH  13  14
ATOM     14  C   UNL     1       6.713  23.526  -6.730  1.00  0.00    -0.000 C 
BRANCH  14  15
ATOM     15  C   UNL     1       7.198  24.692  -7.613  1.00  0.00    -0.000 C 
BRANCH  15  16
ATOM     16  C   UNL     1       6.781  24.546  -9.085  1.00  0.00    -0.000 C 
BRANCH  16  17
ATOM     17  C   UNL     1       5.881  23.322  -9.330  1.00  0.00    -0.000 C 
BRANCH  17  18
ATOM     18  C   UNL     1       5.420  23.175 -10.795  1.00  0.00    -0.000 C 
BRANCH  18  19
ATOM     19  C   UNL     1       4.723  24.442 -11.313  1.00  0.00    -0.003 C 
ATOM     20  C   UNL     1       4.410  24.330 -12.802  1.00  0.00     0.004 C 
ENDBRANCH  18  19
ENDBRANCH  17  18
ENDBRANCH  16  17
ENDBRANCH  15  16
ENDBRANCH  14  15
ENDBRANCH  13  14
ENDBRANCH  12  13
ENDBRANCH   1  12
TORSDOF 16
ENDMDL
MODEL 3
REMARK VINA RESULT:    -5.440      3.895      7.072
REMARK INTER + INTRA:         -12.517
REMARK INTER:                 -10.275
REMARK INTRA:                  -2.242
REMARK UNBOUND:                -1.989
REMARK SMILES CCCCCCCCCCCCCCCCCC(=O)[O-]
REMARK SMILES IDX 10 1 11 2 12 3 13 4 14 5 15 6 16 7 17 8 18 9 19 10 20 11
REMARK SMILES IDX 9 12 8 13 7 14 6 15 5 16 4 17 3 18 2 19 1 20
REMARK H PARENT
REMARK Flexibility Score: inf
ROOT
ATOM      1  C   UNL     1       8.094  22.164  -5.265  1.00  0.00     0.000 C 
ENDROOT
BRANCH   1   2
ATOM      2  C   UNL     1       7.421  23.515  -5.552  1.00  0.00     0.000 C 
BRANCH   2   3
ATOM      3  C   UNL     1       6.777  23.519  -6.947  1.00  0.00     0.000 C 
BRANCH   3   4
ATOM      4  C   UNL     1       7.355  24.611  -7.862  1.00  0.00     0.000 C 
BRANCH   4   5
ATOM      5  C   UNL     1       6.735  24.596  -9.267  1.00  0.00     0.000 C 
BRANCH   5   6
ATOM      6  C   UNL     1       6.055  23.251  -9.552  1.00  0.00     0.000 C 
BRANCH   6   7
ATOM      7  C   UNL     1       4.767  23.445 -10.362  1.00  0.00     0.006 C 
BRANCH   7   8
ATOM      8  C   UNL     1       5.064  24.086 -11.721  1.00  0.00     0.053 C 
BRANCH   8   9
ATOM      9  C   UNL     1       4.244  25.324 -11.906  1.00  0.00     0.041 C 
ATOM     10  O   UNL     1       3.025  25.236 -12.212  1.00  0.00    -0.550 OA
ATOM     11  O   UNL     1       4.814  26.573 -11.694  1.00  0.00    -0.550 OA
ENDBRANCH   8   9
ENDBRANCH   7   8
ENDBRANCH   6   7
ENDBRANCH   5   6
ENDBRANCH   4   5
ENDBRANCH   3   4
ENDBRANCH   2   3
ENDBRANCH   1   2
BRANCH   1  12
ATOM     12  C   UNL     1       9.496  22.054  -5.887  1.00  0.00     0.000 C 
BRANCH  12  13
ATOM     13  C   UNL     1       9.636  20.835  -6.815  1.00  0.00    -0.000 C 
BRANCH  13  14
ATOM     14  C   UNL     1      10.328  21.172  -8.150  1.00  0.00    -0.000 C 
BRANCH  14  15
ATOM     15  C   UNL     1       9.428  21.833  -9.212  1.00  0.00    -0.000 C 
BRANCH  15  16
ATOM     16  C   UNL     1      10.050  23.099  -9.823  1.00  0.00    -0.000 C 
BRANCH  16  17
ATOM     17  C   UNL     1      10.859  23.917  -8.801  1.00  0.00    -0.000 C 
BRANCH  17  18
ATOM     18  C   UNL     1      12.216  24.416  -9.342  1.00  0.00    -0.000 C 
BRANCH  18  19
ATOM     19  C   UNL     1      13.320  24.356  -8.277  1.00  0.00    -0.003 C 
ATOM     20  C   UNL     1      13.217  23.081  -7.445  1.00  0.00     0.004 C 
ENDBRANCH  18  19
ENDBRANCH  17  18
ENDBRANCH  16  17
ENDBRANCH  15  16
ENDBRANCH  14  15
ENDBRANCH  13  14
ENDBRANCH  12  13
ENDBRANCH   1  12
TORSDOF 16
ENDMDL
MODEL 4
REMARK VINA RESULT:    -5.414      2.488      4.469
REMARK INTER + INTRA:         -12.467
REMARK INTER:                 -10.767
REMARK INTRA:                  -1.700
REMARK UNBOUND:                -1.989
REMARK SMILES CCCCCCCCCCCCCCCCCC(=O)[O-]
REMARK SMILES IDX 10 1 11 2 12 3 13 4 14 5 15 6 16 7 17 8 18 9 19 10 20 11
REMARK SMILES IDX 9 12 8 13 7 14 6 15 5 16 4 17 3 18 2 19 1 20
REMARK H PARENT
REMARK Flexibility Score: inf
ROOT
ATOM      1  C   UNL     1       6.034  23.615  -6.672  1.00  0.00     0.000 C 
ENDROOT
BRANCH   1   2
ATOM      2  C   UNL     1       6.662  22.683  -5.624  1.00  0.00     0.000 C 
BRANCH   2   3
ATOM      3  C   UNL     1       8.162  22.975  -5.461  1.00  0.00     0.000 C 
BRANCH   3   4
ATOM      4  C   UNL     1       9.037  21.738  -5.722  1.00  0.00     0.000 C 
BRANCH   4   5
ATOM      5  C   UNL     1      10.131  21.998  -6.769  1.00  0.00     0.000 C 
BRANCH   5   6
ATOM      6  C   UNL     1       9.572  21.866  -8.191  1.00  0.00     0.000 C 
BRANCH   6   7
ATOM      7  C   UNL     1      10.590  22.350  -9.231  1.00  0.00     0.006 C 
BRANCH   7   8
ATOM      8  C   UNL     1      11.950  22.623  -8.583  1.00  0.00     0.053 C 
BRANCH   8   9
ATOM      9  C   UNL     1      12.401  24.018  -8.882  1.00  0.00     0.041 C 
ATOM     10  O   UNL     1      13.213  24.599  -8.114  1.00  0.00    -0.550 OA
ATOM     11  O   UNL     1      11.962  24.659 -10.033  1.00  0.00    -0.550 OA
ENDBRANCH   8   9
ENDBRANCH   7   8
ENDBRANCH   6   7
ENDBRANCH   5   6
ENDBRANCH   4   5
ENDBRANCH   3   4
ENDBRANCH   2   3
ENDBRANCH   1   2
BRANCH   1  12
ATOM     12  C   UNL     1       7.078  24.473  -7.406  1.00  0.00     0.000 C 
BRANCH  12  13
ATOM     13  C   UNL     1       6.885  24.459  -8.933  1.00  0.00    -0.000 C 
BRANCH  13  14
ATOM     14  C   UNL     1       6.359  23.111  -9.460  1.00  0.00    -0.000 C 
BRANCH  14  15
ATOM     15  C   UNL     1       5.033  23.179 -10.242  1.00  0.00    -0.000 C 
BRANCH  15  16
ATOM     16  C   UNL     1       5.203  23.735 -11.665  1.00  0.00    -0.000 C 
BRANCH  16  17
ATOM     17  C   UNL     1       4.307  24.956 -11.938  1.00  0.00    -0.000 C 
BRANCH  17  18
ATOM     18  C   UNL     1       4.911  26.290 -11.451  1.00  0.00    -0.000 C 
BRANCH  18  19
ATOM     19  C   UNL     1       4.465  27.477 -12.316  1.00  0.00    -0.003 C 
ATOM     20  C   UNL     1       5.015  28.793 -11.773  1.00  0.00     0.004 C 
ENDBRANCH  18  19
ENDBRANCH  17  18
ENDBRANCH  16  17
ENDBRANCH  15  16
ENDBRANCH  14  15
ENDBRANCH  13  14
ENDBRANCH  12  13
ENDBRANCH   1  12
TORSDOF 16
ENDMDL
MODEL 5
REMARK VINA RESULT:    -5.346      2.834      5.079
REMARK INTER + INTRA:         -12.335
REMARK INTER:                 -10.603
REMARK INTRA:                  -1.732
REMARK UNBOUND:                -1.989
REMARK SMILES CCCCCCCCCCCCCCCCCC(=O)[O-]
REMARK SMILES IDX 10 1 11 2 12 3 13 4 14 5 15 6 16 7 17 8 18 9 19 10 20 11
REMARK SMILES IDX 9 12 8 13 7 14 6 15 5 16 4 17 3 18 2 19 1 20
REMARK H PARENT
REMARK Flexibility Score: inf
ROOT
ATOM      1  C   UNL     1      12.839  23.653  -8.568  1.00  0.00     0.000 C 
ENDROOT
BRANCH   1   2
ATOM      2  C   UNL     1      12.444  22.797  -7.356  1.00  0.00     0.000 C 
BRANCH   2   3
ATOM      3  C   UNL     1      12.044  21.379  -7.793  1.00  0.00     0.000 C 
BRANCH   3   4
ATOM      4  C   UNL     1      10.740  20.902  -7.135  1.00  0.00     0.000 C 
BRANCH   4   5
ATOM      5  C   UNL     1       9.970  22.042  -6.451  1.00  0.00     0.000 C 
BRANCH   5   6
ATOM      6  C   UNL     1       9.020  21.495  -5.379  1.00  0.00     0.000 C 
BRANCH   6   7
ATOM      7  C   UNL     1       7.916  22.509  -5.053  1.00  0.00     0.006 C 
BRANCH   7   8
ATOM      8  C   UNL     1       7.535  23.325  -6.291  1.00  0.00     0.053 C 
BRANCH   8   9
ATOM      9  C   UNL     1       6.278  24.097  -6.043  1.00  0.00     0.041 C 
ATOM     10  O   UNL     1       5.157  23.585  -6.307  1.00  0.00    -0.550 OA
ATOM     11  O   UNL     1       6.340  25.364  -5.475  1.00  0.00    -0.550 OA
ENDBRANCH   8   9
ENDBRANCH   7   8
ENDBRANCH   6   7
ENDBRANCH   5   6
ENDBRANCH   4   5
ENDBRANCH   3   4
ENDBRANCH   2   3
ENDBRANCH   1   2
BRANCH   1  12
ATOM     12  C   UNL     1      11.646  24.409  -9.177  1.00  0.00     0.000 C 
BRANCH  12  13
ATOM     13  C   UNL     1      10.760  23.506 -10.053  1.00  0.00    -0.000 C 
BRANCH  13  14
ATOM     14  C   UNL     1       9.302  23.437  -9.562  1.00  0.00    -0.000 C 
BRANCH  14  15
ATOM     15  C   UNL     1       8.612  22.069  -9.730  1.00  0.00    -0.000 C 
BRANCH  15  16
ATOM     16  C   UNL     1       7.229  22.170 -10.392  1.00  0.00    -0.000 C 
BRANCH  16  17
ATOM     17  C   UNL     1       6.438  23.408  -9.932  1.00  0.00    -0.000 C 
BRANCH  17  18
ATOM     18  C   UNL     1       4.957  23.393 -10.366  1.00  0.00    -0.000 C 
BRANCH  18  19
ATOM     19  C   UNL     1       4.749  24.052 -11.737  1.00  0.00    -0.003 C 
ATOM     20  C   UNL     1       4.620  25.567 -11.608  1.00  0.00     0.004 C 
ENDBRANCH  18  19
ENDBRANCH  17  18
ENDBRANCH  16  17
ENDBRANCH  15  16
ENDBRANCH  14  15
ENDBRANCH  13  14
ENDBRANCH  12  13
ENDBRANCH   1  12
TORSDOF 16
ENDMDL
MODEL 6
REMARK VINA RESULT:    -5.277      3.368      6.973
REMARK INTER + INTRA:         -12.203
REMARK INTER:                  -9.965
REMARK INTRA:                  -2.238
REMARK UNBOUND:                -1.989
REMARK SMILES CCCCCCCCCCCCCCCCCC(=O)[O-]
REMARK SMILES IDX 10 1 11 2 12 3 13 4 14 5 15 6 16 7 17 8 18 9 19 10 20 11
REMARK SMILES IDX 9 12 8 13 7 14 6 15 5 16 4 17 3 18 2 19 1 20
REMARK H PARENT
REMARK Flexibility Score: inf
ROOT
ATOM      1  C   UNL     1       9.937  21.137  -7.899  1.00  0.00     0.000 C 
ENDROOT
BRANCH   1   2
ATOM      2  C   UNL     1       9.903  22.139  -6.735  1.00  0.00     0.000 C 
BRANCH   2   3
ATOM      3  C   UNL     1       8.882  21.709  -5.672  1.00  0.00     0.000 C 
BRANCH   3   4
ATOM      4  C   UNL     1       7.983  22.867  -5.211  1.00  0.00     0.000 C 
BRANCH   4   5
ATOM      5  C   UNL     1       6.810  23.124  -6.169  1.00  0.00     0.000 C 
BRANCH   5   6
ATOM      6  C   UNL     1       6.877  24.541  -6.751  1.00  0.00     0.000 C 
BRANCH   6   7
ATOM      7  C   UNL     1       7.051  24.503  -8.275  1.00  0.00     0.006 C 
BRANCH   7   8
ATOM      8  C   UNL     1       6.602  23.155  -8.846  1.00  0.00     0.053 C 
BRANCH   8   9
ATOM      9  C   UNL     1       5.325  23.311  -9.611  1.00  0.00     0.041 C 
ATOM     10  O   UNL     1       5.337  23.801 -10.771  1.00  0.00    -0.550 OA
ATOM     11  O   UNL     1       4.127  22.871  -9.061  1.00  0.00    -0.550 OA
ENDBRANCH   8   9
ENDBRANCH   7   8
ENDBRANCH   6   7
ENDBRANCH   5   6
ENDBRANCH   4   5
ENDBRANCH   3   4
ENDBRANCH   2   3
ENDBRANCH   1   2
BRANCH   1  12
ATOM     12  C   UNL     1       9.979  21.823  -9.274  1.00  0.00     0.000 C 
BRANCH  12  13
ATOM     13  C   UNL     1      10.210  23.341  -9.170  1.00  0.00    -0.000 C 
BRANCH  13  14
ATOM     14  C   UNL     1      11.265  23.859 -10.165  1.00  0.00    -0.000 C 
BRANCH  14  15
ATOM     15  C   UNL     1      12.441  24.633  -9.539  1.00  0.00    -0.000 C 
BRANCH  15  16
ATOM     16  C   UNL     1      12.802  24.141  -8.129  1.00  0.00    -0.000 C 
BRANCH  16  17
ATOM     17  C   UNL     1      14.321  24.080  -7.890  1.00  0.00    -0.000 C 
BRANCH  17  18
ATOM     18  C   UNL     1      14.739  23.050  -6.819  1.00  0.00    -0.000 C 
BRANCH  18  19
ATOM     19  C   UNL     1      13.535  22.290  -6.245  1.00  0.00    -0.003 C 
ATOM     20  C   UNL     1      13.403  22.519  -4.742  1.00  0.00     0.004 C 
ENDBRANCH  18  19
ENDBRANCH  17  18
ENDBRANCH  16  17
ENDBRANCH  15  16
ENDBRANCH  14  15
ENDBRANCH  13  14
ENDBRANCH  12  13
ENDBRANCH   1  12
TORSDOF 16
ENDMDL
MODEL 7
REMARK VINA RESULT:    -5.276      1.999      4.969
REMARK INTER + INTRA:         -12.200
REMARK INTER:                 -10.278
REMARK INTRA:                  -1.921
REMARK UNBOUND:                -1.989
REMARK SMILES CCCCCCCCCCCCCCCCCC(=O)[O-]
REMARK SMILES IDX 10 1 11 2 12 3 13 4 14 5 15 6 16 7 17 8 18 9 19 10 20 11
REMARK SMILES IDX 9 12 8 13 7 14 6 15 5 16 4 17 3 18 2 19 1 20
REMARK H PARENT
REMARK Flexibility Score: inf
ROOT
ATOM      1  C   UNL     1       3.861  22.966  -7.244  1.00  0.00     0.000 C 
ENDROOT
BRANCH   1   2
ATOM      2  C   UNL     1       3.926  22.169  -8.556  1.00  0.00     0.000 C 
BRANCH   2   3
ATOM      3  C   UNL     1       4.691  22.951  -9.635  1.00  0.00     0.000 C 
BRANCH   3   4
ATOM      4  C   UNL     1       5.861  22.150 -10.229  1.00  0.00     0.000 C 
BRANCH   4   5
ATOM      5  C   UNL     1       7.103  23.017 -10.484  1.00  0.00     0.000 C 
BRANCH   5   6
ATOM      6  C   UNL     1       8.345  22.402  -9.827  1.00  0.00     0.000 C 
BRANCH   6   7
ATOM      7  C   UNL     1       9.376  23.483  -9.478  1.00  0.00     0.006 C 
BRANCH   7   8
ATOM      8  C   UNL     1      10.737  23.167 -10.106  1.00  0.00     0.053 C 
BRANCH   8   9
ATOM      9  C   UNL     1      11.750  24.190  -9.699  1.00  0.00     0.041 C 
ATOM     10  O   UNL     1      12.104  25.087 -10.509  1.00  0.00    -0.550 OA
ATOM     11  O   UNL     1      12.267  24.182  -8.410  1.00  0.00    -0.550 OA
ENDBRANCH   8   9
ENDBRANCH   7   8
ENDBRANCH   6   7
ENDBRANCH   5   6
ENDBRANCH   4   5
ENDBRANCH   3   4
ENDBRANCH   2   3
ENDBRANCH   1   2
BRANCH   1  12
ATOM     12  C   UNL     1       5.153  22.857  -6.418  1.00  0.00     0.000 C 
BRANCH  12  13
ATOM     13  C   UNL     1       6.166  23.964  -6.758  1.00  0.00    -0.000 C 
BRANCH  13  14
ATOM     14  C   UNL     1       7.624  23.553  -6.475  1.00  0.00    -0.000 C 
BRANCH  14  15
ATOM     15  C   UNL     1       7.867  22.876  -5.113  1.00  0.00    -0.000 C 
BRANCH  15  16
ATOM     16  C   UNL     1       8.713  21.598  -5.219  1.00  0.00    -0.000 C 
BRANCH  16  17
ATOM     17  C   UNL     1       9.730  21.651  -6.373  1.00  0.00    -0.000 C 
BRANCH  17  18
ATOM     18  C   UNL     1       9.948  20.291  -7.070  1.00  0.00    -0.000 C 
BRANCH  18  19
ATOM     19  C   UNL     1      10.990  20.378  -8.195  1.00  0.00    -0.003 C 
ATOM     20  C   UNL     1      12.322  20.910  -7.674  1.00  0.00     0.004 C 
ENDBRANCH  18  19
ENDBRANCH  17  18
ENDBRANCH  16  17
ENDBRANCH  15  16
ENDBRANCH  14  15
ENDBRANCH  13  14
ENDBRANCH  12  13
ENDBRANCH   1  12
TORSDOF 16
ENDMDL
MODEL 8
REMARK VINA RESULT:    -5.174      1.587      3.788
REMARK INTER + INTRA:         -12.003
REMARK INTER:                  -9.910
REMARK INTRA:                  -2.093
REMARK UNBOUND:                -1.989
REMARK SMILES CCCCCCCCCCCCCCCCCC(=O)[O-]
REMARK SMILES IDX 10 1 11 2 12 3 13 4 14 5 15 6 16 7 17 8 18 9 19 10 20 11
REMARK SMILES IDX 9 12 8 13 7 14 6 15 5 16 4 17 3 18 2 19 1 20
REMARK H PARENT
REMARK Flexibility Score: inf
ROOT
ATOM      1  C   UNL     1       7.339  22.293 -10.099  1.00  0.00     0.000 C 
ENDROOT
BRANCH   1   2
ATOM      2  C   UNL     1       7.856  23.457  -9.240  1.00  0.00     0.000 C 
BRANCH   2   3
ATOM      3  C   UNL     1       9.177  23.083  -8.550  1.00  0.00     0.000 C 
BRANCH   3   4
ATOM      4  C   UNL     1       9.544  21.603  -8.737  1.00  0.00     0.000 C 
BRANCH   4   5
ATOM      5  C   UNL     1      10.422  21.062  -7.598  1.00  0.00     0.000 C 
BRANCH   5   6
ATOM      6  C   UNL     1      11.689  20.399  -8.150  1.00  0.00     0.000 C 
BRANCH   6   7
ATOM      7  C   UNL     1      12.939  21.212  -7.789  1.00  0.00     0.006 C 
BRANCH   7   8
ATOM      8  C   UNL     1      12.582  22.395  -6.884  1.00  0.00     0.053 C 
BRANCH   8   9
ATOM      9  C   UNL     1      13.631  22.585  -5.834  1.00  0.00     0.041 C 
ATOM     10  O   UNL     1      13.339  22.456  -4.616  1.00  0.00    -0.550 OA
ATOM     11  O   UNL     1      14.942  22.858  -6.203  1.00  0.00    -0.550 OA
ENDBRANCH   8   9
ENDBRANCH   7   8
ENDBRANCH   6   7
ENDBRANCH   5   6
ENDBRANCH   4   5
ENDBRANCH   3   4
ENDBRANCH   2   3
ENDBRANCH   1   2
BRANCH   1  12
ATOM     12  C   UNL     1       5.872  22.472 -10.522  1.00  0.00     0.000 C 
BRANCH  12  13
ATOM     13  C   UNL     1       5.096  23.410  -9.581  1.00  0.00    -0.000 C 
BRANCH  13  14
ATOM     14  C   UNL     1       3.896  22.724  -8.903  1.00  0.00    -0.000 C 
BRANCH  14  15
ATOM     15  C   UNL     1       3.855  22.828  -7.366  1.00  0.00    -0.000 C 
BRANCH  15  16
ATOM     16  C   UNL     1       5.226  22.593  -6.712  1.00  0.00    -0.000 C 
BRANCH  16  17
ATOM     17  C   UNL     1       5.789  23.858  -6.040  1.00  0.00    -0.000 C 
BRANCH  17  18
ATOM     18  C   UNL     1       7.245  23.705  -5.552  1.00  0.00    -0.000 C 
BRANCH  18  19
ATOM     19  C   UNL     1       7.601  22.244  -5.242  1.00  0.00    -0.003 C 
ATOM     20  C   UNL     1       8.728  22.156  -4.217  1.00  0.00     0.004 C 
ENDBRANCH  18  19
ENDBRANCH  17  18
ENDBRANCH  16  17
ENDBRANCH  15  16
ENDBRANCH  14  15
ENDBRANCH  13  14
ENDBRANCH  12  13
ENDBRANCH   1  12
TORSDOF 16
ENDMDL
MODEL 9
REMARK VINA RESULT:    -5.135      1.464      2.456
REMARK INTER + INTRA:         -11.927
REMARK INTER:                  -9.865
REMARK INTRA:                  -2.062
REMARK UNBOUND:                -1.989
REMARK SMILES CCCCCCCCCCCCCCCCCC(=O)[O-]
REMARK SMILES IDX 10 1 11 2 12 3 13 4 14 5 15 6 16 7 17 8 18 9 19 10 20 11
REMARK SMILES IDX 9 12 8 13 7 14 6 15 5 16 4 17 3 18 2 19 1 20
REMARK H PARENT
REMARK Flexibility Score: inf
ROOT
ATOM      1  C   UNL     1      10.691  21.860  -8.939  1.00  0.00     0.000 C 
ENDROOT
BRANCH   1   2
ATOM      2  C   UNL     1      10.701  23.391  -8.804  1.00  0.00     0.000 C 
BRANCH   2   3
ATOM      3  C   UNL     1      12.018  23.978  -9.335  1.00  0.00     0.000 C 
BRANCH   3   4
ATOM      4  C   UNL     1      13.039  24.246  -8.218  1.00  0.00     0.000 C 
BRANCH   4   5
ATOM      5  C   UNL     1      13.875  23.006  -7.868  1.00  0.00     0.000 C 
BRANCH   5   6
ATOM      6  C   UNL     1      14.099  22.905  -6.354  1.00  0.00     0.000 C 
BRANCH   6   7
ATOM      7  C   UNL     1      15.575  23.126  -6.000  1.00  0.00     0.006 C 
BRANCH   7   8
ATOM      8  C   UNL     1      15.776  23.156  -4.481  1.00  0.00     0.053 C 
BRANCH   8   9
ATOM      9  C   UNL     1      15.124  24.366  -3.891  1.00  0.00     0.041 C 
ATOM     10  O   UNL     1      14.232  24.238  -3.011  1.00  0.00    -0.550 OA
ATOM     11  O   UNL     1      15.535  25.635  -4.277  1.00  0.00    -0.550 OA
ENDBRANCH   8   9
ENDBRANCH   7   8
ENDBRANCH   6   7
ENDBRANCH   5   6
ENDBRANCH   4   5
ENDBRANCH   3   4
ENDBRANCH   2   3
ENDBRANCH   1   2
BRANCH   1  12
ATOM     12  C   UNL     1      10.103  21.158  -7.704  1.00  0.00     0.000 C 
BRANCH  12  13
ATOM     13  C   UNL     1       9.895  22.121  -6.521  1.00  0.00    -0.000 C 
BRANCH  13  14
ATOM     14  C   UNL     1       8.640  21.793  -5.692  1.00  0.00    -0.000 C 
BRANCH  14  15
ATOM     15  C   UNL     1       7.755  23.000  -5.326  1.00  0.00    -0.000 C 
BRANCH  15  16
ATOM     16  C   UNL     1       6.738  23.355  -6.422  1.00  0.00    -0.000 C 
BRANCH  16  17
ATOM     17  C   UNL     1       7.061  24.685  -7.125  1.00  0.00    -0.000 C 
BRANCH  17  18
ATOM     18  C   UNL     1       7.261  24.548  -8.649  1.00  0.00    -0.000 C 
BRANCH  18  19
ATOM     19  C   UNL     1       6.439  23.393  -9.240  1.00  0.00    -0.003 C 
ATOM     20  C   UNL     1       7.308  22.479 -10.098  1.00  0.00     0.004 C 
ENDBRANCH  18  19
ENDBRANCH  17  18
ENDBRANCH  16  17
ENDBRANCH  15  16
ENDBRANCH  14  15
ENDBRANCH  13  14
ENDBRANCH  12  13
ENDBRANCH   1  12
TORSDOF 16
ENDMDL
