MODEL 1
REMARK VINA RESULT:    -4.783      0.000      0.000
REMARK INTER + INTRA:          -7.485
REMARK INTER:                  -6.321
REMARK INTRA:                  -1.165
REMARK UNBOUND:                -1.165
REMARK SMILES CC[C@@H](C=C[C@H](C)[C@@H]1CC[C@@H]2C3=CC[C@@H]4C[C@@H](O)CC[C@]4(C)[C@@H]3CC[C@@]21C)C(C)C
REMARK SMILES IDX 6 1 7 2 5 3 4 4 3 5 2 6 1 7 28 8 29 9 30 10 8 11 9 12 26 13
REMARK SMILES IDX 10 14 11 15 25 16 27 17 12 18 24 19 23 20 13 21 21 22 14 23
REMARK SMILES IDX 15 24 20 25 22 26 16 27 19 28 17 29 18 30
REMARK H PARENT 18 31
REMARK Flexibility Score: inf
ROOT
ATOM      1  C   UNL     1       7.184  11.740  -5.682  1.00  0.00     0.012 C 
ATOM      2  C   UNL     1       6.175  12.878  -5.853  1.00  0.00     0.012 C 
ENDROOT
BRANCH   1   3
ATOM      3  C   UNL     1       7.849  11.875  -4.324  1.00  0.00    -0.028 C 
ATOM      4  C   UNL     1       7.325  12.657  -3.362  1.00  0.00    -0.027 C 
BRANCH   4   5
ATOM      5  C   UNL     1       8.003  12.836  -2.015  1.00  0.00     0.014 C 
BRANCH   5   6
ATOM      6  C   UNL     1       9.378  12.115  -2.015  1.00  0.00     0.004 C 
ATOM      7  C   UNL     1      10.577  13.066  -2.078  1.00  0.00     0.004 C 
ENDBRANCH   5   6
BRANCH   5   8
ATOM      8  C   UNL     1       7.054  12.395  -0.854  1.00  0.00    -0.011 C 
ATOM      9  C   UNL     1       6.910  10.863  -0.758  1.00  0.00     0.008 C 
ATOM     10  C   UNL     1       7.552  12.934   0.501  1.00  0.00     0.008 C 
ENDBRANCH   5   8
ENDBRANCH   4   5
ENDBRANCH   1   3
BRANCH   1  11
ATOM     11  C   UNL     1       6.673  10.271  -5.900  1.00  0.00     0.002 C 
ATOM     12  C   UNL     1       6.824   9.353  -4.687  1.00  0.00     0.005 C 
ATOM     13  C   UNL     1       7.110   9.381  -7.107  1.00  0.00    -0.023 C 
ATOM     14  C   UNL     1       6.529   7.941  -5.210  1.00  0.00     0.009 C 
ATOM     15  C   UNL     1       6.376   8.069  -6.736  1.00  0.00     0.021 C 
ATOM     16  C   UNL     1       8.666   9.152  -7.205  1.00  0.00     0.008 C 
ATOM     17  C   UNL     1       6.564   9.954  -8.435  1.00  0.00     0.012 C 
ATOM     18  C   UNL     1       6.833   6.825  -7.484  1.00  0.00    -0.067 C 
ATOM     19  C   UNL     1       9.145   7.696  -7.340  1.00  0.00     0.009 C 
ATOM     20  C   UNL     1       8.188   6.811  -8.162  1.00  0.00     0.021 C 
ATOM     21  C   UNL     1       5.954   5.820  -7.633  1.00  0.00    -0.027 C 
ATOM     22  C   UNL     1       8.746   5.363  -8.464  1.00  0.00    -0.023 C 
ATOM     23  C   UNL     1       6.289   4.511  -8.273  1.00  0.00     0.031 C 
ATOM     24  C   UNL     1       7.603   4.499  -9.099  1.00  0.00     0.002 C 
ATOM     25  C   UNL     1       9.274   4.656  -7.177  1.00  0.00     0.010 C 
ATOM     26  C   UNL     1       9.905   5.511  -9.495  1.00  0.00     0.012 C 
ATOM     27  C   UNL     1       8.040   3.030  -9.349  1.00  0.00     0.036 C 
ATOM     28  C   UNL     1       9.730   3.207  -7.430  1.00  0.00     0.032 C 
ATOM     29  C   UNL     1       8.632   2.353  -8.089  1.00  0.00     0.114 C 
BRANCH  29  30
ATOM     30  O   UNL     1       9.119   1.072  -8.403  1.00  0.00    -0.393 OA
ATOM     31  H   UNL     1       8.514   0.677  -9.088  1.00  0.00     0.210 HD
ENDBRANCH  29  30
ENDBRANCH   1  11
TORSDOF 6
ENDMDL
MODEL 2
REMARK VINA RESULT:    -4.530      2.159      3.733
REMARK INTER + INTRA:          -7.151
REMARK INTER:                  -5.933
REMARK INTRA:                  -1.219
REMARK UNBOUND:                -1.165
REMARK SMILES CC[C@@H](C=C[C@H](C)[C@@H]1CC[C@@H]2C3=CC[C@@H]4C[C@@H](O)CC[C@]4(C)[C@@H]3CC[C@@]21C)C(C)C
REMARK SMILES IDX 6 1 7 2 5 3 4 4 3 5 2 6 1 7 28 8 29 9 30 10 8 11 9 12 26 13
REMARK SMILES IDX 10 14 11 15 25 16 27 17 12 18 24 19 23 20 13 21 21 22 14 23
REMARK SMILES IDX 15 24 20 25 22 26 16 27 19 28 17 29 18 30
REMARK H PARENT 18 31
REMARK Flexibility Score: inf
ROOT
ATOM      1  C   UNL     1       7.762  11.936  -5.890  1.00  0.00     0.012 C 
ATOM      2  C   UNL     1       7.642  12.578  -4.507  1.00  0.00     0.012 C 
ENDROOT
BRANCH   1   3
ATOM      3  C   UNL     1       9.218  11.966  -6.320  1.00  0.00    -0.028 C 
ATOM      4  C   UNL     1       9.653  12.824  -7.261  1.00  0.00    -0.027 C 
BRANCH   4   5
ATOM      5  C   UNL     1      11.096  12.834  -7.732  1.00  0.00     0.014 C 
BRANCH   5   6
ATOM      6  C   UNL     1      11.147  12.817  -9.284  1.00  0.00     0.004 C 
ATOM      7  C   UNL     1       9.779  12.631  -9.947  1.00  0.00     0.004 C 
ENDBRANCH   5   6
BRANCH   5   8
ATOM      8  C   UNL     1      11.907  11.680  -7.058  1.00  0.00    -0.011 C 
ATOM      9  C   UNL     1      12.484  10.686  -8.084  1.00  0.00     0.008 C 
ATOM     10  C   UNL     1      13.062  12.243  -6.206  1.00  0.00     0.008 C 
ENDBRANCH   5   8
ENDBRANCH   4   5
ENDBRANCH   1   3
BRANCH   1  11
ATOM     11  C   UNL     1       7.162  10.498  -6.084  1.00  0.00     0.002 C 
ATOM     12  C   UNL     1       7.259   9.592  -4.855  1.00  0.00     0.005 C 
ATOM     13  C   UNL     1       7.543   9.562  -7.275  1.00  0.00    -0.023 C 
ATOM     14  C   UNL     1       6.877   8.192  -5.354  1.00  0.00     0.009 C 
ATOM     15  C   UNL     1       6.730   8.303  -6.883  1.00  0.00     0.021 C 
ATOM     16  C   UNL     1       9.082   9.237  -7.371  1.00  0.00     0.008 C 
ATOM     17  C   UNL     1       7.030  10.145  -8.613  1.00  0.00     0.012 C 
ATOM     18  C   UNL     1       7.110   7.022  -7.610  1.00  0.00    -0.067 C 
ATOM     19  C   UNL     1       9.471   7.753  -7.481  1.00  0.00     0.009 C 
ATOM     20  C   UNL     1       8.460   6.914  -8.288  1.00  0.00     0.021 C 
ATOM     21  C   UNL     1       6.171   6.070  -7.742  1.00  0.00    -0.027 C 
ATOM     22  C   UNL     1       8.929   5.430  -8.566  1.00  0.00    -0.023 C 
ATOM     23  C   UNL     1       6.425   4.732  -8.359  1.00  0.00     0.031 C 
ATOM     24  C   UNL     1       7.735   4.627  -9.186  1.00  0.00     0.002 C 
ATOM     25  C   UNL     1       9.415   4.713  -7.267  1.00  0.00     0.010 C 
ATOM     26  C   UNL     1      10.093   5.489  -9.600  1.00  0.00     0.012 C 
ATOM     27  C   UNL     1       8.081   3.130  -9.412  1.00  0.00     0.036 C 
ATOM     28  C   UNL     1       9.782   3.236  -7.497  1.00  0.00     0.032 C 
ATOM     29  C   UNL     1       8.632   2.439  -8.140  1.00  0.00     0.114 C 
BRANCH  29  30
ATOM     30  O   UNL     1       9.040   1.126  -8.434  1.00  0.00    -0.393 OA
ATOM     31  H   UNL     1       8.286   0.670  -8.897  1.00  0.00     0.210 HD
ENDBRANCH  29  30
ENDBRANCH   1  11
TORSDOF 6
ENDMDL
MODEL 3
REMARK VINA RESULT:    -4.482      2.390      3.765
REMARK INTER + INTRA:          -7.088
REMARK INTER:                  -6.115
REMARK INTRA:                  -0.973
REMARK UNBOUND:                -1.165
REMARK SMILES CC[C@@H](C=C[C@H](C)[C@@H]1CC[C@@H]2C3=CC[C@@H]4C[C@@H](O)CC[C@]4(C)[C@@H]3CC[C@@]21C)C(C)C
REMARK SMILES IDX 6 1 7 2 5 3 4 4 3 5 2 6 1 7 28 8 29 9 30 10 8 11 9 12 26 13
REMARK SMILES IDX 10 14 11 15 25 16 27 17 12 18 24 19 23 20 13 21 21 22 14 23
REMARK SMILES IDX 15 24 20 25 22 26 16 27 19 28 17 29 18 30
REMARK H PARENT 18 31
REMARK Flexibility Score: inf
ROOT
ATOM      1  C   UNL     1       8.381  11.993  -5.730  1.00  0.00     0.012 C 
ATOM      2  C   UNL     1       7.945  12.841  -4.533  1.00  0.00     0.012 C 
ENDROOT
BRANCH   1   3
ATOM      3  C   UNL     1       9.889  11.821  -5.685  1.00  0.00    -0.028 C 
ATOM      4  C   UNL     1      10.690  12.426  -6.580  1.00  0.00    -0.027 C 
BRANCH   4   5
ATOM      5  C   UNL     1      12.196  12.226  -6.574  1.00  0.00     0.014 C 
BRANCH   5   6
ATOM      6  C   UNL     1      12.874  13.338  -5.730  1.00  0.00     0.004 C 
ATOM      7  C   UNL     1      14.368  13.105  -5.482  1.00  0.00     0.004 C 
ENDBRANCH   5   6
BRANCH   5   8
ATOM      8  C   UNL     1      12.745  12.112  -8.034  1.00  0.00    -0.011 C 
ATOM      9  C   UNL     1      13.309  10.711  -8.344  1.00  0.00     0.008 C 
ATOM     10  C   UNL     1      11.649  12.446  -9.063  1.00  0.00     0.008 C 
ENDBRANCH   5   8
ENDBRANCH   4   5
ENDBRANCH   1   3
BRANCH   1  11
ATOM     11  C   UNL     1       7.676  10.606  -5.940  1.00  0.00     0.002 C 
ATOM     12  C   UNL     1       7.712   9.678  -4.724  1.00  0.00     0.005 C 
ATOM     13  C   UNL     1       7.981   9.661  -7.147  1.00  0.00    -0.023 C 
ATOM     14  C   UNL     1       7.225   8.317  -5.241  1.00  0.00     0.009 C 
ATOM     15  C   UNL     1       7.079   8.461  -6.766  1.00  0.00     0.021 C 
ATOM     16  C   UNL     1       9.491   9.226  -7.255  1.00  0.00     0.008 C 
ATOM     17  C   UNL     1       7.506  10.299  -8.473  1.00  0.00     0.012 C 
ATOM     18  C   UNL     1       7.360   7.165  -7.513  1.00  0.00    -0.067 C 
ATOM     19  C   UNL     1       9.769   7.719  -7.388  1.00  0.00     0.009 C 
ATOM     20  C   UNL     1       8.696   6.968  -8.201  1.00  0.00     0.021 C 
ATOM     21  C   UNL     1       6.353   6.287  -7.653  1.00  0.00    -0.027 C 
ATOM     22  C   UNL     1       9.052   5.458  -8.501  1.00  0.00    -0.023 C 
ATOM     23  C   UNL     1       6.504   4.943  -8.290  1.00  0.00     0.031 C 
ATOM     24  C   UNL     1       7.799   4.753  -9.125  1.00  0.00     0.002 C 
ATOM     25  C   UNL     1       9.490   4.689  -7.216  1.00  0.00     0.010 C 
ATOM     26  C   UNL     1      10.213   5.445  -9.541  1.00  0.00     0.012 C 
ATOM     27  C   UNL     1       8.033   3.238  -9.374  1.00  0.00     0.036 C 
ATOM     28  C   UNL     1       9.746   3.191  -7.468  1.00  0.00     0.032 C 
ATOM     29  C   UNL     1       8.538   2.491  -8.115  1.00  0.00     0.114 C 
BRANCH  29  30
ATOM     30  O   UNL     1       8.846   1.155  -8.429  1.00  0.00    -0.393 OA
ATOM     31  H   UNL     1       8.874   0.642  -7.577  1.00  0.00     0.210 HD
ENDBRANCH  29  30
ENDBRANCH   1  11
TORSDOF 6
ENDMDL
MODEL 4
REMARK VINA RESULT:    -4.352      1.322      2.689
REMARK INTER + INTRA:          -6.916
REMARK INTER:                  -5.873
REMARK INTRA:                  -1.043
REMARK UNBOUND:                -1.165
REMARK SMILES CC[C@@H](C=C[C@H](C)[C@@H]1CC[C@@H]2C3=CC[C@@H]4C[C@@H](O)CC[C@]4(C)[C@@H]3CC[C@@]21C)C(C)C
REMARK SMILES IDX 6 1 7 2 5 3 4 4 3 5 2 6 1 7 28 8 29 9 30 10 8 11 9 12 26 13
REMARK SMILES IDX 10 14 11 15 25 16 27 17 12 18 24 19 23 20 13 21 21 22 14 23
REMARK SMILES IDX 15 24 20 25 22 26 16 27 19 28 17 29 18 30
REMARK H PARENT 18 31
REMARK Flexibility Score: inf
ROOT
ATOM      1  C   UNL     1       7.168  12.207  -6.374  1.00  0.00     0.012 C 
ATOM      2  C   UNL     1       5.638  12.214  -6.344  1.00  0.00     0.012 C 
ENDROOT
BRANCH   1   3
ATOM      3  C   UNL     1       7.686  12.103  -4.951  1.00  0.00    -0.028 C 
ATOM      4  C   UNL     1       6.903  11.657  -3.952  1.00  0.00    -0.027 C 
BRANCH   4   5
ATOM      5  C   UNL     1       7.393  11.592  -2.516  1.00  0.00     0.014 C 
BRANCH   5   6
ATOM      6  C   UNL     1       8.946  11.586  -2.486  1.00  0.00     0.004 C 
ATOM      7  C   UNL     1       9.549  12.510  -1.424  1.00  0.00     0.004 C 
ENDBRANCH   5   6
BRANCH   5   8
ATOM      8  C   UNL     1       6.738  10.390  -1.761  1.00  0.00    -0.011 C 
ATOM      9  C   UNL     1       5.408  10.772  -1.083  1.00  0.00     0.008 C 
ATOM     10  C   UNL     1       6.488   9.208  -2.718  1.00  0.00     0.008 C 
ENDBRANCH   5   8
ENDBRANCH   4   5
ENDBRANCH   1   3
BRANCH   1  11
ATOM     11  C   UNL     1       7.876  11.149  -7.294  1.00  0.00     0.002 C 
ATOM     12  C   UNL     1       7.252  10.984  -8.680  1.00  0.00     0.005 C 
ATOM     13  C   UNL     1       8.184   9.686  -6.841  1.00  0.00    -0.023 C 
ATOM     14  C   UNL     1       7.916   9.736  -9.277  1.00  0.00     0.009 C 
ATOM     15  C   UNL     1       8.781   9.130  -8.157  1.00  0.00     0.021 C 
ATOM     16  C   UNL     1       6.909   8.868  -6.405  1.00  0.00     0.008 C 
ATOM     17  C   UNL     1       9.243   9.674  -5.715  1.00  0.00     0.012 C 
ATOM     18  C   UNL     1       8.885   7.615  -8.243  1.00  0.00    -0.067 C 
ATOM     19  C   UNL     1       6.718   7.486  -7.054  1.00  0.00     0.009 C 
ATOM     20  C   UNL     1       8.045   6.749  -7.326  1.00  0.00     0.021 C 
ATOM     21  C   UNL     1       9.828   7.092  -9.045  1.00  0.00    -0.027 C 
ATOM     22  C   UNL     1       7.866   5.260  -7.825  1.00  0.00    -0.023 C 
ATOM     23  C   UNL     1       9.992   5.626  -9.289  1.00  0.00     0.031 C 
ATOM     24  C   UNL     1       9.259   4.704  -8.278  1.00  0.00     0.002 C 
ATOM     25  C   UNL     1       6.857   5.153  -9.010  1.00  0.00     0.010 C 
ATOM     26  C   UNL     1       7.350   4.418  -6.619  1.00  0.00     0.012 C 
ATOM     27  C   UNL     1       9.163   3.270  -8.866  1.00  0.00     0.036 C 
ATOM     28  C   UNL     1       6.742   3.726  -9.577  1.00  0.00     0.032 C 
ATOM     29  C   UNL     1       8.108   3.150  -9.993  1.00  0.00     0.114 C 
BRANCH  29  30
ATOM     30  O   UNL     1       7.978   1.810 -10.403  1.00  0.00    -0.393 OA
ATOM     31  H   UNL     1       7.613   1.810 -11.328  1.00  0.00     0.210 HD
ENDBRANCH  29  30
ENDBRANCH   1  11
TORSDOF 6
ENDMDL
MODEL 5
REMARK VINA RESULT:    -4.332      1.814      3.272
REMARK INTER + INTRA:          -6.890
REMARK INTER:                  -5.172
REMARK INTRA:                  -1.718
REMARK UNBOUND:                -1.165
REMARK SMILES CC[C@@H](C=C[C@H](C)[C@@H]1CC[C@@H]2C3=CC[C@@H]4C[C@@H](O)CC[C@]4(C)[C@@H]3CC[C@@]21C)C(C)C
REMARK SMILES IDX 6 1 7 2 5 3 4 4 3 5 2 6 1 7 28 8 29 9 30 10 8 11 9 12 26 13
REMARK SMILES IDX 10 14 11 15 25 16 27 17 12 18 24 19 23 20 13 21 21 22 14 23
REMARK SMILES IDX 15 24 20 25 22 26 16 27 19 28 17 29 18 30
REMARK H PARENT 18 31
REMARK Flexibility Score: inf
ROOT
ATOM      1  C   UNL     1       9.803  12.469  -6.731  1.00  0.00     0.012 C 
ATOM      2  C   UNL     1      10.223  13.897  -7.085  1.00  0.00     0.012 C 
ENDROOT
BRANCH   1   3
ATOM      3  C   UNL     1       8.618  12.528  -5.783  1.00  0.00    -0.028 C 
ATOM      4  C   UNL     1       8.585  11.791  -4.658  1.00  0.00    -0.027 C 
BRANCH   4   5
ATOM      5  C   UNL     1       7.387  11.806  -3.724  1.00  0.00     0.014 C 
BRANCH   5   6
ATOM      6  C   UNL     1       7.850  12.115  -2.274  1.00  0.00     0.004 C 
ATOM      7  C   UNL     1       9.370  12.098  -2.092  1.00  0.00     0.004 C 
ENDBRANCH   5   6
BRANCH   5   8
ATOM      8  C   UNL     1       6.563  10.485  -3.860  1.00  0.00    -0.011 C 
ATOM      9  C   UNL     1       5.923  10.329  -5.254  1.00  0.00     0.008 C 
ATOM     10  C   UNL     1       7.444   9.253  -3.577  1.00  0.00     0.008 C 
ENDBRANCH   5   8
ENDBRANCH   4   5
ENDBRANCH   1   3
BRANCH   1  11
ATOM     11  C   UNL     1       9.511  11.479  -7.914  1.00  0.00     0.002 C 
ATOM     12  C   UNL     1       8.039  11.381  -8.320  1.00  0.00     0.005 C 
ATOM     13  C   UNL     1      10.009   9.998  -7.937  1.00  0.00    -0.023 C 
ATOM     14  C   UNL     1       7.962  10.181  -9.274  1.00  0.00     0.009 C 
ATOM     15  C   UNL     1       9.357   9.529  -9.261  1.00  0.00     0.021 C 
ATOM     16  C   UNL     1       9.509   9.133  -6.719  1.00  0.00     0.008 C 
ATOM     17  C   UNL     1      11.551   9.943  -8.042  1.00  0.00     0.012 C 
ATOM     18  C   UNL     1       9.308   8.023  -9.472  1.00  0.00    -0.067 C 
ATOM     19  C   UNL     1       8.844   7.787  -7.053  1.00  0.00     0.009 C 
ATOM     20  C   UNL     1       9.454   7.092  -8.286  1.00  0.00     0.021 C 
ATOM     21  C   UNL     1       9.273   7.564 -10.735  1.00  0.00    -0.027 C 
ATOM     22  C   UNL     1       8.909   5.630  -8.540  1.00  0.00    -0.023 C 
ATOM     23  C   UNL     1       9.143   6.118 -11.091  1.00  0.00     0.031 C 
ATOM     24  C   UNL     1       9.427   5.127  -9.930  1.00  0.00     0.002 C 
ATOM     25  C   UNL     1       7.349   5.572  -8.518  1.00  0.00     0.010 C 
ATOM     26  C   UNL     1       9.484   4.712  -7.420  1.00  0.00     0.012 C 
ATOM     27  C   UNL     1       8.867   3.727 -10.301  1.00  0.00     0.036 C 
ATOM     28  C   UNL     1       6.794   4.177  -8.861  1.00  0.00     0.032 C 
ATOM     29  C   UNL     1       7.323   3.651 -10.208  1.00  0.00     0.114 C 
BRANCH  29  30
ATOM     30  O   UNL     1       6.883   2.334 -10.435  1.00  0.00    -0.393 OA
ATOM     31  H   UNL     1       7.564   1.880 -11.001  1.00  0.00     0.210 HD
ENDBRANCH  29  30
ENDBRANCH   1  11
TORSDOF 6
ENDMDL
MODEL 6
REMARK VINA RESULT:    -4.227      3.157      8.680
REMARK INTER + INTRA:          -6.751
REMARK INTER:                  -5.495
REMARK INTRA:                  -1.256
REMARK UNBOUND:                -1.165
REMARK SMILES CC[C@@H](C=C[C@H](C)[C@@H]1CC[C@@H]2C3=CC[C@@H]4C[C@@H](O)CC[C@]4(C)[C@@H]3CC[C@@]21C)C(C)C
REMARK SMILES IDX 6 1 7 2 5 3 4 4 3 5 2 6 1 7 28 8 29 9 30 10 8 11 9 12 26 13
REMARK SMILES IDX 10 14 11 15 25 16 27 17 12 18 24 19 23 20 13 21 21 22 14 23
REMARK SMILES IDX 15 24 20 25 22 26 16 27 19 28 17 29 18 30
REMARK H PARENT 18 31
REMARK Flexibility Score: inf
ROOT
ATOM      1  C   UNL     1       8.645   7.567  -9.465  1.00  0.00     0.012 C 
ATOM      2  C   UNL     1       9.150   7.284 -10.881  1.00  0.00     0.012 C 
ENDROOT
BRANCH   1   3
ATOM      3  C   UNL     1       8.826   6.319  -8.620  1.00  0.00    -0.028 C 
ATOM      4  C   UNL     1       7.788   5.748  -7.983  1.00  0.00    -0.027 C 
BRANCH   4   5
ATOM      5  C   UNL     1       7.963   4.525  -7.099  1.00  0.00     0.014 C 
BRANCH   5   6
ATOM      6  C   UNL     1       9.435   4.034  -7.160  1.00  0.00     0.004 C 
ATOM      7  C   UNL     1       9.597   2.636  -7.765  1.00  0.00     0.004 C 
ENDBRANCH   5   6
BRANCH   5   8
ATOM      8  C   UNL     1       6.911   3.427  -7.457  1.00  0.00    -0.011 C 
ATOM      9  C   UNL     1       5.795   3.311  -6.401  1.00  0.00     0.008 C 
ATOM     10  C   UNL     1       6.269   3.705  -8.830  1.00  0.00     0.008 C 
ENDBRANCH   5   8
ENDBRANCH   4   5
ENDBRANCH   1   3
BRANCH   1  11
ATOM     11  C   UNL     1       9.224   8.823  -8.720  1.00  0.00     0.002 C 
ATOM     12  C   UNL     1      10.459   8.546  -7.862  1.00  0.00     0.005 C 
ATOM     13  C   UNL     1       8.355   9.774  -7.837  1.00  0.00    -0.023 C 
ATOM     14  C   UNL     1      10.671   9.821  -7.034  1.00  0.00     0.009 C 
ATOM     15  C   UNL     1       9.461  10.728  -7.322  1.00  0.00     0.021 C 
ATOM     16  C   UNL     1       7.626   9.051  -6.641  1.00  0.00     0.008 C 
ATOM     17  C   UNL     1       7.333  10.544  -8.705  1.00  0.00     0.012 C 
ATOM     18  C   UNL     1       9.077  11.599  -6.135  1.00  0.00    -0.067 C 
ATOM     19  C   UNL     1       7.805   9.672  -5.244  1.00  0.00     0.009 C 
ATOM     20  C   UNL     1       7.898  11.211  -5.267  1.00  0.00     0.021 C 
ATOM     21  C   UNL     1       9.722  12.767  -5.975  1.00  0.00    -0.027 C 
ATOM     22  C   UNL     1       7.901  11.878  -3.834  1.00  0.00    -0.023 C 
ATOM     23  C   UNL     1       9.507  13.684  -4.815  1.00  0.00     0.031 C 
ATOM     24  C   UNL     1       8.226  13.404  -3.983  1.00  0.00     0.002 C 
ATOM     25  C   UNL     1       8.946  11.219  -2.879  1.00  0.00     0.010 C 
ATOM     26  C   UNL     1       6.471  11.719  -3.237  1.00  0.00     0.012 C 
ATOM     27  C   UNL     1       8.335  14.125  -2.612  1.00  0.00     0.036 C 
ATOM     28  C   UNL     1       9.036  11.919  -1.511  1.00  0.00     0.032 C 
ATOM     29  C   UNL     1       9.318  13.426  -1.640  1.00  0.00     0.114 C 
BRANCH  29  30
ATOM     30  O   UNL     1       9.285  14.049  -0.379  1.00  0.00    -0.393 OA
ATOM     31  H   UNL     1      10.099  13.767   0.120  1.00  0.00     0.210 HD
ENDBRANCH  29  30
ENDBRANCH   1  11
TORSDOF 6
ENDMDL
MODEL 7
REMARK VINA RESULT:    -4.225      3.103      8.564
REMARK INTER + INTRA:          -6.748
REMARK INTER:                  -5.229
REMARK INTRA:                  -1.519
REMARK UNBOUND:                -1.165
REMARK SMILES CC[C@@H](C=C[C@H](C)[C@@H]1CC[C@@H]2C3=CC[C@@H]4C[C@@H](O)CC[C@]4(C)[C@@H]3CC[C@@]21C)C(C)C
REMARK SMILES IDX 6 1 7 2 5 3 4 4 3 5 2 6 1 7 28 8 29 9 30 10 8 11 9 12 26 13
REMARK SMILES IDX 10 14 11 15 25 16 27 17 12 18 24 19 23 20 13 21 21 22 14 23
REMARK SMILES IDX 15 24 20 25 22 26 16 27 19 28 17 29 18 30
REMARK H PARENT 18 31
REMARK Flexibility Score: inf
ROOT
ATOM      1  C   UNL     1       7.966   8.496  -9.166  1.00  0.00     0.012 C 
ATOM      2  C   UNL     1       8.524   8.729 -10.572  1.00  0.00     0.012 C 
ENDROOT
BRANCH   1   3
ATOM      3  C   UNL     1       8.237   7.057  -8.764  1.00  0.00    -0.028 C 
ATOM      4  C   UNL     1       7.255   6.265  -8.296  1.00  0.00    -0.027 C 
BRANCH   4   5
ATOM      5  C   UNL     1       7.520   4.839  -7.847  1.00  0.00     0.014 C 
BRANCH   5   6
ATOM      6  C   UNL     1       7.108   4.666  -6.360  1.00  0.00     0.004 C 
ATOM      7  C   UNL     1       6.155   5.751  -5.851  1.00  0.00     0.004 C 
ENDBRANCH   5   6
BRANCH   5   8
ATOM      8  C   UNL     1       8.998   4.429  -8.149  1.00  0.00    -0.011 C 
ATOM      9  C   UNL     1       9.645   3.652  -6.985  1.00  0.00     0.008 C 
ATOM     10  C   UNL     1       9.083   3.573  -9.427  1.00  0.00     0.008 C 
ENDBRANCH   5   8
ENDBRANCH   4   5
ENDBRANCH   1   3
BRANCH   1  11
ATOM     11  C   UNL     1       8.420   9.479  -8.028  1.00  0.00     0.002 C 
ATOM     12  C   UNL     1       9.422   8.890  -7.034  1.00  0.00     0.005 C 
ATOM     13  C   UNL     1       7.418  10.273  -7.130  1.00  0.00    -0.023 C 
ATOM     14  C   UNL     1       9.499   9.907  -5.887  1.00  0.00     0.009 C 
ATOM     15  C   UNL     1       8.423  10.968  -6.179  1.00  0.00     0.021 C 
ATOM     16  C   UNL     1       6.413   9.362  -6.329  1.00  0.00     0.008 C 
ATOM     17  C   UNL     1       6.647  11.321  -7.967  1.00  0.00     0.012 C 
ATOM     18  C   UNL     1       7.824  11.567  -4.914  1.00  0.00    -0.067 C 
ATOM     19  C   UNL     1       6.304   9.616  -4.815  1.00  0.00     0.009 C 
ATOM     20  C   UNL     1       6.466  11.100  -4.431  1.00  0.00     0.021 C 
ATOM     21  C   UNL     1       8.466  12.597  -4.339  1.00  0.00    -0.027 C 
ATOM     22  C   UNL     1       6.181  11.407  -2.907  1.00  0.00    -0.023 C 
ATOM     23  C   UNL     1       8.040  13.230  -3.054  1.00  0.00     0.031 C 
ATOM     24  C   UNL     1       6.596  12.887  -2.599  1.00  0.00     0.002 C 
ATOM     25  C   UNL     1       6.959  10.445  -1.956  1.00  0.00     0.010 C 
ATOM     26  C   UNL     1       4.648  11.250  -2.673  1.00  0.00     0.012 C 
ATOM     27  C   UNL     1       6.430  13.250  -1.098  1.00  0.00     0.036 C 
ATOM     28  C   UNL     1       6.774  10.789  -0.467  1.00  0.00     0.032 C 
ATOM     29  C   UNL     1       7.142  12.251  -0.153  1.00  0.00     0.114 C 
BRANCH  29  30
ATOM     30  O   UNL     1       6.857  12.558   1.189  1.00  0.00    -0.393 OA
ATOM     31  H   UNL     1       5.932  12.923   1.228  1.00  0.00     0.210 HD
ENDBRANCH  29  30
ENDBRANCH   1  11
TORSDOF 6
ENDMDL
MODEL 8
REMARK VINA RESULT:    -4.142     15.360     18.063
REMARK INTER + INTRA:          -6.638
REMARK INTER:                  -5.435
REMARK INTRA:                  -1.203
REMARK UNBOUND:                -1.165
REMARK SMILES CC[C@@H](C=C[C@H](C)[C@@H]1CC[C@@H]2C3=CC[C@@H]4C[C@@H](O)CC[C@]4(C)[C@@H]3CC[C@@]21C)C(C)C
REMARK SMILES IDX 6 1 7 2 5 3 4 4 3 5 2 6 1 7 28 8 29 9 30 10 8 11 9 12 26 13
REMARK SMILES IDX 10 14 11 15 25 16 27 17 12 18 24 19 23 20 13 21 21 22 14 23
REMARK SMILES IDX 15 24 20 25 22 26 16 27 19 28 17 29 18 30
REMARK H PARENT 18 31
REMARK Flexibility Score: inf
ROOT
ATOM      1  C   UNL     1      21.735  -0.806   4.480  1.00  0.00     0.012 C 
ATOM      2  C   UNL     1      22.461  -0.554   5.802  1.00  0.00     0.012 C 
ENDROOT
BRANCH   1   3
ATOM      3  C   UNL     1      20.332  -1.306   4.779  1.00  0.00    -0.028 C 
ATOM      4  C   UNL     1      19.844  -1.312   6.033  1.00  0.00    -0.027 C 
BRANCH   4   5
ATOM      5  C   UNL     1      18.461  -1.851   6.352  1.00  0.00     0.014 C 
BRANCH   5   6
ATOM      6  C   UNL     1      17.770  -2.343   5.051  1.00  0.00     0.004 C 
ATOM      7  C   UNL     1      17.550  -3.857   5.001  1.00  0.00     0.004 C 
ENDBRANCH   5   6
BRANCH   5   8
ATOM      8  C   UNL     1      17.629  -0.799   7.155  1.00  0.00    -0.011 C 
ATOM      9  C   UNL     1      18.365   0.547   7.305  1.00  0.00     0.008 C 
ATOM     10  C   UNL     1      16.264  -0.548   6.486  1.00  0.00     0.008 C 
ENDBRANCH   5   8
ENDBRANCH   4   5
ENDBRANCH   1   3
BRANCH   1  11
ATOM     11  C   UNL     1      21.689   0.366   3.435  1.00  0.00     0.002 C 
ATOM     12  C   UNL     1      20.283   0.778   2.995  1.00  0.00     0.005 C 
ATOM     13  C   UNL     1      22.517   0.368   2.110  1.00  0.00    -0.023 C 
ATOM     14  C   UNL     1      20.493   1.717   1.800  1.00  0.00     0.009 C 
ATOM     15  C   UNL     1      22.001   1.689   1.488  1.00  0.00     0.021 C 
ATOM     16  C   UNL     1      22.220  -0.858   1.166  1.00  0.00     0.008 C 
ATOM     17  C   UNL     1      24.030   0.464   2.412  1.00  0.00     0.012 C 
ATOM     18  C   UNL     1      22.303   1.882   0.010  1.00  0.00    -0.067 C 
ATOM     19  C   UNL     1      21.887  -0.538  -0.301  1.00  0.00     0.009 C 
ATOM     20  C   UNL     1      22.651   0.683  -0.849  1.00  0.00     0.021 C 
ATOM     21  C   UNL     1      22.385   3.138  -0.459  1.00  0.00    -0.027 C 
ATOM     22  C   UNL     1      22.461   0.921  -2.400  1.00  0.00    -0.023 C 
ATOM     23  C   UNL     1      22.596   3.477  -1.899  1.00  0.00     0.031 C 
ATOM     24  C   UNL     1      23.093   2.302  -2.785  1.00  0.00     0.002 C 
ATOM     25  C   UNL     1      20.957   0.907  -2.818  1.00  0.00     0.010 C 
ATOM     26  C   UNL     1      23.224  -0.213  -3.148  1.00  0.00     0.012 C 
ATOM     27  C   UNL     1      22.875   2.659  -4.281  1.00  0.00     0.036 C 
ATOM     28  C   UNL     1      20.742   1.236  -4.307  1.00  0.00     0.032 C 
ATOM     29  C   UNL     1      21.390   2.573  -4.711  1.00  0.00     0.114 C 
BRANCH  29  30
ATOM     30  O   UNL     1      21.268   2.786  -6.096  1.00  0.00    -0.393 OA
ATOM     31  H   UNL     1      20.955   1.935  -6.508  1.00  0.00     0.210 HD
ENDBRANCH  29  30
ENDBRANCH   1  11
TORSDOF 6
ENDMDL
MODEL 9
REMARK VINA RESULT:    -4.142     10.641     14.433
REMARK INTER + INTRA:          -6.638
REMARK INTER:                  -5.724
REMARK INTRA:                  -0.914
REMARK UNBOUND:                -1.165
REMARK SMILES CC[C@@H](C=C[C@H](C)[C@@H]1CC[C@@H]2C3=CC[C@@H]4C[C@@H](O)CC[C@]4(C)[C@@H]3CC[C@@]21C)C(C)C
REMARK SMILES IDX 6 1 7 2 5 3 4 4 3 5 2 6 1 7 28 8 29 9 30 10 8 11 9 12 26 13
REMARK SMILES IDX 10 14 11 15 25 16 27 17 12 18 24 19 23 20 13 21 21 22 14 23
REMARK SMILES IDX 15 24 20 25 22 26 16 27 19 28 17 29 18 30
REMARK H PARENT 18 31
REMARK Flexibility Score: inf
ROOT
ATOM      1  C   UNL     1      20.077  11.107  -8.463  1.00  0.00     0.012 C 
ATOM      2  C   UNL     1      21.584  11.337  -8.327  1.00  0.00     0.012 C 
ENDROOT
BRANCH   1   3
ATOM      3  C   UNL     1      19.843   9.932  -9.395  1.00  0.00    -0.028 C 
ATOM      4  C   UNL     1      18.918   8.994  -9.120  1.00  0.00    -0.027 C 
BRANCH   4   5
ATOM      5  C   UNL     1      18.704   7.789 -10.020  1.00  0.00     0.014 C 
BRANCH   5   6
ATOM      6  C   UNL     1      17.502   8.043 -10.969  1.00  0.00     0.004 C 
ATOM      7  C   UNL     1      16.664   9.270 -10.594  1.00  0.00     0.004 C 
ENDBRANCH   5   6
BRANCH   5   8
ATOM      8  C   UNL     1      18.581   6.481  -9.174  1.00  0.00    -0.011 C 
ATOM      9  C   UNL     1      19.229   5.266  -9.867  1.00  0.00     0.008 C 
ATOM     10  C   UNL     1      19.220   6.661  -7.784  1.00  0.00     0.008 C 
ENDBRANCH   5   8
ENDBRANCH   4   5
ENDBRANCH   1   3
BRANCH   1  11
ATOM     11  C   UNL     1      19.242  10.937  -7.144  1.00  0.00     0.002 C 
ATOM     12  C   UNL     1      18.152  11.989  -6.935  1.00  0.00     0.005 C 
ATOM     13  C   UNL     1      19.890  10.777  -5.732  1.00  0.00    -0.023 C 
ATOM     14  C   UNL     1      17.671  11.792  -5.491  1.00  0.00     0.009 C 
ATOM     15  C   UNL     1      18.608  10.743  -4.864  1.00  0.00     0.021 C 
ATOM     16  C   UNL     1      20.826  11.974  -5.316  1.00  0.00     0.008 C 
ATOM     17  C   UNL     1      20.651   9.435  -5.629  1.00  0.00     0.012 C 
ATOM     18  C   UNL     1      18.818  10.954  -3.372  1.00  0.00    -0.067 C 
ATOM     19  C   UNL     1      20.564  12.613  -3.942  1.00  0.00     0.009 C 
ATOM     20  C   UNL     1      20.095  11.603  -2.876  1.00  0.00     0.021 C 
ATOM     21  C   UNL     1      17.914  10.429  -2.527  1.00  0.00    -0.027 C 
ATOM     22  C   UNL     1      19.992  12.203  -1.418  1.00  0.00    -0.023 C 
ATOM     23  C   UNL     1      17.949  10.625  -1.046  1.00  0.00     0.031 C 
ATOM     24  C   UNL     1      19.296  11.155  -0.484  1.00  0.00     0.002 C 
ATOM     25  C   UNL     1      19.185  13.539  -1.386  1.00  0.00     0.010 C 
ATOM     26  C   UNL     1      21.443  12.454  -0.908  1.00  0.00     0.012 C 
ATOM     27  C   UNL     1      19.075  11.696   0.955  1.00  0.00     0.036 C 
ATOM     28  C   UNL     1      18.987  14.089   0.039  1.00  0.00     0.032 C 
ATOM     29  C   UNL     1      18.339  13.059   0.980  1.00  0.00     0.114 C 
BRANCH  29  30
ATOM     30  O   UNL     1      18.274  13.556   2.294  1.00  0.00    -0.393 OA
ATOM     31  H   UNL     1      18.726  14.443   2.305  1.00  0.00     0.210 HD
ENDBRANCH  29  30
ENDBRANCH   1  11
TORSDOF 6
ENDMDL
