MODEL 1
REMARK VINA RESULT:    -3.480      0.000      0.000
REMARK INTER + INTRA:         -12.599
REMARK INTER:                  -7.955
REMARK INTRA:                  -4.644
REMARK UNBOUND:                -4.644
REMARK SMILES CCCCCCCCCCCCCCCCCCCCCCCC(=O)[O-]
REMARK SMILES IDX 13 1 14 2 15 3 16 4 17 5 18 6 19 7 20 8 21 9 22 10 23 11
REMARK SMILES IDX 24 12 25 13 26 14 12 15 11 16 10 17 9 18 8 19 7 20 6 21 5 22
REMARK SMILES IDX 4 23 3 24 2 25 1 26
REMARK H PARENT
REMARK Flexibility Score: inf
ROOT
ATOM      1  C   UNL     1      -1.882   2.888  -8.626  1.00  0.00     0.000 C 
ENDROOT
BRANCH   1   2
ATOM      2  C   UNL     1      -2.160   4.398  -8.549  1.00  0.00     0.000 C 
BRANCH   2   3
ATOM      3  C   UNL     1      -0.850   5.191  -8.451  1.00  0.00     0.000 C 
BRANCH   3   4
ATOM      4  C   UNL     1      -0.901   6.454  -9.325  1.00  0.00     0.000 C 
BRANCH   4   5
ATOM      5  C   UNL     1      -2.323   7.046  -9.427  1.00  0.00     0.000 C 
BRANCH   5   6
ATOM      6  C   UNL     1      -2.765   7.362 -10.868  1.00  0.00     0.000 C 
BRANCH   6   7
ATOM      7  C   UNL     1      -4.284   7.294 -11.119  1.00  0.00     0.000 C 
BRANCH   7   8
ATOM      8  C   UNL     1      -5.000   6.097 -10.467  1.00  0.00     0.000 C 
BRANCH   8   9
ATOM      9  C   UNL     1      -6.066   5.469 -11.376  1.00  0.00     0.000 C 
BRANCH   9  10
ATOM     10  C   UNL     1      -6.613   4.170 -10.767  1.00  0.00     0.006 C 
BRANCH  10  11
ATOM     11  C   UNL     1      -5.790   3.701  -9.560  1.00  0.00     0.053 C 
BRANCH  11  12
ATOM     12  C   UNL     1      -5.907   2.223  -9.346  1.00  0.00     0.041 C 
ATOM     13  O   UNL     1      -5.644   1.721  -8.220  1.00  0.00    -0.550 OA
ATOM     14  O   UNL     1      -6.378   1.408 -10.366  1.00  0.00    -0.550 OA
ENDBRANCH  11  12
ENDBRANCH  10  11
ENDBRANCH   9  10
ENDBRANCH   8   9
ENDBRANCH   7   8
ENDBRANCH   6   7
ENDBRANCH   5   6
ENDBRANCH   4   5
ENDBRANCH   3   4
ENDBRANCH   2   3
ENDBRANCH   1   2
BRANCH   1  15
ATOM     15  C   UNL     1      -0.553   2.481  -7.961  1.00  0.00     0.000 C 
BRANCH  15  16
ATOM     16  C   UNL     1       0.272   1.434  -8.733  1.00  0.00     0.000 C 
BRANCH  16  17
ATOM     17  C   UNL     1       0.205   1.553 -10.266  1.00  0.00     0.000 C 
BRANCH  17  18
ATOM     18  C   UNL     1       1.445   2.229 -10.893  1.00  0.00    -0.000 C 
BRANCH  18  19
ATOM     19  C   UNL     1       1.140   3.640 -11.425  1.00  0.00    -0.000 C 
BRANCH  19  20
ATOM     20  C   UNL     1       1.160   3.708 -12.961  1.00  0.00    -0.000 C 
BRANCH  20  21
ATOM     21  C   UNL     1      -0.220   3.428 -13.583  1.00  0.00    -0.000 C 
BRANCH  21  22
ATOM     22  C   UNL     1      -1.007   4.713 -13.883  1.00  0.00    -0.000 C 
BRANCH  22  23
ATOM     23  C   UNL     1      -2.429   4.691 -13.293  1.00  0.00    -0.000 C 
BRANCH  23  24
ATOM     24  C   UNL     1      -2.548   3.735 -12.088  1.00  0.00    -0.000 C 
BRANCH  24  25
ATOM     25  C   UNL     1      -3.602   2.630 -12.280  1.00  0.00    -0.003 C 
ATOM     26  C   UNL     1      -3.081   1.238 -11.927  1.00  0.00     0.004 C 
ENDBRANCH  24  25
ENDBRANCH  23  24
ENDBRANCH  22  23
ENDBRANCH  21  22
ENDBRANCH  20  21
ENDBRANCH  19  20
ENDBRANCH  18  19
ENDBRANCH  17  18
ENDBRANCH  16  17
ENDBRANCH  15  16
ENDBRANCH   1  15
TORSDOF 22
ENDMDL
MODEL 2
REMARK VINA RESULT:    -3.461      1.613      3.684
REMARK INTER + INTRA:         -12.557
REMARK INTER:                  -8.475
REMARK INTRA:                  -4.082
REMARK UNBOUND:                -4.644
REMARK SMILES CCCCCCCCCCCCCCCCCCCCCCCC(=O)[O-]
REMARK SMILES IDX 13 1 14 2 15 3 16 4 17 5 18 6 19 7 20 8 21 9 22 10 23 11
REMARK SMILES IDX 24 12 25 13 26 14 12 15 11 16 10 17 9 18 8 19 7 20 6 21 5 22
REMARK SMILES IDX 4 23 3 24 2 25 1 26
REMARK H PARENT
REMARK Flexibility Score: inf
ROOT
ATOM      1  C   UNL     1       0.623   2.180  -9.603  1.00  0.00     0.000 C 
ENDROOT
BRANCH   1   2
ATOM      2  C   UNL     1      -0.070   2.148  -8.231  1.00  0.00     0.000 C 
BRANCH   2   3
ATOM      3  C   UNL     1      -1.102   3.277  -8.113  1.00  0.00     0.000 C 
BRANCH   3   4
ATOM      4  C   UNL     1      -0.653   4.521  -8.896  1.00  0.00     0.000 C 
BRANCH   4   5
ATOM      5  C   UNL     1      -0.875   5.829  -8.106  1.00  0.00     0.000 C 
BRANCH   5   6
ATOM      6  C   UNL     1      -1.772   6.850  -8.832  1.00  0.00     0.000 C 
BRANCH   6   7
ATOM      7  C   UNL     1      -2.514   6.309 -10.069  1.00  0.00     0.000 C 
BRANCH   7   8
ATOM      8  C   UNL     1      -4.041   6.507 -10.052  1.00  0.00     0.000 C 
BRANCH   8   9
ATOM      9  C   UNL     1      -4.817   5.184 -10.115  1.00  0.00     0.000 C 
BRANCH   9  10
ATOM     10  C   UNL     1      -4.434   4.265  -8.945  1.00  0.00     0.006 C 
BRANCH  10  11
ATOM     11  C   UNL     1      -4.429   2.783  -9.346  1.00  0.00     0.053 C 
BRANCH  11  12
ATOM     12  C   UNL     1      -5.740   2.123  -9.048  1.00  0.00     0.041 C 
ATOM     13  O   UNL     1      -6.381   1.541  -9.964  1.00  0.00    -0.550 OA
ATOM     14  O   UNL     1      -6.218   2.081  -7.745  1.00  0.00    -0.550 OA
ENDBRANCH  11  12
ENDBRANCH  10  11
ENDBRANCH   9  10
ENDBRANCH   8   9
ENDBRANCH   7   8
ENDBRANCH   6   7
ENDBRANCH   5   6
ENDBRANCH   4   5
ENDBRANCH   3   4
ENDBRANCH   2   3
ENDBRANCH   1   2
BRANCH   1  15
ATOM     15  C   UNL     1       0.169   1.041 -10.537  1.00  0.00     0.000 C 
BRANCH  15  16
ATOM     16  C   UNL     1      -0.526   1.497 -11.835  1.00  0.00     0.000 C 
BRANCH  16  17
ATOM     17  C   UNL     1      -1.885   2.193 -11.637  1.00  0.00     0.000 C 
BRANCH  17  18
ATOM     18  C   UNL     1      -1.971   3.590 -12.290  1.00  0.00    -0.000 C 
BRANCH  18  19
ATOM     19  C   UNL     1      -0.686   3.965 -13.048  1.00  0.00    -0.000 C 
BRANCH  19  20
ATOM     20  C   UNL     1       0.150   5.021 -12.306  1.00  0.00    -0.000 C 
BRANCH  20  21
ATOM     21  C   UNL     1       1.628   4.613 -12.166  1.00  0.00    -0.000 C 
BRANCH  21  22
ATOM     22  C   UNL     1       2.252   4.179 -13.501  1.00  0.00    -0.000 C 
BRANCH  22  23
ATOM     23  C   UNL     1       3.288   3.051 -13.335  1.00  0.00    -0.000 C 
BRANCH  23  24
ATOM     24  C   UNL     1       3.323   2.496 -11.895  1.00  0.00    -0.000 C 
BRANCH  24  25
ATOM     25  C   UNL     1       4.743   2.192 -11.387  1.00  0.00    -0.003 C 
ATOM     26  C   UNL     1       5.550   1.325 -12.350  1.00  0.00     0.004 C 
ENDBRANCH  24  25
ENDBRANCH  23  24
ENDBRANCH  22  23
ENDBRANCH  21  22
ENDBRANCH  20  21
ENDBRANCH  19  20
ENDBRANCH  18  19
ENDBRANCH  17  18
ENDBRANCH  16  17
ENDBRANCH  15  16
ENDBRANCH   1  15
TORSDOF 22
ENDMDL
MODEL 3
REMARK VINA RESULT:    -3.460      1.378      2.357
REMARK INTER + INTRA:         -12.554
REMARK INTER:                  -7.990
REMARK INTRA:                  -4.564
REMARK UNBOUND:                -4.644
REMARK SMILES CCCCCCCCCCCCCCCCCCCCCCCC(=O)[O-]
REMARK SMILES IDX 13 1 14 2 15 3 16 4 17 5 18 6 19 7 20 8 21 9 22 10 23 11
REMARK SMILES IDX 24 12 25 13 26 14 12 15 11 16 10 17 9 18 8 19 7 20 6 21 5 22
REMARK SMILES IDX 4 23 3 24 2 25 1 26
REMARK H PARENT
REMARK Flexibility Score: inf
ROOT
ATOM      1  C   UNL     1      -1.201   3.242  -8.131  1.00  0.00     0.000 C 
ENDROOT
BRANCH   1   2
ATOM      2  C   UNL     1      -0.707   4.653  -8.487  1.00  0.00     0.000 C 
BRANCH   2   3
ATOM      3  C   UNL     1      -1.847   5.505  -9.060  1.00  0.00     0.000 C 
BRANCH   3   4
ATOM      4  C   UNL     1      -3.215   4.986  -8.590  1.00  0.00     0.000 C 
BRANCH   4   5
ATOM      5  C   UNL     1      -4.375   5.489  -9.474  1.00  0.00     0.000 C 
BRANCH   5   6
ATOM      6  C   UNL     1      -3.963   6.585 -10.477  1.00  0.00     0.000 C 
BRANCH   6   7
ATOM      7  C   UNL     1      -4.972   6.849 -11.611  1.00  0.00     0.000 C 
BRANCH   7   8
ATOM      8  C   UNL     1      -6.302   6.080 -11.494  1.00  0.00     0.000 C 
BRANCH   8   9
ATOM      9  C   UNL     1      -6.429   4.944 -12.518  1.00  0.00     0.000 C 
BRANCH   9  10
ATOM     10  C   UNL     1      -6.347   3.572 -11.831  1.00  0.00     0.006 C 
BRANCH  10  11
ATOM     11  C   UNL     1      -7.234   3.493 -10.582  1.00  0.00     0.053 C 
BRANCH  11  12
ATOM     12  C   UNL     1      -6.645   2.598  -9.536  1.00  0.00     0.041 C 
ATOM     13  O   UNL     1      -6.123   1.498  -9.862  1.00  0.00    -0.550 OA
ATOM     14  O   UNL     1      -6.602   3.010  -8.211  1.00  0.00    -0.550 OA
ENDBRANCH  11  12
ENDBRANCH  10  11
ENDBRANCH   9  10
ENDBRANCH   8   9
ENDBRANCH   7   8
ENDBRANCH   6   7
ENDBRANCH   5   6
ENDBRANCH   4   5
ENDBRANCH   3   4
ENDBRANCH   2   3
ENDBRANCH   1   2
BRANCH   1  15
ATOM     15  C   UNL     1      -0.118   2.160  -8.299  1.00  0.00     0.000 C 
BRANCH  15  16
ATOM     16  C   UNL     1       0.026   1.593  -9.725  1.00  0.00     0.000 C 
BRANCH  16  17
ATOM     17  C   UNL     1       1.255   2.096 -10.506  1.00  0.00     0.000 C 
BRANCH  17  18
ATOM     18  C   UNL     1       0.921   2.632 -11.915  1.00  0.00    -0.000 C 
BRANCH  18  19
ATOM     19  C   UNL     1      -0.071   3.809 -11.877  1.00  0.00    -0.000 C 
BRANCH  19  20
ATOM     20  C   UNL     1      -1.289   3.583 -12.787  1.00  0.00    -0.000 C 
BRANCH  20  21
ATOM     21  C   UNL     1      -2.609   3.497 -11.998  1.00  0.00    -0.000 C 
BRANCH  21  22
ATOM     22  C   UNL     1      -2.999   2.051 -11.655  1.00  0.00    -0.000 C 
BRANCH  22  23
ATOM     23  C   UNL     1      -2.778   1.080 -12.829  1.00  0.00    -0.000 C 
BRANCH  23  24
ATOM     24  C   UNL     1      -1.906  -0.130 -12.432  1.00  0.00    -0.000 C 
BRANCH  24  25
ATOM     25  C   UNL     1      -0.729  -0.382 -13.392  1.00  0.00    -0.003 C 
ATOM     26  C   UNL     1       0.511  -0.926 -12.687  1.00  0.00     0.004 C 
ENDBRANCH  24  25
ENDBRANCH  23  24
ENDBRANCH  22  23
ENDBRANCH  21  22
ENDBRANCH  20  21
ENDBRANCH  19  20
ENDBRANCH  18  19
ENDBRANCH  17  18
ENDBRANCH  16  17
ENDBRANCH  15  16
ENDBRANCH   1  15
TORSDOF 22
ENDMDL
MODEL 4
REMARK VINA RESULT:    -3.400      1.476      2.917
REMARK INTER + INTRA:         -12.417
REMARK INTER:                  -7.896
REMARK INTRA:                  -4.521
REMARK UNBOUND:                -4.644
REMARK SMILES CCCCCCCCCCCCCCCCCCCCCCCC(=O)[O-]
REMARK SMILES IDX 13 1 14 2 15 3 16 4 17 5 18 6 19 7 20 8 21 9 22 10 23 11
REMARK SMILES IDX 24 12 25 13 26 14 12 15 11 16 10 17 9 18 8 19 7 20 6 21 5 22
REMARK SMILES IDX 4 23 3 24 2 25 1 26
REMARK H PARENT
REMARK Flexibility Score: inf
ROOT
ATOM      1  C   UNL     1      -0.663   2.813  -7.979  1.00  0.00     0.000 C 
ENDROOT
BRANCH   1   2
ATOM      2  C   UNL     1      -0.576   4.090  -8.831  1.00  0.00     0.000 C 
BRANCH   2   3
ATOM      3  C   UNL     1      -1.089   5.306  -8.049  1.00  0.00     0.000 C 
BRANCH   3   4
ATOM      4  C   UNL     1      -0.694   6.618  -8.744  1.00  0.00     0.000 C 
BRANCH   4   5
ATOM      5  C   UNL     1      -1.918   7.471  -9.138  1.00  0.00     0.000 C 
BRANCH   5   6
ATOM      6  C   UNL     1      -2.068   7.682 -10.656  1.00  0.00     0.000 C 
BRANCH   6   7
ATOM      7  C   UNL     1      -3.376   7.144 -11.268  1.00  0.00     0.000 C 
BRANCH   7   8
ATOM      8  C   UNL     1      -4.473   6.784 -10.249  1.00  0.00     0.000 C 
BRANCH   8   9
ATOM      9  C   UNL     1      -4.879   5.304 -10.303  1.00  0.00     0.000 C 
BRANCH   9  10
ATOM     10  C   UNL     1      -4.337   4.541  -9.086  1.00  0.00     0.006 C 
BRANCH  10  11
ATOM     11  C   UNL     1      -4.340   3.021  -9.303  1.00  0.00     0.053 C 
BRANCH  11  12
ATOM     12  C   UNL     1      -5.703   2.434  -9.105  1.00  0.00     0.041 C 
ATOM     13  O   UNL     1      -6.079   1.452  -9.801  1.00  0.00    -0.550 OA
ATOM     14  O   UNL     1      -6.531   2.919  -8.102  1.00  0.00    -0.550 OA
ENDBRANCH  11  12
ENDBRANCH  10  11
ENDBRANCH   9  10
ENDBRANCH   8   9
ENDBRANCH   7   8
ENDBRANCH   6   7
ENDBRANCH   5   6
ENDBRANCH   4   5
ENDBRANCH   3   4
ENDBRANCH   2   3
ENDBRANCH   1   2
BRANCH   1  15
ATOM     15  C   UNL     1       0.162   1.645  -8.553  1.00  0.00     0.000 C 
BRANCH  15  16
ATOM     16  C   UNL     1       0.765   1.892  -9.949  1.00  0.00     0.000 C 
BRANCH  16  17
ATOM     17  C   UNL     1       0.496   0.782 -10.982  1.00  0.00     0.000 C 
BRANCH  17  18
ATOM     18  C   UNL     1      -0.404   1.227 -12.155  1.00  0.00    -0.000 C 
BRANCH  18  19
ATOM     19  C   UNL     1      -1.785   1.716 -11.686  1.00  0.00    -0.000 C 
BRANCH  19  20
ATOM     20  C   UNL     1      -2.291   2.922 -12.495  1.00  0.00    -0.000 C 
BRANCH  20  21
ATOM     21  C   UNL     1      -1.726   4.259 -11.981  1.00  0.00    -0.000 C 
BRANCH  21  22
ATOM     22  C   UNL     1      -0.612   4.816 -12.881  1.00  0.00    -0.000 C 
BRANCH  22  23
ATOM     23  C   UNL     1       0.769   4.790 -12.202  1.00  0.00    -0.000 C 
BRANCH  23  24
ATOM     24  C   UNL     1       1.734   5.836 -12.798  1.00  0.00    -0.000 C 
BRANCH  24  25
ATOM     25  C   UNL     1       1.258   7.288 -12.613  1.00  0.00    -0.003 C 
ATOM     26  C   UNL     1       1.656   7.881 -11.263  1.00  0.00     0.004 C 
ENDBRANCH  24  25
ENDBRANCH  23  24
ENDBRANCH  22  23
ENDBRANCH  21  22
ENDBRANCH  20  21
ENDBRANCH  19  20
ENDBRANCH  18  19
ENDBRANCH  17  18
ENDBRANCH  16  17
ENDBRANCH  15  16
ENDBRANCH   1  15
TORSDOF 22
ENDMDL
MODEL 5
REMARK VINA RESULT:    -3.399      1.283      2.662
REMARK INTER + INTRA:         -12.414
REMARK INTER:                  -7.715
REMARK INTRA:                  -4.699
REMARK UNBOUND:                -4.644
REMARK SMILES CCCCCCCCCCCCCCCCCCCCCCCC(=O)[O-]
REMARK SMILES IDX 13 1 14 2 15 3 16 4 17 5 18 6 19 7 20 8 21 9 22 10 23 11
REMARK SMILES IDX 24 12 25 13 26 14 12 15 11 16 10 17 9 18 8 19 7 20 6 21 5 22
REMARK SMILES IDX 4 23 3 24 2 25 1 26
REMARK H PARENT
REMARK Flexibility Score: inf
ROOT
ATOM      1  C   UNL     1      -0.892   5.445  -8.158  1.00  0.00     0.000 C 
ENDROOT
BRANCH   1   2
ATOM      2  C   UNL     1      -0.991   6.904  -8.630  1.00  0.00     0.000 C 
BRANCH   2   3
ATOM      3  C   UNL     1      -2.208   7.104  -9.543  1.00  0.00     0.000 C 
BRANCH   3   4
ATOM      4  C   UNL     1      -1.906   8.125 -10.651  1.00  0.00     0.000 C 
BRANCH   4   5
ATOM      5  C   UNL     1      -2.762   7.896 -11.915  1.00  0.00     0.000 C 
BRANCH   5   6
ATOM      6  C   UNL     1      -4.160   7.317 -11.624  1.00  0.00     0.000 C 
BRANCH   6   7
ATOM      7  C   UNL     1      -4.528   6.055 -12.428  1.00  0.00     0.000 C 
BRANCH   7   8
ATOM      8  C   UNL     1      -5.378   5.021 -11.665  1.00  0.00     0.000 C 
BRANCH   8   9
ATOM      9  C   UNL     1      -4.532   3.937 -10.983  1.00  0.00     0.000 C 
BRANCH   9  10
ATOM     10  C   UNL     1      -5.165   2.549 -11.165  1.00  0.00     0.006 C 
BRANCH  10  11
ATOM     11  C   UNL     1      -5.661   1.957  -9.839  1.00  0.00     0.053 C 
BRANCH  11  12
ATOM     12  C   UNL     1      -6.724   2.806  -9.213  1.00  0.00     0.041 C 
ATOM     13  O   UNL     1      -7.805   3.024  -9.824  1.00  0.00    -0.550 OA
ATOM     14  O   UNL     1      -6.556   3.294  -7.924  1.00  0.00    -0.550 OA
ENDBRANCH  11  12
ENDBRANCH  10  11
ENDBRANCH   9  10
ENDBRANCH   8   9
ENDBRANCH   7   8
ENDBRANCH   6   7
ENDBRANCH   5   6
ENDBRANCH   4   5
ENDBRANCH   3   4
ENDBRANCH   2   3
ENDBRANCH   1   2
BRANCH   1  15
ATOM     15  C   UNL     1      -2.108   4.591  -8.569  1.00  0.00     0.000 C 
BRANCH  15  16
ATOM     16  C   UNL     1      -1.859   3.071  -8.601  1.00  0.00     0.000 C 
BRANCH  16  17
ATOM     17  C   UNL     1      -0.462   2.629  -8.126  1.00  0.00     0.000 C 
BRANCH  17  18
ATOM     18  C   UNL     1       0.184   1.544  -9.015  1.00  0.00    -0.000 C 
BRANCH  18  19
ATOM     19  C   UNL     1       1.009   2.143 -10.168  1.00  0.00    -0.000 C 
BRANCH  19  20
ATOM     20  C   UNL     1       0.779   1.412 -11.500  1.00  0.00    -0.000 C 
BRANCH  20  21
ATOM     21  C   UNL     1      -0.619   0.773 -11.591  1.00  0.00    -0.000 C 
BRANCH  21  22
ATOM     22  C   UNL     1      -1.679   1.744 -12.135  1.00  0.00    -0.000 C 
BRANCH  22  23
ATOM     23  C   UNL     1      -1.213   2.484 -13.402  1.00  0.00    -0.000 C 
BRANCH  23  24
ATOM     24  C   UNL     1      -1.460   4.005 -13.315  1.00  0.00    -0.000 C 
BRANCH  24  25
ATOM     25  C   UNL     1      -1.080   4.614 -11.953  1.00  0.00    -0.003 C 
ATOM     26  C   UNL     1       0.272   5.325 -11.972  1.00  0.00     0.004 C 
ENDBRANCH  24  25
ENDBRANCH  23  24
ENDBRANCH  22  23
ENDBRANCH  21  22
ENDBRANCH  20  21
ENDBRANCH  19  20
ENDBRANCH  18  19
ENDBRANCH  17  18
ENDBRANCH  16  17
ENDBRANCH  15  16
ENDBRANCH   1  15
TORSDOF 22
ENDMDL
MODEL 6
REMARK VINA RESULT:    -3.398      1.312      3.348
REMARK INTER + INTRA:         -12.412
REMARK INTER:                  -7.646
REMARK INTRA:                  -4.766
REMARK UNBOUND:                -4.644
REMARK SMILES CCCCCCCCCCCCCCCCCCCCCCCC(=O)[O-]
REMARK SMILES IDX 13 1 14 2 15 3 16 4 17 5 18 6 19 7 20 8 21 9 22 10 23 11
REMARK SMILES IDX 24 12 25 13 26 14 12 15 11 16 10 17 9 18 8 19 7 20 6 21 5 22
REMARK SMILES IDX 4 23 3 24 2 25 1 26
REMARK H PARENT
REMARK Flexibility Score: inf
ROOT
ATOM      1  C   UNL     1      -3.023   4.651  -8.837  1.00  0.00     0.000 C 
ENDROOT
BRANCH   1   2
ATOM      2  C   UNL     1      -4.554   4.547  -8.930  1.00  0.00     0.000 C 
BRANCH   2   3
ATOM      3  C   UNL     1      -5.097   5.452 -10.043  1.00  0.00     0.000 C 
BRANCH   3   4
ATOM      4  C   UNL     1      -4.074   6.532 -10.427  1.00  0.00     0.000 C 
BRANCH   4   5
ATOM      5  C   UNL     1      -4.161   6.927 -11.916  1.00  0.00     0.000 C 
BRANCH   5   6
ATOM      6  C   UNL     1      -4.471   5.747 -12.857  1.00  0.00     0.000 C 
BRANCH   6   7
ATOM      7  C   UNL     1      -3.241   5.095 -13.519  1.00  0.00     0.000 C 
BRANCH   7   8
ATOM      8  C   UNL     1      -3.186   3.558 -13.422  1.00  0.00     0.000 C 
BRANCH   8   9
ATOM      9  C   UNL     1      -3.030   3.054 -11.980  1.00  0.00     0.000 C 
BRANCH   9  10
ATOM     10  C   UNL     1      -3.945   1.849 -11.716  1.00  0.00     0.006 C 
BRANCH  10  11
ATOM     11  C   UNL     1      -5.429   2.195 -11.894  1.00  0.00     0.053 C 
BRANCH  11  12
ATOM     12  C   UNL     1      -6.260   1.678 -10.760  1.00  0.00     0.041 C 
ATOM     13  O   UNL     1      -7.422   1.237 -10.973  1.00  0.00    -0.550 OA
ATOM     14  O   UNL     1      -5.727   1.611  -9.480  1.00  0.00    -0.550 OA
ENDBRANCH  11  12
ENDBRANCH  10  11
ENDBRANCH   9  10
ENDBRANCH   8   9
ENDBRANCH   7   8
ENDBRANCH   6   7
ENDBRANCH   5   6
ENDBRANCH   4   5
ENDBRANCH   3   4
ENDBRANCH   2   3
ENDBRANCH   1   2
BRANCH   1  15
ATOM     15  C   UNL     1      -2.336   3.291  -8.606  1.00  0.00     0.000 C 
BRANCH  15  16
ATOM     16  C   UNL     1      -0.848   3.368  -8.212  1.00  0.00     0.000 C 
BRANCH  16  17
ATOM     17  C   UNL     1      -0.100   2.022  -8.228  1.00  0.00     0.000 C 
BRANCH  17  18
ATOM     18  C   UNL     1       0.706   1.774  -9.522  1.00  0.00    -0.000 C 
BRANCH  18  19
ATOM     19  C   UNL     1      -0.155   1.172 -10.646  1.00  0.00    -0.000 C 
BRANCH  19  20
ATOM     20  C   UNL     1       0.382   1.510 -12.046  1.00  0.00    -0.000 C 
BRANCH  20  21
ATOM     21  C   UNL     1       1.294   2.750 -12.047  1.00  0.00    -0.000 C 
BRANCH  21  22
ATOM     22  C   UNL     1       0.578   4.012 -12.555  1.00  0.00    -0.000 C 
BRANCH  22  23
ATOM     23  C   UNL     1       0.794   5.228 -11.636  1.00  0.00    -0.000 C 
BRANCH  23  24
ATOM     24  C   UNL     1      -0.537   5.822 -11.128  1.00  0.00    -0.000 C 
BRANCH  24  25
ATOM     25  C   UNL     1      -0.355   7.048 -10.215  1.00  0.00    -0.003 C 
ATOM     26  C   UNL     1       0.258   6.699  -8.861  1.00  0.00     0.004 C 
ENDBRANCH  24  25
ENDBRANCH  23  24
ENDBRANCH  22  23
ENDBRANCH  21  22
ENDBRANCH  20  21
ENDBRANCH  19  20
ENDBRANCH  18  19
ENDBRANCH  17  18
ENDBRANCH  16  17
ENDBRANCH  15  16
ENDBRANCH   1  15
TORSDOF 22
ENDMDL
MODEL 7
REMARK VINA RESULT:    -3.381      1.441      3.449
REMARK INTER + INTRA:         -12.374
REMARK INTER:                  -7.911
REMARK INTRA:                  -4.462
REMARK UNBOUND:                -4.644
REMARK SMILES CCCCCCCCCCCCCCCCCCCCCCCC(=O)[O-]
REMARK SMILES IDX 13 1 14 2 15 3 16 4 17 5 18 6 19 7 20 8 21 9 22 10 23 11
REMARK SMILES IDX 24 12 25 13 26 14 12 15 11 16 10 17 9 18 8 19 7 20 6 21 5 22
REMARK SMILES IDX 4 23 3 24 2 25 1 26
REMARK H PARENT
REMARK Flexibility Score: inf
ROOT
ATOM      1  C   UNL     1       0.048   1.727 -10.086  1.00  0.00     0.000 C 
ENDROOT
BRANCH   1   2
ATOM      2  C   UNL     1       0.302   1.487  -8.589  1.00  0.00     0.000 C 
BRANCH   2   3
ATOM      3  C   UNL     1      -0.464   2.505  -7.734  1.00  0.00     0.000 C 
BRANCH   3   4
ATOM      4  C   UNL     1      -1.550   3.214  -8.557  1.00  0.00     0.000 C 
BRANCH   4   5
ATOM      5  C   UNL     1      -1.481   4.751  -8.429  1.00  0.00     0.000 C 
BRANCH   5   6
ATOM      6  C   UNL     1      -2.813   5.462  -8.738  1.00  0.00     0.000 C 
BRANCH   6   7
ATOM      7  C   UNL     1      -2.696   6.721  -9.619  1.00  0.00     0.000 C 
BRANCH   7   8
ATOM      8  C   UNL     1      -3.914   7.001 -10.520  1.00  0.00     0.000 C 
BRANCH   8   9
ATOM      9  C   UNL     1      -5.077   6.030 -10.273  1.00  0.00     0.000 C 
BRANCH   9  10
ATOM     10  C   UNL     1      -6.209   6.260 -11.285  1.00  0.00     0.006 C 
BRANCH  10  11
ATOM     11  C   UNL     1      -6.470   5.024 -12.158  1.00  0.00     0.053 C 
BRANCH  11  12
ATOM     12  C   UNL     1      -7.837   4.458 -11.926  1.00  0.00     0.041 C 
ATOM     13  O   UNL     1      -7.974   3.262 -11.551  1.00  0.00    -0.550 OA
ATOM     14  O   UNL     1      -8.957   5.269 -12.048  1.00  0.00    -0.550 OA
ENDBRANCH  11  12
ENDBRANCH  10  11
ENDBRANCH   9  10
ENDBRANCH   8   9
ENDBRANCH   7   8
ENDBRANCH   6   7
ENDBRANCH   5   6
ENDBRANCH   4   5
ENDBRANCH   3   4
ENDBRANCH   2   3
ENDBRANCH   1   2
BRANCH   1  15
ATOM     15  C   UNL     1       1.342   1.764 -10.922  1.00  0.00     0.000 C 
BRANCH  15  16
ATOM     16  C   UNL     1       1.681   3.132 -11.544  1.00  0.00     0.000 C 
BRANCH  16  17
ATOM     17  C   UNL     1       0.550   4.176 -11.478  1.00  0.00     0.000 C 
BRANCH  17  18
ATOM     18  C   UNL     1      -0.295   4.260 -12.768  1.00  0.00    -0.000 C 
BRANCH  18  19
ATOM     19  C   UNL     1      -1.559   5.119 -12.589  1.00  0.00    -0.000 C 
BRANCH  19  20
ATOM     20  C   UNL     1      -2.852   4.330 -12.852  1.00  0.00    -0.000 C 
BRANCH  20  21
ATOM     21  C   UNL     1      -2.871   2.969 -12.132  1.00  0.00    -0.000 C 
BRANCH  21  22
ATOM     22  C   UNL     1      -4.052   2.087 -12.567  1.00  0.00    -0.000 C 
BRANCH  22  23
ATOM     23  C   UNL     1      -4.929   1.642 -11.382  1.00  0.00    -0.000 C 
BRANCH  23  24
ATOM     24  C   UNL     1      -4.615   2.429 -10.093  1.00  0.00    -0.000 C 
BRANCH  24  25
ATOM     25  C   UNL     1      -5.494   2.027  -8.895  1.00  0.00    -0.003 C 
ATOM     26  C   UNL     1      -6.370   3.169  -8.386  1.00  0.00     0.004 C 
ENDBRANCH  24  25
ENDBRANCH  23  24
ENDBRANCH  22  23
ENDBRANCH  21  22
ENDBRANCH  20  21
ENDBRANCH  19  20
ENDBRANCH  18  19
ENDBRANCH  17  18
ENDBRANCH  16  17
ENDBRANCH  15  16
ENDBRANCH   1  15
TORSDOF 22
ENDMDL
MODEL 8
REMARK VINA RESULT:    -3.369      1.476      3.463
REMARK INTER + INTRA:         -12.346
REMARK INTER:                  -7.706
REMARK INTRA:                  -4.640
REMARK UNBOUND:                -4.644
REMARK SMILES CCCCCCCCCCCCCCCCCCCCCCCC(=O)[O-]
REMARK SMILES IDX 13 1 14 2 15 3 16 4 17 5 18 6 19 7 20 8 21 9 22 10 23 11
REMARK SMILES IDX 24 12 25 13 26 14 12 15 11 16 10 17 9 18 8 19 7 20 6 21 5 22
REMARK SMILES IDX 4 23 3 24 2 25 1 26
REMARK H PARENT
REMARK Flexibility Score: inf
ROOT
ATOM      1  C   UNL     1       0.941   2.084 -10.235  1.00  0.00     0.000 C 
ENDROOT
BRANCH   1   2
ATOM      2  C   UNL     1      -0.477   2.078  -9.642  1.00  0.00     0.000 C 
BRANCH   2   3
ATOM      3  C   UNL     1      -0.469   2.595  -8.197  1.00  0.00     0.000 C 
BRANCH   3   4
ATOM      4  C   UNL     1      -1.205   3.939  -8.086  1.00  0.00     0.000 C 
BRANCH   4   5
ATOM      5  C   UNL     1      -0.427   5.097  -8.745  1.00  0.00     0.000 C 
BRANCH   5   6
ATOM      6  C   UNL     1      -1.250   6.390  -8.903  1.00  0.00     0.000 C 
BRANCH   6   7
ATOM      7  C   UNL     1      -2.776   6.216  -8.781  1.00  0.00     0.000 C 
BRANCH   7   8
ATOM      8  C   UNL     1      -3.570   6.505 -10.068  1.00  0.00     0.000 C 
BRANCH   8   9
ATOM      9  C   UNL     1      -4.662   5.461 -10.345  1.00  0.00     0.000 C 
BRANCH   9  10
ATOM     10  C   UNL     1      -4.826   4.507  -9.152  1.00  0.00     0.006 C 
BRANCH  10  11
ATOM     11  C   UNL     1      -4.494   3.055  -9.519  1.00  0.00     0.053 C 
BRANCH  11  12
ATOM     12  C   UNL     1      -5.616   2.124  -9.176  1.00  0.00     0.041 C 
ATOM     13  O   UNL     1      -6.102   1.363 -10.055  1.00  0.00    -0.550 OA
ATOM     14  O   UNL     1      -6.074   2.039  -7.868  1.00  0.00    -0.550 OA
ENDBRANCH  11  12
ENDBRANCH  10  11
ENDBRANCH   9  10
ENDBRANCH   8   9
ENDBRANCH   7   8
ENDBRANCH   6   7
ENDBRANCH   5   6
ENDBRANCH   4   5
ENDBRANCH   3   4
ENDBRANCH   2   3
ENDBRANCH   1   2
BRANCH   1  15
ATOM     15  C   UNL     1       1.023   1.409 -11.618  1.00  0.00     0.000 C 
BRANCH  15  16
ATOM     16  C   UNL     1      -0.051   0.338 -11.887  1.00  0.00     0.000 C 
BRANCH  16  17
ATOM     17  C   UNL     1      -0.691   0.394 -13.287  1.00  0.00     0.000 C 
BRANCH  17  18
ATOM     18  C   UNL     1      -2.217   0.154 -13.284  1.00  0.00    -0.000 C 
BRANCH  18  19
ATOM     19  C   UNL     1      -2.941   0.977 -12.204  1.00  0.00    -0.000 C 
BRANCH  19  20
ATOM     20  C   UNL     1      -3.828   2.082 -12.800  1.00  0.00    -0.000 C 
BRANCH  20  21
ATOM     21  C   UNL     1      -3.016   3.300 -13.277  1.00  0.00    -0.000 C 
BRANCH  21  22
ATOM     22  C   UNL     1      -1.966   3.751 -12.249  1.00  0.00    -0.000 C 
BRANCH  22  23
ATOM     23  C   UNL     1      -1.307   5.091 -12.622  1.00  0.00    -0.000 C 
BRANCH  23  24
ATOM     24  C   UNL     1       0.201   5.113 -12.294  1.00  0.00    -0.000 C 
BRANCH  24  25
ATOM     25  C   UNL     1       0.816   6.524 -12.318  1.00  0.00    -0.003 C 
ATOM     26  C   UNL     1       1.813   6.761 -11.186  1.00  0.00     0.004 C 
ENDBRANCH  24  25
ENDBRANCH  23  24
ENDBRANCH  22  23
ENDBRANCH  21  22
ENDBRANCH  20  21
ENDBRANCH  19  20
ENDBRANCH  18  19
ENDBRANCH  17  18
ENDBRANCH  16  17
ENDBRANCH  15  16
ENDBRANCH   1  15
TORSDOF 22
ENDMDL
MODEL 9
REMARK VINA RESULT:    -3.360      4.068      7.520
REMARK INTER + INTRA:         -12.325
REMARK INTER:                  -9.220
REMARK INTRA:                  -3.105
REMARK UNBOUND:                -4.644
REMARK SMILES CCCCCCCCCCCCCCCCCCCCCCCC(=O)[O-]
REMARK SMILES IDX 13 1 14 2 15 3 16 4 17 5 18 6 19 7 20 8 21 9 22 10 23 11
REMARK SMILES IDX 24 12 25 13 26 14 12 15 11 16 10 17 9 18 8 19 7 20 6 21 5 22
REMARK SMILES IDX 4 23 3 24 2 25 1 26
REMARK H PARENT
REMARK Flexibility Score: inf
ROOT
ATOM      1  C   UNL     1      -1.083   5.504  -8.143  1.00  0.00     0.000 C 
ENDROOT
BRANCH   1   2
ATOM      2  C   UNL     1      -0.711   4.222  -8.905  1.00  0.00     0.000 C 
BRANCH   2   3
ATOM      3  C   UNL     1      -0.845   2.990  -8.001  1.00  0.00     0.000 C 
BRANCH   3   4
ATOM      4  C   UNL     1      -0.025   1.811  -8.548  1.00  0.00     0.000 C 
BRANCH   4   5
ATOM      5  C   UNL     1       0.651   2.136  -9.897  1.00  0.00     0.000 C 
BRANCH   5   6
ATOM      6  C   UNL     1       0.312   1.137 -11.019  1.00  0.00     0.000 C 
BRANCH   6   7
ATOM      7  C   UNL     1       1.160   1.274 -12.299  1.00  0.00     0.000 C 
BRANCH   7   8
ATOM      8  C   UNL     1       2.330   2.270 -12.202  1.00  0.00     0.000 C 
BRANCH   8   9
ATOM      9  C   UNL     1       3.512   1.895 -13.107  1.00  0.00     0.000 C 
BRANCH   9  10
ATOM     10  C   UNL     1       3.935   0.436 -12.884  1.00  0.00     0.006 C 
BRANCH  10  11
ATOM     11  C   UNL     1       5.423   0.307 -12.533  1.00  0.00     0.053 C 
BRANCH  11  12
ATOM     12  C   UNL     1       5.788  -1.096 -12.159  1.00  0.00     0.041 C 
ATOM     13  O   UNL     1       5.388  -2.065 -12.858  1.00  0.00    -0.550 OA
ATOM     14  O   UNL     1       6.632  -1.332 -11.081  1.00  0.00    -0.550 OA
ENDBRANCH  11  12
ENDBRANCH  10  11
ENDBRANCH   9  10
ENDBRANCH   8   9
ENDBRANCH   7   8
ENDBRANCH   6   7
ENDBRANCH   5   6
ENDBRANCH   4   5
ENDBRANCH   3   4
ENDBRANCH   2   3
ENDBRANCH   1   2
BRANCH   1  15
ATOM     15  C   UNL     1      -2.200   6.315  -8.829  1.00  0.00     0.000 C 
BRANCH  15  16
ATOM     16  C   UNL     1      -3.479   5.519  -9.157  1.00  0.00     0.000 C 
BRANCH  16  17
ATOM     17  C   UNL     1      -4.289   6.053 -10.352  1.00  0.00     0.000 C 
BRANCH  17  18
ATOM     18  C   UNL     1      -4.346   5.081 -11.551  1.00  0.00    -0.000 C 
BRANCH  18  19
ATOM     19  C   UNL     1      -2.997   4.388 -11.812  1.00  0.00    -0.000 C 
BRANCH  19  20
ATOM     20  C   UNL     1      -3.120   2.857 -11.864  1.00  0.00    -0.000 C 
BRANCH  20  21
ATOM     21  C   UNL     1      -3.454   2.243 -10.492  1.00  0.00    -0.000 C 
BRANCH  21  22
ATOM     22  C   UNL     1      -4.903   1.741 -10.405  1.00  0.00    -0.000 C 
BRANCH  22  23
ATOM     23  C   UNL     1      -5.565   2.068  -9.053  1.00  0.00    -0.000 C 
BRANCH  23  24
ATOM     24  C   UNL     1      -6.645   3.163  -9.179  1.00  0.00    -0.000 C 
BRANCH  24  25
ATOM     25  C   UNL     1      -7.712   2.856 -10.244  1.00  0.00    -0.003 C 
ATOM     26  C   UNL     1      -7.793   3.922 -11.335  1.00  0.00     0.004 C 
ENDBRANCH  24  25
ENDBRANCH  23  24
ENDBRANCH  22  23
ENDBRANCH  21  22
ENDBRANCH  20  21
ENDBRANCH  19  20
ENDBRANCH  18  19
ENDBRANCH  17  18
ENDBRANCH  16  17
ENDBRANCH  15  16
ENDBRANCH   1  15
TORSDOF 22
ENDMDL
