MODEL 1
REMARK VINA RESULT:    -6.778      0.000      0.000
REMARK INTER + INTRA:          -8.572
REMARK INTER:                  -8.165
REMARK INTRA:                  -0.407
REMARK UNBOUND:                -0.407
REMARK SMILES O=c1c(O)c(-c2ccc(O)cc2O)oc2cc(O)cc(O)c12
REMARK SMILES IDX 5 1 3 2 2 3 1 4 22 5 20 6 19 7 17 8 16 9 15 10 14 11 6 12
REMARK SMILES IDX 8 13 7 14 9 15 11 16 12 17 10 18 13 20 4 22 21 24 18 26
REMARK H PARENT 10 19 13 21 4 23 21 25 18 27
REMARK Flexibility Score: inf
ROOT
ATOM      1  C   UNL     1      51.899  31.266  48.814  1.00  0.00     0.184 A 
ATOM      2  C   UNL     1      52.288  32.392  48.070  1.00  0.00     0.208 A 
ATOM      3  C   UNL     1      53.459  33.074  48.432  1.00  0.00     0.238 A 
ATOM      4  O   UNL     1      53.773  34.113  47.796  1.00  0.00    -0.285 OA
ATOM      5  C   UNL     1      54.235  32.612  49.524  1.00  0.00     0.111 A 
ATOM      6  C   UNL     1      55.460  33.203  49.954  1.00  0.00     0.134 A 
ATOM      7  C   UNL     1      56.075  32.741  51.125  1.00  0.00     0.093 A 
ATOM      8  C   UNL     1      55.542  31.668  51.844  1.00  0.00     0.123 A 
ATOM      9  C   UNL     1      54.378  31.048  51.399  1.00  0.00     0.094 A 
ATOM     10  C   UNL     1      53.722  31.508  50.254  1.00  0.00     0.146 A 
ATOM     11  O   UNL     1      52.609  30.894  49.872  1.00  0.00    -0.451 OA
ENDROOT
BRANCH   1  12
ATOM     12  C   UNL     1      50.686  30.492  48.475  1.00  0.00     0.063 A 
ATOM     13  C   UNL     1      48.271  30.246  48.619  1.00  0.00     0.047 A 
ATOM     14  C   UNL     1      49.437  30.956  48.917  1.00  0.00     0.020 A 
ATOM     15  C   UNL     1      48.340  29.056  47.888  1.00  0.00     0.119 A 
ATOM     16  C   UNL     1      49.583  28.572  47.462  1.00  0.00     0.093 A 
ATOM     17  C   UNL     1      50.759  29.276  47.763  1.00  0.00     0.130 A 
BRANCH  15  18
ATOM     18  O   UNL     1      47.169  28.361  47.595  1.00  0.00    -0.508 OA
ATOM     19  H   UNL     1      47.176  27.364  47.416  1.00  0.00     0.293 HD
ENDBRANCH  15  18
BRANCH  17  20
ATOM     20  O   UNL     1      51.996  28.759  47.375  1.00  0.00    -0.507 OA
ATOM     21  H   UNL     1      52.080  28.100  46.612  1.00  0.00     0.293 HD
ENDBRANCH  17  20
ENDBRANCH   1  12
BRANCH   2  22
ATOM     22  O   UNL     1      51.493  32.836  47.010  1.00  0.00    -0.502 OA
ATOM     23  H   UNL     1      51.572  32.453  46.075  1.00  0.00     0.293 HD
ENDBRANCH   2  22
BRANCH   6  24
ATOM     24  O   UNL     1      56.125  34.217  49.258  1.00  0.00    -0.507 OA
ATOM     25  H   UNL     1      55.697  35.075  48.946  1.00  0.00     0.293 HD
ENDBRANCH   6  24
BRANCH   8  26
ATOM     26  O   UNL     1      56.169  31.207  52.999  1.00  0.00    -0.508 OA
ATOM     27  H   UNL     1      57.179  31.166  53.074  1.00  0.00     0.293 HD
ENDBRANCH   8  26
TORSDOF 6
ENDMDL
MODEL 2
REMARK VINA RESULT:    -6.488      1.688      6.907
REMARK INTER + INTRA:          -8.223
REMARK INTER:                  -8.189
REMARK INTRA:                  -0.034
REMARK UNBOUND:                -0.407
REMARK SMILES O=c1c(O)c(-c2ccc(O)cc2O)oc2cc(O)cc(O)c12
REMARK SMILES IDX 5 1 3 2 2 3 1 4 22 5 20 6 19 7 17 8 16 9 15 10 14 11 6 12
REMARK SMILES IDX 8 13 7 14 9 15 11 16 12 17 10 18 13 20 4 22 21 24 18 26
REMARK H PARENT 10 19 13 21 4 23 21 25 18 27
REMARK Flexibility Score: inf
ROOT
ATOM      1  C   UNL     1      52.906  31.252  49.512  1.00  0.00     0.184 A 
ATOM      2  C   UNL     1      52.618  29.880  49.585  1.00  0.00     0.208 A 
ATOM      3  C   UNL     1      51.561  29.365  48.819  1.00  0.00     0.238 A 
ATOM      4  O   UNL     1      51.274  28.145  48.929  1.00  0.00    -0.285 OA
ATOM      5  C   UNL     1      50.816  30.228  47.977  1.00  0.00     0.111 A 
ATOM      6  C   UNL     1      49.750  29.808  47.127  1.00  0.00     0.134 A 
ATOM      7  C   UNL     1      48.999  30.768  46.436  1.00  0.00     0.093 A 
ATOM      8  C   UNL     1      49.318  32.126  46.515  1.00  0.00     0.123 A 
ATOM      9  C   UNL     1      50.393  32.539  47.297  1.00  0.00     0.094 A 
ATOM     10  C   UNL     1      51.140  31.610  48.026  1.00  0.00     0.146 A 
ATOM     11  O   UNL     1      52.150  32.049  48.766  1.00  0.00    -0.451 OA
ENDROOT
BRANCH   1  12
ATOM     12  C   UNL     1      54.016  31.855  50.280  1.00  0.00     0.063 A 
ATOM     13  C   UNL     1      55.253  32.014  52.367  1.00  0.00     0.047 A 
ATOM     14  C   UNL     1      54.216  31.460  51.612  1.00  0.00     0.020 A 
ATOM     15  C   UNL     1      56.093  32.980  51.806  1.00  0.00     0.119 A 
ATOM     16  C   UNL     1      55.888  33.398  50.486  1.00  0.00     0.093 A 
ATOM     17  C   UNL     1      54.846  32.852  49.722  1.00  0.00     0.130 A 
BRANCH  15  18
ATOM     18  O   UNL     1      57.125  33.521  52.571  1.00  0.00    -0.508 OA
ATOM     19  H   UNL     1      57.894  32.951  52.900  1.00  0.00     0.293 HD
ENDBRANCH  15  18
BRANCH  17  20
ATOM     20  O   UNL     1      54.621  33.311  48.424  1.00  0.00    -0.507 OA
ATOM     21  H   UNL     1      53.986  32.837  47.795  1.00  0.00     0.293 HD
ENDBRANCH  17  20
ENDBRANCH   1  12
BRANCH   2  22
ATOM     22  O   UNL     1      53.358  29.056  50.437  1.00  0.00    -0.502 OA
ATOM     23  H   UNL     1      54.371  29.030  50.424  1.00  0.00     0.293 HD
ENDBRANCH   2  22
BRANCH   6  24
ATOM     24  O   UNL     1      49.409  28.471  46.905  1.00  0.00    -0.507 OA
ATOM     25  H   UNL     1      49.607  27.960  46.058  1.00  0.00     0.293 HD
ENDBRANCH   6  24
BRANCH   8  26
ATOM     26  O   UNL     1      48.575  33.071  45.813  1.00  0.00    -0.508 OA
ATOM     27  H   UNL     1      48.789  33.307  44.851  1.00  0.00     0.293 HD
ENDBRANCH   8  26
TORSDOF 6
ENDMDL
MODEL 3
REMARK VINA RESULT:    -6.380      2.478      6.069
REMARK INTER + INTRA:          -8.093
REMARK INTER:                  -7.686
REMARK INTRA:                  -0.407
REMARK UNBOUND:                -0.407
REMARK SMILES O=c1c(O)c(-c2ccc(O)cc2O)oc2cc(O)cc(O)c12
REMARK SMILES IDX 5 1 3 2 2 3 1 4 22 5 20 6 19 7 17 8 16 9 15 10 14 11 6 12
REMARK SMILES IDX 8 13 7 14 9 15 11 16 12 17 10 18 13 20 4 22 21 24 18 26
REMARK H PARENT 10 19 13 21 4 23 21 25 18 27
REMARK Flexibility Score: inf
ROOT
ATOM      1  C   UNL     1      52.158  32.879  48.997  1.00  0.00     0.184 A 
ATOM      2  C   UNL     1      53.018  32.347  49.970  1.00  0.00     0.208 A 
ATOM      3  C   UNL     1      53.076  30.955  50.138  1.00  0.00     0.238 A 
ATOM      4  O   UNL     1      53.808  30.486  51.048  1.00  0.00    -0.285 OA
ATOM      5  C   UNL     1      52.284  30.113  49.318  1.00  0.00     0.111 A 
ATOM      6  C   UNL     1      52.293  28.687  49.374  1.00  0.00     0.134 A 
ATOM      7  C   UNL     1      51.373  27.960  48.606  1.00  0.00     0.093 A 
ATOM      8  C   UNL     1      50.491  28.607  47.737  1.00  0.00     0.123 A 
ATOM      9  C   UNL     1      50.516  29.995  47.633  1.00  0.00     0.094 A 
ATOM     10  C   UNL     1      51.396  30.750  48.412  1.00  0.00     0.146 A 
ATOM     11  O   UNL     1      51.379  32.071  48.288  1.00  0.00    -0.451 OA
ENDROOT
BRANCH   1  12
ATOM     12  C   UNL     1      52.062  34.335  48.757  1.00  0.00     0.063 A 
ATOM     13  C   UNL     1      51.010  36.462  49.286  1.00  0.00     0.047 A 
ATOM     14  C   UNL     1      51.130  35.085  49.491  1.00  0.00     0.020 A 
ATOM     15  C   UNL     1      51.809  37.104  48.335  1.00  0.00     0.119 A 
ATOM     16  C   UNL     1      52.726  36.361  47.582  1.00  0.00     0.093 A 
ATOM     17  C   UNL     1      52.849  34.977  47.777  1.00  0.00     0.130 A 
BRANCH  15  18
ATOM     18  O   UNL     1      51.681  38.478  48.144  1.00  0.00    -0.508 OA
ATOM     19  H   UNL     1      50.883  38.990  48.500  1.00  0.00     0.293 HD
ENDBRANCH  15  18
BRANCH  17  20
ATOM     20  O   UNL     1      53.731  34.240  46.986  1.00  0.00    -0.507 OA
ATOM     21  H   UNL     1      53.402  33.649  46.233  1.00  0.00     0.293 HD
ENDBRANCH  17  20
ENDBRANCH   1  12
BRANCH   2  22
ATOM     22  O   UNL     1      53.774  33.201  50.777  1.00  0.00    -0.502 OA
ATOM     23  H   UNL     1      54.779  33.287  50.684  1.00  0.00     0.293 HD
ENDBRANCH   2  22
BRANCH   6  24
ATOM     24  O   UNL     1      53.194  27.941  50.139  1.00  0.00    -0.507 OA
ATOM     25  H   UNL     1      53.317  26.942  50.070  1.00  0.00     0.293 HD
ENDBRANCH   6  24
BRANCH   8  26
ATOM     26  O   UNL     1      49.591  27.875  46.966  1.00  0.00    -0.508 OA
ATOM     27  H   UNL     1      48.993  28.322  46.281  1.00  0.00     0.293 HD
ENDBRANCH   8  26
TORSDOF 6
ENDMDL
MODEL 4
REMARK VINA RESULT:    -6.337      3.043      5.948
REMARK INTER + INTRA:          -8.041
REMARK INTER:                  -7.637
REMARK INTRA:                  -0.404
REMARK UNBOUND:                -0.407
REMARK SMILES O=c1c(O)c(-c2ccc(O)cc2O)oc2cc(O)cc(O)c12
REMARK SMILES IDX 5 1 3 2 2 3 1 4 22 5 20 6 19 7 17 8 16 9 15 10 14 11 6 12
REMARK SMILES IDX 8 13 7 14 9 15 11 16 12 17 10 18 13 20 4 22 21 24 18 26
REMARK H PARENT 10 19 13 21 4 23 21 25 18 27
REMARK Flexibility Score: inf
ROOT
ATOM      1  C   UNL     1      52.834  34.417  48.461  1.00  0.00     0.184 A 
ATOM      2  C   UNL     1      53.575  34.588  49.641  1.00  0.00     0.208 A 
ATOM      3  C   UNL     1      53.848  33.469  50.442  1.00  0.00     0.238 A 
ATOM      4  O   UNL     1      54.466  33.636  51.524  1.00  0.00    -0.285 OA
ATOM      5  C   UNL     1      53.387  32.189  50.043  1.00  0.00     0.111 A 
ATOM      6  C   UNL     1      53.639  30.979  50.756  1.00  0.00     0.134 A 
ATOM      7  C   UNL     1      53.025  29.791  50.339  1.00  0.00     0.093 A 
ATOM      8  C   UNL     1      52.222  29.758  49.196  1.00  0.00     0.123 A 
ATOM      9  C   UNL     1      52.018  30.922  48.460  1.00  0.00     0.094 A 
ATOM     10  C   UNL     1      52.588  32.130  48.871  1.00  0.00     0.146 A 
ATOM     11  O   UNL     1      52.359  33.218  48.146  1.00  0.00    -0.451 OA
ENDROOT
BRANCH   1  12
ATOM     12  C   UNL     1      52.527  35.551  47.565  1.00  0.00     0.063 A 
ATOM     13  C   UNL     1      53.151  36.914  45.650  1.00  0.00     0.047 A 
ATOM     14  C   UNL     1      53.408  35.845  46.512  1.00  0.00     0.020 A 
ATOM     15  C   UNL     1      52.018  37.710  45.835  1.00  0.00     0.119 A 
ATOM     16  C   UNL     1      51.144  37.440  46.896  1.00  0.00     0.093 A 
ATOM     17  C   UNL     1      51.398  36.373  47.771  1.00  0.00     0.130 A 
BRANCH  15  18
ATOM     18  O   UNL     1      51.772  38.770  44.965  1.00  0.00    -0.508 OA
ATOM     19  H   UNL     1      51.419  39.659  45.300  1.00  0.00     0.293 HD
ENDBRANCH  15  18
BRANCH  17  20
ATOM     20  O   UNL     1      50.547  36.144  48.852  1.00  0.00    -0.507 OA
ATOM     21  H   UNL     1      50.345  36.866  49.531  1.00  0.00     0.293 HD
ENDBRANCH  17  20
ENDBRANCH   1  12
BRANCH   2  22
ATOM     22  O   UNL     1      54.001  35.864  50.019  1.00  0.00    -0.502 OA
ATOM     23  H   UNL     1      54.004  36.171  50.985  1.00  0.00     0.293 HD
ENDBRANCH   2  22
BRANCH   6  24
ATOM     24  O   UNL     1      54.498  30.885  51.855  1.00  0.00    -0.507 OA
ATOM     25  H   UNL     1      54.264  31.169  52.794  1.00  0.00     0.293 HD
ENDBRANCH   6  24
BRANCH   8  26
ATOM     26  O   UNL     1      51.629  28.569  48.780  1.00  0.00    -0.508 OA
ATOM     27  H   UNL     1      50.856  28.155  49.288  1.00  0.00     0.293 HD
ENDBRANCH   8  26
TORSDOF 6
ENDMDL
MODEL 5
REMARK VINA RESULT:    -6.306      4.248      6.785
REMARK INTER + INTRA:          -8.004
REMARK INTER:                  -7.587
REMARK INTRA:                  -0.417
REMARK UNBOUND:                -0.407
REMARK SMILES O=c1c(O)c(-c2ccc(O)cc2O)oc2cc(O)cc(O)c12
REMARK SMILES IDX 5 1 3 2 2 3 1 4 22 5 20 6 19 7 17 8 16 9 15 10 14 11 6 12
REMARK SMILES IDX 8 13 7 14 9 15 11 16 12 17 10 18 13 20 4 22 21 24 18 26
REMARK H PARENT 10 19 13 21 4 23 21 25 18 27
REMARK Flexibility Score: inf
ROOT
ATOM      1  C   UNL     1      54.071  34.594  49.733  1.00  0.00     0.184 A 
ATOM      2  C   UNL     1      53.736  34.429  48.380  1.00  0.00     0.208 A 
ATOM      3  C   UNL     1      52.979  35.423  47.741  1.00  0.00     0.238 A 
ATOM      4  O   UNL     1      52.636  35.245  46.544  1.00  0.00    -0.285 OA
ATOM      5  C   UNL     1      52.581  36.577  48.461  1.00  0.00     0.111 A 
ATOM      6  C   UNL     1      51.846  37.666  47.903  1.00  0.00     0.134 A 
ATOM      7  C   UNL     1      51.395  38.695  48.740  1.00  0.00     0.093 A 
ATOM      8  C   UNL     1      51.709  38.706  50.102  1.00  0.00     0.123 A 
ATOM      9  C   UNL     1      52.475  37.677  50.643  1.00  0.00     0.094 A 
ATOM     10  C   UNL     1      52.910  36.618  49.841  1.00  0.00     0.146 A 
ATOM     11  O   UNL     1      53.629  35.653  50.401  1.00  0.00    -0.451 OA
ENDROOT
BRANCH   1  12
ATOM     12  C   UNL     1      54.880  33.594  50.461  1.00  0.00     0.063 A 
ATOM     13  C   UNL     1      54.959  31.640  51.907  1.00  0.00     0.047 A 
ATOM     14  C   UNL     1      54.225  32.598  51.203  1.00  0.00     0.020 A 
ATOM     15  C   UNL     1      56.356  31.673  51.889  1.00  0.00     0.119 A 
ATOM     16  C   UNL     1      57.020  32.675  51.171  1.00  0.00     0.093 A 
ATOM     17  C   UNL     1      56.291  33.645  50.467  1.00  0.00     0.130 A 
BRANCH  15  18
ATOM     18  O   UNL     1      57.076  30.709  52.593  1.00  0.00    -0.508 OA
ATOM     19  H   UNL     1      56.884  29.721  52.483  1.00  0.00     0.293 HD
ENDBRANCH  15  18
BRANCH  17  20
ATOM     20  O   UNL     1      56.961  34.667  49.795  1.00  0.00    -0.507 OA
ATOM     21  H   UNL     1      57.238  35.520  50.265  1.00  0.00     0.293 HD
ENDBRANCH  17  20
ENDBRANCH   1  12
BRANCH   2  22
ATOM     22  O   UNL     1      54.126  33.272  47.700  1.00  0.00    -0.502 OA
ATOM     23  H   UNL     1      53.882  33.105  46.731  1.00  0.00     0.293 HD
ENDBRANCH   2  22
BRANCH   6  24
ATOM     24  O   UNL     1      51.559  37.798  46.541  1.00  0.00    -0.507 OA
ATOM     25  H   UNL     1      51.888  38.551  45.956  1.00  0.00     0.293 HD
ENDBRANCH   6  24
BRANCH   8  26
ATOM     26  O   UNL     1      51.269  39.741  50.923  1.00  0.00    -0.508 OA
ATOM     27  H   UNL     1      51.438  40.712  50.689  1.00  0.00     0.293 HD
ENDBRANCH   8  26
TORSDOF 6
ENDMDL
MODEL 6
REMARK VINA RESULT:    -6.017      2.949      5.122
REMARK INTER + INTRA:          -7.655
REMARK INTER:                  -7.226
REMARK INTRA:                  -0.429
REMARK UNBOUND:                -0.407
REMARK SMILES O=c1c(O)c(-c2ccc(O)cc2O)oc2cc(O)cc(O)c12
REMARK SMILES IDX 5 1 3 2 2 3 1 4 22 5 20 6 19 7 17 8 16 9 15 10 14 11 6 12
REMARK SMILES IDX 8 13 7 14 9 15 11 16 12 17 10 18 13 20 4 22 21 24 18 26
REMARK H PARENT 10 19 13 21 4 23 21 25 18 27
REMARK Flexibility Score: inf
ROOT
ATOM      1  C   UNL     1      52.200  34.280  48.437  1.00  0.00     0.184 A 
ATOM      2  C   UNL     1      51.843  32.953  48.151  1.00  0.00     0.208 A 
ATOM      3  C   UNL     1      52.408  31.918  48.912  1.00  0.00     0.238 A 
ATOM      4  O   UNL     1      52.125  30.728  48.617  1.00  0.00    -0.285 OA
ATOM      5  C   UNL     1      53.311  32.226  49.959  1.00  0.00     0.111 A 
ATOM      6  C   UNL     1      53.913  31.260  50.820  1.00  0.00     0.134 A 
ATOM      7  C   UNL     1      54.891  31.667  51.737  1.00  0.00     0.093 A 
ATOM      8  C   UNL     1      55.240  33.014  51.868  1.00  0.00     0.123 A 
ATOM      9  C   UNL     1      54.615  33.970  51.073  1.00  0.00     0.094 A 
ATOM     10  C   UNL     1      53.662  33.592  50.124  1.00  0.00     0.146 A 
ATOM     11  O   UNL     1      53.099  34.536  49.380  1.00  0.00    -0.451 OA
ENDROOT
BRANCH   1  12
ATOM     12  C   UNL     1      51.629  35.417  47.685  1.00  0.00     0.063 A 
ATOM     13  C   UNL     1      49.738  36.884  47.255  1.00  0.00     0.047 A 
ATOM     14  C   UNL     1      50.310  35.816  47.952  1.00  0.00     0.020 A 
ATOM     15  C   UNL     1      50.471  37.558  46.274  1.00  0.00     0.119 A 
ATOM     16  C   UNL     1      51.780  37.153  45.984  1.00  0.00     0.093 A 
ATOM     17  C   UNL     1      52.360  36.078  46.674  1.00  0.00     0.130 A 
BRANCH  15  18
ATOM     18  O   UNL     1      49.889  38.623  45.591  1.00  0.00    -0.508 OA
ATOM     19  H   UNL     1      49.999  39.578  45.907  1.00  0.00     0.293 HD
ENDBRANCH  15  18
BRANCH  17  20
ATOM     20  O   UNL     1      53.647  35.653  46.343  1.00  0.00    -0.507 OA
ATOM     21  H   UNL     1      53.805  34.829  45.778  1.00  0.00     0.293 HD
ENDBRANCH  17  20
ENDBRANCH   1  12
BRANCH   2  22
ATOM     22  O   UNL     1      50.964  32.677  47.101  1.00  0.00    -0.502 OA
ATOM     23  H   UNL     1      51.247  32.156  46.279  1.00  0.00     0.293 HD
ENDBRANCH   2  22
BRANCH   6  24
ATOM     24  O   UNL     1      53.569  29.905  50.835  1.00  0.00    -0.507 OA
ATOM     25  H   UNL     1      52.997  29.450  50.139  1.00  0.00     0.293 HD
ENDBRANCH   6  24
BRANCH   8  26
ATOM     26  O   UNL     1      56.202  33.410  52.793  1.00  0.00    -0.508 OA
ATOM     27  H   UNL     1      56.094  34.255  53.342  1.00  0.00     0.293 HD
ENDBRANCH   8  26
TORSDOF 6
ENDMDL
MODEL 7
REMARK VINA RESULT:    -5.936      3.648      5.375
REMARK INTER + INTRA:          -7.558
REMARK INTER:                  -7.183
REMARK INTRA:                  -0.375
REMARK UNBOUND:                -0.407
REMARK SMILES O=c1c(O)c(-c2ccc(O)cc2O)oc2cc(O)cc(O)c12
REMARK SMILES IDX 5 1 3 2 2 3 1 4 22 5 20 6 19 7 17 8 16 9 15 10 14 11 6 12
REMARK SMILES IDX 8 13 7 14 9 15 11 16 12 17 10 18 13 20 4 22 21 24 18 26
REMARK H PARENT 10 19 13 21 4 23 21 25 18 27
REMARK Flexibility Score: inf
ROOT
ATOM      1  C   UNL     1      52.905  34.232  49.353  1.00  0.00     0.184 A 
ATOM      2  C   UNL     1      53.145  34.699  48.051  1.00  0.00     0.208 A 
ATOM      3  C   UNL     1      53.081  36.078  47.800  1.00  0.00     0.238 A 
ATOM      4  O   UNL     1      53.245  36.486  46.622  1.00  0.00    -0.285 OA
ATOM      5  C   UNL     1      52.793  36.973  48.860  1.00  0.00     0.111 A 
ATOM      6  C   UNL     1      52.743  38.393  48.729  1.00  0.00     0.134 A 
ATOM      7  C   UNL     1      52.322  39.173  49.815  1.00  0.00     0.093 A 
ATOM      8  C   UNL     1      52.012  38.586  51.045  1.00  0.00     0.123 A 
ATOM      9  C   UNL     1      52.115  37.206  51.199  1.00  0.00     0.094 A 
ATOM     10  C   UNL     1      52.498  36.399  50.124  1.00  0.00     0.146 A 
ATOM     11  O   UNL     1      52.573  35.087  50.313  1.00  0.00    -0.451 OA
ENDROOT
BRANCH   1  12
ATOM     12  C   UNL     1      52.973  32.794  49.688  1.00  0.00     0.063 A 
ATOM     13  C   UNL     1      52.045  30.559  49.451  1.00  0.00     0.047 A 
ATOM     14  C   UNL     1      52.012  31.923  49.150  1.00  0.00     0.020 A 
ATOM     15  C   UNL     1      53.028  30.050  50.303  1.00  0.00     0.119 A 
ATOM     16  C   UNL     1      53.977  30.913  50.864  1.00  0.00     0.093 A 
ATOM     17  C   UNL     1      53.949  32.285  50.573  1.00  0.00     0.130 A 
BRANCH  15  18
ATOM     18  O   UNL     1      53.050  28.687  50.591  1.00  0.00    -0.508 OA
ATOM     19  H   UNL     1      53.836  28.259  51.065  1.00  0.00     0.293 HD
ENDBRANCH  15  18
BRANCH  17  20
ATOM     20  O   UNL     1      54.869  33.143  51.175  1.00  0.00    -0.507 OA
ATOM     21  H   UNL     1      54.920  34.124  50.931  1.00  0.00     0.293 HD
ENDBRANCH  17  20
ENDBRANCH   1  12
BRANCH   2  22
ATOM     22  O   UNL     1      53.408  33.791  47.021  1.00  0.00    -0.502 OA
ATOM     23  H   UNL     1      54.165  33.924  46.361  1.00  0.00     0.293 HD
ENDBRANCH   2  22
BRANCH   6  24
ATOM     24  O   UNL     1      53.120  39.085  47.574  1.00  0.00    -0.507 OA
ATOM     25  H   UNL     1      53.176  40.089  47.498  1.00  0.00     0.293 HD
ENDBRANCH   6  24
BRANCH   8  26
ATOM     26  O   UNL     1      51.608  39.371  52.123  1.00  0.00    -0.508 OA
ATOM     27  H   UNL     1      51.062  40.213  51.990  1.00  0.00     0.293 HD
ENDBRANCH   8  26
TORSDOF 6
ENDMDL
MODEL 8
REMARK VINA RESULT:    -5.927      1.689      6.871
REMARK INTER + INTRA:          -7.547
REMARK INTER:                  -7.143
REMARK INTRA:                  -0.405
REMARK UNBOUND:                -0.407
REMARK SMILES O=c1c(O)c(-c2ccc(O)cc2O)oc2cc(O)cc(O)c12
REMARK SMILES IDX 5 1 3 2 2 3 1 4 22 5 20 6 19 7 17 8 16 9 15 10 14 11 6 12
REMARK SMILES IDX 8 13 7 14 9 15 11 16 12 17 10 18 13 20 4 22 21 24 18 26
REMARK H PARENT 10 19 13 21 4 23 21 25 18 27
REMARK Flexibility Score: inf
ROOT
ATOM      1  C   UNL     1      50.944  30.925  48.803  1.00  0.00     0.184 A 
ATOM      2  C   UNL     1      50.773  29.895  47.865  1.00  0.00     0.208 A 
ATOM      3  C   UNL     1      49.531  29.249  47.783  1.00  0.00     0.238 A 
ATOM      4  O   UNL     1      49.399  28.291  46.978  1.00  0.00    -0.285 OA
ATOM      5  C   UNL     1      48.470  29.653  48.631  1.00  0.00     0.111 A 
ATOM      6  C   UNL     1      47.156  29.096  48.606  1.00  0.00     0.134 A 
ATOM      7  C   UNL     1      46.224  29.483  49.578  1.00  0.00     0.093 A 
ATOM      8  C   UNL     1      46.539  30.455  50.531  1.00  0.00     0.123 A 
ATOM      9  C   UNL     1      47.799  31.047  50.526  1.00  0.00     0.094 A 
ATOM     10  C   UNL     1      48.762  30.656  49.592  1.00  0.00     0.146 A 
ATOM     11  O   UNL     1      49.954  31.239  49.629  1.00  0.00    -0.451 OA
ENDROOT
BRANCH   1  12
ATOM     12  C   UNL     1      52.222  31.657  48.929  1.00  0.00     0.063 A 
ATOM     13  C   UNL     1      53.667  33.460  48.170  1.00  0.00     0.047 A 
ATOM     14  C   UNL     1      52.467  32.749  48.081  1.00  0.00     0.020 A 
ATOM     15  C   UNL     1      54.642  33.081  49.097  1.00  0.00     0.119 A 
ATOM     16  C   UNL     1      54.417  31.979  49.932  1.00  0.00     0.093 A 
ATOM     17  C   UNL     1      53.218  31.256  49.845  1.00  0.00     0.130 A 
BRANCH  15  18
ATOM     18  O   UNL     1      55.832  33.801  49.177  1.00  0.00    -0.508 OA
ATOM     19  H   UNL     1      56.733  33.346  49.090  1.00  0.00     0.293 HD
ENDBRANCH  15  18
BRANCH  17  20
ATOM     20  O   UNL     1      53.025  30.131  50.648  1.00  0.00    -0.507 OA
ATOM     21  H   UNL     1      53.427  30.065  51.574  1.00  0.00     0.293 HD
ENDBRANCH  17  20
ENDBRANCH   1  12
BRANCH   2  22
ATOM     22  O   UNL     1      51.843  29.504  47.054  1.00  0.00    -0.502 OA
ATOM     23  H   UNL     1      52.456  30.174  46.605  1.00  0.00     0.293 HD
ENDBRANCH   2  22
BRANCH   6  24
ATOM     24  O   UNL     1      46.711  28.187  47.642  1.00  0.00    -0.507 OA
ATOM     25  H   UNL     1      45.760  27.860  47.556  1.00  0.00     0.293 HD
ENDBRANCH   6  24
BRANCH   8  26
ATOM     26  O   UNL     1      45.600  30.845  51.483  1.00  0.00    -0.508 OA
ATOM     27  H   UNL     1      45.650  31.749  51.939  1.00  0.00     0.293 HD
ENDBRANCH   8  26
TORSDOF 6
ENDMDL
MODEL 9
REMARK VINA RESULT:    -5.840      3.450      5.851
REMARK INTER + INTRA:          -7.442
REMARK INTER:                  -7.016
REMARK INTRA:                  -0.427
REMARK UNBOUND:                -0.407
REMARK SMILES O=c1c(O)c(-c2ccc(O)cc2O)oc2cc(O)cc(O)c12
REMARK SMILES IDX 5 1 3 2 2 3 1 4 22 5 20 6 19 7 17 8 16 9 15 10 14 11 6 12
REMARK SMILES IDX 8 13 7 14 9 15 11 16 12 17 10 18 13 20 4 22 21 24 18 26
REMARK H PARENT 10 19 13 21 4 23 21 25 18 27
REMARK Flexibility Score: inf
ROOT
ATOM      1  C   UNL     1      51.891  33.803  48.537  1.00  0.00     0.184 A 
ATOM      2  C   UNL     1      50.741  34.472  48.984  1.00  0.00     0.208 A 
ATOM      3  C   UNL     1      50.428  35.726  48.439  1.00  0.00     0.238 A 
ATOM      4  O   UNL     1      49.426  36.345  48.881  1.00  0.00    -0.285 OA
ATOM      5  C   UNL     1      51.264  36.288  47.442  1.00  0.00     0.111 A 
ATOM      6  C   UNL     1      51.021  37.535  46.791  1.00  0.00     0.134 A 
ATOM      7  C   UNL     1      51.983  38.054  45.913  1.00  0.00     0.093 A 
ATOM      8  C   UNL     1      53.146  37.339  45.615  1.00  0.00     0.123 A 
ATOM      9  C   UNL     1      53.363  36.095  46.201  1.00  0.00     0.094 A 
ATOM     10  C   UNL     1      52.440  35.567  47.107  1.00  0.00     0.146 A 
ATOM     11  O   UNL     1      52.691  34.382  47.650  1.00  0.00    -0.451 OA
ENDROOT
BRANCH   1  12
ATOM     12  C   UNL     1      52.268  32.472  49.058  1.00  0.00     0.063 A 
ATOM     13  C   UNL     1      51.911  30.067  49.066  1.00  0.00     0.047 A 
ATOM     14  C   UNL     1      51.583  31.339  48.590  1.00  0.00     0.020 A 
ATOM     15  C   UNL     1      52.916  29.911  50.024  1.00  0.00     0.119 A 
ATOM     16  C   UNL     1      53.589  31.037  50.515  1.00  0.00     0.093 A 
ATOM     17  C   UNL     1      53.263  32.319  50.048  1.00  0.00     0.130 A 
BRANCH  15  18
ATOM     18  O   UNL     1      53.234  28.636  50.487  1.00  0.00    -0.508 OA
ATOM     19  H   UNL     1      52.759  27.813  50.138  1.00  0.00     0.293 HD
ENDBRANCH  15  18
BRANCH  17  20
ATOM     20  O   UNL     1      53.906  33.437  50.579  1.00  0.00    -0.507 OA
ATOM     21  H   UNL     1      54.449  34.064  49.998  1.00  0.00     0.293 HD
ENDBRANCH  17  20
ENDBRANCH   1  12
BRANCH   2  22
ATOM     22  O   UNL     1      49.945  33.903  49.982  1.00  0.00    -0.502 OA
ATOM     23  H   UNL     1      49.027  34.262  50.215  1.00  0.00     0.293 HD
ENDBRANCH   2  22
BRANCH   6  24
ATOM     24  O   UNL     1      49.851  38.284  46.947  1.00  0.00    -0.507 OA
ATOM     25  H   UNL     1      49.457  38.555  47.835  1.00  0.00     0.293 HD
ENDBRANCH   6  24
BRANCH   8  26
ATOM     26  O   UNL     1      54.089  37.856  44.730  1.00  0.00    -0.508 OA
ATOM     27  H   UNL     1      54.063  38.825  44.434  1.00  0.00     0.293 HD
ENDBRANCH   8  26
TORSDOF 6
ENDMDL
