MODEL 1
REMARK VINA RESULT:    -4.074      0.000      0.000
REMARK INTER + INTRA:          -4.635
REMARK INTER:                  -4.789
REMARK INTRA:                   0.154
REMARK UNBOUND:                 0.154
REMARK SMILES O=c1c(O)c(-c2ccc(O)cc2)oc2cc(O)cc(O)c12
REMARK SMILES IDX 5 1 3 2 2 3 1 4 21 5 19 6 18 7 16 8 15 9 14 10 13 11 6 12
REMARK SMILES IDX 7 13 8 14 9 15 12 16 11 17 10 18 4 20 20 22 17 24
REMARK H PARENT 10 19 4 21 20 23 17 25
REMARK Flexibility Score: inf
ROOT
ATOM      1  C   UNL     1      -5.191  -2.020  -9.420  1.00  0.00     0.180 A 
ATOM      2  C   UNL     1      -3.967  -1.333  -9.359  1.00  0.00     0.208 A 
ATOM      3  C   UNL     1      -3.959   0.062  -9.518  1.00  0.00     0.238 A 
ATOM      4  O   UNL     1      -2.866   0.677  -9.408  1.00  0.00    -0.285 OA
ATOM      5  C   UNL     1      -5.174   0.750  -9.752  1.00  0.00     0.111 A 
ATOM      6  C   UNL     1      -5.279   2.158  -9.967  1.00  0.00     0.134 A 
ATOM      7  C   UNL     1      -6.545   2.750 -10.058  1.00  0.00     0.093 A 
ATOM      8  C   UNL     1      -7.706   1.979 -10.008  1.00  0.00     0.123 A 
ATOM      9  C   UNL     1      -7.612   0.595  -9.857  1.00  0.00     0.094 A 
ATOM     10  C   UNL     1      -6.365  -0.020  -9.727  1.00  0.00     0.146 A 
ATOM     11  O   UNL     1      -6.321  -1.339  -9.575  1.00  0.00    -0.452 OA
ENDROOT
BRANCH   1  12
ATOM     12  C   UNL     1      -5.278  -3.492  -9.287  1.00  0.00     0.021 A 
ATOM     13  C   UNL     1      -4.555  -4.139  -8.272  1.00  0.00     0.016 A 
ATOM     14  C   UNL     1      -4.640  -5.526  -8.114  1.00  0.00     0.047 A 
ATOM     15  C   UNL     1      -5.460  -6.281  -8.963  1.00  0.00     0.115 A 
ATOM     16  C   UNL     1      -6.115  -4.255 -10.122  1.00  0.00     0.016 A 
ATOM     17  C   UNL     1      -6.198  -5.641  -9.963  1.00  0.00     0.047 A 
BRANCH  15  18
ATOM     18  O   UNL     1      -5.552  -7.663  -8.816  1.00  0.00    -0.508 OA
ATOM     19  H   UNL     1      -6.176  -8.084  -8.138  1.00  0.00     0.293 HD
ENDBRANCH  15  18
ENDBRANCH   1  12
BRANCH   2  20
ATOM     20  O   UNL     1      -2.783  -2.030  -9.105  1.00  0.00    -0.502 OA
ATOM     21  H   UNL     1      -2.747  -3.041  -9.050  1.00  0.00     0.293 HD
ENDBRANCH   2  20
BRANCH   6  22
ATOM     22  O   UNL     1      -4.180   3.008 -10.123  1.00  0.00    -0.507 OA
ATOM     23  H   UNL     1      -3.314   2.750 -10.572  1.00  0.00     0.293 HD
ENDBRANCH   6  22
BRANCH   8  24
ATOM     24  O   UNL     1      -8.948   2.600 -10.117  1.00  0.00    -0.508 OA
ATOM     25  H   UNL     1      -9.125   3.312 -10.816  1.00  0.00     0.293 HD
ENDBRANCH   8  24
TORSDOF 5
ENDMDL
MODEL 2
REMARK VINA RESULT:    -3.296      1.594      3.223
REMARK INTER + INTRA:          -3.721
REMARK INTER:                  -4.187
REMARK INTRA:                   0.466
REMARK UNBOUND:                 0.154
REMARK SMILES O=c1c(O)c(-c2ccc(O)cc2)oc2cc(O)cc(O)c12
REMARK SMILES IDX 5 1 3 2 2 3 1 4 21 5 19 6 18 7 16 8 15 9 14 10 13 11 6 12
REMARK SMILES IDX 7 13 8 14 9 15 12 16 11 17 10 18 4 20 20 22 17 24
REMARK H PARENT 10 19 4 21 20 23 17 25
REMARK Flexibility Score: inf
ROOT
ATOM      1  C   UNL     1      -6.034  -2.879  -9.994  1.00  0.00     0.180 A 
ATOM      2  C   UNL     1      -7.209  -2.108 -10.015  1.00  0.00     0.208 A 
ATOM      3  C   UNL     1      -7.107  -0.707  -9.999  1.00  0.00     0.238 A 
ATOM      4  O   UNL     1      -8.161  -0.023 -10.073  1.00  0.00    -0.285 OA
ATOM      5  C   UNL     1      -5.831  -0.096  -9.944  1.00  0.00     0.111 A 
ATOM      6  C   UNL     1      -5.610   1.313  -9.883  1.00  0.00     0.134 A 
ATOM      7  C   UNL     1      -4.304   1.811  -9.964  1.00  0.00     0.093 A 
ATOM      8  C   UNL     1      -3.209   0.952 -10.038  1.00  0.00     0.123 A 
ATOM      9  C   UNL     1      -3.410  -0.429 -10.040  1.00  0.00     0.094 A 
ATOM     10  C   UNL     1      -4.703  -0.956  -9.996  1.00  0.00     0.146 A 
ATOM     11  O   UNL     1      -4.851  -2.275 -10.009  1.00  0.00    -0.452 OA
ENDROOT
BRANCH   1  12
ATOM     12  C   UNL     1      -6.062  -4.359  -9.984  1.00  0.00     0.021 A 
ATOM     13  C   UNL     1      -4.860  -5.075 -10.118  1.00  0.00     0.016 A 
ATOM     14  C   UNL     1      -4.861  -6.473 -10.088  1.00  0.00     0.047 A 
ATOM     15  C   UNL     1      -6.062  -7.172  -9.911  1.00  0.00     0.115 A 
ATOM     16  C   UNL     1      -7.261  -5.068  -9.786  1.00  0.00     0.016 A 
ATOM     17  C   UNL     1      -7.259  -6.466  -9.757  1.00  0.00     0.047 A 
BRANCH  15  18
ATOM     18  O   UNL     1      -6.075  -8.564  -9.882  1.00  0.00    -0.508 OA
ATOM     19  H   UNL     1      -5.227  -9.099  -9.734  1.00  0.00     0.293 HD
ENDBRANCH  15  18
ENDBRANCH   1  12
BRANCH   2  20
ATOM     20  O   UNL     1      -8.457  -2.732 -10.092  1.00  0.00    -0.502 OA
ATOM     21  H   UNL     1      -8.565  -3.704 -10.357  1.00  0.00     0.293 HD
ENDBRANCH   2  20
BRANCH   6  22
ATOM     22  O   UNL     1      -6.629   2.256  -9.716  1.00  0.00    -0.507 OA
ATOM     23  H   UNL     1      -7.605   2.032  -9.594  1.00  0.00     0.293 HD
ENDBRANCH   6  22
BRANCH   8  24
ATOM     24  O   UNL     1      -1.922   1.483 -10.103  1.00  0.00    -0.508 OA
ATOM     25  H   UNL     1      -1.528   2.013  -9.334  1.00  0.00     0.293 HD
ENDBRANCH   8  24
TORSDOF 5
ENDMDL
MODEL 3
REMARK VINA RESULT:    -3.232      2.488      7.354
REMARK INTER + INTRA:          -3.645
REMARK INTER:                  -4.148
REMARK INTRA:                   0.504
REMARK UNBOUND:                 0.154
REMARK SMILES O=c1c(O)c(-c2ccc(O)cc2)oc2cc(O)cc(O)c12
REMARK SMILES IDX 5 1 3 2 2 3 1 4 21 5 19 6 18 7 16 8 15 9 14 10 13 11 6 12
REMARK SMILES IDX 7 13 8 14 9 15 12 16 11 17 10 18 4 20 20 22 17 24
REMARK H PARENT 10 19 4 21 20 23 17 25
REMARK Flexibility Score: inf
ROOT
ATOM      1  C   UNL     1      -5.475  -3.789  -9.881  1.00  0.00     0.180 A 
ATOM      2  C   UNL     1      -6.857  -3.557  -9.982  1.00  0.00     0.208 A 
ATOM      3  C   UNL     1      -7.736  -4.653  -9.959  1.00  0.00     0.238 A 
ATOM      4  O   UNL     1      -8.975  -4.434  -9.995  1.00  0.00    -0.285 OA
ATOM      5  C   UNL     1      -7.220  -5.966  -9.851  1.00  0.00     0.111 A 
ATOM      6  C   UNL     1      -8.016  -7.153  -9.858  1.00  0.00     0.134 A 
ATOM      7  C   UNL     1      -7.410  -8.391  -9.615  1.00  0.00     0.093 A 
ATOM      8  C   UNL     1      -6.032  -8.495  -9.429  1.00  0.00     0.123 A 
ATOM      9  C   UNL     1      -5.237  -7.349  -9.479  1.00  0.00     0.094 A 
ATOM     10  C   UNL     1      -5.817  -6.095  -9.684  1.00  0.00     0.146 A 
ATOM     11  O   UNL     1      -5.026  -5.029  -9.715  1.00  0.00    -0.452 OA
ENDROOT
BRANCH   1  12
ATOM     12  C   UNL     1      -4.485  -2.689  -9.923  1.00  0.00     0.021 A 
ATOM     13  C   UNL     1      -3.114  -2.992  -9.962  1.00  0.00     0.016 A 
ATOM     14  C   UNL     1      -2.163  -1.969 -10.025  1.00  0.00     0.047 A 
ATOM     15  C   UNL     1      -2.573  -0.630 -10.064  1.00  0.00     0.115 A 
ATOM     16  C   UNL     1      -4.889  -1.342  -9.982  1.00  0.00     0.016 A 
ATOM     17  C   UNL     1      -3.936  -0.321 -10.045  1.00  0.00     0.047 A 
BRANCH  15  18
ATOM     18  O   UNL     1      -1.635   0.398 -10.125  1.00  0.00    -0.508 OA
ATOM     19  H   UNL     1      -1.792   1.226 -10.688  1.00  0.00     0.293 HD
ENDBRANCH  15  18
ENDBRANCH   1  12
BRANCH   2  20
ATOM     20  O   UNL     1      -7.346  -2.251 -10.065  1.00  0.00    -0.502 OA
ATOM     21  H   UNL     1      -8.309  -2.015  -9.855  1.00  0.00     0.293 HD
ENDBRANCH   2  20
BRANCH   6  22
ATOM     22  O   UNL     1      -9.387  -7.170 -10.125  1.00  0.00    -0.507 OA
ATOM     23  H   UNL     1     -10.067  -6.570  -9.681  1.00  0.00     0.293 HD
ENDBRANCH   6  22
BRANCH   8  24
ATOM     24  O   UNL     1      -5.462  -9.747  -9.204  1.00  0.00    -0.508 OA
ATOM     25  H   UNL     1      -5.631 -10.260  -8.346  1.00  0.00     0.293 HD
ENDBRANCH   8  24
TORSDOF 5
ENDMDL
MODEL 4
REMARK VINA RESULT:    -2.565      2.378      4.416
REMARK INTER + INTRA:          -2.861
REMARK INTER:                  -3.248
REMARK INTRA:                   0.388
REMARK UNBOUND:                 0.154
REMARK SMILES O=c1c(O)c(-c2ccc(O)cc2)oc2cc(O)cc(O)c12
REMARK SMILES IDX 5 1 3 2 2 3 1 4 21 5 19 6 18 7 16 8 15 9 14 10 13 11 6 12
REMARK SMILES IDX 7 13 8 14 9 15 12 16 11 17 10 18 4 20 20 22 17 24
REMARK H PARENT 10 19 4 21 20 23 17 25
REMARK Flexibility Score: inf
ROOT
ATOM      1  C   UNL     1      -6.579  -4.636  -9.808  1.00  0.00     0.180 A 
ATOM      2  C   UNL     1      -7.484  -3.565  -9.906  1.00  0.00     0.208 A 
ATOM      3  C   UNL     1      -6.985  -2.255  -9.981  1.00  0.00     0.238 A 
ATOM      4  O   UNL     1      -7.799  -1.306 -10.125  1.00  0.00    -0.285 OA
ATOM      5  C   UNL     1      -5.589  -2.030  -9.940  1.00  0.00     0.111 A 
ATOM      6  C   UNL     1      -4.973  -0.742  -9.968  1.00  0.00     0.134 A 
ATOM      7  C   UNL     1      -3.580  -0.644 -10.053  1.00  0.00     0.093 A 
ATOM      8  C   UNL     1      -2.775  -1.783 -10.046  1.00  0.00     0.123 A 
ATOM      9  C   UNL     1      -3.363  -3.046  -9.959  1.00  0.00     0.094 A 
ATOM     10  C   UNL     1      -4.753  -3.177  -9.909  1.00  0.00     0.146 A 
ATOM     11  O   UNL     1      -5.272  -4.397  -9.837  1.00  0.00    -0.452 OA
ENDROOT
BRANCH   1  12
ATOM     12  C   UNL     1      -7.028  -6.042  -9.700  1.00  0.00     0.021 A 
ATOM     13  C   UNL     1      -6.121  -7.081  -9.964  1.00  0.00     0.016 A 
ATOM     14  C   UNL     1      -6.518  -8.417  -9.846  1.00  0.00     0.047 A 
ATOM     15  C   UNL     1      -7.825  -8.729  -9.448  1.00  0.00     0.115 A 
ATOM     16  C   UNL     1      -8.333  -6.364  -9.282  1.00  0.00     0.016 A 
ATOM     17  C   UNL     1      -8.727  -7.700  -9.164  1.00  0.00     0.047 A 
BRANCH  15  18
ATOM     18  O   UNL     1      -8.233 -10.056  -9.329  1.00  0.00    -0.508 OA
ATOM     19  H   UNL     1      -8.952 -10.445  -9.927  1.00  0.00     0.293 HD
ENDBRANCH  15  18
ENDBRANCH   1  12
BRANCH   2  20
ATOM     20  O   UNL     1      -8.858  -3.812  -9.968  1.00  0.00    -0.502 OA
ATOM     21  H   UNL     1      -9.242  -4.658 -10.371  1.00  0.00     0.293 HD
ENDBRANCH   2  20
BRANCH   6  22
ATOM     22  O   UNL     1      -5.680   0.462  -9.887  1.00  0.00    -0.507 OA
ATOM     23  H   UNL     1      -5.703   1.062  -9.076  1.00  0.00     0.293 HD
ENDBRANCH   6  22
BRANCH   8  24
ATOM     24  O   UNL     1      -1.390  -1.647 -10.117  1.00  0.00    -0.508 OA
ATOM     25  H   UNL     1      -0.770  -2.271  -9.614  1.00  0.00     0.293 HD
ENDBRANCH   8  24
TORSDOF 5
ENDMDL
