MODEL 1
REMARK VINA RESULT:    -2.288      0.000      0.000
REMARK INTER + INTRA:          -3.963
REMARK INTER:                  -4.160
REMARK INTRA:                   0.197
REMARK UNBOUND:                 0.197
REMARK SMILES CCCCCCCCCCCCCCCC(=O)[O-]
REMARK SMILES IDX 9 1 10 2 11 3 12 4 13 5 14 6 15 7 16 8 17 9 18 10 8 11 7 12
REMARK SMILES IDX 6 13 5 14 4 15 3 16 2 17 1 18
REMARK H PARENT
REMARK Flexibility Score: inf
ROOT
ATOM      1  C   UNL     1      -0.296  45.994  48.182  1.00  0.00     0.000 C 
ENDROOT
BRANCH   1   2
ATOM      2  C   UNL     1      -1.110  47.242  48.571  1.00  0.00     0.000 C 
BRANCH   2   3
ATOM      3  C   UNL     1      -1.120  47.506  50.084  1.00  0.00     0.000 C 
BRANCH   3   4
ATOM      4  C   UNL     1       0.300  47.771  50.606  1.00  0.00     0.000 C 
BRANCH   4   5
ATOM      5  C   UNL     1       1.288  48.125  49.483  1.00  0.00     0.000 C 
BRANCH   5   6
ATOM      6  C   UNL     1       2.609  47.347  49.590  1.00  0.00     0.006 C 
BRANCH   6   7
ATOM      7  C   UNL     1       3.696  47.994  48.727  1.00  0.00     0.053 C 
BRANCH   7   8
ATOM      8  C   UNL     1       3.687  47.411  47.349  1.00  0.00     0.041 C 
ATOM      9  O   UNL     1       2.976  46.405  47.092  1.00  0.00    -0.550 OA
ATOM     10  O   UNL     1       4.426  48.009  46.337  1.00  0.00    -0.550 OA
ENDBRANCH   7   8
ENDBRANCH   6   7
ENDBRANCH   5   6
ENDBRANCH   4   5
ENDBRANCH   3   4
ENDBRANCH   2   3
ENDBRANCH   1   2
BRANCH   1  11
ATOM     11  C   UNL     1      -1.077  44.668  48.208  1.00  0.00     0.000 C 
BRANCH  11  12
ATOM     12  C   UNL     1      -0.179  43.448  48.468  1.00  0.00    -0.000 C 
BRANCH  12  13
ATOM     13  C   UNL     1       1.318  43.785  48.380  1.00  0.00    -0.000 C 
BRANCH  13  14
ATOM     14  C   UNL     1       2.194  42.836  49.217  1.00  0.00    -0.000 C 
BRANCH  14  15
ATOM     15  C   UNL     1       2.241  43.247  50.705  1.00  0.00    -0.000 C 
BRANCH  15  16
ATOM     16  C   UNL     1       1.568  44.603  50.992  1.00  0.00    -0.000 C 
BRANCH  16  17
ATOM     17  C   UNL     1       0.076  44.515  51.352  1.00  0.00    -0.003 C 
ATOM     18  C   UNL     1      -0.334  43.127  51.843  1.00  0.00     0.004 C 
ENDBRANCH  16  17
ENDBRANCH  15  16
ENDBRANCH  14  15
ENDBRANCH  13  14
ENDBRANCH  12  13
ENDBRANCH  11  12
ENDBRANCH   1  11
TORSDOF 14
ENDMDL
MODEL 2
REMARK VINA RESULT:    -1.847      1.987      4.668
REMARK INTER + INTRA:          -3.161
REMARK INTER:                  -2.912
REMARK INTRA:                  -0.249
REMARK UNBOUND:                 0.197
REMARK SMILES CCCCCCCCCCCCCCCC(=O)[O-]
REMARK SMILES IDX 9 1 10 2 11 3 12 4 13 5 14 6 15 7 16 8 17 9 18 10 8 11 7 12
REMARK SMILES IDX 6 13 5 14 4 15 3 16 2 17 1 18
REMARK H PARENT
REMARK Flexibility Score: inf
ROOT
ATOM      1  C   UNL     1       2.095  44.974  47.622  1.00  0.00     0.000 C 
ENDROOT
BRANCH   1   2
ATOM      2  C   UNL     1       0.814  44.148  47.842  1.00  0.00     0.000 C 
BRANCH   2   3
ATOM      3  C   UNL     1      -0.256  44.902  48.646  1.00  0.00     0.000 C 
BRANCH   3   4
ATOM      4  C   UNL     1      -1.097  43.930  49.487  1.00  0.00     0.000 C 
BRANCH   4   5
ATOM      5  C   UNL     1      -1.102  44.290  50.981  1.00  0.00     0.000 C 
BRANCH   5   6
ATOM      6  C   UNL     1       0.019  43.588  51.763  1.00  0.00     0.006 C 
BRANCH   6   7
ATOM      7  C   UNL     1       0.688  42.508  50.909  1.00  0.00     0.053 C 
BRANCH   7   8
ATOM      8  C   UNL     1       2.077  42.921  50.535  1.00  0.00     0.041 C 
ATOM      9  O   UNL     1       2.880  42.081  50.052  1.00  0.00    -0.550 OA
ATOM     10  O   UNL     1       2.467  44.247  50.673  1.00  0.00    -0.550 OA
ENDBRANCH   7   8
ENDBRANCH   6   7
ENDBRANCH   5   6
ENDBRANCH   4   5
ENDBRANCH   3   4
ENDBRANCH   2   3
ENDBRANCH   1   2
BRANCH   1  11
ATOM     11  C   UNL     1       1.867  46.456  47.275  1.00  0.00     0.000 C 
BRANCH  11  12
ATOM     12  C   UNL     1       3.143  47.305  47.403  1.00  0.00    -0.000 C 
BRANCH  12  13
ATOM     13  C   UNL     1       3.407  47.766  48.845  1.00  0.00    -0.000 C 
BRANCH  13  14
ATOM     14  C   UNL     1       2.114  48.106  49.608  1.00  0.00    -0.000 C 
BRANCH  14  15
ATOM     15  C   UNL     1       1.928  47.224  50.861  1.00  0.00    -0.000 C 
BRANCH  15  16
ATOM     16  C   UNL     1       0.453  46.941  51.205  1.00  0.00    -0.000 C 
BRANCH  16  17
ATOM     17  C   UNL     1      -0.505  48.112  50.929  1.00  0.00    -0.003 C 
ATOM     18  C   UNL     1      -1.125  48.055  49.533  1.00  0.00     0.004 C 
ENDBRANCH  16  17
ENDBRANCH  15  16
ENDBRANCH  14  15
ENDBRANCH  13  14
ENDBRANCH  12  13
ENDBRANCH  11  12
ENDBRANCH   1  11
TORSDOF 14
ENDMDL
MODEL 3
REMARK VINA RESULT:    -1.576      2.447      4.248
REMARK INTER + INTRA:          -2.670
REMARK INTER:                  -1.885
REMARK INTRA:                  -0.784
REMARK UNBOUND:                 0.197
REMARK SMILES CCCCCCCCCCCCCCCC(=O)[O-]
REMARK SMILES IDX 9 1 10 2 11 3 12 4 13 5 14 6 15 7 16 8 17 9 18 10 8 11 7 12
REMARK SMILES IDX 6 13 5 14 4 15 3 16 2 17 1 18
REMARK H PARENT
REMARK Flexibility Score: inf
ROOT
ATOM      1  C   UNL     1       3.090  48.122  47.716  1.00  0.00     0.000 C 
ENDROOT
BRANCH   1   2
ATOM      2  C   UNL     1       2.603  46.838  47.020  1.00  0.00     0.000 C 
BRANCH   2   3
ATOM      3  C   UNL     1       1.106  46.567  47.235  1.00  0.00     0.000 C 
BRANCH   3   4
ATOM      4  C   UNL     1       0.261  47.769  46.784  1.00  0.00     0.000 C 
BRANCH   4   5
ATOM      5  C   UNL     1      -1.091  47.848  47.509  1.00  0.00     0.000 C 
BRANCH   5   6
ATOM      6  C   UNL     1      -1.081  47.118  48.861  1.00  0.00     0.006 C 
BRANCH   6   7
ATOM      7  C   UNL     1      -1.102  48.116  50.023  1.00  0.00     0.053 C 
BRANCH   7   8
ATOM      8  C   UNL     1      -0.663  47.453  51.290  1.00  0.00     0.041 C 
ATOM      9  O   UNL     1      -1.125  46.326  51.609  1.00  0.00    -0.550 OA
ATOM     10  O   UNL     1       0.295  48.058  52.094  1.00  0.00    -0.550 OA
ENDBRANCH   7   8
ENDBRANCH   6   7
ENDBRANCH   5   6
ENDBRANCH   4   5
ENDBRANCH   3   4
ENDBRANCH   2   3
ENDBRANCH   1   2
BRANCH   1  11
ATOM     11  C   UNL     1       3.013  48.103  49.253  1.00  0.00     0.000 C 
BRANCH  11  12
ATOM     12  C   UNL     1       2.288  46.863  49.802  1.00  0.00    -0.000 C 
BRANCH  12  13
ATOM     13  C   UNL     1       3.151  46.063  50.791  1.00  0.00    -0.000 C 
BRANCH  13  14
ATOM     14  C   UNL     1       2.600  44.650  51.056  1.00  0.00    -0.000 C 
BRANCH  14  15
ATOM     15  C   UNL     1       1.519  44.245  50.030  1.00  0.00    -0.000 C 
BRANCH  15  16
ATOM     16  C   UNL     1       0.234  43.689  50.674  1.00  0.00    -0.000 C 
BRANCH  16  17
ATOM     17  C   UNL     1      -0.938  43.493  49.699  1.00  0.00    -0.003 C 
ATOM     18  C   UNL     1      -0.606  43.942  48.276  1.00  0.00     0.004 C 
ENDBRANCH  16  17
ENDBRANCH  15  16
ENDBRANCH  14  15
ENDBRANCH  13  14
ENDBRANCH  12  13
ENDBRANCH  11  12
ENDBRANCH   1  11
TORSDOF 14
ENDMDL
MODEL 4
REMARK VINA RESULT:    -1.198      1.973      3.961
REMARK INTER + INTRA:          -1.982
REMARK INTER:                  -1.720
REMARK INTRA:                  -0.262
REMARK UNBOUND:                 0.197
REMARK SMILES CCCCCCCCCCCCCCCC(=O)[O-]
REMARK SMILES IDX 9 1 10 2 11 3 12 4 13 5 14 6 15 7 16 8 17 9 18 10 8 11 7 12
REMARK SMILES IDX 6 13 5 14 4 15 3 16 2 17 1 18
REMARK H PARENT
REMARK Flexibility Score: inf
ROOT
ATOM      1  C   UNL     1       1.086  47.052  47.720  1.00  0.00     0.000 C 
ENDROOT
BRANCH   1   2
ATOM      2  C   UNL     1       2.083  47.793  46.811  1.00  0.00     0.000 C 
BRANCH   2   3
ATOM      3  C   UNL     1       3.431  48.067  47.494  1.00  0.00     0.000 C 
BRANCH   3   4
ATOM      4  C   UNL     1       3.831  46.898  48.407  1.00  0.00     0.000 C 
BRANCH   4   5
ATOM      5  C   UNL     1       3.193  46.990  49.802  1.00  0.00     0.000 C 
BRANCH   5   6
ATOM      6  C   UNL     1       3.200  45.645  50.546  1.00  0.00     0.006 C 
BRANCH   6   7
ATOM      7  C   UNL     1       1.887  44.889  50.324  1.00  0.00     0.053 C 
BRANCH   7   8
ATOM      8  C   UNL     1       2.150  43.552  49.707  1.00  0.00     0.041 C 
ATOM      9  O   UNL     1       2.538  42.590  50.420  1.00  0.00    -0.550 OA
ATOM     10  O   UNL     1       1.916  43.355  48.352  1.00  0.00    -0.550 OA
ENDBRANCH   7   8
ENDBRANCH   6   7
ENDBRANCH   5   6
ENDBRANCH   4   5
ENDBRANCH   3   4
ENDBRANCH   2   3
ENDBRANCH   1   2
BRANCH   1  11
ATOM     11  C   UNL     1      -0.287  47.731  47.877  1.00  0.00     0.000 C 
BRANCH  11  12
ATOM     12  C   UNL     1      -0.935  47.463  49.245  1.00  0.00    -0.000 C 
BRANCH  12  13
ATOM     13  C   UNL     1      -0.169  48.123  50.402  1.00  0.00    -0.000 C 
BRANCH  13  14
ATOM     14  C   UNL     1      -0.160  47.263  51.679  1.00  0.00    -0.000 C 
BRANCH  14  15
ATOM     15  C   UNL     1      -1.069  46.022  51.552  1.00  0.00    -0.000 C 
BRANCH  15  16
ATOM     16  C   UNL     1      -0.429  44.729  52.092  1.00  0.00    -0.000 C 
BRANCH  16  17
ATOM     17  C   UNL     1      -1.121  43.433  51.639  1.00  0.00    -0.003 C 
ATOM     18  C   UNL     1      -1.026  43.206  50.131  1.00  0.00     0.004 C 
ENDBRANCH  16  17
ENDBRANCH  15  16
ENDBRANCH  14  15
ENDBRANCH  13  14
ENDBRANCH  12  13
ENDBRANCH  11  12
ENDBRANCH   1  11
TORSDOF 14
ENDMDL
MODEL 5
REMARK VINA RESULT:    -0.278      2.069      4.672
REMARK INTER + INTRA:          -0.308
REMARK INTER:                  -1.281
REMARK INTRA:                   0.974
REMARK UNBOUND:                 0.197
REMARK SMILES CCCCCCCCCCCCCCCC(=O)[O-]
REMARK SMILES IDX 9 1 10 2 11 3 12 4 13 5 14 6 15 7 16 8 17 9 18 10 8 11 7 12
REMARK SMILES IDX 6 13 5 14 4 15 3 16 2 17 1 18
REMARK H PARENT
REMARK Flexibility Score: inf
ROOT
ATOM      1  C   UNL     1       3.133  47.987  47.340  1.00  0.00     0.000 C 
ENDROOT
BRANCH   1   2
ATOM      2  C   UNL     1       3.336  46.627  46.648  1.00  0.00     0.000 C 
BRANCH   2   3
ATOM      3  C   UNL     1       2.552  45.489  47.316  1.00  0.00     0.000 C 
BRANCH   3   4
ATOM      4  C   UNL     1       1.062  45.844  47.434  1.00  0.00     0.000 C 
BRANCH   4   5
ATOM      5  C   UNL     1       0.302  44.905  48.384  1.00  0.00     0.000 C 
BRANCH   5   6
ATOM      6  C   UNL     1       1.022  43.564  48.592  1.00  0.00     0.006 C 
BRANCH   6   7
ATOM      7  C   UNL     1       1.172  43.249  50.083  1.00  0.00     0.053 C 
BRANCH   7   8
ATOM      8  C   UNL     1       2.595  43.422  50.513  1.00  0.00     0.041 C 
ATOM      9  O   UNL     1       3.442  42.521  50.278  1.00  0.00    -0.550 OA
ATOM     10  O   UNL     1       2.996  44.601  51.129  1.00  0.00    -0.550 OA
ENDBRANCH   7   8
ENDBRANCH   6   7
ENDBRANCH   5   6
ENDBRANCH   4   5
ENDBRANCH   3   4
ENDBRANCH   2   3
ENDBRANCH   1   2
BRANCH   1  11
ATOM     11  C   UNL     1       3.354  47.986  48.864  1.00  0.00     0.000 C 
BRANCH  11  12
ATOM     12  C   UNL     1       2.046  48.124  49.660  1.00  0.00    -0.000 C 
BRANCH  12  13
ATOM     13  C   UNL     1       0.802  48.124  48.758  1.00  0.00    -0.000 C 
BRANCH  13  14
ATOM     14  C   UNL     1      -0.514  48.087  49.557  1.00  0.00    -0.000 C 
BRANCH  14  15
ATOM     15  C   UNL     1      -0.270  48.097  51.081  1.00  0.00    -0.000 C 
BRANCH  15  16
ATOM     16  C   UNL     1      -1.104  47.052  51.847  1.00  0.00    -0.000 C 
BRANCH  16  17
ATOM     17  C   UNL     1      -0.441  45.671  51.974  1.00  0.00    -0.003 C 
ATOM     18  C   UNL     1      -1.122  44.606  51.114  1.00  0.00     0.004 C 
ENDBRANCH  16  17
ENDBRANCH  15  16
ENDBRANCH  14  15
ENDBRANCH  13  14
ENDBRANCH  12  13
ENDBRANCH  11  12
ENDBRANCH   1  11
TORSDOF 14
ENDMDL
MODEL 6
REMARK VINA RESULT:     0.663      2.605      4.374
REMARK INTER + INTRA:           1.402
REMARK INTER:                  -0.750
REMARK INTRA:                   2.152
REMARK UNBOUND:                 0.197
REMARK SMILES CCCCCCCCCCCCCCCC(=O)[O-]
REMARK SMILES IDX 9 1 10 2 11 3 12 4 13 5 14 6 15 7 16 8 17 9 18 10 8 11 7 12
REMARK SMILES IDX 6 13 5 14 4 15 3 16 2 17 1 18
REMARK H PARENT
REMARK Flexibility Score: inf
ROOT
ATOM      1  C   UNL     1       1.161  46.815  47.611  1.00  0.00     0.000 C 
ENDROOT
BRANCH   1   2
ATOM      2  C   UNL     1      -0.320  46.902  47.198  1.00  0.00     0.000 C 
BRANCH   2   3
ATOM      3  C   UNL     1      -1.039  48.121  47.793  1.00  0.00     0.000 C 
BRANCH   3   4
ATOM      4  C   UNL     1      -1.116  48.021  49.325  1.00  0.00     0.000 C 
BRANCH   4   5
ATOM      5  C   UNL     1      -0.817  46.605  49.841  1.00  0.00     0.000 C 
BRANCH   5   6
ATOM      6  C   UNL     1      -0.475  46.582  51.339  1.00  0.00     0.006 C 
BRANCH   6   7
ATOM      7  C   UNL     1      -1.125  45.380  52.031  1.00  0.00     0.053 C 
BRANCH   7   8
ATOM      8  C   UNL     1      -0.864  44.126  51.257  1.00  0.00     0.041 C 
ATOM      9  O   UNL     1      -0.715  44.172  50.008  1.00  0.00    -0.550 OA
ATOM     10  O   UNL     1      -0.733  42.914  51.922  1.00  0.00    -0.550 OA
ENDBRANCH   7   8
ENDBRANCH   6   7
ENDBRANCH   5   6
ENDBRANCH   4   5
ENDBRANCH   3   4
ENDBRANCH   2   3
ENDBRANCH   1   2
BRANCH   1  11
ATOM     11  C   UNL     1       1.957  48.125  47.472  1.00  0.00     0.000 C 
BRANCH  11  12
ATOM     12  C   UNL     1       3.292  48.099  48.235  1.00  0.00    -0.000 C 
BRANCH  12  13
ATOM     13  C   UNL     1       3.887  46.686  48.339  1.00  0.00    -0.000 C 
BRANCH  13  14
ATOM     14  C   UNL     1       2.871  45.647  48.849  1.00  0.00    -0.000 C 
BRANCH  14  15
ATOM     15  C   UNL     1       2.604  45.787  50.363  1.00  0.00    -0.000 C 
BRANCH  15  16
ATOM     16  C   UNL     1       2.561  44.440  51.110  1.00  0.00    -0.000 C 
BRANCH  16  17
ATOM     17  C   UNL     1       2.200  43.232  50.231  1.00  0.00    -0.003 C 
ATOM     18  C   UNL     1       3.276  42.145  50.247  1.00  0.00     0.004 C 
ENDBRANCH  16  17
ENDBRANCH  15  16
ENDBRANCH  14  15
ENDBRANCH  13  14
ENDBRANCH  12  13
ENDBRANCH  11  12
ENDBRANCH   1  11
TORSDOF 14
ENDMDL
