MODEL 1
REMARK VINA RESULT:    -3.206      0.000      0.000
REMARK INTER + INTRA:          -5.801
REMARK INTER:                  -5.081
REMARK INTRA:                  -0.720
REMARK UNBOUND:                -0.720
REMARK SMILES CCCCCCCCCCCC(=O)[O-]
REMARK SMILES IDX 7 1 8 2 9 3 10 4 11 5 12 6 13 7 14 8 6 9 5 10 4 11 3 12 2 13
REMARK SMILES IDX 1 14
REMARK H PARENT
REMARK Flexibility Score: inf
ROOT
ATOM      1  C   UNL     1     -21.362   1.241   8.612  1.00  0.00     0.000 C 
ENDROOT
BRANCH   1   2
ATOM      2  C   UNL     1     -22.354   2.252   9.216  1.00  0.00     0.000 C 
BRANCH   2   3
ATOM      3  C   UNL     1     -22.825   1.865  10.625  1.00  0.00     0.000 C 
BRANCH   3   4
ATOM      4  C   UNL     1     -21.773   1.003  11.338  1.00  0.00     0.006 C 
BRANCH   4   5
ATOM      5  C   UNL     1     -21.823   1.168  12.863  1.00  0.00     0.053 C 
BRANCH   5   6
ATOM      6  C   UNL     1     -21.410  -0.086  13.572  1.00  0.00     0.041 C 
ATOM      7  O   UNL     1     -21.062  -0.045  14.781  1.00  0.00    -0.550 OA
ATOM      8  O   UNL     1     -21.375  -1.294  12.887  1.00  0.00    -0.550 OA
ENDBRANCH   5   6
ENDBRANCH   4   5
ENDBRANCH   3   4
ENDBRANCH   2   3
ENDBRANCH   1   2
BRANCH   1   9
ATOM      9  C   UNL     1     -21.033   1.456   7.124  1.00  0.00     0.000 C 
BRANCH   9  10
ATOM     10  C   UNL     1     -20.988   0.144   6.323  1.00  0.00    -0.000 C 
BRANCH  10  11
ATOM     11  C   UNL     1     -21.555  -1.048   7.110  1.00  0.00    -0.000 C 
BRANCH  11  12
ATOM     12  C   UNL     1     -20.670  -2.303   7.010  1.00  0.00    -0.000 C 
BRANCH  12  13
ATOM     13  C   UNL     1     -20.298  -2.872   8.387  1.00  0.00    -0.003 C 
ATOM     14  C   UNL     1     -20.648  -1.922   9.533  1.00  0.00     0.004 C 
ENDBRANCH  12  13
ENDBRANCH  11  12
ENDBRANCH  10  11
ENDBRANCH   9  10
ENDBRANCH   1   9
TORSDOF 10
ENDMDL
MODEL 2
REMARK VINA RESULT:    -3.179      1.198      3.466
REMARK INTER + INTRA:          -5.757
REMARK INTER:                  -5.004
REMARK INTRA:                  -0.753
REMARK UNBOUND:                -0.720
REMARK SMILES CCCCCCCCCCCC(=O)[O-]
REMARK SMILES IDX 7 1 8 2 9 3 10 4 11 5 12 6 13 7 14 8 6 9 5 10 4 11 3 12 2 13
REMARK SMILES IDX 1 14
REMARK H PARENT
REMARK Flexibility Score: inf
ROOT
ATOM      1  C   UNL     1     -21.017  -1.345   8.445  1.00  0.00     0.000 C 
ENDROOT
BRANCH   1   2
ATOM      2  C   UNL     1     -20.269  -2.524   9.094  1.00  0.00     0.000 C 
BRANCH   2   3
ATOM      3  C   UNL     1     -19.907  -2.270  10.564  1.00  0.00     0.000 C 
BRANCH   3   4
ATOM      4  C   UNL     1     -21.013  -1.474  11.273  1.00  0.00     0.006 C 
BRANCH   4   5
ATOM      5  C   UNL     1     -21.064  -1.763  12.779  1.00  0.00     0.053 C 
BRANCH   5   6
ATOM      6  C   UNL     1     -21.674  -0.627  13.543  1.00  0.00     0.041 C 
ATOM      7  O   UNL     1     -22.165  -0.824  14.685  1.00  0.00    -0.550 OA
ATOM      8  O   UNL     1     -21.733   0.640  12.977  1.00  0.00    -0.550 OA
ENDBRANCH   5   6
ENDBRANCH   4   5
ENDBRANCH   3   4
ENDBRANCH   2   3
ENDBRANCH   1   2
BRANCH   1   9
ATOM      9  C   UNL     1     -21.098  -1.388   6.907  1.00  0.00     0.000 C 
BRANCH   9  10
ATOM     10  C   UNL     1     -21.055   0.008   6.264  1.00  0.00    -0.000 C 
BRANCH  10  11
ATOM     11  C   UNL     1     -20.712   1.113   7.275  1.00  0.00    -0.000 C 
BRANCH  11  12
ATOM     12  C   UNL     1     -21.689   2.301   7.212  1.00  0.00    -0.000 C 
BRANCH  12  13
ATOM     13  C   UNL     1     -22.085   2.811   8.606  1.00  0.00    -0.003 C 
ATOM     14  C   UNL     1     -22.105   1.701   9.657  1.00  0.00     0.004 C 
ENDBRANCH  12  13
ENDBRANCH  11  12
ENDBRANCH  10  11
ENDBRANCH   9  10
ENDBRANCH   1   9
TORSDOF 10
ENDMDL
MODEL 3
REMARK VINA RESULT:    -3.110      1.746      4.671
REMARK INTER + INTRA:          -5.648
REMARK INTER:                  -5.249
REMARK INTRA:                  -0.399
REMARK UNBOUND:                -0.720
REMARK SMILES CCCCCCCCCCCC(=O)[O-]
REMARK SMILES IDX 7 1 8 2 9 3 10 4 11 5 12 6 13 7 14 8 6 9 5 10 4 11 3 12 2 13
REMARK SMILES IDX 1 14
REMARK H PARENT
REMARK Flexibility Score: inf
ROOT
ATOM      1  C   UNL     1     -21.686   2.234   7.420  1.00  0.00     0.000 C 
ENDROOT
BRANCH   1   2
ATOM      2  C   UNL     1     -20.641   1.107   7.331  1.00  0.00     0.000 C 
BRANCH   2   3
ATOM      3  C   UNL     1     -21.029   0.005   6.335  1.00  0.00     0.000 C 
BRANCH   3   4
ATOM      4  C   UNL     1     -21.118  -1.360   7.033  1.00  0.00     0.006 C 
BRANCH   4   5
ATOM      5  C   UNL     1     -21.100  -1.233   8.562  1.00  0.00     0.053 C 
BRANCH   5   6
ATOM      6  C   UNL     1     -20.315  -2.337   9.203  1.00  0.00     0.041 C 
ATOM      7  O   UNL     1     -19.895  -2.213  10.383  1.00  0.00    -0.550 OA
ATOM      8  O   UNL     1     -20.017  -3.487   8.484  1.00  0.00    -0.550 OA
ENDBRANCH   5   6
ENDBRANCH   4   5
ENDBRANCH   3   4
ENDBRANCH   2   3
ENDBRANCH   1   2
BRANCH   1   9
ATOM      9  C   UNL     1     -22.241   2.502   8.832  1.00  0.00     0.000 C 
BRANCH   9  10
ATOM     10  C   UNL     1     -21.721   1.504   9.880  1.00  0.00    -0.000 C 
BRANCH  10  11
ATOM     11  C   UNL     1     -22.542   1.530  11.178  1.00  0.00    -0.000 C 
BRANCH  11  12
ATOM     12  C   UNL     1     -21.679   1.304  12.433  1.00  0.00    -0.000 C 
BRANCH  12  13
ATOM     13  C   UNL     1     -21.680  -0.163  12.890  1.00  0.00    -0.003 C 
ATOM     14  C   UNL     1     -21.286  -0.324  14.358  1.00  0.00     0.004 C 
ENDBRANCH  12  13
ENDBRANCH  11  12
ENDBRANCH  10  11
ENDBRANCH   9  10
ENDBRANCH   1   9
TORSDOF 10
ENDMDL
MODEL 4
REMARK VINA RESULT:    -2.961      2.392      5.240
REMARK INTER + INTRA:          -5.411
REMARK INTER:                  -4.986
REMARK INTRA:                  -0.425
REMARK UNBOUND:                -0.720
REMARK SMILES CCCCCCCCCCCC(=O)[O-]
REMARK SMILES IDX 7 1 8 2 9 3 10 4 11 5 12 6 13 7 14 8 6 9 5 10 4 11 3 12 2 13
REMARK SMILES IDX 1 14
REMARK H PARENT
REMARK Flexibility Score: inf
ROOT
ATOM      1  C   UNL     1     -20.929  -1.428   8.390  1.00  0.00     0.000 C 
ENDROOT
BRANCH   1   2
ATOM      2  C   UNL     1     -20.976  -1.575   6.858  1.00  0.00     0.000 C 
BRANCH   2   3
ATOM      3  C   UNL     1     -20.633  -0.274   6.119  1.00  0.00     0.000 C 
BRANCH   3   4
ATOM      4  C   UNL     1     -21.638   0.835   6.463  1.00  0.00     0.006 C 
BRANCH   4   5
ATOM      5  C   UNL     1     -21.007   1.950   7.308  1.00  0.00     0.053 C 
BRANCH   5   6
ATOM      6  C   UNL     1     -21.905   2.371   8.432  1.00  0.00     0.041 C 
ATOM      7  O   UNL     1     -22.423   3.518   8.433  1.00  0.00    -0.550 OA
ATOM      8  O   UNL     1     -22.139   1.509   9.496  1.00  0.00    -0.550 OA
ENDBRANCH   5   6
ENDBRANCH   4   5
ENDBRANCH   3   4
ENDBRANCH   2   3
ENDBRANCH   1   2
BRANCH   1   9
ATOM      9  C   UNL     1     -20.270  -2.601   9.139  1.00  0.00     0.000 C 
BRANCH   9  10
ATOM     10  C   UNL     1     -19.925  -2.262  10.599  1.00  0.00    -0.000 C 
BRANCH  10  11
ATOM     11  C   UNL     1     -20.989  -1.377  11.267  1.00  0.00    -0.000 C 
BRANCH  11  12
ATOM     12  C   UNL     1     -21.243  -1.760  12.737  1.00  0.00    -0.000 C 
BRANCH  12  13
ATOM     13  C   UNL     1     -21.774  -0.582  13.568  1.00  0.00    -0.003 C 
ATOM     14  C   UNL     1     -20.862  -0.231  14.744  1.00  0.00     0.004 C 
ENDBRANCH  12  13
ENDBRANCH  11  12
ENDBRANCH  10  11
ENDBRANCH   9  10
ENDBRANCH   1   9
TORSDOF 10
ENDMDL
MODEL 5
REMARK VINA RESULT:    -2.849      1.457      4.093
REMARK INTER + INTRA:          -5.234
REMARK INTER:                  -4.516
REMARK INTRA:                  -0.718
REMARK UNBOUND:                -0.720
REMARK SMILES CCCCCCCCCCCC(=O)[O-]
REMARK SMILES IDX 7 1 8 2 9 3 10 4 11 5 12 6 13 7 14 8 6 9 5 10 4 11 3 12 2 13
REMARK SMILES IDX 1 14
REMARK H PARENT
REMARK Flexibility Score: inf
ROOT
ATOM      1  C   UNL     1     -21.404  -0.966   8.086  1.00  0.00     0.000 C 
ENDROOT
BRANCH   1   2
ATOM      2  C   UNL     1     -20.361  -2.061   8.376  1.00  0.00     0.000 C 
BRANCH   2   3
ATOM      3  C   UNL     1     -20.213  -2.369   9.873  1.00  0.00     0.000 C 
BRANCH   3   4
ATOM      4  C   UNL     1     -20.941  -1.320  10.724  1.00  0.00     0.006 C 
BRANCH   4   5
ATOM      5  C   UNL     1     -21.104  -1.765  12.184  1.00  0.00     0.053 C 
BRANCH   5   6
ATOM      6  C   UNL     1     -21.381  -0.606  13.092  1.00  0.00     0.041 C 
ATOM      7  O   UNL     1     -21.293  -0.744  14.340  1.00  0.00    -0.550 OA
ATOM      8  O   UNL     1     -21.770   0.617  12.561  1.00  0.00    -0.550 OA
ENDBRANCH   5   6
ENDBRANCH   4   5
ENDBRANCH   3   4
ENDBRANCH   2   3
ENDBRANCH   1   2
BRANCH   1   9
ATOM      9  C   UNL     1     -20.938   0.143   7.125  1.00  0.00     0.000 C 
BRANCH   9  10
ATOM     10  C   UNL     1     -21.421   1.541   7.543  1.00  0.00    -0.000 C 
BRANCH  10  11
ATOM     11  C   UNL     1     -21.794   1.616   9.032  1.00  0.00    -0.000 C 
BRANCH  11  12
ATOM     12  C   UNL     1     -22.544   2.912   9.392  1.00  0.00    -0.000 C 
BRANCH  12  13
ATOM     13  C   UNL     1     -22.386   4.000   8.320  1.00  0.00    -0.003 C 
ATOM     14  C   UNL     1     -22.033   5.365   8.912  1.00  0.00     0.004 C 
ENDBRANCH  12  13
ENDBRANCH  11  12
ENDBRANCH  10  11
ENDBRANCH   9  10
ENDBRANCH   1   9
TORSDOF 10
ENDMDL
MODEL 6
REMARK VINA RESULT:    -2.524      2.472      5.453
REMARK INTER + INTRA:          -4.719
REMARK INTER:                  -4.683
REMARK INTRA:                  -0.037
REMARK UNBOUND:                -0.720
REMARK SMILES CCCCCCCCCCCC(=O)[O-]
REMARK SMILES IDX 7 1 8 2 9 3 10 4 11 5 12 6 13 7 14 8 6 9 5 10 4 11 3 12 2 13
REMARK SMILES IDX 1 14
REMARK H PARENT
REMARK Flexibility Score: inf
ROOT
ATOM      1  C   UNL     1     -21.340   1.982   7.123  1.00  0.00     0.000 C 
ENDROOT
BRANCH   1   2
ATOM      2  C   UNL     1     -21.616   0.758   6.231  1.00  0.00     0.000 C 
BRANCH   2   3
ATOM      3  C   UNL     1     -20.524  -0.317   6.331  1.00  0.00     0.000 C 
BRANCH   3   4
ATOM      4  C   UNL     1     -20.975  -1.475   7.233  1.00  0.00     0.006 C 
BRANCH   4   5
ATOM      5  C   UNL     1     -20.989  -1.085   8.717  1.00  0.00     0.053 C 
BRANCH   5   6
ATOM      6  C   UNL     1     -20.441  -2.178   9.584  1.00  0.00     0.041 C 
ATOM      7  O   UNL     1     -20.453  -2.058  10.838  1.00  0.00    -0.550 OA
ATOM      8  O   UNL     1     -19.886  -3.312   9.007  1.00  0.00    -0.550 OA
ENDBRANCH   5   6
ENDBRANCH   4   5
ENDBRANCH   3   4
ENDBRANCH   2   3
ENDBRANCH   1   2
BRANCH   1   9
ATOM      9  C   UNL     1     -21.742   1.819   8.601  1.00  0.00     0.000 C 
BRANCH   9  10
ATOM     10  C   UNL     1     -22.564   3.004   9.134  1.00  0.00    -0.000 C 
BRANCH  10  11
ATOM     11  C   UNL     1     -22.535   4.215   8.188  1.00  0.00    -0.000 C 
BRANCH  11  12
ATOM     12  C   UNL     1     -22.263   5.539   8.925  1.00  0.00    -0.000 C 
BRANCH  12  13
ATOM     13  C   UNL     1     -20.821   6.032   8.736  1.00  0.00    -0.003 C 
ATOM     14  C   UNL     1     -20.055   6.138  10.055  1.00  0.00     0.004 C 
ENDBRANCH  12  13
ENDBRANCH  11  12
ENDBRANCH  10  11
ENDBRANCH   9  10
ENDBRANCH   1   9
TORSDOF 10
ENDMDL
MODEL 7
REMARK VINA RESULT:    -2.511      3.520      5.885
REMARK INTER + INTRA:          -4.698
REMARK INTER:                  -4.106
REMARK INTRA:                  -0.592
REMARK UNBOUND:                -0.720
REMARK SMILES CCCCCCCCCCCC(=O)[O-]
REMARK SMILES IDX 7 1 8 2 9 3 10 4 11 5 12 6 13 7 14 8 6 9 5 10 4 11 3 12 2 13
REMARK SMILES IDX 1 14
REMARK H PARENT
REMARK Flexibility Score: inf
ROOT
ATOM      1  C   UNL     1     -21.496  -0.416   6.559  1.00  0.00     0.000 C 
ENDROOT
BRANCH   1   2
ATOM      2  C   UNL     1     -20.981  -1.779   7.058  1.00  0.00     0.000 C 
BRANCH   2   3
ATOM      3  C   UNL     1     -20.700  -1.800   8.567  1.00  0.00     0.000 C 
BRANCH   3   4
ATOM      4  C   UNL     1     -20.226  -3.188   9.018  1.00  0.00     0.006 C 
BRANCH   4   5
ATOM      5  C   UNL     1     -20.181  -4.193   7.859  1.00  0.00     0.053 C 
BRANCH   5   6
ATOM      6  C   UNL     1     -20.420  -5.595   8.328  1.00  0.00     0.041 C 
ATOM      7  O   UNL     1     -19.459  -6.402   8.430  1.00  0.00    -0.550 OA
ATOM      8  O   UNL     1     -21.710  -6.022   8.619  1.00  0.00    -0.550 OA
ENDBRANCH   5   6
ENDBRANCH   4   5
ENDBRANCH   3   4
ENDBRANCH   2   3
ENDBRANCH   1   2
BRANCH   1   9
ATOM      9  C   UNL     1     -20.584   0.784   6.877  1.00  0.00     0.000 C 
BRANCH   9  10
ATOM     10  C   UNL     1     -21.362   2.016   7.368  1.00  0.00    -0.000 C 
BRANCH  10  11
ATOM     11  C   UNL     1     -21.839   1.873   8.822  1.00  0.00    -0.000 C 
BRANCH  11  12
ATOM     12  C   UNL     1     -22.629   3.100   9.311  1.00  0.00    -0.000 C 
BRANCH  12  13
ATOM     13  C   UNL     1     -22.540   4.284   8.337  1.00  0.00    -0.003 C 
ATOM     14  C   UNL     1     -21.832   5.496   8.944  1.00  0.00     0.004 C 
ENDBRANCH  12  13
ENDBRANCH  11  12
ENDBRANCH  10  11
ENDBRANCH   9  10
ENDBRANCH   1   9
TORSDOF 10
ENDMDL
MODEL 8
REMARK VINA RESULT:    -2.453      2.895      6.184
REMARK INTER + INTRA:          -4.607
REMARK INTER:                  -3.805
REMARK INTRA:                  -0.802
REMARK UNBOUND:                -0.720
REMARK SMILES CCCCCCCCCCCC(=O)[O-]
REMARK SMILES IDX 7 1 8 2 9 3 10 4 11 5 12 6 13 7 14 8 6 9 5 10 4 11 3 12 2 13
REMARK SMILES IDX 1 14
REMARK H PARENT
REMARK Flexibility Score: inf
ROOT
ATOM      1  C   UNL     1     -20.276  -1.964  11.368  1.00  0.00     0.000 C 
ENDROOT
BRANCH   1   2
ATOM      2  C   UNL     1     -20.754  -1.640   9.940  1.00  0.00     0.000 C 
BRANCH   2   3
ATOM      3  C   UNL     1     -20.331  -2.697   8.910  1.00  0.00     0.000 C 
BRANCH   3   4
ATOM      4  C   UNL     1     -20.627  -2.219   7.481  1.00  0.00     0.006 C 
BRANCH   4   5
ATOM      5  C   UNL     1     -21.388  -0.887   7.458  1.00  0.00     0.053 C 
BRANCH   5   6
ATOM      6  C   UNL     1     -20.718   0.122   6.577  1.00  0.00     0.041 C 
ATOM      7  O   UNL     1     -20.095  -0.250   5.548  1.00  0.00    -0.550 OA
ATOM      8  O   UNL     1     -20.750   1.469   6.912  1.00  0.00    -0.550 OA
ENDBRANCH   5   6
ENDBRANCH   4   5
ENDBRANCH   3   4
ENDBRANCH   2   3
ENDBRANCH   1   2
BRANCH   1   9
ATOM      9  C   UNL     1     -21.384  -1.995  12.437  1.00  0.00     0.000 C 
BRANCH   9  10
ATOM     10  C   UNL     1     -21.161  -0.970  13.561  1.00  0.00    -0.000 C 
BRANCH  10  11
ATOM     11  C   UNL     1     -22.132   0.218  13.477  1.00  0.00    -0.000 C 
BRANCH  11  12
ATOM     12  C   UNL     1     -21.649   1.313  12.509  1.00  0.00    -0.000 C 
BRANCH  12  13
ATOM     13  C   UNL     1     -22.624   1.540  11.344  1.00  0.00    -0.003 C 
ATOM     14  C   UNL     1     -21.920   1.601   9.989  1.00  0.00     0.004 C 
ENDBRANCH  12  13
ENDBRANCH  11  12
ENDBRANCH  10  11
ENDBRANCH   9  10
ENDBRANCH   1   9
TORSDOF 10
ENDMDL
MODEL 9
REMARK VINA RESULT:    -2.423      1.532      3.376
REMARK INTER + INTRA:          -4.558
REMARK INTER:                  -4.148
REMARK INTRA:                  -0.411
REMARK UNBOUND:                -0.720
REMARK SMILES CCCCCCCCCCCC(=O)[O-]
REMARK SMILES IDX 7 1 8 2 9 3 10 4 11 5 12 6 13 7 14 8 6 9 5 10 4 11 3 12 2 13
REMARK SMILES IDX 1 14
REMARK H PARENT
REMARK Flexibility Score: inf
ROOT
ATOM      1  C   UNL     1     -20.764  -2.233   9.652  1.00  0.00     0.000 C 
ENDROOT
BRANCH   1   2
ATOM      2  C   UNL     1     -20.298  -1.679  11.011  1.00  0.00     0.000 C 
BRANCH   2   3
ATOM      3  C   UNL     1     -21.209  -2.095  12.175  1.00  0.00     0.000 C 
BRANCH   3   4
ATOM      4  C   UNL     1     -21.081  -1.115  13.350  1.00  0.00     0.006 C 
BRANCH   4   5
ATOM      5  C   UNL     1     -22.198  -0.063  13.353  1.00  0.00     0.053 C 
BRANCH   5   6
ATOM      6  C   UNL     1     -21.822   1.149  12.556  1.00  0.00     0.041 C 
ATOM      7  O   UNL     1     -21.193   2.095  13.099  1.00  0.00    -0.550 OA
ATOM      8  O   UNL     1     -22.198   1.249  11.223  1.00  0.00    -0.550 OA
ENDBRANCH   5   6
ENDBRANCH   4   5
ENDBRANCH   3   4
ENDBRANCH   2   3
ENDBRANCH   1   2
BRANCH   1   9
ATOM      9  C   UNL     1     -21.035  -1.170   8.571  1.00  0.00     0.000 C 
BRANCH   9  10
ATOM     10  C   UNL     1     -20.770  -1.683   7.146  1.00  0.00    -0.000 C 
BRANCH  10  11
ATOM     11  C   UNL     1     -20.552  -0.543   6.139  1.00  0.00    -0.000 C 
BRANCH  11  12
ATOM     12  C   UNL     1     -21.579   0.593   6.296  1.00  0.00    -0.000 C 
BRANCH  12  13
ATOM     13  C   UNL     1     -20.974   1.847   6.946  1.00  0.00    -0.003 C 
ATOM     14  C   UNL     1     -21.808   2.365   8.118  1.00  0.00     0.004 C 
ENDBRANCH  12  13
ENDBRANCH  11  12
ENDBRANCH  10  11
ENDBRANCH   9  10
ENDBRANCH   1   9
TORSDOF 10
ENDMDL
