MODEL 1
REMARK VINA RESULT:    -6.266      0.000      0.000
REMARK INTER + INTRA:          -7.498
REMARK INTER:                  -7.365
REMARK INTRA:                  -0.133
REMARK UNBOUND:                -0.133
REMARK SMILES O=C([O-])C=Cc1ccc(O)c(O)c1
REMARK SMILES IDX 6 1 13 2 7 3 11 4 8 5 9 6 5 7 4 8 2 9 1 10 3 11 12 12 10 14
REMARK H PARENT 12 13 10 15
REMARK Flexibility Score: inf
ROOT
ATOM      1  C   UNL     1      12.842 -13.041  28.396  1.00  0.00    -0.022 A 
ATOM      2  C   UNL     1      13.226 -12.322  29.541  1.00  0.00     0.058 A 
ATOM      3  C   UNL     1      11.597 -12.757  27.803  1.00  0.00     0.012 A 
ATOM      4  C   UNL     1      12.399 -11.321  30.071  1.00  0.00     0.157 A 
ATOM      5  C   UNL     1      10.773 -11.759  28.330  1.00  0.00     0.051 A 
ATOM      6  C   UNL     1      11.168 -11.037  29.460  1.00  0.00     0.157 A 
ENDROOT
BRANCH   1   7
ATOM      7  C   UNL     1      13.749 -14.097  27.883  1.00  0.00     0.010 C 
ATOM      8  C   UNL     1      14.506 -14.875  28.669  1.00  0.00     0.025 C 
BRANCH   8   9
ATOM      9  C   UNL     1      15.383 -15.919  28.118  1.00  0.00     0.064 C 
ATOM     10  O   UNL     1      15.807 -15.815  26.937  1.00  0.00    -0.545 OA
ATOM     11  O   UNL     1      15.752 -17.023  28.879  1.00  0.00    -0.545 OA
ENDBRANCH   8   9
ENDBRANCH   1   7
BRANCH   4  12
ATOM     12  O   UNL     1      12.798 -10.609  31.202  1.00  0.00    -0.504 OA
ATOM     13  H   UNL     1      13.355  -9.765  31.130  1.00  0.00     0.293 HD
ENDBRANCH   4  12
BRANCH   6  14
ATOM     14  O   UNL     1      10.324 -10.047  29.961  1.00  0.00    -0.504 OA
ATOM     15  H   UNL     1      10.149  -9.184  29.459  1.00  0.00     0.293 HD
ENDBRANCH   6  14
TORSDOF 4
ENDMDL
MODEL 2
REMARK VINA RESULT:    -6.179     12.090     14.197
REMARK INTER + INTRA:          -7.396
REMARK INTER:                  -7.263
REMARK INTRA:                  -0.133
REMARK UNBOUND:                -0.133
REMARK SMILES O=C([O-])C=Cc1ccc(O)c(O)c1
REMARK SMILES IDX 6 1 13 2 7 3 11 4 8 5 9 6 5 7 4 8 2 9 1 10 3 11 12 12 10 14
REMARK H PARENT 12 13 10 15
REMARK Flexibility Score: inf
ROOT
ATOM      1  C   UNL     1      17.468  -0.998  26.673  1.00  0.00    -0.022 A 
ATOM      2  C   UNL     1      17.074  -1.414  27.956  1.00  0.00     0.058 A 
ATOM      3  C   UNL     1      18.726  -1.402  26.185  1.00  0.00     0.012 A 
ATOM      4  C   UNL     1      17.904  -2.238  28.730  1.00  0.00     0.157 A 
ATOM      5  C   UNL     1      19.553  -2.223  26.956  1.00  0.00     0.051 A 
ATOM      6  C   UNL     1      19.149  -2.646  28.225  1.00  0.00     0.157 A 
ENDROOT
BRANCH   1   7
ATOM      7  C   UNL     1      16.557  -0.119  25.900  1.00  0.00     0.010 C 
ATOM      8  C   UNL     1      15.816   0.853  26.451  1.00  0.00     0.025 C 
BRANCH   8   9
ATOM      9  C   UNL     1      14.933   1.710  25.644  1.00  0.00     0.064 C 
ATOM     10  O   UNL     1      14.537   1.310  24.518  1.00  0.00    -0.545 OA
ATOM     11  O   UNL     1      14.531   2.959  26.103  1.00  0.00    -0.545 OA
ENDBRANCH   8   9
ENDBRANCH   1   7
BRANCH   4  12
ATOM     12  O   UNL     1      17.495  -2.651  29.998  1.00  0.00    -0.504 OA
ATOM     13  H   UNL     1      16.978  -2.037  30.616  1.00  0.00     0.293 HD
ENDBRANCH   4  12
BRANCH   6  14
ATOM     14  O   UNL     1      19.996  -3.466  28.969  1.00  0.00    -0.504 OA
ATOM     15  H   UNL     1      19.730  -3.836  29.874  1.00  0.00     0.293 HD
ENDBRANCH   6  14
TORSDOF 4
ENDMDL
MODEL 3
REMARK VINA RESULT:    -5.906      1.239      5.857
REMARK INTER + INTRA:          -7.074
REMARK INTER:                  -6.946
REMARK INTRA:                  -0.128
REMARK UNBOUND:                -0.133
REMARK SMILES O=C([O-])C=Cc1ccc(O)c(O)c1
REMARK SMILES IDX 6 1 13 2 7 3 11 4 8 5 9 6 5 7 4 8 2 9 1 10 3 11 12 12 10 14
REMARK H PARENT 12 13 10 15
REMARK Flexibility Score: inf
ROOT
ATOM      1  C   UNL     1      14.269 -13.439  28.827  1.00  0.00    -0.022 A 
ATOM      2  C   UNL     1      14.390 -14.489  29.753  1.00  0.00     0.058 A 
ATOM      3  C   UNL     1      14.747 -13.632  27.516  1.00  0.00     0.012 A 
ATOM      4  C   UNL     1      14.952 -15.717  29.377  1.00  0.00     0.157 A 
ATOM      5  C   UNL     1      15.307 -14.856  27.141  1.00  0.00     0.051 A 
ATOM      6  C   UNL     1      15.411 -15.902  28.063  1.00  0.00     0.157 A 
ENDROOT
BRANCH   1   7
ATOM      7  C   UNL     1      13.676 -12.157  29.280  1.00  0.00     0.010 C 
ATOM      8  C   UNL     1      12.373 -11.991  29.546  1.00  0.00     0.025 C 
BRANCH   8   9
ATOM      9  C   UNL     1      11.830 -10.703  30.004  1.00  0.00     0.064 C 
ATOM     10  O   UNL     1      12.579  -9.893  30.609  1.00  0.00    -0.545 OA
ATOM     11  O   UNL     1      10.500 -10.365  29.782  1.00  0.00    -0.545 OA
ENDBRANCH   8   9
ENDBRANCH   1   7
BRANCH   4  12
ATOM     12  O   UNL     1      15.057 -16.753  30.305  1.00  0.00    -0.504 OA
ATOM     13  H   UNL     1      14.492 -17.591  30.232  1.00  0.00     0.293 HD
ENDBRANCH   4  12
BRANCH   6  14
ATOM     14  O   UNL     1      15.973 -17.111  27.657  1.00  0.00    -0.504 OA
ATOM     15  H   UNL     1      15.667 -17.592  26.820  1.00  0.00     0.293 HD
ENDBRANCH   6  14
TORSDOF 4
ENDMDL
MODEL 4
REMARK VINA RESULT:    -5.672     12.342     13.578
REMARK INTER + INTRA:          -6.799
REMARK INTER:                  -6.672
REMARK INTRA:                  -0.127
REMARK UNBOUND:                -0.133
REMARK SMILES O=C([O-])C=Cc1ccc(O)c(O)c1
REMARK SMILES IDX 6 1 13 2 7 3 11 4 8 5 9 6 5 7 4 8 2 9 1 10 3 11 12 12 10 14
REMARK H PARENT 12 13 10 15
REMARK Flexibility Score: inf
ROOT
ATOM      1  C   UNL     1      16.614  -0.486  27.358  1.00  0.00    -0.022 A 
ATOM      2  C   UNL     1      16.252   0.461  28.331  1.00  0.00     0.058 A 
ATOM      3  C   UNL     1      16.150  -0.314  26.039  1.00  0.00     0.012 A 
ATOM      4  C   UNL     1      15.466   1.572  27.995  1.00  0.00     0.157 A 
ATOM      5  C   UNL     1      15.368   0.793  25.703  1.00  0.00     0.051 A 
ATOM      6  C   UNL     1      15.024   1.740  26.673  1.00  0.00     0.157 A 
ENDROOT
BRANCH   1   7
ATOM      7  C   UNL     1      17.437  -1.649  27.769  1.00  0.00     0.010 C 
ATOM      8  C   UNL     1      18.760  -1.589  27.979  1.00  0.00     0.025 C 
BRANCH   8   9
ATOM      9  C   UNL     1      19.536  -2.766  28.398  1.00  0.00     0.064 C 
ATOM     10  O   UNL     1      19.017  -3.607  29.178  1.00  0.00    -0.545 OA
ATOM     11  O   UNL     1      20.837  -2.965  27.949  1.00  0.00    -0.545 OA
ENDBRANCH   8   9
ENDBRANCH   1   7
BRANCH   4  12
ATOM     12  O   UNL     1      15.123   2.509  28.970  1.00  0.00    -0.504 OA
ATOM     13  H   UNL     1      14.600   2.247  29.797  1.00  0.00     0.293 HD
ENDBRANCH   4  12
BRANCH   6  14
ATOM     14  O   UNL     1      14.243   2.834  26.306  1.00  0.00    -0.504 OA
ATOM     15  H   UNL     1      14.495   3.783  26.556  1.00  0.00     0.293 HD
ENDBRANCH   6  14
TORSDOF 4
ENDMDL
MODEL 5
REMARK VINA RESULT:    -5.646      1.036      2.122
REMARK INTER + INTRA:          -6.770
REMARK INTER:                  -6.644
REMARK INTRA:                  -0.125
REMARK UNBOUND:                -0.133
REMARK SMILES O=C([O-])C=Cc1ccc(O)c(O)c1
REMARK SMILES IDX 6 1 13 2 7 3 11 4 8 5 9 6 5 7 4 8 2 9 1 10 3 11 12 12 10 14
REMARK H PARENT 12 13 10 15
REMARK Flexibility Score: inf
ROOT
ATOM      1  C   UNL     1      13.810 -13.017  28.922  1.00  0.00    -0.022 A 
ATOM      2  C   UNL     1      12.500 -12.998  28.414  1.00  0.00     0.058 A 
ATOM      3  C   UNL     1      14.200 -12.013  29.830  1.00  0.00     0.012 A 
ATOM      4  C   UNL     1      11.586 -12.016  28.820  1.00  0.00     0.157 A 
ATOM      5  C   UNL     1      13.289 -11.034  30.236  1.00  0.00     0.051 A 
ATOM      6  C   UNL     1      11.983 -11.031  29.738  1.00  0.00     0.157 A 
ENDROOT
BRANCH   1   7
ATOM      7  C   UNL     1      14.740 -14.072  28.450  1.00  0.00     0.010 C 
ATOM      8  C   UNL     1      14.624 -15.367  28.775  1.00  0.00     0.025 C 
BRANCH   8   9
ATOM      9  C   UNL     1      15.563 -16.383  28.275  1.00  0.00     0.064 C 
ATOM     10  O   UNL     1      16.170 -17.125  29.091  1.00  0.00    -0.545 OA
ATOM     11  O   UNL     1      15.795 -16.536  26.912  1.00  0.00    -0.545 OA
ENDBRANCH   8   9
ENDBRANCH   1   7
BRANCH   4  12
ATOM     12  O   UNL     1      10.286 -12.016  28.315  1.00  0.00    -0.504 OA
ATOM     13  H   UNL     1       9.524 -12.463  28.809  1.00  0.00     0.293 HD
ENDBRANCH   4  12
BRANCH   6  14
ATOM     14  O   UNL     1      11.098 -10.041  30.163  1.00  0.00    -0.504 OA
ATOM     15  H   UNL     1      11.296  -9.450  30.962  1.00  0.00     0.293 HD
ENDBRANCH   6  14
TORSDOF 4
ENDMDL
MODEL 6
REMARK VINA RESULT:    -5.400     12.176     14.423
REMARK INTER + INTRA:          -6.480
REMARK INTER:                  -6.350
REMARK INTRA:                  -0.130
REMARK UNBOUND:                -0.133
REMARK SMILES O=C([O-])C=Cc1ccc(O)c(O)c1
REMARK SMILES IDX 6 1 13 2 7 3 11 4 8 5 9 6 5 7 4 8 2 9 1 10 3 11 12 12 10 14
REMARK H PARENT 12 13 10 15
REMARK Flexibility Score: inf
ROOT
ATOM      1  C   UNL     1      16.388  -0.548  27.627  1.00  0.00    -0.022 A 
ATOM      2  C   UNL     1      17.326  -1.115  26.748  1.00  0.00     0.058 A 
ATOM      3  C   UNL     1      16.377  -0.969  28.971  1.00  0.00     0.012 A 
ATOM      4  C   UNL     1      18.254  -2.064  27.202  1.00  0.00     0.157 A 
ATOM      5  C   UNL     1      17.301  -1.913  29.424  1.00  0.00     0.051 A 
ATOM      6  C   UNL     1      18.242  -2.462  28.548  1.00  0.00     0.157 A 
ENDROOT
BRANCH   1   7
ATOM      7  C   UNL     1      15.422   0.443  27.092  1.00  0.00     0.010 C 
ATOM      8  C   UNL     1      15.705   1.297  26.098  1.00  0.00     0.025 C 
BRANCH   8   9
ATOM      9  C   UNL     1      14.712   2.256  25.591  1.00  0.00     0.064 C 
ATOM     10  O   UNL     1      14.225   3.118  26.369  1.00  0.00    -0.545 OA
ATOM     11  O   UNL     1      14.297   2.226  24.263  1.00  0.00    -0.545 OA
ENDBRANCH   8   9
ENDBRANCH   1   7
BRANCH   4  12
ATOM     12  O   UNL     1      19.186  -2.611  26.320  1.00  0.00    -0.504 OA
ATOM     13  H   UNL     1      18.911  -3.264  25.595  1.00  0.00     0.293 HD
ENDBRANCH   4  12
BRANCH   6  14
ATOM     14  O   UNL     1      19.151  -3.402  29.031  1.00  0.00    -0.504 OA
ATOM     15  H   UNL     1      20.142  -3.344  28.830  1.00  0.00     0.293 HD
ENDBRANCH   6  14
TORSDOF 4
ENDMDL
MODEL 7
REMARK VINA RESULT:    -5.370      1.176      5.968
REMARK INTER + INTRA:          -6.445
REMARK INTER:                  -6.308
REMARK INTRA:                  -0.137
REMARK UNBOUND:                -0.133
REMARK SMILES O=C([O-])C=Cc1ccc(O)c(O)c1
REMARK SMILES IDX 6 1 13 2 7 3 11 4 8 5 9 6 5 7 4 8 2 9 1 10 3 11 12 12 10 14
REMARK H PARENT 12 13 10 15
REMARK Flexibility Score: inf
ROOT
ATOM      1  C   UNL     1      13.808 -13.254  28.985  1.00  0.00    -0.022 A 
ATOM      2  C   UNL     1      14.406 -13.571  27.754  1.00  0.00     0.058 A 
ATOM      3  C   UNL     1      14.002 -14.123  30.077  1.00  0.00     0.012 A 
ATOM      4  C   UNL     1      15.203 -14.717  27.616  1.00  0.00     0.157 A 
ATOM      5  C   UNL     1      14.796 -15.264  29.941  1.00  0.00     0.051 A 
ATOM      6  C   UNL     1      15.401 -15.565  28.717  1.00  0.00     0.157 A 
ENDROOT
BRANCH   1   7
ATOM      7  C   UNL     1      12.966 -12.036  29.073  1.00  0.00     0.010 C 
ATOM      8  C   UNL     1      11.725 -12.023  29.581  1.00  0.00     0.025 C 
BRANCH   8   9
ATOM      9  C   UNL     1      10.929 -10.789  29.659  1.00  0.00     0.064 C 
ATOM     10  O   UNL     1      11.405  -9.778  30.238  1.00  0.00    -0.545 OA
ATOM     11  O   UNL     1       9.656 -10.720  29.105  1.00  0.00    -0.545 OA
ENDBRANCH   8   9
ENDBRANCH   1   7
BRANCH   4  12
ATOM     12  O   UNL     1      15.798 -15.014  26.390  1.00  0.00    -0.504 OA
ATOM     13  H   UNL     1      16.743 -14.720  26.173  1.00  0.00     0.293 HD
ENDBRANCH   4  12
BRANCH   6  14
ATOM     14  O   UNL     1      16.188 -16.711  28.614  1.00  0.00    -0.504 OA
ATOM     15  H   UNL     1      17.162 -16.671  28.336  1.00  0.00     0.293 HD
ENDBRANCH   6  14
TORSDOF 4
ENDMDL
MODEL 8
REMARK VINA RESULT:    -5.338     12.183     13.526
REMARK INTER + INTRA:          -6.407
REMARK INTER:                  -6.274
REMARK INTRA:                  -0.133
REMARK UNBOUND:                -0.133
REMARK SMILES O=C([O-])C=Cc1ccc(O)c(O)c1
REMARK SMILES IDX 6 1 13 2 7 3 11 4 8 5 9 6 5 7 4 8 2 9 1 10 3 11 12 12 10 14
REMARK H PARENT 12 13 10 15
REMARK Flexibility Score: inf
ROOT
ATOM      1  C   UNL     1      16.470  -0.551  27.423  1.00  0.00    -0.022 A 
ATOM      2  C   UNL     1      15.951  -0.499  26.117  1.00  0.00     0.058 A 
ATOM      3  C   UNL     1      16.178   0.502  28.311  1.00  0.00     0.012 A 
ATOM      4  C   UNL     1      15.137   0.567  25.710  1.00  0.00     0.157 A 
ATOM      5  C   UNL     1      15.366   1.565  27.906  1.00  0.00     0.051 A 
ATOM      6  C   UNL     1      14.842   1.603  26.610  1.00  0.00     0.157 A 
ENDROOT
BRANCH   1   7
ATOM      7  C   UNL     1      17.334  -1.696  27.798  1.00  0.00     0.010 C 
ATOM      8  C   UNL     1      18.653  -1.594  28.017  1.00  0.00     0.025 C 
BRANCH   8   9
ATOM      9  C   UNL     1      19.470  -2.755  28.399  1.00  0.00     0.064 C 
ATOM     10  O   UNL     1      18.999  -3.616  29.188  1.00  0.00    -0.545 OA
ATOM     11  O   UNL     1      20.760  -2.920  27.905  1.00  0.00    -0.545 OA
ENDBRANCH   8   9
ENDBRANCH   1   7
BRANCH   4  12
ATOM     12  O   UNL     1      14.622   0.601  24.414  1.00  0.00    -0.504 OA
ATOM     13  H   UNL     1      14.919   1.298  23.742  1.00  0.00     0.293 HD
ENDBRANCH   4  12
BRANCH   6  14
ATOM     14  O   UNL     1      14.034   2.676  26.237  1.00  0.00    -0.504 OA
ATOM     15  H   UNL     1      13.977   2.999  25.279  1.00  0.00     0.293 HD
ENDBRANCH   6  14
TORSDOF 4
ENDMDL
MODEL 9
REMARK VINA RESULT:    -4.597     12.198     13.608
REMARK INTER + INTRA:          -5.536
REMARK INTER:                  -5.402
REMARK INTRA:                  -0.134
REMARK UNBOUND:                -0.133
REMARK SMILES O=C([O-])C=Cc1ccc(O)c(O)c1
REMARK SMILES IDX 6 1 13 2 7 3 11 4 8 5 9 6 5 7 4 8 2 9 1 10 3 11 12 12 10 14
REMARK H PARENT 12 13 10 15
REMARK Flexibility Score: inf
ROOT
ATOM      1  C   UNL     1      16.190  -0.268  26.841  1.00  0.00    -0.022 A 
ATOM      2  C   UNL     1      15.946   0.873  27.625  1.00  0.00     0.058 A 
ATOM      3  C   UNL     1      15.709  -0.297  25.518  1.00  0.00     0.012 A 
ATOM      4  C   UNL     1      15.260   1.976  27.095  1.00  0.00     0.157 A 
ATOM      5  C   UNL     1      15.026   0.801  24.989  1.00  0.00     0.051 A 
ATOM      6  C   UNL     1      14.800   1.939  25.770  1.00  0.00     0.157 A 
ENDROOT
BRANCH   1   7
ATOM      7  C   UNL     1      16.911  -1.410  27.454  1.00  0.00     0.010 C 
ATOM      8  C   UNL     1      16.829  -1.732  28.753  1.00  0.00     0.025 C 
BRANCH   8   9
ATOM      9  C   UNL     1      17.553  -2.882  29.316  1.00  0.00     0.064 C 
ATOM     10  O   UNL     1      18.479  -3.419  28.654  1.00  0.00    -0.545 OA
ATOM     11  O   UNL     1      17.231  -3.388  30.571  1.00  0.00    -0.545 OA
ENDBRANCH   8   9
ENDBRANCH   1   7
BRANCH   4  12
ATOM     12  O   UNL     1      15.035   3.105  27.882  1.00  0.00    -0.504 OA
ATOM     13  H   UNL     1      14.150   3.256  28.352  1.00  0.00     0.293 HD
ENDBRANCH   4  12
BRANCH   6  14
ATOM     14  O   UNL     1      14.116   3.019  25.212  1.00  0.00    -0.504 OA
ATOM     15  H   UNL     1      13.235   3.349  25.588  1.00  0.00     0.293 HD
ENDBRANCH   6  14
TORSDOF 4
ENDMDL
