MODEL 1
REMARK VINA RESULT:     5.294      0.000      0.000
REMARK INTER + INTRA:           5.906
REMARK INTER:                   6.223
REMARK INTRA:                  -0.316
REMARK UNBOUND:                -0.316
REMARK SMILES O=c1cc(-c2ccc(O)c(O)c2)oc2cc(O)cc(O)c12
REMARK SMILES IDX 4 1 3 2 2 3 1 4 21 5 19 6 18 7 16 8 15 9 14 10 13 11 5 12
REMARK SMILES IDX 6 13 7 14 8 15 12 16 10 17 9 18 11 20 20 22 17 24
REMARK H PARENT 9 19 11 21 20 23 17 25
REMARK Flexibility Score: inf
ROOT
ATOM      1  C   UNL     1      16.079  22.343 -10.439  1.00  0.00     0.138 A 
ATOM      2  C   UNL     1      16.669  22.085  -9.194  1.00  0.00     0.100 A 
ATOM      3  C   UNL     1      16.109  22.628  -8.038  1.00  0.00     0.197 A 
ATOM      4  O   UNL     1      16.696  22.430  -6.944  1.00  0.00    -0.289 OA
ATOM      5  C   UNL     1      14.932  23.409  -8.127  1.00  0.00     0.107 A 
ATOM      6  C   UNL     1      14.250  23.981  -7.011  1.00  0.00     0.134 A 
ATOM      7  C   UNL     1      13.160  24.832  -7.231  1.00  0.00     0.093 A 
ATOM      8  C   UNL     1      12.691  25.085  -8.520  1.00  0.00     0.123 A 
ATOM      9  C   UNL     1      13.317  24.489  -9.615  1.00  0.00     0.094 A 
ATOM     10  C   UNL     1      14.428  23.662  -9.431  1.00  0.00     0.146 A 
ATOM     11  O   UNL     1      15.006  23.124 -10.501  1.00  0.00    -0.456 OA
ENDROOT
BRANCH   1  12
ATOM     12  C   UNL     1      16.633  21.789 -11.700  1.00  0.00     0.021 A 
ATOM     13  C   UNL     1      17.619  20.785 -11.696  1.00  0.00     0.016 A 
ATOM     14  C   UNL     1      18.115  20.274 -12.899  1.00  0.00     0.051 A 
ATOM     15  C   UNL     1      17.631  20.751 -14.123  1.00  0.00     0.157 A 
ATOM     16  C   UNL     1      16.142  22.253 -12.935  1.00  0.00     0.062 A 
ATOM     17  C   UNL     1      16.642  21.740 -14.141  1.00  0.00     0.158 A 
BRANCH  15  18
ATOM     18  O   UNL     1      18.125  20.244 -15.324  1.00  0.00    -0.504 OA
ATOM     19  H   UNL     1      18.927  20.659 -15.783  1.00  0.00     0.293 HD
ENDBRANCH  15  18
BRANCH  17  20
ATOM     20  O   UNL     1      16.158  22.210 -15.361  1.00  0.00    -0.504 OA
ATOM     21  H   UNL     1      16.250  21.668 -16.212  1.00  0.00     0.293 HD
ENDBRANCH  17  20
ENDBRANCH   1  12
BRANCH   6  22
ATOM     22  O   UNL     1      14.583  23.726  -5.677  1.00  0.00    -0.507 OA
ATOM     23  H   UNL     1      13.947  23.362  -4.984  1.00  0.00     0.293 HD
ENDBRANCH   6  22
BRANCH   8  24
ATOM     24  O   UNL     1      11.595  25.925  -8.700  1.00  0.00    -0.508 OA
ATOM     25  H   UNL     1      10.867  25.711  -9.371  1.00  0.00     0.293 HD
ENDBRANCH   8  24
TORSDOF 5
ENDMDL
MODEL 2
REMARK VINA RESULT:     8.026      1.841      7.025
REMARK INTER + INTRA:           9.117
REMARK INTER:                   9.390
REMARK INTRA:                  -0.273
REMARK UNBOUND:                -0.316
REMARK SMILES O=c1cc(-c2ccc(O)c(O)c2)oc2cc(O)cc(O)c12
REMARK SMILES IDX 4 1 3 2 2 3 1 4 21 5 19 6 18 7 16 8 15 9 14 10 13 11 5 12
REMARK SMILES IDX 6 13 7 14 8 15 12 16 10 17 9 18 11 20 20 22 17 24
REMARK H PARENT 9 19 11 21 20 23 17 25
REMARK Flexibility Score: inf
ROOT
ATOM      1  C   UNL     1      13.606  24.105  -8.586  1.00  0.00     0.138 A 
ATOM      2  C   UNL     1      14.373  23.734  -7.473  1.00  0.00     0.100 A 
ATOM      3  C   UNL     1      15.540  22.990  -7.655  1.00  0.00     0.197 A 
ATOM      4  O   UNL     1      16.172  22.620  -6.633  1.00  0.00    -0.289 OA
ATOM      5  C   UNL     1      15.956  22.644  -8.962  1.00  0.00     0.107 A 
ATOM      6  C   UNL     1      17.148  21.924  -9.271  1.00  0.00     0.134 A 
ATOM      7  C   UNL     1      17.399  21.537 -10.593  1.00  0.00     0.093 A 
ATOM      8  C   UNL     1      16.531  21.895 -11.625  1.00  0.00     0.123 A 
ATOM      9  C   UNL     1      15.390  22.646 -11.343  1.00  0.00     0.094 A 
ATOM     10  C   UNL     1      15.095  23.017 -10.029  1.00  0.00     0.146 A 
ATOM     11  O   UNL     1      13.990  23.720  -9.799  1.00  0.00    -0.456 OA
ENDROOT
BRANCH   1  12
ATOM     12  C   UNL     1      12.357  24.896  -8.450  1.00  0.00     0.021 A 
ATOM     13  C   UNL     1      12.101  26.019  -9.261  1.00  0.00     0.016 A 
ATOM     14  C   UNL     1      10.913  26.739  -9.119  1.00  0.00     0.051 A 
ATOM     15  C   UNL     1       9.958  26.348  -8.172  1.00  0.00     0.157 A 
ATOM     16  C   UNL     1      11.386  24.503  -7.511  1.00  0.00     0.062 A 
ATOM     17  C   UNL     1      10.194  25.228  -7.368  1.00  0.00     0.158 A 
BRANCH  15  18
ATOM     18  O   UNL     1       8.772  27.066  -8.027  1.00  0.00    -0.504 OA
ATOM     19  H   UNL     1       7.976  26.680  -7.533  1.00  0.00     0.293 HD
ENDBRANCH  15  18
BRANCH  17  20
ATOM     20  O   UNL     1       9.241  24.839  -6.429  1.00  0.00    -0.504 OA
ATOM     21  H   UNL     1       9.461  24.179  -5.692  1.00  0.00     0.293 HD
ENDBRANCH  17  20
ENDBRANCH   1  12
BRANCH   6  22
ATOM     22  O   UNL     1      18.125  21.588  -8.328  1.00  0.00    -0.507 OA
ATOM     23  H   UNL     1      18.665  20.736  -8.336  1.00  0.00     0.293 HD
ENDBRANCH   6  22
BRANCH   8  24
ATOM     24  O   UNL     1      16.819  21.506 -12.931  1.00  0.00    -0.508 OA
ATOM     25  H   UNL     1      16.189  21.712 -13.697  1.00  0.00     0.293 HD
ENDBRANCH   8  24
TORSDOF 5
ENDMDL
