MODEL 1
REMARK VINA RESULT:     6.550      0.000      0.000
REMARK INTER + INTRA:          15.417
REMARK INTER:                  16.507
REMARK INTRA:                  -1.090
REMARK UNBOUND:                -1.090
REMARK SMILES CCCCCCCCCCCCCCCCCCCCCCCCCCCC(=O)[O-]
REMARK SMILES IDX 15 1 16 2 17 3 18 4 19 5 20 6 21 7 22 8 23 9 24 10 25 11
REMARK SMILES IDX 26 12 27 13 28 14 29 15 30 16 14 17 13 18 12 19 11 20 10 21
REMARK SMILES IDX 9 22 8 23 7 24 6 25 5 26 4 27 3 28 2 29 1 30
REMARK H PARENT
REMARK Flexibility Score: inf
ROOT
ATOM      1  C   UNL     1      28.239  49.337  25.369  1.00  0.00     0.000 C 
ENDROOT
BRANCH   1   2
ATOM      2  C   UNL     1      29.338  49.008  26.398  1.00  0.00     0.000 C 
BRANCH   2   3
ATOM      3  C   UNL     1      30.319  47.895  25.986  1.00  0.00     0.000 C 
BRANCH   3   4
ATOM      4  C   UNL     1      31.793  48.278  26.203  1.00  0.00     0.000 C 
BRANCH   4   5
ATOM      5  C   UNL     1      32.570  47.216  27.002  1.00  0.00     0.000 C 
BRANCH   5   6
ATOM      6  C   UNL     1      33.360  46.201  26.151  1.00  0.00     0.000 C 
BRANCH   6   7
ATOM      7  C   UNL     1      32.596  45.632  24.943  1.00  0.00     0.000 C 
BRANCH   7   8
ATOM      8  C   UNL     1      33.362  45.804  23.623  1.00  0.00     0.000 C 
BRANCH   8   9
ATOM      9  C   UNL     1      34.195  47.094  23.636  1.00  0.00     0.000 C 
BRANCH   9  10
ATOM     10  C   UNL     1      34.875  47.381  22.286  1.00  0.00     0.000 C 
BRANCH  10  11
ATOM     11  C   UNL     1      36.399  47.143  22.257  1.00  0.00     0.000 C 
BRANCH  11  12
ATOM     12  C   UNL     1      36.915  46.083  23.252  1.00  0.00     0.006 C 
BRANCH  12  13
ATOM     13  C   UNL     1      38.413  45.769  23.124  1.00  0.00     0.053 C 
BRANCH  13  14
ATOM     14  C   UNL     1      38.980  45.215  24.396  1.00  0.00     0.041 C 
ATOM     15  O   UNL     1      38.532  45.598  25.509  1.00  0.00    -0.550 OA
ATOM     16  O   UNL     1      39.982  44.254  24.351  1.00  0.00    -0.550 OA
ENDBRANCH  13  14
ENDBRANCH  12  13
ENDBRANCH  11  12
ENDBRANCH  10  11
ENDBRANCH   9  10
ENDBRANCH   8   9
ENDBRANCH   7   8
ENDBRANCH   6   7
ENDBRANCH   5   6
ENDBRANCH   4   5
ENDBRANCH   3   4
ENDBRANCH   2   3
ENDBRANCH   1   2
BRANCH   1  17
ATOM     17  C   UNL     1      26.823  49.523  25.945  1.00  0.00     0.000 C 
BRANCH  17  18
ATOM     18  C   UNL     1      25.944  50.519  25.157  1.00  0.00     0.000 C 
BRANCH  18  19
ATOM     19  C   UNL     1      24.619  50.844  25.871  1.00  0.00     0.000 C 
BRANCH  19  20
ATOM     20  C   UNL     1      24.016  52.185  25.401  1.00  0.00     0.000 C 
BRANCH  20  21
ATOM     21  C   UNL     1      23.208  52.907  26.493  1.00  0.00     0.000 C 
BRANCH  21  22
ATOM     22  C   UNL     1      22.897  52.005  27.698  1.00  0.00    -0.000 C 
BRANCH  22  23
ATOM     23  C   UNL     1      21.721  52.543  28.542  1.00  0.00    -0.000 C 
BRANCH  23  24
ATOM     24  C   UNL     1      22.148  53.117  29.903  1.00  0.00    -0.000 C 
BRANCH  24  25
ATOM     25  C   UNL     1      21.063  53.987  30.551  1.00  0.00    -0.000 C 
BRANCH  25  26
ATOM     26  C   UNL     1      21.644  54.848  31.680  1.00  0.00    -0.000 C 
BRANCH  26  27
ATOM     27  C   UNL     1      21.473  54.153  33.041  1.00  0.00    -0.000 C 
BRANCH  27  28
ATOM     28  C   UNL     1      22.293  54.818  34.161  1.00  0.00    -0.000 C 
BRANCH  28  29
ATOM     29  C   UNL     1      23.431  53.951  34.731  1.00  0.00    -0.003 C 
ATOM     30  C   UNL     1      24.527  54.772  35.411  1.00  0.00     0.004 C 
ENDBRANCH  28  29
ENDBRANCH  27  28
ENDBRANCH  26  27
ENDBRANCH  25  26
ENDBRANCH  24  25
ENDBRANCH  23  24
ENDBRANCH  22  23
ENDBRANCH  21  22
ENDBRANCH  20  21
ENDBRANCH  19  20
ENDBRANCH  18  19
ENDBRANCH  17  18
ENDBRANCH   1  17
TORSDOF 26
ENDMDL
MODEL 2
REMARK VINA RESULT:     6.740      2.324      5.379
REMARK INTER + INTRA:          15.896
REMARK INTER:                  16.516
REMARK INTRA:                  -0.620
REMARK UNBOUND:                -1.090
REMARK SMILES CCCCCCCCCCCCCCCCCCCCCCCCCCCC(=O)[O-]
REMARK SMILES IDX 15 1 16 2 17 3 18 4 19 5 20 6 21 7 22 8 23 9 24 10 25 11
REMARK SMILES IDX 26 12 27 13 28 14 29 15 30 16 14 17 13 18 12 19 11 20 10 21
REMARK SMILES IDX 9 22 8 23 7 24 6 25 5 26 4 27 3 28 2 29 1 30
REMARK H PARENT
REMARK Flexibility Score: inf
ROOT
ATOM      1  C   UNL     1      23.374  51.790  27.351  1.00  0.00     0.000 C 
ENDROOT
BRANCH   1   2
ATOM      2  C   UNL     1      23.367  52.381  25.928  1.00  0.00     0.000 C 
BRANCH   2   3
ATOM      3  C   UNL     1      24.540  51.952  25.028  1.00  0.00     0.000 C 
BRANCH   3   4
ATOM      4  C   UNL     1      25.185  50.626  25.466  1.00  0.00     0.000 C 
BRANCH   4   5
ATOM      5  C   UNL     1      26.718  50.638  25.327  1.00  0.00     0.000 C 
BRANCH   5   6
ATOM      6  C   UNL     1      27.358  49.274  24.999  1.00  0.00     0.000 C 
BRANCH   6   7
ATOM      7  C   UNL     1      28.212  48.669  26.128  1.00  0.00     0.000 C 
BRANCH   7   8
ATOM      8  C   UNL     1      29.709  48.971  25.966  1.00  0.00     0.000 C 
BRANCH   8   9
ATOM      9  C   UNL     1      30.553  47.713  26.212  1.00  0.00     0.000 C 
BRANCH   9  10
ATOM     10  C   UNL     1      32.064  48.002  26.242  1.00  0.00     0.000 C 
BRANCH  10  11
ATOM     11  C   UNL     1      32.945  46.828  26.719  1.00  0.00     0.000 C 
BRANCH  11  12
ATOM     12  C   UNL     1      33.840  46.198  25.633  1.00  0.00     0.006 C 
BRANCH  12  13
ATOM     13  C   UNL     1      33.085  45.741  24.376  1.00  0.00     0.053 C 
BRANCH  13  14
ATOM     14  C   UNL     1      33.719  46.262  23.121  1.00  0.00     0.041 C 
ATOM     15  O   UNL     1      33.592  45.633  22.039  1.00  0.00    -0.550 OA
ATOM     16  O   UNL     1      34.423  47.459  23.144  1.00  0.00    -0.550 OA
ENDBRANCH  13  14
ENDBRANCH  12  13
ENDBRANCH  11  12
ENDBRANCH  10  11
ENDBRANCH   9  10
ENDBRANCH   8   9
ENDBRANCH   7   8
ENDBRANCH   6   7
ENDBRANCH   5   6
ENDBRANCH   4   5
ENDBRANCH   3   4
ENDBRANCH   2   3
ENDBRANCH   1   2
BRANCH   1  17
ATOM     17  C   UNL     1      22.031  51.855  28.105  1.00  0.00     0.000 C 
BRANCH  17  18
ATOM     18  C   UNL     1      21.790  53.182  28.856  1.00  0.00     0.000 C 
BRANCH  18  19
ATOM     19  C   UNL     1      20.557  53.948  28.341  1.00  0.00     0.000 C 
BRANCH  19  20
ATOM     20  C   UNL     1      20.117  55.065  29.310  1.00  0.00     0.000 C 
BRANCH  20  21
ATOM     21  C   UNL     1      19.974  54.588  30.766  1.00  0.00     0.000 C 
BRANCH  21  22
ATOM     22  C   UNL     1      21.102  55.104  31.675  1.00  0.00    -0.000 C 
BRANCH  22  23
ATOM     23  C   UNL     1      22.406  54.297  31.502  1.00  0.00    -0.000 C 
BRANCH  23  24
ATOM     24  C   UNL     1      23.586  54.845  32.323  1.00  0.00    -0.000 C 
BRANCH  24  25
ATOM     25  C   UNL     1      23.760  54.130  33.669  1.00  0.00    -0.000 C 
BRANCH  25  26
ATOM     26  C   UNL     1      24.120  55.122  34.782  1.00  0.00    -0.000 C 
BRANCH  26  27
ATOM     27  C   UNL     1      23.518  54.680  36.125  1.00  0.00    -0.000 C 
BRANCH  27  28
ATOM     28  C   UNL     1      21.985  54.543  36.081  1.00  0.00    -0.000 C 
BRANCH  28  29
ATOM     29  C   UNL     1      21.470  53.243  35.435  1.00  0.00    -0.003 C 
ATOM     30  C   UNL     1      20.254  53.462  34.534  1.00  0.00     0.004 C 
ENDBRANCH  28  29
ENDBRANCH  27  28
ENDBRANCH  26  27
ENDBRANCH  25  26
ENDBRANCH  24  25
ENDBRANCH  23  24
ENDBRANCH  22  23
ENDBRANCH  21  22
ENDBRANCH  20  21
ENDBRANCH  19  20
ENDBRANCH  18  19
ENDBRANCH  17  18
ENDBRANCH   1  17
TORSDOF 26
ENDMDL
MODEL 3
REMARK VINA RESULT:     7.211      2.189      4.531
REMARK INTER + INTRA:          17.081
REMARK INTER:                  18.199
REMARK INTRA:                  -1.118
REMARK UNBOUND:                -1.090
REMARK SMILES CCCCCCCCCCCCCCCCCCCCCCCCCCCC(=O)[O-]
REMARK SMILES IDX 15 1 16 2 17 3 18 4 19 5 20 6 21 7 22 8 23 9 24 10 25 11
REMARK SMILES IDX 26 12 27 13 28 14 29 15 30 16 14 17 13 18 12 19 11 20 10 21
REMARK SMILES IDX 9 22 8 23 7 24 6 25 5 26 4 27 3 28 2 29 1 30
REMARK H PARENT
REMARK Flexibility Score: inf
ROOT
ATOM      1  C   UNL     1      24.435  50.988  27.047  1.00  0.00     0.000 C 
ENDROOT
BRANCH   1   2
ATOM      2  C   UNL     1      24.703  50.874  25.534  1.00  0.00     0.000 C 
BRANCH   2   3
ATOM      3  C   UNL     1      26.173  50.646  25.138  1.00  0.00     0.000 C 
BRANCH   3   4
ATOM      4  C   UNL     1      26.846  49.517  25.937  1.00  0.00     0.000 C 
BRANCH   4   5
ATOM      5  C   UNL     1      28.365  49.720  26.085  1.00  0.00     0.000 C 
BRANCH   5   6
ATOM      6  C   UNL     1      29.239  48.609  25.468  1.00  0.00     0.000 C 
BRANCH   6   7
ATOM      7  C   UNL     1      30.229  47.945  26.442  1.00  0.00     0.000 C 
BRANCH   7   8
ATOM      8  C   UNL     1      31.660  48.479  26.289  1.00  0.00     0.000 C 
BRANCH   8   9
ATOM      9  C   UNL     1      32.681  47.333  26.323  1.00  0.00     0.000 C 
BRANCH   9  10
ATOM     10  C   UNL     1      32.201  46.081  25.569  1.00  0.00     0.000 C 
BRANCH  10  11
ATOM     11  C   UNL     1      33.228  45.471  24.592  1.00  0.00     0.000 C 
BRANCH  11  12
ATOM     12  C   UNL     1      33.044  45.871  23.114  1.00  0.00     0.006 C 
BRANCH  12  13
ATOM     13  C   UNL     1      34.357  46.130  22.359  1.00  0.00     0.053 C 
BRANCH  13  14
ATOM     14  C   UNL     1      34.799  47.557  22.479  1.00  0.00     0.041 C 
ATOM     15  O   UNL     1      35.137  48.203  21.452  1.00  0.00    -0.550 OA
ATOM     16  O   UNL     1      34.808  48.181  23.720  1.00  0.00    -0.550 OA
ENDBRANCH  13  14
ENDBRANCH  12  13
ENDBRANCH  11  12
ENDBRANCH  10  11
ENDBRANCH   9  10
ENDBRANCH   8   9
ENDBRANCH   7   8
ENDBRANCH   6   7
ENDBRANCH   5   6
ENDBRANCH   4   5
ENDBRANCH   3   4
ENDBRANCH   2   3
ENDBRANCH   1   2
BRANCH   1  17
ATOM     17  C   UNL     1      22.956  51.150  27.450  1.00  0.00     0.000 C 
BRANCH  17  18
ATOM     18  C   UNL     1      22.692  52.305  28.441  1.00  0.00     0.000 C 
BRANCH  18  19
ATOM     19  C   UNL     1      21.366  53.038  28.168  1.00  0.00     0.000 C 
BRANCH  19  20
ATOM     20  C   UNL     1      20.854  53.801  29.408  1.00  0.00     0.000 C 
BRANCH  20  21
ATOM     21  C   UNL     1      21.600  53.431  30.702  1.00  0.00     0.000 C 
BRANCH  21  22
ATOM     22  C   UNL     1      22.256  54.645  31.380  1.00  0.00    -0.000 C 
BRANCH  22  23
ATOM     23  C   UNL     1      23.746  54.401  31.698  1.00  0.00    -0.000 C 
BRANCH  23  24
ATOM     24  C   UNL     1      24.235  55.124  32.965  1.00  0.00    -0.000 C 
BRANCH  24  25
ATOM     25  C   UNL     1      24.113  54.263  34.229  1.00  0.00    -0.000 C 
BRANCH  25  26
ATOM     26  C   UNL     1      22.867  54.641  35.039  1.00  0.00    -0.000 C 
BRANCH  26  27
ATOM     27  C   UNL     1      22.508  53.531  36.039  1.00  0.00    -0.000 C 
BRANCH  27  28
ATOM     28  C   UNL     1      21.000  53.223  36.079  1.00  0.00    -0.000 C 
BRANCH  28  29
ATOM     29  C   UNL     1      20.289  53.290  34.715  1.00  0.00    -0.003 C 
ATOM     30  C   UNL     1      20.021  54.721  34.248  1.00  0.00     0.004 C 
ENDBRANCH  28  29
ENDBRANCH  27  28
ENDBRANCH  26  27
ENDBRANCH  25  26
ENDBRANCH  24  25
ENDBRANCH  23  24
ENDBRANCH  22  23
ENDBRANCH  21  22
ENDBRANCH  20  21
ENDBRANCH  19  20
ENDBRANCH  18  19
ENDBRANCH  17  18
ENDBRANCH   1  17
TORSDOF 26
ENDMDL
MODEL 4
REMARK VINA RESULT:     7.213      5.691     15.207
REMARK INTER + INTRA:          17.087
REMARK INTER:                  18.362
REMARK INTRA:                  -1.275
REMARK UNBOUND:                -1.090
REMARK SMILES CCCCCCCCCCCCCCCCCCCCCCCCCCCC(=O)[O-]
REMARK SMILES IDX 15 1 16 2 17 3 18 4 19 5 20 6 21 7 22 8 23 9 24 10 25 11
REMARK SMILES IDX 26 12 27 13 28 14 29 15 30 16 14 17 13 18 12 19 11 20 10 21
REMARK SMILES IDX 9 22 8 23 7 24 6 25 5 26 4 27 3 28 2 29 1 30
REMARK H PARENT
REMARK Flexibility Score: inf
ROOT
ATOM      1  C   UNL     1      28.973  48.757  25.195  1.00  0.00     0.000 C 
ENDROOT
BRANCH   1   2
ATOM      2  C   UNL     1      28.003  49.642  26.002  1.00  0.00     0.000 C 
BRANCH   2   3
ATOM      3  C   UNL     1      26.516  49.506  25.626  1.00  0.00     0.000 C 
BRANCH   3   4
ATOM      4  C   UNL     1      25.898  50.820  25.119  1.00  0.00     0.000 C 
BRANCH   4   5
ATOM      5  C   UNL     1      24.505  51.089  25.716  1.00  0.00     0.000 C 
BRANCH   5   6
ATOM      6  C   UNL     1      23.945  52.504  25.466  1.00  0.00     0.000 C 
BRANCH   6   7
ATOM      7  C   UNL     1      23.008  53.036  26.565  1.00  0.00     0.000 C 
BRANCH   7   8
ATOM      8  C   UNL     1      22.849  52.054  27.735  1.00  0.00     0.000 C 
BRANCH   8   9
ATOM      9  C   UNL     1      21.833  52.579  28.759  1.00  0.00     0.000 C 
BRANCH   9  10
ATOM     10  C   UNL     1      22.498  53.246  29.976  1.00  0.00     0.000 C 
BRANCH  10  11
ATOM     11  C   UNL     1      21.523  53.740  31.065  1.00  0.00     0.000 C 
BRANCH  11  12
ATOM     12  C   UNL     1      22.120  54.747  32.069  1.00  0.00     0.006 C 
BRANCH  12  13
ATOM     13  C   UNL     1      22.914  54.104  33.216  1.00  0.00     0.053 C 
BRANCH  13  14
ATOM     14  C   UNL     1      22.063  53.883  34.430  1.00  0.00     0.041 C 
ATOM     15  O   UNL     1      20.839  53.613  34.306  1.00  0.00    -0.550 OA
ATOM     16  O   UNL     1      22.629  53.944  35.697  1.00  0.00    -0.550 OA
ENDBRANCH  13  14
ENDBRANCH  12  13
ENDBRANCH  11  12
ENDBRANCH  10  11
ENDBRANCH   9  10
ENDBRANCH   8   9
ENDBRANCH   7   8
ENDBRANCH   6   7
ENDBRANCH   5   6
ENDBRANCH   4   5
ENDBRANCH   3   4
ENDBRANCH   2   3
ENDBRANCH   1   2
BRANCH   1  17
ATOM     17  C   UNL     1      29.791  47.744  26.019  1.00  0.00     0.000 C 
BRANCH  17  18
ATOM     18  C   UNL     1      30.987  48.362  26.776  1.00  0.00     0.000 C 
BRANCH  18  19
ATOM     19  C   UNL     1      32.346  47.994  26.151  1.00  0.00     0.000 C 
BRANCH  19  20
ATOM     20  C   UNL     1      32.959  46.730  26.791  1.00  0.00     0.000 C 
BRANCH  20  21
ATOM     21  C   UNL     1      33.561  45.756  25.763  1.00  0.00     0.000 C 
BRANCH  21  22
ATOM     22  C   UNL     1      32.605  45.454  24.598  1.00  0.00    -0.000 C 
BRANCH  22  23
ATOM     23  C   UNL     1      32.989  46.219  23.313  1.00  0.00    -0.000 C 
BRANCH  23  24
ATOM     24  C   UNL     1      34.193  47.159  23.489  1.00  0.00    -0.000 C 
BRANCH  24  25
ATOM     25  C   UNL     1      35.094  47.215  22.249  1.00  0.00    -0.000 C 
BRANCH  25  26
ATOM     26  C   UNL     1      36.562  46.969  22.619  1.00  0.00    -0.000 C 
BRANCH  26  27
ATOM     27  C   UNL     1      36.690  45.782  23.586  1.00  0.00    -0.000 C 
BRANCH  27  28
ATOM     28  C   UNL     1      37.816  45.968  24.620  1.00  0.00    -0.000 C 
BRANCH  28  29
ATOM     29  C   UNL     1      38.958  44.939  24.525  1.00  0.00    -0.003 C 
ATOM     30  C   UNL     1      39.810  45.104  23.267  1.00  0.00     0.004 C 
ENDBRANCH  28  29
ENDBRANCH  27  28
ENDBRANCH  26  27
ENDBRANCH  25  26
ENDBRANCH  24  25
ENDBRANCH  23  24
ENDBRANCH  22  23
ENDBRANCH  21  22
ENDBRANCH  20  21
ENDBRANCH  19  20
ENDBRANCH  18  19
ENDBRANCH  17  18
ENDBRANCH   1  17
TORSDOF 26
ENDMDL
MODEL 5
REMARK VINA RESULT:     8.228      1.032      2.375
REMARK INTER + INTRA:          19.644
REMARK INTER:                  19.917
REMARK INTRA:                  -0.273
REMARK UNBOUND:                -1.090
REMARK SMILES CCCCCCCCCCCCCCCCCCCCCCCCCCCC(=O)[O-]
REMARK SMILES IDX 15 1 16 2 17 3 18 4 19 5 20 6 21 7 22 8 23 9 24 10 25 11
REMARK SMILES IDX 26 12 27 13 28 14 29 15 30 16 14 17 13 18 12 19 11 20 10 21
REMARK SMILES IDX 9 22 8 23 7 24 6 25 5 26 4 27 3 28 2 29 1 30
REMARK H PARENT
REMARK Flexibility Score: inf
ROOT
ATOM      1  C   UNL     1      25.655  50.576  25.864  1.00  0.00     0.000 C 
ENDROOT
BRANCH   1   2
ATOM      2  C   UNL     1      26.583  49.347  25.803  1.00  0.00     0.000 C 
BRANCH   2   3
ATOM      3  C   UNL     1      28.056  49.612  26.161  1.00  0.00     0.000 C 
BRANCH   3   4
ATOM      4  C   UNL     1      29.008  48.518  25.648  1.00  0.00     0.000 C 
BRANCH   4   5
ATOM      5  C   UNL     1      30.154  48.220  26.633  1.00  0.00     0.000 C 
BRANCH   5   6
ATOM      6  C   UNL     1      31.571  48.276  26.028  1.00  0.00     0.000 C 
BRANCH   6   7
ATOM      7  C   UNL     1      32.509  47.135  26.463  1.00  0.00     0.000 C 
BRANCH   7   8
ATOM      8  C   UNL     1      32.525  45.968  25.464  1.00  0.00     0.000 C 
BRANCH   8   9
ATOM      9  C   UNL     1      33.862  45.907  24.713  1.00  0.00     0.000 C 
BRANCH   9  10
ATOM     10  C   UNL     1      34.132  47.164  23.867  1.00  0.00     0.000 C 
BRANCH  10  11
ATOM     11  C   UNL     1      35.401  47.104  22.992  1.00  0.00     0.000 C 
BRANCH  11  12
ATOM     12  C   UNL     1      36.359  45.937  23.307  1.00  0.00     0.006 C 
BRANCH  12  13
ATOM     13  C   UNL     1      37.209  46.138  24.572  1.00  0.00     0.053 C 
BRANCH  13  14
ATOM     14  C   UNL     1      38.570  45.525  24.435  1.00  0.00     0.041 C 
ATOM     15  O   UNL     1      39.049  45.295  23.294  1.00  0.00    -0.550 OA
ATOM     16  O   UNL     1      39.319  45.236  25.568  1.00  0.00    -0.550 OA
ENDBRANCH  13  14
ENDBRANCH  12  13
ENDBRANCH  11  12
ENDBRANCH  10  11
ENDBRANCH   9  10
ENDBRANCH   8   9
ENDBRANCH   7   8
ENDBRANCH   6   7
ENDBRANCH   5   6
ENDBRANCH   4   5
ENDBRANCH   3   4
ENDBRANCH   2   3
ENDBRANCH   1   2
BRANCH   1  17
ATOM     17  C   UNL     1      24.757  50.670  27.113  1.00  0.00     0.000 C 
BRANCH  17  18
ATOM     18  C   UNL     1      23.335  51.200  26.832  1.00  0.00     0.000 C 
BRANCH  18  19
ATOM     19  C   UNL     1      22.746  51.994  28.014  1.00  0.00     0.000 C 
BRANCH  19  20
ATOM     20  C   UNL     1      21.357  52.583  27.687  1.00  0.00     0.000 C 
BRANCH  20  21
ATOM     21  C   UNL     1      21.134  53.984  28.282  1.00  0.00     0.000 C 
BRANCH  21  22
ATOM     22  C   UNL     1      19.875  54.064  29.162  1.00  0.00    -0.000 C 
BRANCH  22  23
ATOM     23  C   UNL     1      20.125  54.845  30.469  1.00  0.00    -0.000 C 
BRANCH  23  24
ATOM     24  C   UNL     1      21.179  54.200  31.384  1.00  0.00    -0.000 C 
BRANCH  24  25
ATOM     25  C   UNL     1      22.370  55.125  31.669  1.00  0.00    -0.000 C 
BRANCH  25  26
ATOM     26  C   UNL     1      23.113  54.697  32.940  1.00  0.00    -0.000 C 
BRANCH  26  27
ATOM     27  C   UNL     1      22.121  54.314  34.050  1.00  0.00    -0.000 C 
BRANCH  27  28
ATOM     28  C   UNL     1      22.747  53.413  35.130  1.00  0.00    -0.000 C 
BRANCH  28  29
ATOM     29  C   UNL     1      23.753  54.119  36.058  1.00  0.00    -0.003 C 
ATOM     30  C   UNL     1      24.659  55.105  35.320  1.00  0.00     0.004 C 
ENDBRANCH  28  29
ENDBRANCH  27  28
ENDBRANCH  26  27
ENDBRANCH  25  26
ENDBRANCH  24  25
ENDBRANCH  23  24
ENDBRANCH  22  23
ENDBRANCH  21  22
ENDBRANCH  20  21
ENDBRANCH  19  20
ENDBRANCH  18  19
ENDBRANCH  17  18
ENDBRANCH   1  17
TORSDOF 26
ENDMDL
MODEL 6
REMARK VINA RESULT:     8.286      5.813     15.080
REMARK INTER + INTRA:          19.791
REMARK INTER:                  20.541
REMARK INTRA:                  -0.750
REMARK UNBOUND:                -1.090
REMARK SMILES CCCCCCCCCCCCCCCCCCCCCCCCCCCC(=O)[O-]
REMARK SMILES IDX 15 1 16 2 17 3 18 4 19 5 20 6 21 7 22 8 23 9 24 10 25 11
REMARK SMILES IDX 26 12 27 13 28 14 29 15 30 16 14 17 13 18 12 19 11 20 10 21
REMARK SMILES IDX 9 22 8 23 7 24 6 25 5 26 4 27 3 28 2 29 1 30
REMARK H PARENT
REMARK Flexibility Score: inf
ROOT
ATOM      1  C   UNL     1      27.181  49.330  25.369  1.00  0.00     0.000 C 
ENDROOT
BRANCH   1   2
ATOM      2  C   UNL     1      25.966  50.140  25.860  1.00  0.00     0.000 C 
BRANCH   2   3
ATOM      3  C   UNL     1      25.457  51.223  24.892  1.00  0.00     0.000 C 
BRANCH   3   4
ATOM      4  C   UNL     1      24.039  51.716  25.228  1.00  0.00     0.000 C 
BRANCH   4   5
ATOM      5  C   UNL     1      23.640  51.425  26.686  1.00  0.00     0.000 C 
BRANCH   5   6
ATOM      6  C   UNL     1      22.778  52.511  27.361  1.00  0.00     0.000 C 
BRANCH   6   7
ATOM      7  C   UNL     1      22.248  52.144  28.758  1.00  0.00     0.000 C 
BRANCH   7   8
ATOM      8  C   UNL     1      22.692  53.138  29.841  1.00  0.00     0.000 C 
BRANCH   8   9
ATOM      9  C   UNL     1      24.166  52.923  30.213  1.00  0.00     0.000 C 
BRANCH   9  10
ATOM     10  C   UNL     1      24.710  54.009  31.157  1.00  0.00     0.000 C 
BRANCH  10  11
ATOM     11  C   UNL     1      23.663  55.028  31.654  1.00  0.00     0.000 C 
BRANCH  11  12
ATOM     12  C   UNL     1      23.375  54.984  33.168  1.00  0.00     0.006 C 
BRANCH  12  13
ATOM     13  C   UNL     1      21.888  55.113  33.535  1.00  0.00     0.053 C 
BRANCH  13  14
ATOM     14  C   UNL     1      21.478  54.109  34.569  1.00  0.00     0.041 C 
ATOM     15  O   UNL     1      21.688  54.335  35.790  1.00  0.00    -0.550 OA
ATOM     16  O   UNL     1      20.836  52.938  34.186  1.00  0.00    -0.550 OA
ENDBRANCH  13  14
ENDBRANCH  12  13
ENDBRANCH  11  12
ENDBRANCH  10  11
ENDBRANCH   9  10
ENDBRANCH   8   9
ENDBRANCH   7   8
ENDBRANCH   6   7
ENDBRANCH   5   6
ENDBRANCH   4   5
ENDBRANCH   3   4
ENDBRANCH   2   3
ENDBRANCH   1   2
BRANCH   1  17
ATOM     17  C   UNL     1      28.360  49.234  26.355  1.00  0.00     0.000 C 
BRANCH  17  18
ATOM     18  C   UNL     1      29.662  48.681  25.735  1.00  0.00     0.000 C 
BRANCH  18  19
ATOM     19  C   UNL     1      30.587  48.020  26.774  1.00  0.00     0.000 C 
BRANCH  19  20
ATOM     20  C   UNL     1      32.079  48.192  26.419  1.00  0.00     0.000 C 
BRANCH  20  21
ATOM     21  C   UNL     1      32.955  47.011  26.872  1.00  0.00     0.000 C 
BRANCH  21  22
ATOM     22  C   UNL     1      32.734  45.747  26.026  1.00  0.00    -0.000 C 
BRANCH  22  23
ATOM     23  C   UNL     1      32.746  46.048  24.512  1.00  0.00    -0.000 C 
BRANCH  23  24
ATOM     24  C   UNL     1      34.131  46.435  23.969  1.00  0.00    -0.000 C 
BRANCH  24  25
ATOM     25  C   UNL     1      34.100  46.840  22.489  1.00  0.00    -0.000 C 
BRANCH  25  26
ATOM     26  C   UNL     1      35.385  47.577  22.089  1.00  0.00    -0.000 C 
BRANCH  26  27
ATOM     27  C   UNL     1      36.606  46.652  22.214  1.00  0.00    -0.000 C 
BRANCH  27  28
ATOM     28  C   UNL     1      37.022  46.398  23.674  1.00  0.00    -0.000 C 
BRANCH  28  29
ATOM     29  C   UNL     1      38.156  45.372  23.855  1.00  0.00    -0.003 C 
ATOM     30  C   UNL     1      38.608  45.229  25.308  1.00  0.00     0.004 C 
ENDBRANCH  28  29
ENDBRANCH  27  28
ENDBRANCH  26  27
ENDBRANCH  25  26
ENDBRANCH  24  25
ENDBRANCH  23  24
ENDBRANCH  22  23
ENDBRANCH  21  22
ENDBRANCH  20  21
ENDBRANCH  19  20
ENDBRANCH  18  19
ENDBRANCH  17  18
ENDBRANCH   1  17
TORSDOF 26
ENDMDL
MODEL 7
REMARK VINA RESULT:     8.604      5.305     15.469
REMARK INTER + INTRA:          20.592
REMARK INTER:                  20.802
REMARK INTRA:                  -0.209
REMARK UNBOUND:                -1.090
REMARK SMILES CCCCCCCCCCCCCCCCCCCCCCCCCCCC(=O)[O-]
REMARK SMILES IDX 15 1 16 2 17 3 18 4 19 5 20 6 21 7 22 8 23 9 24 10 25 11
REMARK SMILES IDX 26 12 27 13 28 14 29 15 30 16 14 17 13 18 12 19 11 20 10 21
REMARK SMILES IDX 9 22 8 23 7 24 6 25 5 26 4 27 3 28 2 29 1 30
REMARK H PARENT
REMARK Flexibility Score: inf
ROOT
ATOM      1  C   UNL     1      24.291  51.022  27.042  1.00  0.00     0.000 C 
ENDROOT
BRANCH   1   2
ATOM      2  C   UNL     1      22.881  51.600  26.812  1.00  0.00     0.000 C 
BRANCH   2   3
ATOM      3  C   UNL     1      22.505  52.800  27.699  1.00  0.00     0.000 C 
BRANCH   3   4
ATOM      4  C   UNL     1      21.068  53.296  27.468  1.00  0.00     0.000 C 
BRANCH   4   5
ATOM      5  C   UNL     1      20.257  53.395  28.773  1.00  0.00     0.000 C 
BRANCH   5   6
ATOM      6  C   UNL     1      20.432  54.712  29.557  1.00  0.00     0.000 C 
BRANCH   6   7
ATOM      7  C   UNL     1      21.271  54.597  30.842  1.00  0.00     0.000 C 
BRANCH   7   8
ATOM      8  C   UNL     1      20.421  54.696  32.116  1.00  0.00     0.000 C 
BRANCH   8   9
ATOM      9  C   UNL     1      20.902  53.696  33.177  1.00  0.00     0.000 C 
BRANCH   9  10
ATOM     10  C   UNL     1      19.953  53.600  34.384  1.00  0.00     0.000 C 
BRANCH  10  11
ATOM     11  C   UNL     1      20.532  52.872  35.615  1.00  0.00     0.000 C 
BRANCH  11  12
ATOM     12  C   UNL     1      21.881  53.418  36.125  1.00  0.00     0.006 C 
BRANCH  12  13
ATOM     13  C   UNL     1      22.346  54.708  35.431  1.00  0.00     0.053 C 
BRANCH  13  14
ATOM     14  C   UNL     1      23.736  54.580  34.886  1.00  0.00     0.041 C 
ATOM     15  O   UNL     1      23.928  54.539  33.643  1.00  0.00    -0.550 OA
ATOM     16  O   UNL     1      24.822  54.540  35.753  1.00  0.00    -0.550 OA
ENDBRANCH  13  14
ENDBRANCH  12  13
ENDBRANCH  11  12
ENDBRANCH  10  11
ENDBRANCH   9  10
ENDBRANCH   8   9
ENDBRANCH   7   8
ENDBRANCH   6   7
ENDBRANCH   5   6
ENDBRANCH   4   5
ENDBRANCH   3   4
ENDBRANCH   2   3
ENDBRANCH   1   2
BRANCH   1  17
ATOM     17  C   UNL     1      25.077  50.659  25.767  1.00  0.00     0.000 C 
BRANCH  17  18
ATOM     18  C   UNL     1      26.126  49.544  25.966  1.00  0.00     0.000 C 
BRANCH  18  19
ATOM     19  C   UNL     1      27.513  49.920  25.413  1.00  0.00     0.000 C 
BRANCH  19  20
ATOM     20  C   UNL     1      28.659  49.361  26.282  1.00  0.00     0.000 C 
BRANCH  20  21
ATOM     21  C   UNL     1      29.579  48.386  25.526  1.00  0.00     0.000 C 
BRANCH  21  22
ATOM     22  C   UNL     1      30.533  47.622  26.459  1.00  0.00    -0.000 C 
BRANCH  22  23
ATOM     23  C   UNL     1      31.996  48.091  26.308  1.00  0.00    -0.000 C 
BRANCH  23  24
ATOM     24  C   UNL     1      33.016  46.940  26.291  1.00  0.00    -0.000 C 
BRANCH  24  25
ATOM     25  C   UNL     1      33.187  46.314  24.900  1.00  0.00    -0.000 C 
BRANCH  25  26
ATOM     26  C   UNL     1      34.139  47.146  24.032  1.00  0.00    -0.000 C 
BRANCH  26  27
ATOM     27  C   UNL     1      35.355  46.311  23.600  1.00  0.00    -0.000 C 
BRANCH  27  28
ATOM     28  C   UNL     1      36.501  46.344  24.628  1.00  0.00    -0.000 C 
BRANCH  28  29
ATOM     29  C   UNL     1      37.367  45.071  24.672  1.00  0.00    -0.003 C 
ATOM     30  C   UNL     1      38.783  45.291  24.139  1.00  0.00     0.004 C 
ENDBRANCH  28  29
ENDBRANCH  27  28
ENDBRANCH  26  27
ENDBRANCH  25  26
ENDBRANCH  24  25
ENDBRANCH  23  24
ENDBRANCH  22  23
ENDBRANCH  21  22
ENDBRANCH  20  21
ENDBRANCH  19  20
ENDBRANCH  18  19
ENDBRANCH  17  18
ENDBRANCH   1  17
TORSDOF 26
ENDMDL
MODEL 8
REMARK VINA RESULT:     8.640      5.173     15.084
REMARK INTER + INTRA:          20.683
REMARK INTER:                  21.855
REMARK INTRA:                  -1.172
REMARK UNBOUND:                -1.090
REMARK SMILES CCCCCCCCCCCCCCCCCCCCCCCCCCCC(=O)[O-]
REMARK SMILES IDX 15 1 16 2 17 3 18 4 19 5 20 6 21 7 22 8 23 9 24 10 25 11
REMARK SMILES IDX 26 12 27 13 28 14 29 15 30 16 14 17 13 18 12 19 11 20 10 21
REMARK SMILES IDX 9 22 8 23 7 24 6 25 5 26 4 27 3 28 2 29 1 30
REMARK H PARENT
REMARK Flexibility Score: inf
ROOT
ATOM      1  C   UNL     1      26.377  49.887  25.587  1.00  0.00     0.000 C 
ENDROOT
BRANCH   1   2
ATOM      2  C   UNL     1      25.374  50.438  26.619  1.00  0.00     0.000 C 
BRANCH   2   3
ATOM      3  C   UNL     1      23.999  50.841  26.055  1.00  0.00     0.000 C 
BRANCH   3   4
ATOM      4  C   UNL     1      23.831  52.362  25.903  1.00  0.00     0.000 C 
BRANCH   4   5
ATOM      5  C   UNL     1      22.782  52.942  26.870  1.00  0.00     0.000 C 
BRANCH   5   6
ATOM      6  C   UNL     1      22.772  52.318  28.280  1.00  0.00     0.000 C 
BRANCH   6   7
ATOM      7  C   UNL     1      21.681  52.858  29.222  1.00  0.00     0.000 C 
BRANCH   7   8
ATOM      8  C   UNL     1      22.190  53.076  30.654  1.00  0.00     0.000 C 
BRANCH   8   9
ATOM      9  C   UNL     1      21.708  54.424  31.209  1.00  0.00     0.000 C 
BRANCH   9  10
ATOM     10  C   UNL     1      20.482  54.290  32.130  1.00  0.00     0.000 C 
BRANCH  10  11
ATOM     11  C   UNL     1      20.775  54.455  33.636  1.00  0.00     0.000 C 
BRANCH  11  12
ATOM     12  C   UNL     1      21.917  53.573  34.181  1.00  0.00     0.006 C 
BRANCH  12  13
ATOM     13  C   UNL     1      22.793  54.256  35.243  1.00  0.00     0.053 C 
BRANCH  13  14
ATOM     14  C   UNL     1      24.169  54.553  34.726  1.00  0.00     0.041 C 
ATOM     15  O   UNL     1      25.141  54.631  35.523  1.00  0.00    -0.550 OA
ATOM     16  O   UNL     1      24.381  54.710  33.362  1.00  0.00    -0.550 OA
ENDBRANCH  13  14
ENDBRANCH  12  13
ENDBRANCH  11  12
ENDBRANCH  10  11
ENDBRANCH   9  10
ENDBRANCH   8   9
ENDBRANCH   7   8
ENDBRANCH   6   7
ENDBRANCH   5   6
ENDBRANCH   4   5
ENDBRANCH   3   4
ENDBRANCH   2   3
ENDBRANCH   1   2
BRANCH   1  17
ATOM     17  C   UNL     1      27.807  49.650  26.110  1.00  0.00     0.000 C 
BRANCH  17  18
ATOM     18  C   UNL     1      28.729  48.907  25.119  1.00  0.00     0.000 C 
BRANCH  18  19
ATOM     19  C   UNL     1      29.471  47.721  25.763  1.00  0.00     0.000 C 
BRANCH  19  20
ATOM     20  C   UNL     1      30.625  48.182  26.678  1.00  0.00     0.000 C 
BRANCH  20  21
ATOM     21  C   UNL     1      31.955  48.381  25.929  1.00  0.00     0.000 C 
BRANCH  21  22
ATOM     22  C   UNL     1      33.055  47.418  26.403  1.00  0.00    -0.000 C 
BRANCH  22  23
ATOM     23  C   UNL     1      32.786  45.962  25.966  1.00  0.00    -0.000 C 
BRANCH  23  24
ATOM     24  C   UNL     1      33.219  45.659  24.522  1.00  0.00    -0.000 C 
BRANCH  24  25
ATOM     25  C   UNL     1      33.694  46.907  23.767  1.00  0.00    -0.000 C 
BRANCH  25  26
ATOM     26  C   UNL     1      35.092  46.698  23.173  1.00  0.00    -0.000 C 
BRANCH  26  27
ATOM     27  C   UNL     1      36.170  46.799  24.264  1.00  0.00    -0.000 C 
BRANCH  27  28
ATOM     28  C   UNL     1      36.838  45.447  24.576  1.00  0.00    -0.000 C 
BRANCH  28  29
ATOM     29  C   UNL     1      38.334  45.533  24.932  1.00  0.00    -0.003 C 
ATOM     30  C   UNL     1      39.240  44.923  23.863  1.00  0.00     0.004 C 
ENDBRANCH  28  29
ENDBRANCH  27  28
ENDBRANCH  26  27
ENDBRANCH  25  26
ENDBRANCH  24  25
ENDBRANCH  23  24
ENDBRANCH  22  23
ENDBRANCH  21  22
ENDBRANCH  20  21
ENDBRANCH  19  20
ENDBRANCH  18  19
ENDBRANCH  17  18
ENDBRANCH   1  17
TORSDOF 26
ENDMDL
MODEL 9
REMARK VINA RESULT:     8.834      5.778     15.503
REMARK INTER + INTRA:          21.173
REMARK INTER:                  22.097
REMARK INTRA:                  -0.924
REMARK UNBOUND:                -1.090
REMARK SMILES CCCCCCCCCCCCCCCCCCCCCCCCCCCC(=O)[O-]
REMARK SMILES IDX 15 1 16 2 17 3 18 4 19 5 20 6 21 7 22 8 23 9 24 10 25 11
REMARK SMILES IDX 26 12 27 13 28 14 29 15 30 16 14 17 13 18 12 19 11 20 10 21
REMARK SMILES IDX 9 22 8 23 7 24 6 25 5 26 4 27 3 28 2 29 1 30
REMARK H PARENT
REMARK Flexibility Score: inf
ROOT
ATOM      1  C   UNL     1      25.036  50.214  25.619  1.00  0.00     0.000 C 
ENDROOT
BRANCH   1   2
ATOM      2  C   UNL     1      24.182  51.411  26.077  1.00  0.00     0.000 C 
BRANCH   2   3
ATOM      3  C   UNL     1      23.434  51.220  27.409  1.00  0.00     0.000 C 
BRANCH   3   4
ATOM      4  C   UNL     1      22.448  52.359  27.718  1.00  0.00     0.000 C 
BRANCH   4   5
ATOM      5  C   UNL     1      22.130  52.477  29.219  1.00  0.00     0.000 C 
BRANCH   5   6
ATOM      6  C   UNL     1      21.184  53.633  29.602  1.00  0.00     0.000 C 
BRANCH   6   7
ATOM      7  C   UNL     1      21.195  54.015  31.093  1.00  0.00     0.000 C 
BRANCH   7   8
ATOM      8  C   UNL     1      22.401  54.886  31.473  1.00  0.00     0.000 C 
BRANCH   8   9
ATOM      9  C   UNL     1      23.602  54.016  31.871  1.00  0.00     0.000 C 
BRANCH   9  10
ATOM     10  C   UNL     1      24.249  54.459  33.195  1.00  0.00     0.000 C 
BRANCH  10  11
ATOM     11  C   UNL     1      23.288  55.125  34.202  1.00  0.00     0.000 C 
BRANCH  11  12
ATOM     12  C   UNL     1      23.377  54.588  35.645  1.00  0.00     0.006 C 
BRANCH  12  13
ATOM     13  C   UNL     1      22.213  53.673  36.055  1.00  0.00     0.053 C 
BRANCH  13  14
ATOM     14  C   UNL     1      21.040  53.813  35.133  1.00  0.00     0.041 C 
ATOM     15  O   UNL     1      20.954  53.097  34.102  1.00  0.00    -0.550 OA
ATOM     16  O   UNL     1      20.025  54.715  35.431  1.00  0.00    -0.550 OA
ENDBRANCH  13  14
ENDBRANCH  12  13
ENDBRANCH  11  12
ENDBRANCH  10  11
ENDBRANCH   9  10
ENDBRANCH   8   9
ENDBRANCH   7   8
ENDBRANCH   6   7
ENDBRANCH   5   6
ENDBRANCH   4   5
ENDBRANCH   3   4
ENDBRANCH   2   3
ENDBRANCH   1   2
BRANCH   1  17
ATOM     17  C   UNL     1      26.555  50.465  25.556  1.00  0.00     0.000 C 
BRANCH  17  18
ATOM     18  C   UNL     1      27.417  49.228  25.891  1.00  0.00     0.000 C 
BRANCH  18  19
ATOM     19  C   UNL     1      28.915  49.559  26.023  1.00  0.00     0.000 C 
BRANCH  19  20
ATOM     20  C   UNL     1      29.768  48.302  26.298  1.00  0.00     0.000 C 
BRANCH  20  21
ATOM     21  C   UNL     1      31.203  48.625  26.748  1.00  0.00     0.000 C 
BRANCH  21  22
ATOM     22  C   UNL     1      32.147  47.417  26.641  1.00  0.00    -0.000 C 
BRANCH  22  23
ATOM     23  C   UNL     1      32.991  47.448  25.349  1.00  0.00    -0.000 C 
BRANCH  23  24
ATOM     24  C   UNL     1      32.672  46.302  24.373  1.00  0.00    -0.000 C 
BRANCH  24  25
ATOM     25  C   UNL     1      33.906  45.811  23.605  1.00  0.00    -0.000 C 
BRANCH  25  26
ATOM     26  C   UNL     1      34.801  46.983  23.185  1.00  0.00    -0.000 C 
BRANCH  26  27
ATOM     27  C   UNL     1      36.282  46.571  23.194  1.00  0.00    -0.000 C 
BRANCH  27  28
ATOM     28  C   UNL     1      36.559  45.346  24.083  1.00  0.00    -0.000 C 
BRANCH  28  29
ATOM     29  C   UNL     1      37.799  45.471  24.988  1.00  0.00    -0.003 C 
ATOM     30  C   UNL     1      39.115  45.405  24.214  1.00  0.00     0.004 C 
ENDBRANCH  28  29
ENDBRANCH  27  28
ENDBRANCH  26  27
ENDBRANCH  25  26
ENDBRANCH  24  25
ENDBRANCH  23  24
ENDBRANCH  22  23
ENDBRANCH  21  22
ENDBRANCH  20  21
ENDBRANCH  19  20
ENDBRANCH  18  19
ENDBRANCH  17  18
ENDBRANCH   1  17
TORSDOF 26
ENDMDL
