MODEL 1
REMARK VINA RESULT:    -5.003      0.000      0.000
REMARK INTER + INTRA:          -6.352
REMARK INTER:                  -6.027
REMARK INTRA:                  -0.325
REMARK UNBOUND:                -0.325
REMARK SMILES O=c1c(O)c(-c2ccc(O)c(O)c2)oc2cc(O)cc(O)c12
REMARK SMILES IDX 5 1 3 2 2 3 1 4 22 5 20 6 19 7 17 8 16 9 15 10 14 11 6 12
REMARK SMILES IDX 7 13 8 14 9 15 13 16 11 17 10 18 12 20 4 22 21 24 18 26
REMARK H PARENT 10 19 12 21 4 23 21 25 18 27
REMARK Flexibility Score: inf
ROOT
ATOM      1  C   UNL     1       9.142  27.816  -4.641  1.00  0.00     0.180 A 
ATOM      2  C   UNL     1       9.766  27.562  -5.878  1.00  0.00     0.208 A 
ATOM      3  C   UNL     1       9.006  27.003  -6.918  1.00  0.00     0.238 A 
ATOM      4  O   UNL     1       9.551  26.781  -8.033  1.00  0.00    -0.285 OA
ATOM      5  C   UNL     1       7.649  26.690  -6.700  1.00  0.00     0.111 A 
ATOM      6  C   UNL     1       6.816  26.121  -7.693  1.00  0.00     0.134 A 
ATOM      7  C   UNL     1       5.477  25.830  -7.395  1.00  0.00     0.093 A 
ATOM      8  C   UNL     1       4.956  26.095  -6.123  1.00  0.00     0.123 A 
ATOM      9  C   UNL     1       5.773  26.656  -5.141  1.00  0.00     0.094 A 
ATOM     10  C   UNL     1       7.110  26.956  -5.419  1.00  0.00     0.146 A 
ATOM     11  O   UNL     1       7.864  27.494  -4.467  1.00  0.00    -0.452 OA
ENDROOT
BRANCH   1  12
ATOM     12  C   UNL     1       9.870  28.421  -3.502  1.00  0.00     0.025 A 
ATOM     13  C   UNL     1      10.569  27.628  -2.575  1.00  0.00     0.016 A 
ATOM     14  C   UNL     1      11.268  28.223  -1.522  1.00  0.00     0.051 A 
ATOM     15  C   UNL     1      11.291  29.617  -1.387  1.00  0.00     0.157 A 
ATOM     16  C   UNL     1       9.914  29.819  -3.374  1.00  0.00     0.062 A 
ATOM     17  C   UNL     1      10.615  30.417  -2.318  1.00  0.00     0.158 A 
BRANCH  15  18
ATOM     18  O   UNL     1      11.986  30.214  -0.337  1.00  0.00    -0.504 OA
ATOM     19  H   UNL     1      12.404  31.132  -0.433  1.00  0.00     0.293 HD
ENDBRANCH  15  18
BRANCH  17  20
ATOM     20  O   UNL     1      10.645  31.805  -2.186  1.00  0.00    -0.504 OA
ATOM     21  H   UNL     1       9.797  32.343  -2.051  1.00  0.00     0.293 HD
ENDBRANCH  17  20
ENDBRANCH   1  12
BRANCH   2  22
ATOM     22  O   UNL     1      11.125  27.836  -6.053  1.00  0.00    -0.502 OA
ATOM     23  H   UNL     1      11.764  27.167  -6.465  1.00  0.00     0.293 HD
ENDBRANCH   2  22
BRANCH   6  24
ATOM     24  O   UNL     1       7.307  25.844  -8.970  1.00  0.00    -0.507 OA
ATOM     25  H   UNL     1       8.202  25.389  -9.109  1.00  0.00     0.293 HD
ENDBRANCH   6  24
BRANCH   8  26
ATOM     26  O   UNL     1       3.626  25.806  -5.826  1.00  0.00    -0.508 OA
ATOM     27  H   UNL     1       3.367  24.969  -5.318  1.00  0.00     0.293 HD
ENDBRANCH   8  26
TORSDOF 6
ENDMDL
MODEL 2
REMARK VINA RESULT:    -4.976      5.086      8.690
REMARK INTER + INTRA:          -6.319
REMARK INTER:                  -6.007
REMARK INTRA:                  -0.312
REMARK UNBOUND:                -0.325
REMARK SMILES O=c1c(O)c(-c2ccc(O)c(O)c2)oc2cc(O)cc(O)c12
REMARK SMILES IDX 5 1 3 2 2 3 1 4 22 5 20 6 19 7 17 8 16 9 15 10 14 11 6 12
REMARK SMILES IDX 7 13 8 14 9 15 13 16 11 17 10 18 12 20 4 22 21 24 18 26
REMARK H PARENT 10 19 12 21 4 23 21 25 18 27
REMARK Flexibility Score: inf
ROOT
ATOM      1  C   UNL     1       1.702  26.258  -4.627  1.00  0.00     0.180 A 
ATOM      2  C   UNL     1       0.947  27.442  -4.752  1.00  0.00     0.208 A 
ATOM      3  C   UNL     1      -0.330  27.495  -4.171  1.00  0.00     0.238 A 
ATOM      4  O   UNL     1      -1.009  28.553  -4.267  1.00  0.00    -0.285 OA
ATOM      5  C   UNL     1      -0.837  26.366  -3.497  1.00  0.00     0.111 A 
ATOM      6  C   UNL     1      -2.115  26.337  -2.888  1.00  0.00     0.134 A 
ATOM      7  C   UNL     1      -2.553  25.171  -2.244  1.00  0.00     0.093 A 
ATOM      8  C   UNL     1      -1.738  24.034  -2.197  1.00  0.00     0.123 A 
ATOM      9  C   UNL     1      -0.477  24.058  -2.795  1.00  0.00     0.094 A 
ATOM     10  C   UNL     1      -0.021  25.212  -3.441  1.00  0.00     0.146 A 
ATOM     11  O   UNL     1       1.184  25.208  -3.997  1.00  0.00    -0.452 OA
ENDROOT
BRANCH   1  12
ATOM     12  C   UNL     1       3.063  26.130  -5.195  1.00  0.00     0.025 A 
ATOM     13  C   UNL     1       3.277  25.566  -6.466  1.00  0.00     0.016 A 
ATOM     14  C   UNL     1       4.569  25.477  -6.991  1.00  0.00     0.051 A 
ATOM     15  C   UNL     1       5.663  25.960  -6.261  1.00  0.00     0.157 A 
ATOM     16  C   UNL     1       4.162  26.631  -4.477  1.00  0.00     0.062 A 
ATOM     17  C   UNL     1       5.458  26.542  -5.003  1.00  0.00     0.158 A 
BRANCH  15  18
ATOM     18  O   UNL     1       6.953  25.872  -6.781  1.00  0.00    -0.504 OA
ATOM     19  H   UNL     1       7.578  25.118  -6.522  1.00  0.00     0.293 HD
ENDBRANCH  15  18
BRANCH  17  20
ATOM     20  O   UNL     1       6.548  27.028  -4.283  1.00  0.00    -0.504 OA
ATOM     21  H   UNL     1       6.423  27.614  -3.465  1.00  0.00     0.293 HD
ENDBRANCH  17  20
ENDBRANCH   1  12
BRANCH   2  22
ATOM     22  O   UNL     1       1.454  28.530  -5.467  1.00  0.00    -0.502 OA
ATOM     23  H   UNL     1       1.032  29.449  -5.425  1.00  0.00     0.293 HD
ENDBRANCH   2  22
BRANCH   6  24
ATOM     24  O   UNL     1      -2.950  27.455  -2.920  1.00  0.00    -0.507 OA
ATOM     25  H   UNL     1      -3.960  27.366  -2.915  1.00  0.00     0.293 HD
ENDBRANCH   6  24
BRANCH   8  26
ATOM     26  O   UNL     1      -2.172  22.875  -1.557  1.00  0.00    -0.508 OA
ATOM     27  H   UNL     1      -2.971  22.352  -1.893  1.00  0.00     0.293 HD
ENDBRANCH   8  26
TORSDOF 6
ENDMDL
MODEL 3
REMARK VINA RESULT:    -4.884      3.951      6.234
REMARK INTER + INTRA:          -6.209
REMARK INTER:                  -5.876
REMARK INTRA:                  -0.332
REMARK UNBOUND:                -0.325
REMARK SMILES O=c1c(O)c(-c2ccc(O)c(O)c2)oc2cc(O)cc(O)c12
REMARK SMILES IDX 5 1 3 2 2 3 1 4 22 5 20 6 19 7 17 8 16 9 15 10 14 11 6 12
REMARK SMILES IDX 7 13 8 14 9 15 13 16 11 17 10 18 12 20 4 22 21 24 18 26
REMARK H PARENT 10 19 12 21 4 23 21 25 18 27
REMARK Flexibility Score: inf
ROOT
ATOM      1  C   UNL     1      11.005  29.358  -1.418  1.00  0.00     0.180 A 
ATOM      2  C   UNL     1      10.344  28.704  -2.477  1.00  0.00     0.208 A 
ATOM      3  C   UNL     1      10.125  29.404  -3.674  1.00  0.00     0.238 A 
ATOM      4  O   UNL     1       9.545  28.825  -4.632  1.00  0.00    -0.285 OA
ATOM      5  C   UNL     1      10.550  30.744  -3.786  1.00  0.00     0.111 A 
ATOM      6  C   UNL     1      10.363  31.520  -4.956  1.00  0.00     0.134 A 
ATOM      7  C   UNL     1      10.805  32.850  -4.986  1.00  0.00     0.093 A 
ATOM      8  C   UNL     1      11.429  33.420  -3.870  1.00  0.00     0.123 A 
ATOM      9  C   UNL     1      11.614  32.659  -2.715  1.00  0.00     0.094 A 
ATOM     10  C   UNL     1      11.182  31.330  -2.665  1.00  0.00     0.146 A 
ATOM     11  O   UNL     1      11.377  30.628  -1.554  1.00  0.00    -0.452 OA
ENDROOT
BRANCH   1  12
ATOM     12  C   UNL     1      11.290  28.683  -0.131  1.00  0.00     0.025 A 
ATOM     13  C   UNL     1      12.483  27.968   0.072  1.00  0.00     0.016 A 
ATOM     14  C   UNL     1      12.741  27.359   1.303  1.00  0.00     0.051 A 
ATOM     15  C   UNL     1      11.817  27.465   2.350  1.00  0.00     0.157 A 
ATOM     16  C   UNL     1      10.377  28.803   0.930  1.00  0.00     0.062 A 
ATOM     17  C   UNL     1      10.634  28.192   2.164  1.00  0.00     0.158 A 
BRANCH  15  18
ATOM     18  O   UNL     1      12.070  26.857   3.579  1.00  0.00    -0.504 OA
ATOM     19  H   UNL     1      11.321  26.475   4.144  1.00  0.00     0.293 HD
ENDBRANCH  15  18
BRANCH  17  20
ATOM     20  O   UNL     1       9.720  28.302   3.212  1.00  0.00    -0.504 OA
ATOM     21  H   UNL     1       9.217  29.164   3.387  1.00  0.00     0.293 HD
ENDBRANCH  17  20
ENDBRANCH   1  12
BRANCH   2  22
ATOM     22  O   UNL     1       9.891  27.392  -2.322  1.00  0.00    -0.502 OA
ATOM     23  H   UNL     1      10.326  26.741  -1.679  1.00  0.00     0.293 HD
ENDBRANCH   2  22
BRANCH   6  24
ATOM     24  O   UNL     1       9.745  30.979  -6.084  1.00  0.00    -0.507 OA
ATOM     25  H   UNL     1      10.266  30.763  -6.926  1.00  0.00     0.293 HD
ENDBRANCH   6  24
BRANCH   8  26
ATOM     26  O   UNL     1      11.868  34.741  -3.899  1.00  0.00    -0.508 OA
ATOM     27  H   UNL     1      11.769  35.350  -3.095  1.00  0.00     0.293 HD
ENDBRANCH   8  26
TORSDOF 6
ENDMDL
MODEL 4
REMARK VINA RESULT:    -4.872      2.180      4.038
REMARK INTER + INTRA:          -6.194
REMARK INTER:                  -5.979
REMARK INTRA:                  -0.215
REMARK UNBOUND:                -0.325
REMARK SMILES O=c1c(O)c(-c2ccc(O)c(O)c2)oc2cc(O)cc(O)c12
REMARK SMILES IDX 5 1 3 2 2 3 1 4 22 5 20 6 19 7 17 8 16 9 15 10 14 11 6 12
REMARK SMILES IDX 7 13 8 14 9 15 13 16 11 17 10 18 12 20 4 22 21 24 18 26
REMARK H PARENT 10 19 12 21 4 23 21 25 18 27
REMARK Flexibility Score: inf
ROOT
ATOM      1  C   UNL     1       6.459  26.868  -5.766  1.00  0.00     0.180 A 
ATOM      2  C   UNL     1       6.284  25.741  -6.594  1.00  0.00     0.208 A 
ATOM      3  C   UNL     1       4.990  25.231  -6.778  1.00  0.00     0.238 A 
ATOM      4  O   UNL     1       4.820  24.229  -7.526  1.00  0.00    -0.285 OA
ATOM      5  C   UNL     1       3.900  25.837  -6.121  1.00  0.00     0.111 A 
ATOM      6  C   UNL     1       2.565  25.381  -6.251  1.00  0.00     0.134 A 
ATOM      7  C   UNL     1       1.537  26.033  -5.556  1.00  0.00     0.093 A 
ATOM      8  C   UNL     1       1.816  27.131  -4.734  1.00  0.00     0.123 A 
ATOM      9  C   UNL     1       3.130  27.584  -4.603  1.00  0.00     0.094 A 
ATOM     10  C   UNL     1       4.170  26.949  -5.289  1.00  0.00     0.146 A 
ATOM     11  O   UNL     1       5.409  27.405  -5.150  1.00  0.00    -0.452 OA
ENDROOT
BRANCH   1  12
ATOM     12  C   UNL     1       7.789  27.477  -5.536  1.00  0.00     0.025 A 
ATOM     13  C   UNL     1       8.488  28.121  -6.572  1.00  0.00     0.016 A 
ATOM     14  C   UNL     1       9.731  28.710  -6.326  1.00  0.00     0.051 A 
ATOM     15  C   UNL     1      10.287  28.674  -5.041  1.00  0.00     0.157 A 
ATOM     16  C   UNL     1       8.342  27.463  -4.245  1.00  0.00     0.062 A 
ATOM     17  C   UNL     1       9.589  28.052  -3.997  1.00  0.00     0.158 A 
BRANCH  15  18
ATOM     18  O   UNL     1      11.528  29.259  -4.792  1.00  0.00    -0.504 OA
ATOM     19  H   UNL     1      11.772  30.165  -5.172  1.00  0.00     0.293 HD
ENDBRANCH  15  18
BRANCH  17  20
ATOM     20  O   UNL     1      10.142  28.026  -2.718  1.00  0.00    -0.504 OA
ATOM     21  H   UNL     1       9.890  28.714  -2.018  1.00  0.00     0.293 HD
ENDBRANCH  17  20
ENDBRANCH   1  12
BRANCH   2  22
ATOM     22  O   UNL     1       7.387  25.130  -7.195  1.00  0.00    -0.502 OA
ATOM     23  H   UNL     1       8.064  25.649  -7.740  1.00  0.00     0.293 HD
ENDBRANCH   2  22
BRANCH   6  24
ATOM     24  O   UNL     1       2.256  24.289  -7.063  1.00  0.00    -0.507 OA
ATOM     25  H   UNL     1       1.548  24.345  -7.785  1.00  0.00     0.293 HD
ENDBRANCH   6  24
BRANCH   8  26
ATOM     26  O   UNL     1       0.795  27.779  -4.044  1.00  0.00    -0.508 OA
ATOM     27  H   UNL     1      -0.132  27.378  -3.969  1.00  0.00     0.293 HD
ENDBRANCH   8  26
TORSDOF 6
ENDMDL
MODEL 5
REMARK VINA RESULT:    -4.859      4.360      8.698
REMARK INTER + INTRA:          -6.178
REMARK INTER:                  -5.865
REMARK INTRA:                  -0.314
REMARK UNBOUND:                -0.325
REMARK SMILES O=c1c(O)c(-c2ccc(O)c(O)c2)oc2cc(O)cc(O)c12
REMARK SMILES IDX 5 1 3 2 2 3 1 4 22 5 20 6 19 7 17 8 16 9 15 10 14 11 6 12
REMARK SMILES IDX 7 13 8 14 9 15 13 16 11 17 10 18 12 20 4 22 21 24 18 26
REMARK H PARENT 10 19 12 21 4 23 21 25 18 27
REMARK Flexibility Score: inf
ROOT
ATOM      1  C   UNL     1       1.806  26.342  -4.899  1.00  0.00     0.180 A 
ATOM      2  C   UNL     1       1.585  26.923  -6.163  1.00  0.00     0.208 A 
ATOM      3  C   UNL     1       2.689  27.383  -6.899  1.00  0.00     0.238 A 
ATOM      4  O   UNL     1       2.505  27.894  -8.037  1.00  0.00    -0.285 OA
ATOM      5  C   UNL     1       3.985  27.273  -6.355  1.00  0.00     0.111 A 
ATOM      6  C   UNL     1       5.148  27.716  -7.031  1.00  0.00     0.134 A 
ATOM      7  C   UNL     1       6.402  27.580  -6.418  1.00  0.00     0.093 A 
ATOM      8  C   UNL     1       6.515  27.012  -5.143  1.00  0.00     0.123 A 
ATOM      9  C   UNL     1       5.372  26.575  -4.474  1.00  0.00     0.094 A 
ATOM     10  C   UNL     1       4.112  26.699  -5.069  1.00  0.00     0.146 A 
ATOM     11  O   UNL     1       3.041  26.270  -4.411  1.00  0.00    -0.452 OA
ENDROOT
BRANCH   1  12
ATOM     12  C   UNL     1       0.697  25.817  -4.070  1.00  0.00     0.025 A 
ATOM     13  C   UNL     1       0.375  24.448  -4.060  1.00  0.00     0.016 A 
ATOM     14  C   UNL     1      -0.660  23.972  -3.252  1.00  0.00     0.051 A 
ATOM     15  C   UNL     1      -1.379  24.852  -2.433  1.00  0.00     0.157 A 
ATOM     16  C   UNL     1      -0.013  26.691  -3.231  1.00  0.00     0.062 A 
ATOM     17  C   UNL     1      -1.052  26.215  -2.420  1.00  0.00     0.158 A 
BRANCH  15  18
ATOM     18  O   UNL     1      -2.414  24.381  -1.626  1.00  0.00    -0.504 OA
ATOM     19  H   UNL     1      -2.284  24.232  -0.633  1.00  0.00     0.293 HD
ENDBRANCH  15  18
BRANCH  17  20
ATOM     20  O   UNL     1      -1.765  27.087  -1.599  1.00  0.00    -0.504 OA
ATOM     21  H   UNL     1      -1.309  27.858  -1.124  1.00  0.00     0.293 HD
ENDBRANCH  17  20
ENDBRANCH   1  12
BRANCH   2  22
ATOM     22  O   UNL     1       0.287  27.064  -6.658  1.00  0.00    -0.502 OA
ATOM     23  H   UNL     1      -0.386  27.697  -6.242  1.00  0.00     0.293 HD
ENDBRANCH   2  22
BRANCH   6  24
ATOM     24  O   UNL     1       5.067  28.286  -8.302  1.00  0.00    -0.507 OA
ATOM     25  H   UNL     1       5.491  27.847  -9.111  1.00  0.00     0.293 HD
ENDBRANCH   6  24
BRANCH   8  26
ATOM     26  O   UNL     1       7.761  26.878  -4.534  1.00  0.00    -0.508 OA
ATOM     27  H   UNL     1       8.018  27.433  -3.726  1.00  0.00     0.293 HD
ENDBRANCH   8  26
TORSDOF 6
ENDMDL
MODEL 6
REMARK VINA RESULT:    -4.848      1.762      7.114
REMARK INTER + INTRA:          -6.165
REMARK INTER:                  -5.850
REMARK INTRA:                  -0.315
REMARK UNBOUND:                -0.325
REMARK SMILES O=c1c(O)c(-c2ccc(O)c(O)c2)oc2cc(O)cc(O)c12
REMARK SMILES IDX 5 1 3 2 2 3 1 4 22 5 20 6 19 7 17 8 16 9 15 10 14 11 6 12
REMARK SMILES IDX 7 13 8 14 9 15 13 16 11 17 10 18 12 20 4 22 21 24 18 26
REMARK H PARENT 10 19 12 21 4 23 21 25 18 27
REMARK Flexibility Score: inf
ROOT
ATOM      1  C   UNL     1       9.645  28.895  -4.670  1.00  0.00     0.180 A 
ATOM      2  C   UNL     1       9.565  30.234  -5.100  1.00  0.00     0.208 A 
ATOM      3  C   UNL     1      10.219  31.226  -4.352  1.00  0.00     0.238 A 
ATOM      4  O   UNL     1      10.164  32.427  -4.733  1.00  0.00    -0.285 OA
ATOM      5  C   UNL     1      10.922  30.869  -3.184  1.00  0.00     0.111 A 
ATOM      6  C   UNL     1      11.604  31.807  -2.372  1.00  0.00     0.134 A 
ATOM      7  C   UNL     1      12.273  31.374  -1.219  1.00  0.00     0.093 A 
ATOM      8  C   UNL     1      12.272  30.020  -0.860  1.00  0.00     0.123 A 
ATOM      9  C   UNL     1      11.602  29.092  -1.657  1.00  0.00     0.094 A 
ATOM     10  C   UNL     1      10.930  29.503  -2.813  1.00  0.00     0.146 A 
ATOM     11  O   UNL     1      10.304  28.597  -3.554  1.00  0.00    -0.452 OA
ENDROOT
BRANCH   1  12
ATOM     12  C   UNL     1       8.999  27.790  -5.415  1.00  0.00     0.025 A 
ATOM     13  C   UNL     1       9.599  27.224  -6.553  1.00  0.00     0.016 A 
ATOM     14  C   UNL     1       8.982  26.165  -7.225  1.00  0.00     0.051 A 
ATOM     15  C   UNL     1       7.764  25.651  -6.763  1.00  0.00     0.157 A 
ATOM     16  C   UNL     1       7.788  27.255  -4.944  1.00  0.00     0.062 A 
ATOM     17  C   UNL     1       7.167  26.195  -5.618  1.00  0.00     0.158 A 
BRANCH  15  18
ATOM     18  O   UNL     1       7.144  24.596  -7.432  1.00  0.00    -0.504 OA
ATOM     19  H   UNL     1       6.143  24.454  -7.383  1.00  0.00     0.293 HD
ENDBRANCH  15  18
BRANCH  17  20
ATOM     20  O   UNL     1       5.959  25.675  -5.157  1.00  0.00    -0.504 OA
ATOM     21  H   UNL     1       5.913  24.778  -4.686  1.00  0.00     0.293 HD
ENDBRANCH  17  20
ENDBRANCH   1  12
BRANCH   2  22
ATOM     22  O   UNL     1       8.821  30.568  -6.235  1.00  0.00    -0.502 OA
ATOM     23  H   UNL     1       7.808  30.572  -6.236  1.00  0.00     0.293 HD
ENDBRANCH   2  22
BRANCH   6  24
ATOM     24  O   UNL     1      11.622  33.163  -2.704  1.00  0.00    -0.507 OA
ATOM     25  H   UNL     1      10.848  33.603  -3.187  1.00  0.00     0.293 HD
ENDBRANCH   6  24
BRANCH   8  26
ATOM     26  O   UNL     1      12.936  29.589   0.286  1.00  0.00    -0.508 OA
ATOM     27  H   UNL     1      12.658  28.746   0.774  1.00  0.00     0.293 HD
ENDBRANCH   8  26
TORSDOF 6
ENDMDL
MODEL 7
REMARK VINA RESULT:    -4.809      2.216      6.975
REMARK INTER + INTRA:          -6.119
REMARK INTER:                  -5.873
REMARK INTRA:                  -0.246
REMARK UNBOUND:                -0.325
REMARK SMILES O=c1c(O)c(-c2ccc(O)c(O)c2)oc2cc(O)cc(O)c12
REMARK SMILES IDX 5 1 3 2 2 3 1 4 22 5 20 6 19 7 17 8 16 9 15 10 14 11 6 12
REMARK SMILES IDX 7 13 8 14 9 15 13 16 11 17 10 18 12 20 4 22 21 24 18 26
REMARK H PARENT 10 19 12 21 4 23 21 25 18 27
REMARK Flexibility Score: inf
ROOT
ATOM      1  C   UNL     1       9.138  28.624  -4.768  1.00  0.00     0.180 A 
ATOM      2  C   UNL     1       9.698  28.594  -3.476  1.00  0.00     0.208 A 
ATOM      3  C   UNL     1      10.304  29.756  -2.973  1.00  0.00     0.238 A 
ATOM      4  O   UNL     1      10.799  29.744  -1.813  1.00  0.00    -0.285 OA
ATOM      5  C   UNL     1      10.358  30.916  -3.772  1.00  0.00     0.111 A 
ATOM      6  C   UNL     1      10.954  32.126  -3.342  1.00  0.00     0.134 A 
ATOM      7  C   UNL     1      10.976  33.235  -4.200  1.00  0.00     0.093 A 
ATOM      8  C   UNL     1      10.415  33.157  -5.480  1.00  0.00     0.123 A 
ATOM      9  C   UNL     1       9.826  31.966  -5.909  1.00  0.00     0.094 A 
ATOM     10  C   UNL     1       9.792  30.850  -5.067  1.00  0.00     0.146 A 
ATOM     11  O   UNL     1       9.221  29.731  -5.500  1.00  0.00    -0.452 OA
ENDROOT
BRANCH   1  12
ATOM     12  C   UNL     1       8.466  27.445  -5.362  1.00  0.00     0.025 A 
ATOM     13  C   UNL     1       7.219  26.998  -4.889  1.00  0.00     0.016 A 
ATOM     14  C   UNL     1       6.592  25.899  -5.481  1.00  0.00     0.051 A 
ATOM     15  C   UNL     1       7.194  25.238  -6.559  1.00  0.00     0.157 A 
ATOM     16  C   UNL     1       9.054  26.792  -6.457  1.00  0.00     0.062 A 
ATOM     17  C   UNL     1       8.427  25.688  -7.051  1.00  0.00     0.158 A 
BRANCH  15  18
ATOM     18  O   UNL     1       6.573  24.140  -7.151  1.00  0.00    -0.504 OA
ATOM     19  H   UNL     1       5.581  24.139  -7.355  1.00  0.00     0.293 HD
ENDBRANCH  15  18
BRANCH  17  20
ATOM     20  O   UNL     1       9.020  25.034  -8.130  1.00  0.00    -0.504 OA
ATOM     21  H   UNL     1       8.542  24.290  -8.625  1.00  0.00     0.293 HD
ENDBRANCH  17  20
ENDBRANCH   1  12
BRANCH   2  22
ATOM     22  O   UNL     1       9.675  27.417  -2.724  1.00  0.00    -0.502 OA
ATOM     23  H   UNL     1      10.267  27.279  -1.914  1.00  0.00     0.293 HD
ENDBRANCH   2  22
BRANCH   6  24
ATOM     24  O   UNL     1      11.522  32.234  -2.071  1.00  0.00    -0.507 OA
ATOM     25  H   UNL     1      11.536  31.453  -1.426  1.00  0.00     0.293 HD
ENDBRANCH   6  24
BRANCH   8  26
ATOM     26  O   UNL     1      10.437  34.257  -6.334  1.00  0.00    -0.508 OA
ATOM     27  H   UNL     1       9.810  35.042  -6.202  1.00  0.00     0.293 HD
ENDBRANCH   8  26
TORSDOF 6
ENDMDL
MODEL 8
REMARK VINA RESULT:    -4.712     12.882     13.835
REMARK INTER + INTRA:          -6.001
REMARK INTER:                  -5.680
REMARK INTRA:                  -0.322
REMARK UNBOUND:                -0.325
REMARK SMILES O=c1c(O)c(-c2ccc(O)c(O)c2)oc2cc(O)cc(O)c12
REMARK SMILES IDX 5 1 3 2 2 3 1 4 22 5 20 6 19 7 17 8 16 9 15 10 14 11 6 12
REMARK SMILES IDX 7 13 8 14 9 15 13 16 11 17 10 18 12 20 4 22 21 24 18 26
REMARK H PARENT 10 19 12 21 4 23 21 25 18 27
REMARK Flexibility Score: inf
ROOT
ATOM      1  C   UNL     1       0.967  32.242   5.373  1.00  0.00     0.180 A 
ATOM      2  C   UNL     1       0.277  31.059   5.039  1.00  0.00     0.208 A 
ATOM      3  C   UNL     1      -0.741  31.119   4.075  1.00  0.00     0.238 A 
ATOM      4  O   UNL     1      -1.358  30.065   3.760  1.00  0.00    -0.285 OA
ATOM      5  C   UNL     1      -1.066  32.354   3.478  1.00  0.00     0.111 A 
ATOM      6  C   UNL     1      -2.081  32.499   2.502  1.00  0.00     0.134 A 
ATOM      7  C   UNL     1      -2.351  33.765   1.962  1.00  0.00     0.093 A 
ATOM      8  C   UNL     1      -1.627  34.888   2.380  1.00  0.00     0.123 A 
ATOM      9  C   UNL     1      -0.625  34.749   3.342  1.00  0.00     0.094 A 
ATOM     10  C   UNL     1      -0.339  33.495   3.891  1.00  0.00     0.146 A 
ATOM     11  O   UNL     1       0.623  33.392   4.801  1.00  0.00    -0.452 OA
ENDROOT
BRANCH   1  12
ATOM     12  C   UNL     1       2.065  32.258   6.366  1.00  0.00     0.025 A 
ATOM     13  C   UNL     1       1.821  32.524   7.725  1.00  0.00     0.016 A 
ATOM     14  C   UNL     1       2.870  32.511   8.648  1.00  0.00     0.051 A 
ATOM     15  C   UNL     1       4.174  32.220   8.229  1.00  0.00     0.157 A 
ATOM     16  C   UNL     1       3.372  31.947   5.956  1.00  0.00     0.062 A 
ATOM     17  C   UNL     1       4.425  31.934   6.881  1.00  0.00     0.158 A 
BRANCH  15  18
ATOM     18  O   UNL     1       5.224  32.207   9.146  1.00  0.00    -0.504 OA
ATOM     19  H   UNL     1       5.880  32.976   9.211  1.00  0.00     0.293 HD
ENDBRANCH  15  18
BRANCH  17  20
ATOM     20  O   UNL     1       5.724  31.637   6.469  1.00  0.00    -0.504 OA
ATOM     21  H   UNL     1       5.903  31.033   5.675  1.00  0.00     0.293 HD
ENDBRANCH  17  20
ENDBRANCH   1  12
BRANCH   2  22
ATOM     22  O   UNL     1       0.586  29.857   5.681  1.00  0.00    -0.502 OA
ATOM     23  H   UNL     1       1.503  29.670   6.068  1.00  0.00     0.293 HD
ENDBRANCH   2  22
BRANCH   6  24
ATOM     24  O   UNL     1      -2.821  31.399   2.066  1.00  0.00    -0.507 OA
ATOM     25  H   UNL     1      -2.463  30.453   2.140  1.00  0.00     0.293 HD
ENDBRANCH   6  24
BRANCH   8  26
ATOM     26  O   UNL     1      -1.894  36.145   1.844  1.00  0.00    -0.508 OA
ATOM     27  H   UNL     1      -2.417  36.841   2.362  1.00  0.00     0.293 HD
ENDBRANCH   8  26
TORSDOF 6
ENDMDL
MODEL 9
REMARK VINA RESULT:    -4.662     10.167     12.722
REMARK INTER + INTRA:          -5.941
REMARK INTER:                  -5.613
REMARK INTRA:                  -0.328
REMARK UNBOUND:                -0.325
REMARK SMILES O=c1c(O)c(-c2ccc(O)c(O)c2)oc2cc(O)cc(O)c12
REMARK SMILES IDX 5 1 3 2 2 3 1 4 22 5 20 6 19 7 17 8 16 9 15 10 14 11 6 12
REMARK SMILES IDX 7 13 8 14 9 15 13 16 11 17 10 18 12 20 4 22 21 24 18 26
REMARK H PARENT 10 19 12 21 4 23 21 25 18 27
REMARK Flexibility Score: inf
ROOT
ATOM      1  C   UNL     1       9.472  29.820   7.096  1.00  0.00     0.180 A 
ATOM      2  C   UNL     1       9.264  28.985   8.212  1.00  0.00     0.208 A 
ATOM      3  C   UNL     1       9.662  27.641   8.136  1.00  0.00     0.238 A 
ATOM      4  O   UNL     1       9.491  26.887   9.132  1.00  0.00    -0.285 OA
ATOM      5  C   UNL     1      10.240  27.150   6.947  1.00  0.00     0.111 A 
ATOM      6  C   UNL     1      10.664  25.809   6.788  1.00  0.00     0.134 A 
ATOM      7  C   UNL     1      11.221  25.395   5.570  1.00  0.00     0.093 A 
ATOM      8  C   UNL     1      11.361  26.296   4.508  1.00  0.00     0.123 A 
ATOM      9  C   UNL     1      10.945  27.619   4.660  1.00  0.00     0.094 A 
ATOM     10  C   UNL     1      10.389  28.052   5.867  1.00  0.00     0.146 A 
ATOM     11  O   UNL     1      10.006  29.318   5.986  1.00  0.00    -0.452 OA
ENDROOT
BRANCH   1  12
ATOM     12  C   UNL     1       9.097  31.252   7.104  1.00  0.00     0.025 A 
ATOM     13  C   UNL     1      10.021  32.249   7.465  1.00  0.00     0.016 A 
ATOM     14  C   UNL     1       9.652  33.596   7.442  1.00  0.00     0.051 A 
ATOM     15  C   UNL     1       8.361  33.968   7.048  1.00  0.00     0.157 A 
ATOM     16  C   UNL     1       7.810  31.633   6.689  1.00  0.00     0.062 A 
ATOM     17  C   UNL     1       7.439  32.984   6.667  1.00  0.00     0.158 A 
BRANCH  15  18
ATOM     18  O   UNL     1       7.988  35.311   7.025  1.00  0.00    -0.504 OA
ATOM     19  H   UNL     1       8.605  36.038   7.366  1.00  0.00     0.293 HD
ENDBRANCH  15  18
BRANCH  17  20
ATOM     20  O   UNL     1       6.156  33.357   6.267  1.00  0.00    -0.504 OA
ATOM     21  H   UNL     1       5.521  32.694   5.839  1.00  0.00     0.293 HD
ENDBRANCH  17  20
ENDBRANCH   1  12
BRANCH   2  22
ATOM     22  O   UNL     1       8.645  29.484   9.361  1.00  0.00    -0.502 OA
ATOM     23  H   UNL     1       7.640  29.587   9.433  1.00  0.00     0.293 HD
ENDBRANCH   2  22
BRANCH   6  24
ATOM     24  O   UNL     1      10.536  24.888   7.829  1.00  0.00    -0.507 OA
ATOM     25  H   UNL     1      11.313  24.660   8.438  1.00  0.00     0.293 HD
ENDBRANCH   6  24
BRANCH   8  26
ATOM     26  O   UNL     1      11.914  25.885   3.297  1.00  0.00    -0.508 OA
ATOM     27  H   UNL     1      11.523  25.113   2.770  1.00  0.00     0.293 HD
ENDBRANCH   8  26
TORSDOF 6
ENDMDL
