MODEL 1
REMARK VINA RESULT:    -5.214      0.000      0.000
REMARK INTER + INTRA:          -5.644
REMARK INTER:                  -6.129
REMARK INTRA:                   0.484
REMARK UNBOUND:                 0.484
REMARK SMILES O=c1c(O)c(-c2ccc(O)cc2)oc2cc(O)cc(O)c12
REMARK SMILES IDX 5 1 3 2 2 3 1 4 21 5 19 6 18 7 16 8 15 9 14 10 13 11 6 12
REMARK SMILES IDX 7 13 8 14 9 15 12 16 11 17 10 18 4 20 20 22 17 24
REMARK H PARENT 10 19 4 21 20 23 17 25
REMARK Flexibility Score: inf
ROOT
ATOM      1  C   UNL     1       8.951  -2.488  19.274  1.00  0.00     0.180 A 
ATOM      2  C   UNL     1       8.368  -1.236  19.007  1.00  0.00     0.208 A 
ATOM      3  C   UNL     1       9.203  -0.134  18.767  1.00  0.00     0.238 A 
ATOM      4  O   UNL     1       8.677   0.995  18.584  1.00  0.00    -0.285 OA
ATOM      5  C   UNL     1      10.609  -0.298  18.779  1.00  0.00     0.111 A 
ATOM      6  C   UNL     1      11.549   0.741  18.510  1.00  0.00     0.134 A 
ATOM      7  C   UNL     1      12.917   0.495  18.678  1.00  0.00     0.093 A 
ATOM      8  C   UNL     1      13.382  -0.767  19.043  1.00  0.00     0.123 A 
ATOM      9  C   UNL     1      12.476  -1.807  19.251  1.00  0.00     0.094 A 
ATOM     10  C   UNL     1      11.103  -1.583  19.126  1.00  0.00     0.146 A 
ATOM     11  O   UNL     1      10.272  -2.596  19.343  1.00  0.00    -0.452 OA
ENDROOT
BRANCH   1  12
ATOM     12  C   UNL     1       8.137  -3.701  19.512  1.00  0.00     0.021 A 
ATOM     13  C   UNL     1       6.739  -3.690  19.347  1.00  0.00     0.016 A 
ATOM     14  C   UNL     1       5.993  -4.855  19.554  1.00  0.00     0.047 A 
ATOM     15  C   UNL     1       6.635  -6.047  19.915  1.00  0.00     0.115 A 
ATOM     16  C   UNL     1       8.774  -4.905  19.854  1.00  0.00     0.016 A 
ATOM     17  C   UNL     1       8.025  -6.068  20.061  1.00  0.00     0.047 A 
BRANCH  15  18
ATOM     18  O   UNL     1       5.903  -7.214  20.125  1.00  0.00    -0.508 OA
ATOM     19  H   UNL     1       6.356  -8.118  20.192  1.00  0.00     0.293 HD
ENDBRANCH  15  18
ENDBRANCH   1  12
BRANCH   2  20
ATOM     20  O   UNL     1       6.978  -1.090  19.022  1.00  0.00    -0.502 OA
ATOM     21  H   UNL     1       6.351  -1.871  19.172  1.00  0.00     0.293 HD
ENDBRANCH   2  20
BRANCH   6  22
ATOM     22  O   UNL     1      11.195   2.013  18.051  1.00  0.00    -0.507 OA
ATOM     23  H   UNL     1      10.562   2.639  18.524  1.00  0.00     0.293 HD
ENDBRANCH   6  22
BRANCH   8  24
ATOM     24  O   UNL     1      14.753  -0.981  19.186  1.00  0.00    -0.508 OA
ATOM     25  H   UNL     1      15.342  -1.191  18.389  1.00  0.00     0.293 HD
ENDBRANCH   8  24
TORSDOF 5
ENDMDL
MODEL 2
REMARK VINA RESULT:    -5.200      1.384      6.151
REMARK INTER + INTRA:          -5.627
REMARK INTER:                  -5.715
REMARK INTRA:                   0.087
REMARK UNBOUND:                 0.484
REMARK SMILES O=c1c(O)c(-c2ccc(O)cc2)oc2cc(O)cc(O)c12
REMARK SMILES IDX 5 1 3 2 2 3 1 4 21 5 19 6 18 7 16 8 15 9 14 10 13 11 6 12
REMARK SMILES IDX 7 13 8 14 9 15 12 16 11 17 10 18 4 20 20 22 17 24
REMARK H PARENT 10 19 4 21 20 23 17 25
REMARK Flexibility Score: inf
ROOT
ATOM      1  C   UNL     1      10.829  -1.479  18.997  1.00  0.00     0.180 A 
ATOM      2  C   UNL     1      10.275  -0.365  18.342  1.00  0.00     0.208 A 
ATOM      3  C   UNL     1       8.888  -0.319  18.133  1.00  0.00     0.238 A 
ATOM      4  O   UNL     1       8.404   0.654  17.497  1.00  0.00    -0.285 OA
ATOM      5  C   UNL     1       8.069  -1.377  18.595  1.00  0.00     0.111 A 
ATOM      6  C   UNL     1       6.648  -1.416  18.474  1.00  0.00     0.134 A 
ATOM      7  C   UNL     1       5.954  -2.572  18.850  1.00  0.00     0.093 A 
ATOM      8  C   UNL     1       6.621  -3.664  19.403  1.00  0.00     0.123 A 
ATOM      9  C   UNL     1       8.003  -3.615  19.583  1.00  0.00     0.094 A 
ATOM     10  C   UNL     1       8.728  -2.489  19.183  1.00  0.00     0.146 A 
ATOM     11  O   UNL     1      10.044  -2.485  19.361  1.00  0.00    -0.452 OA
ENDROOT
BRANCH   1  12
ATOM     12  C   UNL     1      12.279  -1.589  19.276  1.00  0.00     0.021 A 
ATOM     13  C   UNL     1      13.014  -0.497  19.774  1.00  0.00     0.016 A 
ATOM     14  C   UNL     1      14.378  -0.631  20.054  1.00  0.00     0.047 A 
ATOM     15  C   UNL     1      15.021  -1.859  19.851  1.00  0.00     0.115 A 
ATOM     16  C   UNL     1      12.927  -2.821  19.095  1.00  0.00     0.016 A 
ATOM     17  C   UNL     1      14.291  -2.952  19.375  1.00  0.00     0.047 A 
BRANCH  15  18
ATOM     18  O   UNL     1      16.379  -2.004  20.125  1.00  0.00    -0.508 OA
ATOM     19  H   UNL     1      16.935  -1.229  20.467  1.00  0.00     0.293 HD
ENDBRANCH  15  18
ENDBRANCH   1  12
BRANCH   2  20
ATOM     20  O   UNL     1      11.103   0.658  17.872  1.00  0.00    -0.502 OA
ATOM     21  H   UNL     1      11.053   1.605  18.228  1.00  0.00     0.293 HD
ENDBRANCH   2  20
BRANCH   6  22
ATOM     22  O   UNL     1       5.875  -0.344  18.018  1.00  0.00    -0.507 OA
ATOM     23  H   UNL     1       6.180   0.617  17.999  1.00  0.00     0.293 HD
ENDBRANCH   6  22
BRANCH   8  24
ATOM     24  O   UNL     1       5.895  -4.793  19.782  1.00  0.00    -0.508 OA
ATOM     25  H   UNL     1       6.297  -5.504  20.382  1.00  0.00     0.293 HD
ENDBRANCH   8  24
TORSDOF 5
ENDMDL
MODEL 3
REMARK VINA RESULT:    -5.103      3.108      3.675
REMARK INTER + INTRA:          -5.514
REMARK INTER:                  -5.356
REMARK INTRA:                  -0.158
REMARK UNBOUND:                 0.484
REMARK SMILES O=c1c(O)c(-c2ccc(O)cc2)oc2cc(O)cc(O)c12
REMARK SMILES IDX 5 1 3 2 2 3 1 4 21 5 19 6 18 7 16 8 15 9 14 10 13 11 6 12
REMARK SMILES IDX 7 13 8 14 9 15 12 16 11 17 10 18 4 20 20 22 17 24
REMARK H PARENT 10 19 4 21 20 23 17 25
REMARK Flexibility Score: inf
ROOT
ATOM      1  C   UNL     1      10.227  -1.398  16.952  1.00  0.00     0.180 A 
ATOM      2  C   UNL     1       9.563  -0.252  17.425  1.00  0.00     0.208 A 
ATOM      3  C   UNL     1      10.216   0.582  18.347  1.00  0.00     0.238 A 
ATOM      4  O   UNL     1       9.596   1.575  18.808  1.00  0.00    -0.285 OA
ATOM      5  C   UNL     1      11.530   0.270  18.772  1.00  0.00     0.111 A 
ATOM      6  C   UNL     1      12.301   1.065  19.671  1.00  0.00     0.134 A 
ATOM      7  C   UNL     1      13.539   0.592  20.123  1.00  0.00     0.093 A 
ATOM      8  C   UNL     1      14.062  -0.614  19.660  1.00  0.00     0.123 A 
ATOM      9  C   UNL     1      13.344  -1.371  18.734  1.00  0.00     0.094 A 
ATOM     10  C   UNL     1      12.089  -0.944  18.292  1.00  0.00     0.146 A 
ATOM     11  O   UNL     1      11.432  -1.698  17.419  1.00  0.00    -0.452 OA
ENDROOT
BRANCH   1  12
ATOM     12  C   UNL     1       9.614  -2.311  15.961  1.00  0.00     0.021 A 
ATOM     13  C   UNL     1      10.136  -2.438  14.661  1.00  0.00     0.016 A 
ATOM     14  C   UNL     1       9.555  -3.326  13.749  1.00  0.00     0.047 A 
ATOM     15  C   UNL     1       8.455  -4.106  14.129  1.00  0.00     0.115 A 
ATOM     16  C   UNL     1       8.524  -3.112  16.340  1.00  0.00     0.016 A 
ATOM     17  C   UNL     1       7.945  -3.998  15.426  1.00  0.00     0.047 A 
BRANCH  15  18
ATOM     18  O   UNL     1       7.868  -4.993  13.229  1.00  0.00    -0.508 OA
ATOM     19  H   UNL     1       8.194  -5.948  13.139  1.00  0.00     0.293 HD
ENDBRANCH  15  18
ENDBRANCH   1  12
BRANCH   2  20
ATOM     20  O   UNL     1       8.257   0.025  17.010  1.00  0.00    -0.502 OA
ATOM     21  H   UNL     1       8.047   0.413  16.099  1.00  0.00     0.293 HD
ENDBRANCH   2  20
BRANCH   6  22
ATOM     22  O   UNL     1      11.912   2.329  20.125  1.00  0.00    -0.507 OA
ATOM     23  H   UNL     1      12.229   3.202  19.735  1.00  0.00     0.293 HD
ENDBRANCH   6  22
BRANCH   8  24
ATOM     24  O   UNL     1      15.305  -1.046  20.119  1.00  0.00    -0.508 OA
ATOM     25  H   UNL     1      16.145  -0.928  19.564  1.00  0.00     0.293 HD
ENDBRANCH   8  24
TORSDOF 5
ENDMDL
MODEL 4
REMARK VINA RESULT:    -5.093      2.777      6.067
REMARK INTER + INTRA:          -5.501
REMARK INTER:                  -5.996
REMARK INTRA:                   0.494
REMARK UNBOUND:                 0.484
REMARK SMILES O=c1c(O)c(-c2ccc(O)cc2)oc2cc(O)cc(O)c12
REMARK SMILES IDX 5 1 3 2 2 3 1 4 21 5 19 6 18 7 16 8 15 9 14 10 13 11 6 12
REMARK SMILES IDX 7 13 8 14 9 15 12 16 11 17 10 18 4 20 20 22 17 24
REMARK H PARENT 10 19 4 21 20 23 17 25
REMARK Flexibility Score: inf
ROOT
ATOM      1  C   UNL     1      11.199  -0.822  19.137  1.00  0.00     0.180 A 
ATOM      2  C   UNL     1      10.156  -1.760  19.045  1.00  0.00     0.208 A 
ATOM      3  C   UNL     1       8.859  -1.311  18.750  1.00  0.00     0.238 A 
ATOM      4  O   UNL     1       7.920  -2.148  18.724  1.00  0.00    -0.285 OA
ATOM      5  C   UNL     1       8.623   0.068  18.535  1.00  0.00     0.111 A 
ATOM      6  C   UNL     1       7.358   0.630  18.191  1.00  0.00     0.134 A 
ATOM      7  C   UNL     1       7.213   2.021  18.129  1.00  0.00     0.093 A 
ATOM      8  C   UNL     1       8.301   2.868  18.335  1.00  0.00     0.123 A 
ATOM      9  C   UNL     1       9.557   2.328  18.613  1.00  0.00     0.094 A 
ATOM     10  C   UNL     1       9.725   0.945  18.718  1.00  0.00     0.146 A 
ATOM     11  O   UNL     1      10.934   0.471  18.994  1.00  0.00    -0.452 OA
ENDROOT
BRANCH   1  12
ATOM     12  C   UNL     1      12.596  -1.221  19.420  1.00  0.00     0.021 A 
ATOM     13  C   UNL     1      12.927  -2.549  19.748  1.00  0.00     0.016 A 
ATOM     14  C   UNL     1      14.257  -2.909  19.987  1.00  0.00     0.047 A 
ATOM     15  C   UNL     1      15.274  -1.950  19.888  1.00  0.00     0.115 A 
ATOM     16  C   UNL     1      13.624  -0.272  19.302  1.00  0.00     0.016 A 
ATOM     17  C   UNL     1      14.954  -0.634  19.542  1.00  0.00     0.047 A 
BRANCH  15  18
ATOM     18  O   UNL     1      16.603  -2.296  20.125  1.00  0.00    -0.508 OA
ATOM     19  H   UNL     1      17.107  -2.915  19.501  1.00  0.00     0.293 HD
ENDBRANCH  15  18
ENDBRANCH   1  12
BRANCH   2  20
ATOM     20  O   UNL     1      10.406  -3.114  19.285  1.00  0.00    -0.502 OA
ATOM     21  H   UNL     1      11.341  -3.505  19.275  1.00  0.00     0.293 HD
ENDBRANCH   2  20
BRANCH   6  22
ATOM     22  O   UNL     1       6.227  -0.129  17.875  1.00  0.00    -0.507 OA
ATOM     23  H   UNL     1       5.637  -0.590  18.551  1.00  0.00     0.293 HD
ENDBRANCH   6  22
BRANCH   8  24
ATOM     24  O   UNL     1       8.124   4.248  18.250  1.00  0.00    -0.508 OA
ATOM     25  H   UNL     1       7.393   4.654  17.679  1.00  0.00     0.293 HD
ENDBRANCH   8  24
TORSDOF 5
ENDMDL
MODEL 5
REMARK VINA RESULT:    -4.912      3.397      4.929
REMARK INTER + INTRA:          -5.289
REMARK INTER:                  -5.355
REMARK INTRA:                   0.066
REMARK UNBOUND:                 0.484
REMARK SMILES O=c1c(O)c(-c2ccc(O)cc2)oc2cc(O)cc(O)c12
REMARK SMILES IDX 5 1 3 2 2 3 1 4 21 5 19 6 18 7 16 8 15 9 14 10 13 11 6 12
REMARK SMILES IDX 7 13 8 14 9 15 12 16 11 17 10 18 4 20 20 22 17 24
REMARK H PARENT 10 19 4 21 20 23 17 25
REMARK Flexibility Score: inf
ROOT
ATOM      1  C   UNL     1       9.690  -1.026  16.813  1.00  0.00     0.180 A 
ATOM      2  C   UNL     1      11.030  -0.793  17.165  1.00  0.00     0.208 A 
ATOM      3  C   UNL     1      11.330   0.259  18.045  1.00  0.00     0.238 A 
ATOM      4  O   UNL     1      12.536   0.498  18.314  1.00  0.00    -0.285 OA
ATOM      5  C   UNL     1      10.285   1.054  18.575  1.00  0.00     0.111 A 
ATOM      6  C   UNL     1      10.470   2.120  19.505  1.00  0.00     0.134 A 
ATOM      7  C   UNL     1       9.379   2.923  19.860  1.00  0.00     0.093 A 
ATOM      8  C   UNL     1       8.101   2.659  19.371  1.00  0.00     0.123 A 
ATOM      9  C   UNL     1       7.897   1.582  18.508  1.00  0.00     0.094 A 
ATOM     10  C   UNL     1       8.972   0.786  18.106  1.00  0.00     0.146 A 
ATOM     11  O   UNL     1       8.739  -0.223  17.275  1.00  0.00    -0.452 OA
ENDROOT
BRANCH   1  12
ATOM     12  C   UNL     1       9.293  -2.132  15.911  1.00  0.00     0.021 A 
ATOM     13  C   UNL     1       8.248  -3.012  16.247  1.00  0.00     0.016 A 
ATOM     14  C   UNL     1       7.874  -4.034  15.368  1.00  0.00     0.047 A 
ATOM     15  C   UNL     1       8.530  -4.180  14.139  1.00  0.00     0.115 A 
ATOM     16  C   UNL     1       9.930  -2.273  14.667  1.00  0.00     0.016 A 
ATOM     17  C   UNL     1       9.555  -3.295  13.791  1.00  0.00     0.047 A 
BRANCH  15  18
ATOM     18  O   UNL     1       8.166  -5.195  13.255  1.00  0.00    -0.508 OA
ATOM     19  H   UNL     1       8.753  -5.446  12.468  1.00  0.00     0.293 HD
ENDBRANCH  15  18
ENDBRANCH   1  12
BRANCH   2  20
ATOM     20  O   UNL     1      12.049  -1.575  16.614  1.00  0.00    -0.502 OA
ATOM     21  H   UNL     1      11.866  -2.316  15.947  1.00  0.00     0.293 HD
ENDBRANCH   2  20
BRANCH   6  22
ATOM     22  O   UNL     1      11.688   2.412  20.125  1.00  0.00    -0.507 OA
ATOM     23  H   UNL     1      12.517   2.727  19.644  1.00  0.00     0.293 HD
ENDBRANCH   6  22
BRANCH   8  24
ATOM     24  O   UNL     1       7.035   3.469  19.760  1.00  0.00    -0.508 OA
ATOM     25  H   UNL     1       7.117   4.478  19.781  1.00  0.00     0.293 HD
ENDBRANCH   8  24
TORSDOF 5
ENDMDL
MODEL 6
REMARK VINA RESULT:    -4.798      3.590      5.525
REMARK INTER + INTRA:          -5.155
REMARK INTER:                  -4.957
REMARK INTRA:                  -0.198
REMARK UNBOUND:                 0.484
REMARK SMILES O=c1c(O)c(-c2ccc(O)cc2)oc2cc(O)cc(O)c12
REMARK SMILES IDX 5 1 3 2 2 3 1 4 21 5 19 6 18 7 16 8 15 9 14 10 13 11 6 12
REMARK SMILES IDX 7 13 8 14 9 15 12 16 11 17 10 18 4 20 20 22 17 24
REMARK H PARENT 10 19 4 21 20 23 17 25
REMARK Flexibility Score: inf
ROOT
ATOM      1  C   UNL     1       9.603   0.805  18.693  1.00  0.00     0.180 A 
ATOM      2  C   UNL     1       9.318  -0.198  17.750  1.00  0.00     0.208 A 
ATOM      3  C   UNL     1      10.292  -1.170  17.474  1.00  0.00     0.238 A 
ATOM      4  O   UNL     1      10.053  -2.032  16.589  1.00  0.00    -0.285 OA
ATOM      5  C   UNL     1      11.533  -1.137  18.155  1.00  0.00     0.111 A 
ATOM      6  C   UNL     1      12.578  -2.094  17.983  1.00  0.00     0.134 A 
ATOM      7  C   UNL     1      13.812  -1.889  18.611  1.00  0.00     0.093 A 
ATOM      8  C   UNL     1      14.018  -0.799  19.455  1.00  0.00     0.123 A 
ATOM      9  C   UNL     1      12.985   0.111  19.679  1.00  0.00     0.094 A 
ATOM     10  C   UNL     1      11.754  -0.047  19.037  1.00  0.00     0.146 A 
ATOM     11  O   UNL     1      10.799   0.847  19.267  1.00  0.00    -0.452 OA
ENDROOT
BRANCH   1  12
ATOM     12  C   UNL     1       8.617   1.849  19.056  1.00  0.00     0.021 A 
ATOM     13  C   UNL     1       7.446   1.534  19.769  1.00  0.00     0.016 A 
ATOM     14  C   UNL     1       6.541   2.540  20.122  1.00  0.00     0.047 A 
ATOM     15  C   UNL     1       6.802   3.873  19.779  1.00  0.00     0.115 A 
ATOM     16  C   UNL     1       8.880   3.190  18.734  1.00  0.00     0.016 A 
ATOM     17  C   UNL     1       7.973   4.194  19.088  1.00  0.00     0.047 A 
BRANCH  15  18
ATOM     18  O   UNL     1       5.907   4.884  20.125  1.00  0.00    -0.508 OA
ATOM     19  H   UNL     1       5.547   4.972  21.068  1.00  0.00     0.293 HD
ENDBRANCH  15  18
ENDBRANCH   1  12
BRANCH   2  20
ATOM     20  O   UNL     1       8.096  -0.199  17.072  1.00  0.00    -0.502 OA
ATOM     21  H   UNL     1       7.317  -0.782  17.355  1.00  0.00     0.293 HD
ENDBRANCH   2  20
BRANCH   6  22
ATOM     22  O   UNL     1      12.445  -3.267  17.234  1.00  0.00    -0.507 OA
ATOM     23  H   UNL     1      11.670  -3.907  17.301  1.00  0.00     0.293 HD
ENDBRANCH   6  22
BRANCH   8  24
ATOM     24  O   UNL     1      15.255  -0.636  20.078  1.00  0.00    -0.508 OA
ATOM     25  H   UNL     1      16.007  -1.301  19.944  1.00  0.00     0.293 HD
ENDBRANCH   8  24
TORSDOF 5
ENDMDL
MODEL 7
REMARK VINA RESULT:    -4.357      1.435      2.099
REMARK INTER + INTRA:          -4.636
REMARK INTER:                  -5.105
REMARK INTRA:                   0.469
REMARK UNBOUND:                 0.484
REMARK SMILES O=c1c(O)c(-c2ccc(O)cc2)oc2cc(O)cc(O)c12
REMARK SMILES IDX 5 1 3 2 2 3 1 4 21 5 19 6 18 7 16 8 15 9 14 10 13 11 6 12
REMARK SMILES IDX 7 13 8 14 9 15 12 16 11 17 10 18 4 20 20 22 17 24
REMARK H PARENT 10 19 4 21 20 23 17 25
REMARK Flexibility Score: inf
ROOT
ATOM      1  C   UNL     1       8.091  -1.782  19.354  1.00  0.00     0.180 A 
ATOM      2  C   UNL     1       7.176  -0.732  19.543  1.00  0.00     0.208 A 
ATOM      3  C   UNL     1       7.602   0.589  19.329  1.00  0.00     0.238 A 
ATOM      4  O   UNL     1       6.795   1.528  19.554  1.00  0.00    -0.285 OA
ATOM      5  C   UNL     1       8.931   0.843  18.914  1.00  0.00     0.111 A 
ATOM      6  C   UNL     1       9.459   2.138  18.630  1.00  0.00     0.134 A 
ATOM      7  C   UNL     1      10.823   2.282  18.353  1.00  0.00     0.093 A 
ATOM      8  C   UNL     1      11.666   1.174  18.286  1.00  0.00     0.123 A 
ATOM      9  C   UNL     1      11.149  -0.104  18.502  1.00  0.00     0.094 A 
ATOM     10  C   UNL     1       9.799  -0.277  18.817  1.00  0.00     0.146 A 
ATOM     11  O   UNL     1       9.348  -1.508  19.027  1.00  0.00    -0.452 OA
ENDROOT
BRANCH   1  12
ATOM     12  C   UNL     1       7.711  -3.202  19.535  1.00  0.00     0.021 A 
ATOM     13  C   UNL     1       8.678  -4.194  19.781  1.00  0.00     0.016 A 
ATOM     14  C   UNL     1       8.292  -5.525  19.974  1.00  0.00     0.047 A 
ATOM     15  C   UNL     1       6.937  -5.877  19.935  1.00  0.00     0.115 A 
ATOM     16  C   UNL     1       6.353  -3.561  19.519  1.00  0.00     0.016 A 
ATOM     17  C   UNL     1       5.971  -4.893  19.711  1.00  0.00     0.047 A 
BRANCH  15  18
ATOM     18  O   UNL     1       6.541  -7.200  20.125  1.00  0.00    -0.508 OA
ATOM     19  H   UNL     1       6.950  -7.775  20.852  1.00  0.00     0.293 HD
ENDBRANCH  15  18
ENDBRANCH   1  12
BRANCH   2  20
ATOM     20  O   UNL     1       5.875  -1.003  19.975  1.00  0.00    -0.502 OA
ATOM     21  H   UNL     1       5.092  -0.399  19.755  1.00  0.00     0.293 HD
ENDBRANCH   2  20
BRANCH   6  22
ATOM     22  O   UNL     1       8.685   3.301  18.580  1.00  0.00    -0.507 OA
ATOM     23  H   UNL     1       7.757   3.358  18.190  1.00  0.00     0.293 HD
ENDBRANCH   6  22
BRANCH   8  24
ATOM     24  O   UNL     1      13.017   1.353  17.991  1.00  0.00    -0.508 OA
ATOM     25  H   UNL     1      13.694   0.616  18.145  1.00  0.00     0.293 HD
ENDBRANCH   8  24
TORSDOF 5
ENDMDL
MODEL 8
REMARK VINA RESULT:    -4.339      2.954      6.190
REMARK INTER + INTRA:          -4.615
REMARK INTER:                  -4.822
REMARK INTRA:                   0.207
REMARK UNBOUND:                 0.484
REMARK SMILES O=c1c(O)c(-c2ccc(O)cc2)oc2cc(O)cc(O)c12
REMARK SMILES IDX 5 1 3 2 2 3 1 4 21 5 19 6 18 7 16 8 15 9 14 10 13 11 6 12
REMARK SMILES IDX 7 13 8 14 9 15 12 16 11 17 10 18 4 20 20 22 17 24
REMARK H PARENT 10 19 4 21 20 23 17 25
REMARK Flexibility Score: inf
ROOT
ATOM      1  C   UNL     1       8.360   1.066  19.137  1.00  0.00     0.180 A 
ATOM      2  C   UNL     1       7.518  -0.022  19.426  1.00  0.00     0.208 A 
ATOM      3  C   UNL     1       8.051  -1.321  19.403  1.00  0.00     0.238 A 
ATOM      4  O   UNL     1       7.281  -2.294  19.608  1.00  0.00    -0.285 OA
ATOM      5  C   UNL     1       9.422  -1.515  19.108  1.00  0.00     0.111 A 
ATOM      6  C   UNL     1      10.077  -2.782  19.096  1.00  0.00     0.134 A 
ATOM      7  C   UNL     1      11.406  -2.869  18.663  1.00  0.00     0.093 A 
ATOM      8  C   UNL     1      12.122  -1.728  18.304  1.00  0.00     0.123 A 
ATOM      9  C   UNL     1      11.510  -0.476  18.369  1.00  0.00     0.094 A 
ATOM     10  C   UNL     1      10.174  -0.361  18.762  1.00  0.00     0.146 A 
ATOM     11  O   UNL     1       9.625   0.846  18.800  1.00  0.00    -0.452 OA
ENDROOT
BRANCH   1  12
ATOM     12  C   UNL     1       7.877   2.465  19.166  1.00  0.00     0.021 A 
ATOM     13  C   UNL     1       6.914   2.889  20.100  1.00  0.00     0.016 A 
ATOM     14  C   UNL     1       6.491   4.222  20.125  1.00  0.00     0.047 A 
ATOM     15  C   UNL     1       7.034   5.149  19.226  1.00  0.00     0.115 A 
ATOM     16  C   UNL     1       8.431   3.406  18.282  1.00  0.00     0.016 A 
ATOM     17  C   UNL     1       8.005   4.738  18.309  1.00  0.00     0.047 A 
BRANCH  15  18
ATOM     18  O   UNL     1       6.619   6.480  19.240  1.00  0.00    -0.508 OA
ATOM     19  H   UNL     1       7.133   7.199  18.744  1.00  0.00     0.293 HD
ENDBRANCH  15  18
ENDBRANCH   1  12
BRANCH   2  20
ATOM     20  O   UNL     1       6.162   0.189  19.692  1.00  0.00    -0.502 OA
ATOM     21  H   UNL     1       5.428  -0.316  19.210  1.00  0.00     0.293 HD
ENDBRANCH   2  20
BRANCH   6  22
ATOM     22  O   UNL     1       9.481  -3.972  19.523  1.00  0.00    -0.507 OA
ATOM     23  H   UNL     1       8.942  -4.074  20.369  1.00  0.00     0.293 HD
ENDBRANCH   6  22
BRANCH   8  24
ATOM     24  O   UNL     1      13.449  -1.850  17.893  1.00  0.00    -0.508 OA
ATOM     25  H   UNL     1      14.190  -1.315  18.330  1.00  0.00     0.293 HD
ENDBRANCH   8  24
TORSDOF 5
ENDMDL
