MODEL 1
REMARK VINA RESULT:    -6.976      0.000      0.000
REMARK INTER + INTRA:          -8.483
REMARK INTER:                  -8.200
REMARK INTRA:                  -0.283
REMARK UNBOUND:                -0.283
REMARK SMILES O=c1cc(-c2ccc(O)c(O)c2)oc2cc(O)cc(O)c12
REMARK SMILES IDX 4 1 3 2 2 3 1 4 21 5 19 6 18 7 16 8 15 9 14 10 13 11 5 12
REMARK SMILES IDX 6 13 7 14 8 15 12 16 10 17 9 18 11 20 20 22 17 24
REMARK H PARENT 9 19 11 21 20 23 17 25
REMARK Flexibility Score: inf
ROOT
ATOM      1  C   UNL     1      27.802  13.103  65.574  1.00  0.00     0.138 A 
ATOM      2  C   UNL     1      27.449  13.298  66.915  1.00  0.00     0.100 A 
ATOM      3  C   UNL     1      26.406  14.169  67.235  1.00  0.00     0.197 A 
ATOM      4  O   UNL     1      26.149  14.365  68.452  1.00  0.00    -0.289 OA
ATOM      5  C   UNL     1      25.689  14.818  66.203  1.00  0.00     0.107 A 
ATOM      6  C   UNL     1      24.585  15.701  66.407  1.00  0.00     0.134 A 
ATOM      7  C   UNL     1      24.019  16.363  65.311  1.00  0.00     0.093 A 
ATOM      8  C   UNL     1      24.476  16.132  64.013  1.00  0.00     0.123 A 
ATOM      9  C   UNL     1      25.521  15.234  63.796  1.00  0.00     0.094 A 
ATOM     10  C   UNL     1      26.130  14.583  64.872  1.00  0.00     0.146 A 
ATOM     11  O   UNL     1      27.134  13.749  64.623  1.00  0.00    -0.456 OA
ENDROOT
BRANCH   1  12
ATOM     12  C   UNL     1      28.900  12.187  65.176  1.00  0.00     0.021 A 
ATOM     13  C   UNL     1      30.173  12.344  65.751  1.00  0.00     0.016 A 
ATOM     14  C   UNL     1      31.222  11.490  65.399  1.00  0.00     0.051 A 
ATOM     15  C   UNL     1      31.016  10.460  64.478  1.00  0.00     0.157 A 
ATOM     16  C   UNL     1      28.695  11.139  64.257  1.00  0.00     0.062 A 
ATOM     17  C   UNL     1      29.747  10.280  63.905  1.00  0.00     0.158 A 
BRANCH  15  18
ATOM     18  O   UNL     1      32.083   9.625  64.145  1.00  0.00    -0.504 OA
ATOM     19  H   UNL     1      32.733   9.279  64.840  1.00  0.00     0.293 HD
ENDBRANCH  15  18
BRANCH  17  20
ATOM     20  O   UNL     1      29.534   9.247  62.994  1.00  0.00    -0.504 OA
ATOM     21  H   UNL     1      29.062   8.391  63.262  1.00  0.00     0.293 HD
ENDBRANCH  17  20
ENDBRANCH   1  12
BRANCH   6  22
ATOM     22  O   UNL     1      23.997  15.945  67.652  1.00  0.00    -0.507 OA
ATOM     23  H   UNL     1      24.208  15.443  68.500  1.00  0.00     0.293 HD
ENDBRANCH   6  22
BRANCH   8  24
ATOM     24  O   UNL     1      23.877  16.797  62.945  1.00  0.00    -0.508 OA
ATOM     25  H   UNL     1      24.416  17.377  62.313  1.00  0.00     0.293 HD
ENDBRANCH   8  24
TORSDOF 5
ENDMDL
MODEL 2
REMARK VINA RESULT:    -6.866      6.159      9.062
REMARK INTER + INTRA:          -8.353
REMARK INTER:                  -8.045
REMARK INTRA:                  -0.308
REMARK UNBOUND:                -0.283
REMARK SMILES O=c1cc(-c2ccc(O)c(O)c2)oc2cc(O)cc(O)c12
REMARK SMILES IDX 4 1 3 2 2 3 1 4 21 5 19 6 18 7 16 8 15 9 14 10 13 11 5 12
REMARK SMILES IDX 6 13 7 14 8 15 12 16 10 17 9 18 11 20 20 22 17 24
REMARK H PARENT 9 19 11 21 20 23 17 25
REMARK Flexibility Score: inf
ROOT
ATOM      1  C   UNL     1      34.454  12.112  62.574  1.00  0.00     0.138 A 
ATOM      2  C   UNL     1      34.928  11.327  61.516  1.00  0.00     0.100 A 
ATOM      3  C   UNL     1      34.137  10.293  61.013  1.00  0.00     0.197 A 
ATOM      4  O   UNL     1      34.614   9.571  60.100  1.00  0.00    -0.289 OA
ATOM      5  C   UNL     1      32.847  10.069  61.551  1.00  0.00     0.107 A 
ATOM      6  C   UNL     1      31.937   9.067  61.096  1.00  0.00     0.134 A 
ATOM      7  C   UNL     1      30.726   8.876  61.773  1.00  0.00     0.093 A 
ATOM      8  C   UNL     1      30.365   9.686  62.850  1.00  0.00     0.123 A 
ATOM      9  C   UNL     1      31.225  10.701  63.271  1.00  0.00     0.094 A 
ATOM     10  C   UNL     1      32.455  10.895  62.639  1.00  0.00     0.146 A 
ATOM     11  O   UNL     1      33.251  11.862  63.083  1.00  0.00    -0.456 OA
ENDROOT
BRANCH   1  12
ATOM     12  C   UNL     1      35.252  13.226  63.145  1.00  0.00     0.021 A 
ATOM     13  C   UNL     1      36.193  13.887  62.336  1.00  0.00     0.016 A 
ATOM     14  C   UNL     1      36.951  14.943  62.847  1.00  0.00     0.051 A 
ATOM     15  C   UNL     1      36.777  15.366  64.168  1.00  0.00     0.157 A 
ATOM     16  C   UNL     1      35.070  13.664  64.472  1.00  0.00     0.062 A 
ATOM     17  C   UNL     1      35.830  14.726  64.984  1.00  0.00     0.158 A 
BRANCH  15  18
ATOM     18  O   UNL     1      37.550  16.422  64.650  1.00  0.00    -0.504 OA
ATOM     19  H   UNL     1      37.339  17.387  64.431  1.00  0.00     0.293 HD
ENDBRANCH  15  18
BRANCH  17  20
ATOM     20  O   UNL     1      35.644  15.150  66.299  1.00  0.00    -0.504 OA
ATOM     21  H   UNL     1      36.429  15.319  66.918  1.00  0.00     0.293 HD
ENDBRANCH  17  20
ENDBRANCH   1  12
BRANCH   6  22
ATOM     22  O   UNL     1      32.161   8.253  59.981  1.00  0.00    -0.507 OA
ATOM     23  H   UNL     1      31.790   7.324  59.859  1.00  0.00     0.293 HD
ENDBRANCH   6  22
BRANCH   8  24
ATOM     24  O   UNL     1      29.145   9.477  63.489  1.00  0.00    -0.508 OA
ATOM     25  H   UNL     1      28.274   9.803  63.087  1.00  0.00     0.293 HD
ENDBRANCH   8  24
TORSDOF 5
ENDMDL
MODEL 3
REMARK VINA RESULT:    -6.546      5.569      8.762
REMARK INTER + INTRA:          -7.977
REMARK INTER:                  -7.696
REMARK INTRA:                  -0.280
REMARK UNBOUND:                -0.283
REMARK SMILES O=c1cc(-c2ccc(O)c(O)c2)oc2cc(O)cc(O)c12
REMARK SMILES IDX 4 1 3 2 2 3 1 4 21 5 19 6 18 7 16 8 15 9 14 10 13 11 5 12
REMARK SMILES IDX 6 13 7 14 8 15 12 16 10 17 9 18 11 20 20 22 17 24
REMARK H PARENT 9 19 11 21 20 23 17 25
REMARK Flexibility Score: inf
ROOT
ATOM      1  C   UNL     1      34.356   9.842  61.216  1.00  0.00     0.138 A 
ATOM      2  C   UNL     1      34.781  10.942  61.973  1.00  0.00     0.100 A 
ATOM      3  C   UNL     1      33.915  11.515  62.905  1.00  0.00     0.197 A 
ATOM      4  O   UNL     1      34.306  12.535  63.530  1.00  0.00    -0.289 OA
ATOM      5  C   UNL     1      32.628  10.960  63.104  1.00  0.00     0.107 A 
ATOM      6  C   UNL     1      31.671  11.439  64.050  1.00  0.00     0.134 A 
ATOM      7  C   UNL     1      30.393  10.870  64.087  1.00  0.00     0.093 A 
ATOM      8  C   UNL     1      30.053   9.803  63.255  1.00  0.00     0.123 A 
ATOM      9  C   UNL     1      30.996   9.294  62.361  1.00  0.00     0.094 A 
ATOM     10  C   UNL     1      32.269   9.863  62.276  1.00  0.00     0.146 A 
ATOM     11  O   UNL     1      33.131   9.359  61.399  1.00  0.00    -0.456 OA
ENDROOT
BRANCH   1  12
ATOM     12  C   UNL     1      35.237   9.191  60.214  1.00  0.00     0.021 A 
ATOM     13  C   UNL     1      35.793   9.962  59.178  1.00  0.00     0.016 A 
ATOM     14  C   UNL     1      36.630   9.374  58.226  1.00  0.00     0.051 A 
ATOM     15  C   UNL     1      36.937   8.013  58.298  1.00  0.00     0.157 A 
ATOM     16  C   UNL     1      35.559   7.822  60.289  1.00  0.00     0.062 A 
ATOM     17  C   UNL     1      36.402   7.232  59.335  1.00  0.00     0.158 A 
BRANCH  15  18
ATOM     18  O   UNL     1      37.775   7.455  57.332  1.00  0.00    -0.504 OA
ATOM     19  H   UNL     1      37.926   7.893  56.433  1.00  0.00     0.293 HD
ENDBRANCH  15  18
BRANCH  17  20
ATOM     20  O   UNL     1      36.713   5.876  59.417  1.00  0.00    -0.504 OA
ATOM     21  H   UNL     1      37.166   5.388  58.652  1.00  0.00     0.293 HD
ENDBRANCH  17  20
ENDBRANCH   1  12
BRANCH   6  22
ATOM     22  O   UNL     1      31.930  12.448  64.984  1.00  0.00    -0.507 OA
ATOM     23  H   UNL     1      31.904  12.332  65.984  1.00  0.00     0.293 HD
ENDBRANCH   6  22
BRANCH   8  24
ATOM     24  O   UNL     1      28.776   9.252  63.331  1.00  0.00    -0.508 OA
ATOM     25  H   UNL     1      28.635   8.254  63.431  1.00  0.00     0.293 HD
ENDBRANCH   8  24
TORSDOF 5
ENDMDL
MODEL 4
REMARK VINA RESULT:    -6.544      9.325     11.898
REMARK INTER + INTRA:          -7.975
REMARK INTER:                  -7.710
REMARK INTRA:                  -0.265
REMARK UNBOUND:                -0.283
REMARK SMILES O=c1cc(-c2ccc(O)c(O)c2)oc2cc(O)cc(O)c12
REMARK SMILES IDX 4 1 3 2 2 3 1 4 21 5 19 6 18 7 16 8 15 9 14 10 13 11 5 12
REMARK SMILES IDX 6 13 7 14 8 15 12 16 10 17 9 18 11 20 20 22 17 24
REMARK H PARENT 9 19 11 21 20 23 17 25
REMARK Flexibility Score: inf
ROOT
ATOM      1  C   UNL     1      36.998  15.104  61.960  1.00  0.00     0.138 A 
ATOM      2  C   UNL     1      36.001  14.256  62.458  1.00  0.00     0.100 A 
ATOM      3  C   UNL     1      36.056  13.831  63.786  1.00  0.00     0.197 A 
ATOM      4  O   UNL     1      35.176  13.025  64.188  1.00  0.00    -0.289 OA
ATOM      5  C   UNL     1      37.096  14.288  64.630  1.00  0.00     0.107 A 
ATOM      6  C   UNL     1      37.235  13.949  66.010  1.00  0.00     0.134 A 
ATOM      7  C   UNL     1      38.363  14.384  66.717  1.00  0.00     0.093 A 
ATOM      8  C   UNL     1      39.327  15.191  66.113  1.00  0.00     0.123 A 
ATOM      9  C   UNL     1      39.175  15.571  64.779  1.00  0.00     0.094 A 
ATOM     10  C   UNL     1      38.079  15.125  64.036  1.00  0.00     0.146 A 
ATOM     11  O   UNL     1      37.983  15.495  62.764  1.00  0.00    -0.456 OA
ENDROOT
BRANCH   1  12
ATOM     12  C   UNL     1      36.988  15.590  60.557  1.00  0.00     0.021 A 
ATOM     13  C   UNL     1      37.345  14.712  59.520  1.00  0.00     0.016 A 
ATOM     14  C   UNL     1      37.337  15.143  58.190  1.00  0.00     0.051 A 
ATOM     15  C   UNL     1      36.960  16.450  57.873  1.00  0.00     0.157 A 
ATOM     16  C   UNL     1      36.597  16.904  60.231  1.00  0.00     0.062 A 
ATOM     17  C   UNL     1      36.585  17.336  58.897  1.00  0.00     0.158 A 
BRANCH  15  18
ATOM     18  O   UNL     1      36.964  16.851  56.537  1.00  0.00    -0.504 OA
ATOM     19  H   UNL     1      36.387  17.613  56.202  1.00  0.00     0.293 HD
ENDBRANCH  15  18
BRANCH  17  20
ATOM     20  O   UNL     1      36.199  18.638  58.584  1.00  0.00    -0.504 OA
ATOM     21  H   UNL     1      35.718  18.856  57.718  1.00  0.00     0.293 HD
ENDBRANCH  17  20
ENDBRANCH   1  12
BRANCH   6  22
ATOM     22  O   UNL     1      36.293  13.212  66.735  1.00  0.00    -0.507 OA
ATOM     23  H   UNL     1      35.434  12.842  66.359  1.00  0.00     0.293 HD
ENDBRANCH   6  22
BRANCH   8  24
ATOM     24  O   UNL     1      40.428  15.618  66.853  1.00  0.00    -0.508 OA
ATOM     25  H   UNL     1      41.285  15.078  66.886  1.00  0.00     0.293 HD
ENDBRANCH   8  24
TORSDOF 5
ENDMDL
MODEL 5
REMARK VINA RESULT:    -6.487      6.898      9.326
REMARK INTER + INTRA:          -7.908
REMARK INTER:                  -7.623
REMARK INTRA:                  -0.285
REMARK UNBOUND:                -0.283
REMARK SMILES O=c1cc(-c2ccc(O)c(O)c2)oc2cc(O)cc(O)c12
REMARK SMILES IDX 4 1 3 2 2 3 1 4 21 5 19 6 18 7 16 8 15 9 14 10 13 11 5 12
REMARK SMILES IDX 6 13 7 14 8 15 12 16 10 17 9 18 11 20 20 22 17 24
REMARK H PARENT 9 19 11 21 20 23 17 25
REMARK Flexibility Score: inf
ROOT
ATOM      1  C   UNL     1      35.166  13.258  62.953  1.00  0.00     0.138 A 
ATOM      2  C   UNL     1      34.635  13.126  64.242  1.00  0.00     0.100 A 
ATOM      3  C   UNL     1      33.633  12.185  64.484  1.00  0.00     0.197 A 
ATOM      4  O   UNL     1      33.139  12.128  65.640  1.00  0.00    -0.289 OA
ATOM      5  C   UNL     1      33.187  11.346  63.435  1.00  0.00     0.107 A 
ATOM      6  C   UNL     1      32.196  10.327  63.572  1.00  0.00     0.134 A 
ATOM      7  C   UNL     1      31.765   9.627  62.438  1.00  0.00     0.093 A 
ATOM      8  C   UNL     1      32.328   9.867  61.184  1.00  0.00     0.123 A 
ATOM      9  C   UNL     1      33.333  10.825  61.048  1.00  0.00     0.094 A 
ATOM     10  C   UNL     1      33.761  11.565  62.154  1.00  0.00     0.146 A 
ATOM     11  O   UNL     1      34.708  12.480  61.977  1.00  0.00    -0.456 OA
ENDROOT
BRANCH   1  12
ATOM     12  C   UNL     1      36.235  14.239  62.640  1.00  0.00     0.021 A 
ATOM     13  C   UNL     1      36.244  14.875  61.386  1.00  0.00     0.016 A 
ATOM     14  C   UNL     1      37.235  15.807  61.069  1.00  0.00     0.051 A 
ATOM     15  C   UNL     1      38.225  16.131  62.000  1.00  0.00     0.157 A 
ATOM     16  C   UNL     1      37.228  14.578  63.580  1.00  0.00     0.062 A 
ATOM     17  C   UNL     1      38.221  15.516  63.263  1.00  0.00     0.158 A 
BRANCH  15  18
ATOM     18  O   UNL     1      39.202  17.064  61.654  1.00  0.00    -0.504 OA
ATOM     19  H   UNL     1      39.904  16.873  60.950  1.00  0.00     0.293 HD
ENDBRANCH  15  18
BRANCH  17  20
ATOM     20  O   UNL     1      39.201  15.843  64.199  1.00  0.00    -0.504 OA
ATOM     21  H   UNL     1      39.647  15.134  64.771  1.00  0.00     0.293 HD
ENDBRANCH  17  20
ENDBRANCH   1  12
BRANCH   6  22
ATOM     22  O   UNL     1      31.622   9.951  64.789  1.00  0.00    -0.507 OA
ATOM     23  H   UNL     1      30.845   9.316  64.893  1.00  0.00     0.293 HD
ENDBRANCH   6  22
BRANCH   8  24
ATOM     24  O   UNL     1      31.885   9.140  60.082  1.00  0.00    -0.508 OA
ATOM     25  H   UNL     1      31.376   9.582  59.325  1.00  0.00     0.293 HD
ENDBRANCH   8  24
TORSDOF 5
ENDMDL
MODEL 6
REMARK VINA RESULT:    -6.485      5.041      7.900
REMARK INTER + INTRA:          -7.905
REMARK INTER:                  -7.636
REMARK INTRA:                  -0.269
REMARK UNBOUND:                -0.283
REMARK SMILES O=c1cc(-c2ccc(O)c(O)c2)oc2cc(O)cc(O)c12
REMARK SMILES IDX 4 1 3 2 2 3 1 4 21 5 19 6 18 7 16 8 15 9 14 10 13 11 5 12
REMARK SMILES IDX 6 13 7 14 8 15 12 16 10 17 9 18 11 20 20 22 17 24
REMARK H PARENT 9 19 11 21 20 23 17 25
REMARK Flexibility Score: inf
ROOT
ATOM      1  C   UNL     1      32.820  12.021  65.782  1.00  0.00     0.138 A 
ATOM      2  C   UNL     1      33.217  11.819  67.110  1.00  0.00     0.100 A 
ATOM      3  C   UNL     1      34.294  12.541  67.627  1.00  0.00     0.197 A 
ATOM      4  O   UNL     1      34.661  12.297  68.806  1.00  0.00    -0.289 OA
ATOM      5  C   UNL     1      34.952  13.498  66.819  1.00  0.00     0.107 A 
ATOM      6  C   UNL     1      36.040  14.318  67.248  1.00  0.00     0.134 A 
ATOM      7  C   UNL     1      36.676  15.159  66.327  1.00  0.00     0.093 A 
ATOM      8  C   UNL     1      36.230  15.254  65.009  1.00  0.00     0.123 A 
ATOM      9  C   UNL     1      35.136  14.496  64.591  1.00  0.00     0.094 A 
ATOM     10  C   UNL     1      34.501  13.621  65.477  1.00  0.00     0.146 A 
ATOM     11  O   UNL     1      33.475  12.903  65.034  1.00  0.00    -0.456 OA
ENDROOT
BRANCH   1  12
ATOM     12  C   UNL     1      31.680  11.284  65.182  1.00  0.00     0.021 A 
ATOM     13  C   UNL     1      30.371  11.575  65.602  1.00  0.00     0.016 A 
ATOM     14  C   UNL     1      29.280  10.900  65.049  1.00  0.00     0.051 A 
ATOM     15  C   UNL     1      29.475   9.933  64.059  1.00  0.00     0.157 A 
ATOM     16  C   UNL     1      31.870  10.317  64.175  1.00  0.00     0.062 A 
ATOM     17  C   UNL     1      30.776   9.641  63.617  1.00  0.00     0.158 A 
BRANCH  15  18
ATOM     18  O   UNL     1      28.367   9.274  63.527  1.00  0.00    -0.504 OA
ATOM     19  H   UNL     1      27.466   9.727  63.432  1.00  0.00     0.293 HD
ENDBRANCH  15  18
BRANCH  17  20
ATOM     20  O   UNL     1      30.975   8.684  62.623  1.00  0.00    -0.504 OA
ATOM     21  H   UNL     1      31.530   8.883  61.798  1.00  0.00     0.293 HD
ENDBRANCH  17  20
ENDBRANCH   1  12
BRANCH   6  22
ATOM     22  O   UNL     1      36.518  14.361  68.562  1.00  0.00    -0.507 OA
ATOM     23  H   UNL     1      36.738  15.202  69.071  1.00  0.00     0.293 HD
ENDBRANCH   6  22
BRANCH   8  24
ATOM     24  O   UNL     1      36.877  16.114  64.125  1.00  0.00    -0.508 OA
ATOM     25  H   UNL     1      37.013  15.868  63.151  1.00  0.00     0.293 HD
ENDBRANCH   8  24
TORSDOF 5
ENDMDL
MODEL 7
REMARK VINA RESULT:    -6.467      3.871      5.929
REMARK INTER + INTRA:          -7.885
REMARK INTER:                  -7.570
REMARK INTRA:                  -0.315
REMARK UNBOUND:                -0.283
REMARK SMILES O=c1cc(-c2ccc(O)c(O)c2)oc2cc(O)cc(O)c12
REMARK SMILES IDX 4 1 3 2 2 3 1 4 21 5 19 6 18 7 16 8 15 9 14 10 13 11 5 12
REMARK SMILES IDX 6 13 7 14 8 15 12 16 10 17 9 18 11 20 20 22 17 24
REMARK H PARENT 9 19 11 21 20 23 17 25
REMARK Flexibility Score: inf
ROOT
ATOM      1  C   UNL     1      31.158  10.548  63.757  1.00  0.00     0.138 A 
ATOM      2  C   UNL     1      29.783  10.311  63.889  1.00  0.00     0.100 A 
ATOM      3  C   UNL     1      29.078  10.899  64.940  1.00  0.00     0.197 A 
ATOM      4  O   UNL     1      27.857  10.622  65.063  1.00  0.00    -0.289 OA
ATOM      5  C   UNL     1      29.748  11.758  65.844  1.00  0.00     0.107 A 
ATOM      6  C   UNL     1      29.126  12.440  66.933  1.00  0.00     0.134 A 
ATOM      7  C   UNL     1      29.913  13.187  67.819  1.00  0.00     0.093 A 
ATOM      8  C   UNL     1      31.287  13.323  67.625  1.00  0.00     0.123 A 
ATOM      9  C   UNL     1      31.898  12.703  66.535  1.00  0.00     0.094 A 
ATOM     10  C   UNL     1      31.146  11.923  65.652  1.00  0.00     0.146 A 
ATOM     11  O   UNL     1      31.770  11.334  64.637  1.00  0.00    -0.456 OA
ENDROOT
BRANCH   1  12
ATOM     12  C   UNL     1      31.956   9.952  62.656  1.00  0.00     0.021 A 
ATOM     13  C   UNL     1      31.296   9.413  61.539  1.00  0.00     0.016 A 
ATOM     14  C   UNL     1      32.024   8.853  60.486  1.00  0.00     0.051 A 
ATOM     15  C   UNL     1      33.420   8.831  60.525  1.00  0.00     0.157 A 
ATOM     16  C   UNL     1      33.364   9.939  62.685  1.00  0.00     0.062 A 
ATOM     17  C   UNL     1      34.095   9.379  61.627  1.00  0.00     0.158 A 
BRANCH  15  18
ATOM     18  O   UNL     1      34.119   8.263  59.459  1.00  0.00    -0.504 OA
ATOM     19  H   UNL     1      35.131   8.254  59.423  1.00  0.00     0.293 HD
ENDBRANCH  15  18
BRANCH  17  20
ATOM     20  O   UNL     1      35.489   9.369  61.666  1.00  0.00    -0.504 OA
ATOM     21  H   UNL     1      36.004   9.881  62.373  1.00  0.00     0.293 HD
ENDBRANCH  17  20
ENDBRANCH   1  12
BRANCH   6  22
ATOM     22  O   UNL     1      27.750  12.436  67.177  1.00  0.00    -0.507 OA
ATOM     23  H   UNL     1      27.184  13.259  67.318  1.00  0.00     0.293 HD
ENDBRANCH   6  22
BRANCH   8  24
ATOM     24  O   UNL     1      32.035  14.087  68.518  1.00  0.00    -0.508 OA
ATOM     25  H   UNL     1      32.737  13.666  69.117  1.00  0.00     0.293 HD
ENDBRANCH   8  24
TORSDOF 5
ENDMDL
MODEL 8
REMARK VINA RESULT:    -6.453      5.309      7.984
REMARK INTER + INTRA:          -7.868
REMARK INTER:                  -7.572
REMARK INTRA:                  -0.296
REMARK UNBOUND:                -0.283
REMARK SMILES O=c1cc(-c2ccc(O)c(O)c2)oc2cc(O)cc(O)c12
REMARK SMILES IDX 4 1 3 2 2 3 1 4 21 5 19 6 18 7 16 8 15 9 14 10 13 11 5 12
REMARK SMILES IDX 6 13 7 14 8 15 12 16 10 17 9 18 11 20 20 22 17 24
REMARK H PARENT 9 19 11 21 20 23 17 25
REMARK Flexibility Score: inf
ROOT
ATOM      1  C   UNL     1      33.008  12.021  65.119  1.00  0.00     0.138 A 
ATOM      2  C   UNL     1      31.649  11.916  65.441  1.00  0.00     0.100 A 
ATOM      3  C   UNL     1      30.806  11.146  64.638  1.00  0.00     0.197 A 
ATOM      4  O   UNL     1      29.581  11.116  64.921  1.00  0.00    -0.289 OA
ATOM      5  C   UNL     1      31.337  10.448  63.527  1.00  0.00     0.107 A 
ATOM      6  C   UNL     1      30.581   9.604  62.657  1.00  0.00     0.134 A 
ATOM      7  C   UNL     1      31.198   9.044  61.531  1.00  0.00     0.093 A 
ATOM      8  C   UNL     1      32.554   9.248  61.275  1.00  0.00     0.123 A 
ATOM      9  C   UNL     1      33.314  10.029  62.146  1.00  0.00     0.094 A 
ATOM     10  C   UNL     1      32.721  10.630  63.259  1.00  0.00     0.146 A 
ATOM     11  O   UNL     1      33.477  11.380  64.053  1.00  0.00    -0.456 OA
ENDROOT
BRANCH   1  12
ATOM     12  C   UNL     1      33.950  12.823  65.940  1.00  0.00     0.021 A 
ATOM     13  C   UNL     1      33.870  12.760  67.342  1.00  0.00     0.016 A 
ATOM     14  C   UNL     1      34.749  13.500  68.138  1.00  0.00     0.051 A 
ATOM     15  C   UNL     1      35.729  14.304  67.550  1.00  0.00     0.157 A 
ATOM     16  C   UNL     1      34.948  13.625  65.353  1.00  0.00     0.062 A 
ATOM     17  C   UNL     1      35.832  14.366  66.150  1.00  0.00     0.158 A 
BRANCH  15  18
ATOM     18  O   UNL     1      36.590  15.032  68.370  1.00  0.00    -0.504 OA
ATOM     19  H   UNL     1      37.483  15.378  68.041  1.00  0.00     0.293 HD
ENDBRANCH  15  18
BRANCH  17  20
ATOM     20  O   UNL     1      36.814  15.159  65.559  1.00  0.00    -0.504 OA
ATOM     21  H   UNL     1      36.601  16.077  65.185  1.00  0.00     0.293 HD
ENDBRANCH  17  20
ENDBRANCH   1  12
BRANCH   6  22
ATOM     22  O   UNL     1      29.239   9.270  62.862  1.00  0.00    -0.507 OA
ATOM     23  H   UNL     1      28.758   8.507  62.412  1.00  0.00     0.293 HD
ENDBRANCH   6  22
BRANCH   8  24
ATOM     24  O   UNL     1      33.137   8.662  60.154  1.00  0.00    -0.508 OA
ATOM     25  H   UNL     1      33.303   7.663  60.105  1.00  0.00     0.293 HD
ENDBRANCH   8  24
TORSDOF 5
ENDMDL
MODEL 9
REMARK VINA RESULT:    -6.388      2.698      4.971
REMARK INTER + INTRA:          -7.792
REMARK INTER:                  -7.510
REMARK INTRA:                  -0.282
REMARK UNBOUND:                -0.283
REMARK SMILES O=c1cc(-c2ccc(O)c(O)c2)oc2cc(O)cc(O)c12
REMARK SMILES IDX 4 1 3 2 2 3 1 4 21 5 19 6 18 7 16 8 15 9 14 10 13 11 5 12
REMARK SMILES IDX 6 13 7 14 8 15 12 16 10 17 9 18 11 20 20 22 17 24
REMARK H PARENT 9 19 11 21 20 23 17 25
REMARK Flexibility Score: inf
ROOT
ATOM      1  C   UNL     1      31.009  10.542  64.432  1.00  0.00     0.138 A 
ATOM      2  C   UNL     1      31.525  10.364  65.723  1.00  0.00     0.100 A 
ATOM      3  C   UNL     1      30.832  10.877  66.820  1.00  0.00     0.197 A 
ATOM      4  O   UNL     1      31.349  10.748  67.961  1.00  0.00    -0.289 OA
ATOM      5  C   UNL     1      29.598  11.541  66.626  1.00  0.00     0.107 A 
ATOM      6  C   UNL     1      28.786  12.075  67.673  1.00  0.00     0.134 A 
ATOM      7  C   UNL     1      27.632  12.799  67.350  1.00  0.00     0.093 A 
ATOM      8  C   UNL     1      27.228  12.959  66.024  1.00  0.00     0.123 A 
ATOM      9  C   UNL     1      27.986  12.398  64.996  1.00  0.00     0.094 A 
ATOM     10  C   UNL     1      29.161  11.700  65.283  1.00  0.00     0.146 A 
ATOM     11  O   UNL     1      29.863  11.197  64.274  1.00  0.00    -0.456 OA
ENDROOT
BRANCH   1  12
ATOM     12  C   UNL     1      31.701  10.014  63.230  1.00  0.00     0.021 A 
ATOM     13  C   UNL     1      30.943   9.466  62.181  1.00  0.00     0.016 A 
ATOM     14  C   UNL     1      31.570   8.969  61.036  1.00  0.00     0.051 A 
ATOM     15  C   UNL     1      32.961   9.021  60.912  1.00  0.00     0.157 A 
ATOM     16  C   UNL     1      33.102  10.075  63.095  1.00  0.00     0.062 A 
ATOM     17  C   UNL     1      33.732   9.579  61.944  1.00  0.00     0.158 A 
BRANCH  15  18
ATOM     18  O   UNL     1      33.558   8.515  59.757  1.00  0.00    -0.504 OA
ATOM     19  H   UNL     1      33.445   7.550  59.471  1.00  0.00     0.293 HD
ENDBRANCH  15  18
BRANCH  17  20
ATOM     20  O   UNL     1      35.119   9.642  61.821  1.00  0.00    -0.504 OA
ATOM     21  H   UNL     1      35.704   8.829  61.979  1.00  0.00     0.293 HD
ENDBRANCH  17  20
ENDBRANCH   1  12
BRANCH   6  22
ATOM     22  O   UNL     1      29.053  11.907  69.035  1.00  0.00    -0.507 OA
ATOM     23  H   UNL     1      29.929  11.587  69.418  1.00  0.00     0.293 HD
ENDBRANCH   6  22
BRANCH   8  24
ATOM     24  O   UNL     1      26.065  13.672  65.742  1.00  0.00    -0.508 OA
ATOM     25  H   UNL     1      25.149  13.244  65.817  1.00  0.00     0.293 HD
ENDBRANCH   8  24
TORSDOF 5
ENDMDL
