MODEL 1
REMARK VINA RESULT:    -4.488      0.000      0.000
REMARK INTER + INTRA:          -9.646
REMARK INTER:                  -7.636
REMARK INTRA:                  -2.009
REMARK UNBOUND:                -2.009
REMARK SMILES CCCCCCCCCCCCCC(=O)[O-]
REMARK SMILES IDX 8 1 9 2 10 3 11 4 12 5 13 6 14 7 15 8 16 9 7 10 6 11 5 12
REMARK SMILES IDX 4 13 3 14 2 15 1 16
REMARK H PARENT
REMARK Flexibility Score: inf
ROOT
ATOM      1  C   UNL     1      19.378  -1.859  21.131  1.00  0.00     0.000 C 
ENDROOT
BRANCH   1   2
ATOM      2  C   UNL     1      18.267  -2.924  21.030  1.00  0.00     0.000 C 
BRANCH   2   3
ATOM      3  C   UNL     1      18.756  -4.341  20.681  1.00  0.00     0.000 C 
BRANCH   3   4
ATOM      4  C   UNL     1      18.080  -4.914  19.427  1.00  0.00     0.000 C 
BRANCH   4   5
ATOM      5  C   UNL     1      16.814  -4.121  19.072  1.00  0.00     0.006 C 
BRANCH   5   6
ATOM      6  C   UNL     1      16.566  -4.067  17.560  1.00  0.00     0.053 C 
BRANCH   6   7
ATOM      7  C   UNL     1      15.641  -5.156  17.109  1.00  0.00     0.041 C 
ATOM      8  O   UNL     1      14.569  -5.374  17.733  1.00  0.00    -0.550 OA
ATOM      9  O   UNL     1      15.945  -5.906  15.980  1.00  0.00    -0.550 OA
ENDBRANCH   6   7
ENDBRANCH   5   6
ENDBRANCH   4   5
ENDBRANCH   3   4
ENDBRANCH   2   3
ENDBRANCH   1   2
BRANCH   1  10
ATOM     10  C   UNL     1      19.261  -0.692  20.129  1.00  0.00     0.000 C 
BRANCH  10  11
ATOM     11  C   UNL     1      19.394  -1.081  18.641  1.00  0.00    -0.000 C 
BRANCH  11  12
ATOM     12  C   UNL     1      18.155  -0.768  17.780  1.00  0.00    -0.000 C 
BRANCH  12  13
ATOM     13  C   UNL     1      17.004  -0.105  18.569  1.00  0.00    -0.000 C 
BRANCH  13  14
ATOM     14  C   UNL     1      15.607  -0.561  18.116  1.00  0.00    -0.000 C 
BRANCH  14  15
ATOM     15  C   UNL     1      14.640  -0.758  19.290  1.00  0.00    -0.003 C 
ATOM     16  C   UNL     1      15.395  -0.855  20.613  1.00  0.00     0.004 C 
ENDBRANCH  14  15
ENDBRANCH  13  14
ENDBRANCH  12  13
ENDBRANCH  11  12
ENDBRANCH  10  11
ENDBRANCH   1  10
TORSDOF 12
ENDMDL
MODEL 2
REMARK VINA RESULT:    -4.482      2.166      3.948
REMARK INTER + INTRA:          -9.636
REMARK INTER:                  -7.532
REMARK INTRA:                  -2.104
REMARK UNBOUND:                -2.009
REMARK SMILES CCCCCCCCCCCCCC(=O)[O-]
REMARK SMILES IDX 8 1 9 2 10 3 11 4 12 5 13 6 14 7 15 8 16 9 7 10 6 11 5 12
REMARK SMILES IDX 4 13 3 14 2 15 1 16
REMARK H PARENT
REMARK Flexibility Score: inf
ROOT
ATOM      1  C   UNL     1      20.700  -3.373  22.608  1.00  0.00     0.000 C 
ENDROOT
BRANCH   1   2
ATOM      2  C   UNL     1      20.957  -3.510  21.094  1.00  0.00     0.000 C 
BRANCH   2   3
ATOM      3  C   UNL     1      19.701  -3.778  20.245  1.00  0.00     0.000 C 
BRANCH   3   4
ATOM      4  C   UNL     1      18.468  -4.120  21.093  1.00  0.00     0.000 C 
BRANCH   4   5
ATOM      5  C   UNL     1      17.281  -3.216  20.730  1.00  0.00     0.006 C 
BRANCH   5   6
ATOM      6  C   UNL     1      17.309  -2.783  19.259  1.00  0.00     0.053 C 
BRANCH   6   7
ATOM      7  C   UNL     1      16.250  -3.474  18.456  1.00  0.00     0.041 C 
ATOM      8  O   UNL     1      15.419  -2.799  17.791  1.00  0.00    -0.550 OA
ATOM      9  O   UNL     1      16.201  -4.861  18.412  1.00  0.00    -0.550 OA
ENDBRANCH   6   7
ENDBRANCH   5   6
ENDBRANCH   4   5
ENDBRANCH   3   4
ENDBRANCH   2   3
ENDBRANCH   1   2
BRANCH   1  10
ATOM     10  C   UNL     1      21.285  -2.103  23.260  1.00  0.00     0.000 C 
BRANCH  10  11
ATOM     11  C   UNL     1      20.247  -1.053  23.713  1.00  0.00    -0.000 C 
BRANCH  11  12
ATOM     12  C   UNL     1      19.133  -0.764  22.688  1.00  0.00    -0.000 C 
BRANCH  12  13
ATOM     13  C   UNL     1      19.461   0.405  21.731  1.00  0.00    -0.000 C 
BRANCH  13  14
ATOM     14  C   UNL     1      19.892  -0.054  20.328  1.00  0.00    -0.000 C 
BRANCH  14  15
ATOM     15  C   UNL     1      21.412  -0.001  20.130  1.00  0.00    -0.003 C 
ATOM     16  C   UNL     1      22.055   1.005  21.080  1.00  0.00     0.004 C 
ENDBRANCH  14  15
ENDBRANCH  13  14
ENDBRANCH  12  13
ENDBRANCH  11  12
ENDBRANCH  10  11
ENDBRANCH   1  10
TORSDOF 12
ENDMDL
MODEL 3
REMARK VINA RESULT:    -4.464      2.880      4.867
REMARK INTER + INTRA:          -9.604
REMARK INTER:                  -7.398
REMARK INTRA:                  -2.206
REMARK UNBOUND:                -2.009
REMARK SMILES CCCCCCCCCCCCCC(=O)[O-]
REMARK SMILES IDX 8 1 9 2 10 3 11 4 12 5 13 6 14 7 15 8 16 9 7 10 6 11 5 12
REMARK SMILES IDX 4 13 3 14 2 15 1 16
REMARK H PARENT
REMARK Flexibility Score: inf
ROOT
ATOM      1  C   UNL     1      20.721  -3.053  22.339  1.00  0.00     0.000 C 
ENDROOT
BRANCH   1   2
ATOM      2  C   UNL     1      21.938  -3.288  21.420  1.00  0.00     0.000 C 
BRANCH   2   3
ATOM      3  C   UNL     1      21.646  -3.164  19.914  1.00  0.00     0.000 C 
BRANCH   3   4
ATOM      4  C   UNL     1      20.230  -2.646  19.621  1.00  0.00     0.000 C 
BRANCH   4   5
ATOM      5  C   UNL     1      20.256  -1.557  18.539  1.00  0.00     0.006 C 
BRANCH   5   6
ATOM      6  C   UNL     1      18.847  -1.119  18.121  1.00  0.00     0.053 C 
BRANCH   6   7
ATOM      7  C   UNL     1      18.021  -2.275  17.647  1.00  0.00     0.041 C 
ATOM      8  O   UNL     1      18.370  -2.924  16.625  1.00  0.00    -0.550 OA
ATOM      9  O   UNL     1      16.887  -2.658  18.351  1.00  0.00    -0.550 OA
ENDBRANCH   6   7
ENDBRANCH   5   6
ENDBRANCH   4   5
ENDBRANCH   3   4
ENDBRANCH   2   3
ENDBRANCH   1   2
BRANCH   1  10
ATOM     10  C   UNL     1      21.003  -2.204  23.596  1.00  0.00     0.000 C 
BRANCH  10  11
ATOM     11  C   UNL     1      20.270  -0.847  23.655  1.00  0.00    -0.000 C 
BRANCH  11  12
ATOM     12  C   UNL     1      19.235  -0.623  22.535  1.00  0.00    -0.000 C 
BRANCH  12  13
ATOM     13  C   UNL     1      19.646   0.470  21.523  1.00  0.00    -0.000 C 
BRANCH  13  14
ATOM     14  C   UNL     1      21.013   1.106  21.829  1.00  0.00    -0.000 C 
BRANCH  14  15
ATOM     15  C   UNL     1      22.113   0.633  20.871  1.00  0.00    -0.003 C 
ATOM     16  C   UNL     1      23.344   0.161  21.639  1.00  0.00     0.004 C 
ENDBRANCH  14  15
ENDBRANCH  13  14
ENDBRANCH  12  13
ENDBRANCH  11  12
ENDBRANCH  10  11
ENDBRANCH   1  10
TORSDOF 12
ENDMDL
MODEL 4
REMARK VINA RESULT:    -4.433      3.175      5.500
REMARK INTER + INTRA:          -9.552
REMARK INTER:                  -7.411
REMARK INTRA:                  -2.141
REMARK UNBOUND:                -2.009
REMARK SMILES CCCCCCCCCCCCCC(=O)[O-]
REMARK SMILES IDX 8 1 9 2 10 3 11 4 12 5 13 6 14 7 15 8 16 9 7 10 6 11 5 12
REMARK SMILES IDX 4 13 3 14 2 15 1 16
REMARK H PARENT
REMARK Flexibility Score: inf
ROOT
ATOM      1  C   UNL     1      21.744  -3.048  20.501  1.00  0.00     0.000 C 
ENDROOT
BRANCH   1   2
ATOM      2  C   UNL     1      20.261  -2.716  20.238  1.00  0.00     0.000 C 
BRANCH   2   3
ATOM      3  C   UNL     1      20.021  -1.481  19.351  1.00  0.00     0.000 C 
BRANCH   3   4
ATOM      4  C   UNL     1      18.563  -1.000  19.378  1.00  0.00     0.000 C 
BRANCH   4   5
ATOM      5  C   UNL     1      17.813  -1.587  20.583  1.00  0.00     0.006 C 
BRANCH   5   6
ATOM      6  C   UNL     1      16.944  -0.541  21.292  1.00  0.00     0.053 C 
BRANCH   6   7
ATOM      7  C   UNL     1      15.484  -0.782  21.065  1.00  0.00     0.041 C 
ATOM      8  O   UNL     1      15.056  -1.030  19.906  1.00  0.00    -0.550 OA
ATOM      9  O   UNL     1      14.599  -0.769  22.136  1.00  0.00    -0.550 OA
ENDBRANCH   6   7
ENDBRANCH   5   6
ENDBRANCH   4   5
ENDBRANCH   3   4
ENDBRANCH   2   3
ENDBRANCH   1   2
BRANCH   1  10
ATOM     10  C   UNL     1      22.101  -3.334  21.975  1.00  0.00     0.000 C 
BRANCH  10  11
ATOM     11  C   UNL     1      20.986  -3.025  22.997  1.00  0.00    -0.000 C 
BRANCH  11  12
ATOM     12  C   UNL     1      21.134  -1.674  23.724  1.00  0.00    -0.000 C 
BRANCH  12  13
ATOM     13  C   UNL     1      20.024  -0.658  23.374  1.00  0.00    -0.000 C 
BRANCH  13  14
ATOM     14  C   UNL     1      20.518   0.517  22.514  1.00  0.00    -0.000 C 
BRANCH  14  15
ATOM     15  C   UNL     1      22.043   0.529  22.350  1.00  0.00    -0.003 C 
ATOM     16  C   UNL     1      22.438   0.740  20.892  1.00  0.00     0.004 C 
ENDBRANCH  14  15
ENDBRANCH  13  14
ENDBRANCH  12  13
ENDBRANCH  11  12
ENDBRANCH  10  11
ENDBRANCH   1  10
TORSDOF 12
ENDMDL
MODEL 5
REMARK VINA RESULT:    -4.426      2.058      4.559
REMARK INTER + INTRA:          -9.539
REMARK INTER:                  -7.790
REMARK INTRA:                  -1.749
REMARK UNBOUND:                -2.009
REMARK SMILES CCCCCCCCCCCCCC(=O)[O-]
REMARK SMILES IDX 8 1 9 2 10 3 11 4 12 5 13 6 14 7 15 8 16 9 7 10 6 11 5 12
REMARK SMILES IDX 4 13 3 14 2 15 1 16
REMARK H PARENT
REMARK Flexibility Score: inf
ROOT
ATOM      1  C   UNL     1      17.464  -1.781  20.822  1.00  0.00     0.000 C 
ENDROOT
BRANCH   1   2
ATOM      2  C   UNL     1      16.686  -1.120  19.666  1.00  0.00     0.000 C 
BRANCH   2   3
ATOM      3  C   UNL     1      17.560  -0.582  18.520  1.00  0.00     0.000 C 
BRANCH   3   4
ATOM      4  C   UNL     1      18.736  -1.509  18.179  1.00  0.00     0.000 C 
BRANCH   4   5
ATOM      5  C   UNL     1      18.386  -2.431  17.002  1.00  0.00     0.006 C 
BRANCH   5   6
ATOM      6  C   UNL     1      17.991  -3.840  17.463  1.00  0.00     0.053 C 
BRANCH   6   7
ATOM      7  C   UNL     1      16.601  -4.196  17.035  1.00  0.00     0.041 C 
ATOM      8  O   UNL     1      16.385  -5.274  16.419  1.00  0.00    -0.550 OA
ATOM      9  O   UNL     1      15.538  -3.358  17.346  1.00  0.00    -0.550 OA
ENDBRANCH   6   7
ENDBRANCH   5   6
ENDBRANCH   4   5
ENDBRANCH   3   4
ENDBRANCH   2   3
ENDBRANCH   1   2
BRANCH   1  10
ATOM     10  C   UNL     1      17.437  -3.323  20.834  1.00  0.00     0.000 C 
BRANCH  10  11
ATOM     11  C   UNL     1      18.770  -4.006  21.206  1.00  0.00    -0.000 C 
BRANCH  11  12
ATOM     12  C   UNL     1      19.965  -3.045  21.362  1.00  0.00    -0.000 C 
BRANCH  12  13
ATOM     13  C   UNL     1      21.299  -3.629  20.846  1.00  0.00    -0.000 C 
BRANCH  13  14
ATOM     14  C   UNL     1      21.457  -3.541  19.318  1.00  0.00    -0.000 C 
BRANCH  14  15
ATOM     15  C   UNL     1      21.315  -4.905  18.630  1.00  0.00    -0.003 C 
ATOM     16  C   UNL     1      21.895  -4.871  17.219  1.00  0.00     0.004 C 
ENDBRANCH  14  15
ENDBRANCH  13  14
ENDBRANCH  12  13
ENDBRANCH  11  12
ENDBRANCH  10  11
ENDBRANCH   1  10
TORSDOF 12
ENDMDL
MODEL 6
REMARK VINA RESULT:    -4.384      3.019      4.154
REMARK INTER + INTRA:          -9.469
REMARK INTER:                  -7.825
REMARK INTRA:                  -1.644
REMARK UNBOUND:                -2.009
REMARK SMILES CCCCCCCCCCCCCC(=O)[O-]
REMARK SMILES IDX 8 1 9 2 10 3 11 4 12 5 13 6 14 7 15 8 16 9 7 10 6 11 5 12
REMARK SMILES IDX 4 13 3 14 2 15 1 16
REMARK H PARENT
REMARK Flexibility Score: inf
ROOT
ATOM      1  C   UNL     1      21.100  -1.933  23.386  1.00  0.00     0.000 C 
ENDROOT
BRANCH   1   2
ATOM      2  C   UNL     1      20.681  -3.278  22.760  1.00  0.00     0.000 C 
BRANCH   2   3
ATOM      3  C   UNL     1      20.537  -3.264  21.228  1.00  0.00     0.000 C 
BRANCH   3   4
ATOM      4  C   UNL     1      19.327  -4.071  20.734  1.00  0.00     0.000 C 
BRANCH   4   5
ATOM      5  C   UNL     1      19.558  -4.591  19.308  1.00  0.00     0.006 C 
BRANCH   5   6
ATOM      6  C   UNL     1      20.920  -4.164  18.746  1.00  0.00     0.053 C 
BRANCH   6   7
ATOM      7  C   UNL     1      21.357  -5.043  17.616  1.00  0.00     0.041 C 
ATOM      8  O   UNL     1      20.677  -6.057  17.304  1.00  0.00    -0.550 OA
ATOM      9  O   UNL     1      22.494  -4.726  16.884  1.00  0.00    -0.550 OA
ENDBRANCH   6   7
ENDBRANCH   5   6
ENDBRANCH   4   5
ENDBRANCH   3   4
ENDBRANCH   2   3
ENDBRANCH   1   2
BRANCH   1  10
ATOM     10  C   UNL     1      20.005  -0.847  23.401  1.00  0.00     0.000 C 
BRANCH  10  11
ATOM     11  C   UNL     1      20.352   0.455  22.647  1.00  0.00    -0.000 C 
BRANCH  11  12
ATOM     12  C   UNL     1      20.034   0.431  21.140  1.00  0.00    -0.000 C 
BRANCH  12  13
ATOM     13  C   UNL     1      18.521   0.416  20.826  1.00  0.00    -0.000 C 
BRANCH  13  14
ATOM     14  C   UNL     1      18.125  -0.628  19.768  1.00  0.00    -0.000 C 
BRANCH  14  15
ATOM     15  C   UNL     1      19.242  -0.888  18.748  1.00  0.00    -0.003 C 
ATOM     16  C   UNL     1      18.667  -1.318  17.402  1.00  0.00     0.004 C 
ENDBRANCH  14  15
ENDBRANCH  13  14
ENDBRANCH  12  13
ENDBRANCH  11  12
ENDBRANCH  10  11
ENDBRANCH   1  10
TORSDOF 12
ENDMDL
MODEL 7
REMARK VINA RESULT:    -4.372      2.649      4.383
REMARK INTER + INTRA:          -9.448
REMARK INTER:                  -7.622
REMARK INTRA:                  -1.826
REMARK UNBOUND:                -2.009
REMARK SMILES CCCCCCCCCCCCCC(=O)[O-]
REMARK SMILES IDX 8 1 9 2 10 3 11 4 12 5 13 6 14 7 15 8 16 9 7 10 6 11 5 12
REMARK SMILES IDX 4 13 3 14 2 15 1 16
REMARK H PARENT
REMARK Flexibility Score: inf
ROOT
ATOM      1  C   UNL     1      16.646  -1.619  18.297  1.00  0.00     0.000 C 
ENDROOT
BRANCH   1   2
ATOM      2  C   UNL     1      17.059  -3.105  18.337  1.00  0.00     0.000 C 
BRANCH   2   3
ATOM      3  C   UNL     1      17.123  -3.722  19.745  1.00  0.00     0.000 C 
BRANCH   3   4
ATOM      4  C   UNL     1      18.408  -4.527  19.987  1.00  0.00     0.000 C 
BRANCH   4   5
ATOM      5  C   UNL     1      19.134  -4.814  18.665  1.00  0.00     0.006 C 
BRANCH   5   6
ATOM      6  C   UNL     1      20.660  -4.766  18.817  1.00  0.00     0.053 C 
BRANCH   6   7
ATOM      7  C   UNL     1      21.358  -5.132  17.544  1.00  0.00     0.041 C 
ATOM      8  O   UNL     1      22.222  -4.358  17.051  1.00  0.00    -0.550 OA
ATOM      9  O   UNL     1      21.082  -6.341  16.919  1.00  0.00    -0.550 OA
ENDBRANCH   6   7
ENDBRANCH   5   6
ENDBRANCH   4   5
ENDBRANCH   3   4
ENDBRANCH   2   3
ENDBRANCH   1   2
BRANCH   1  10
ATOM     10  C   UNL     1      17.807  -0.612  18.430  1.00  0.00     0.000 C 
BRANCH  10  11
ATOM     11  C   UNL     1      19.209  -1.171  18.103  1.00  0.00    -0.000 C 
BRANCH  11  12
ATOM     12  C   UNL     1      20.211  -1.124  19.272  1.00  0.00    -0.000 C 
BRANCH  12  13
ATOM     13  C   UNL     1      19.643  -0.462  20.548  1.00  0.00    -0.000 C 
BRANCH  13  14
ATOM     14  C   UNL     1      19.257  -1.473  21.642  1.00  0.00    -0.000 C 
BRANCH  14  15
ATOM     15  C   UNL     1      20.476  -2.183  22.245  1.00  0.00    -0.003 C 
ATOM     16  C   UNL     1      20.812  -1.622  23.624  1.00  0.00     0.004 C 
ENDBRANCH  14  15
ENDBRANCH  13  14
ENDBRANCH  12  13
ENDBRANCH  11  12
ENDBRANCH  10  11
ENDBRANCH   1  10
TORSDOF 12
ENDMDL
MODEL 8
REMARK VINA RESULT:    -4.372      3.086      4.525
REMARK INTER + INTRA:          -9.447
REMARK INTER:                  -7.682
REMARK INTRA:                  -1.766
REMARK UNBOUND:                -2.009
REMARK SMILES CCCCCCCCCCCCCC(=O)[O-]
REMARK SMILES IDX 8 1 9 2 10 3 11 4 12 5 13 6 14 7 15 8 16 9 7 10 6 11 5 12
REMARK SMILES IDX 4 13 3 14 2 15 1 16
REMARK H PARENT
REMARK Flexibility Score: inf
ROOT
ATOM      1  C   UNL     1      20.215  -0.604  23.442  1.00  0.00     0.000 C 
ENDROOT
BRANCH   1   2
ATOM      2  C   UNL     1      21.103  -1.829  23.739  1.00  0.00     0.000 C 
BRANCH   2   3
ATOM      3  C   UNL     1      21.038  -2.947  22.682  1.00  0.00     0.000 C 
BRANCH   3   4
ATOM      4  C   UNL     1      22.238  -2.933  21.724  1.00  0.00     0.000 C 
BRANCH   4   5
ATOM      5  C   UNL     1      21.778  -2.760  20.269  1.00  0.00     0.006 C 
BRANCH   5   6
ATOM      6  C   UNL     1      21.384  -4.093  19.621  1.00  0.00     0.053 C 
BRANCH   6   7
ATOM      7  C   UNL     1      21.319  -3.989  18.128  1.00  0.00     0.041 C 
ATOM      8  O   UNL     1      21.992  -4.775  17.410  1.00  0.00    -0.550 OA
ATOM      9  O   UNL     1      20.491  -3.048  17.530  1.00  0.00    -0.550 OA
ENDBRANCH   6   7
ENDBRANCH   5   6
ENDBRANCH   4   5
ENDBRANCH   3   4
ENDBRANCH   2   3
ENDBRANCH   1   2
BRANCH   1  10
ATOM     10  C   UNL     1      20.702   0.296  22.288  1.00  0.00     0.000 C 
BRANCH  10  11
ATOM     11  C   UNL     1      19.805   0.305  21.032  1.00  0.00    -0.000 C 
BRANCH  11  12
ATOM     12  C   UNL     1      18.296   0.432  21.318  1.00  0.00    -0.000 C 
BRANCH  12  13
ATOM     13  C   UNL     1      17.528  -0.903  21.194  1.00  0.00    -0.000 C 
BRANCH  13  14
ATOM     14  C   UNL     1      18.308  -1.991  20.435  1.00  0.00    -0.000 C 
BRANCH  14  15
ATOM     15  C   UNL     1      17.803  -3.406  20.747  1.00  0.00    -0.003 C 
ATOM     16  C   UNL     1      17.646  -4.226  19.471  1.00  0.00     0.004 C 
ENDBRANCH  14  15
ENDBRANCH  13  14
ENDBRANCH  12  13
ENDBRANCH  11  12
ENDBRANCH  10  11
ENDBRANCH   1  10
TORSDOF 12
ENDMDL
MODEL 9
REMARK VINA RESULT:    -4.356      2.548      3.725
REMARK INTER + INTRA:          -9.421
REMARK INTER:                  -7.373
REMARK INTRA:                  -2.048
REMARK UNBOUND:                -2.009
REMARK SMILES CCCCCCCCCCCCCC(=O)[O-]
REMARK SMILES IDX 8 1 9 2 10 3 11 4 12 5 13 6 14 7 15 8 16 9 7 10 6 11 5 12
REMARK SMILES IDX 4 13 3 14 2 15 1 16
REMARK H PARENT
REMARK Flexibility Score: inf
ROOT
ATOM      1  C   UNL     1      21.004  -3.273  22.996  1.00  0.00     0.000 C 
ENDROOT
BRANCH   1   2
ATOM      2  C   UNL     1      21.502  -3.335  21.538  1.00  0.00     0.000 C 
BRANCH   2   3
ATOM      3  C   UNL     1      20.431  -3.721  20.503  1.00  0.00     0.000 C 
BRANCH   3   4
ATOM      4  C   UNL     1      19.018  -3.787  21.102  1.00  0.00     0.000 C 
BRANCH   4   5
ATOM      5  C   UNL     1      17.956  -3.878  19.997  1.00  0.00     0.006 C 
BRANCH   5   6
ATOM      6  C   UNL     1      18.574  -3.876  18.593  1.00  0.00     0.053 C 
BRANCH   6   7
ATOM      7  C   UNL     1      18.106  -2.708  17.780  1.00  0.00     0.041 C 
ATOM      8  O   UNL     1      18.705  -2.396  16.717  1.00  0.00    -0.550 OA
ATOM      9  O   UNL     1      16.987  -1.986  18.177  1.00  0.00    -0.550 OA
ENDBRANCH   6   7
ENDBRANCH   5   6
ENDBRANCH   4   5
ENDBRANCH   3   4
ENDBRANCH   2   3
ENDBRANCH   1   2
BRANCH   1  10
ATOM     10  C   UNL     1      21.046  -1.874  23.645  1.00  0.00     0.000 C 
BRANCH  10  11
ATOM     11  C   UNL     1      21.815  -0.798  22.848  1.00  0.00    -0.000 C 
BRANCH  11  12
ATOM     12  C   UNL     1      20.930   0.300  22.226  1.00  0.00    -0.000 C 
BRANCH  12  13
ATOM     13  C   UNL     1      20.574   0.041  20.745  1.00  0.00    -0.000 C 
BRANCH  13  14
ATOM     14  C   UNL     1      19.060  -0.051  20.485  1.00  0.00    -0.000 C 
BRANCH  14  15
ATOM     15  C   UNL     1      18.253  -0.273  21.771  1.00  0.00    -0.003 C 
ATOM     16  C   UNL     1      16.783  -0.533  21.458  1.00  0.00     0.004 C 
ENDBRANCH  14  15
ENDBRANCH  13  14
ENDBRANCH  12  13
ENDBRANCH  11  12
ENDBRANCH  10  11
ENDBRANCH   1  10
TORSDOF 12
ENDMDL
