MODEL 1
REMARK VINA RESULT:    -3.887      0.000      0.000
REMARK INTER + INTRA:         -15.132
REMARK INTER:                  -9.795
REMARK INTRA:                  -5.338
REMARK UNBOUND:                -5.338
REMARK SMILES CCCCCCCCCCCCCCCCCCCCCCCCCCCC(=O)[O-]
REMARK SMILES IDX 15 1 16 2 17 3 18 4 19 5 20 6 21 7 22 8 23 9 24 10 25 11
REMARK SMILES IDX 26 12 27 13 28 14 29 15 30 16 14 17 13 18 12 19 11 20 10 21
REMARK SMILES IDX 9 22 8 23 7 24 6 25 5 26 4 27 3 28 2 29 1 30
REMARK H PARENT
REMARK Flexibility Score: inf
ROOT
ATOM      1  C   UNL     1     -33.046   4.620  -1.286  1.00  0.00     0.000 C 
ENDROOT
BRANCH   1   2
ATOM      2  C   UNL     1     -34.495   4.564  -0.776  1.00  0.00     0.000 C 
BRANCH   2   3
ATOM      3  C   UNL     1     -35.514   5.077  -1.808  1.00  0.00     0.000 C 
BRANCH   3   4
ATOM      4  C   UNL     1     -36.161   6.412  -1.395  1.00  0.00     0.000 C 
BRANCH   4   5
ATOM      5  C   UNL     1     -35.394   7.671  -1.839  1.00  0.00     0.000 C 
BRANCH   5   6
ATOM      6  C   UNL     1     -35.827   8.175  -3.227  1.00  0.00     0.000 C 
BRANCH   6   7
ATOM      7  C   UNL     1     -34.658   8.761  -4.037  1.00  0.00     0.000 C 
BRANCH   7   8
ATOM      8  C   UNL     1     -33.611   7.697  -4.409  1.00  0.00     0.000 C 
BRANCH   8   9
ATOM      9  C   UNL     1     -34.202   6.545  -5.239  1.00  0.00     0.000 C 
BRANCH   9  10
ATOM     10  C   UNL     1     -33.522   5.195  -4.949  1.00  0.00     0.000 C 
BRANCH  10  11
ATOM     11  C   UNL     1     -33.475   4.270  -6.177  1.00  0.00     0.000 C 
BRANCH  11  12
ATOM     12  C   UNL     1     -34.212   2.925  -6.023  1.00  0.00     0.006 C 
BRANCH  12  13
ATOM     13  C   UNL     1     -34.916   2.746  -4.665  1.00  0.00     0.053 C 
BRANCH  13  14
ATOM     14  C   UNL     1     -35.242   1.311  -4.372  1.00  0.00     0.041 C 
ATOM     15  O   UNL     1     -35.651   0.974  -3.229  1.00  0.00    -0.550 OA
ATOM     16  O   UNL     1     -35.137   0.353  -5.373  1.00  0.00    -0.550 OA
ENDBRANCH  13  14
ENDBRANCH  12  13
ENDBRANCH  11  12
ENDBRANCH  10  11
ENDBRANCH   9  10
ENDBRANCH   8   9
ENDBRANCH   7   8
ENDBRANCH   6   7
ENDBRANCH   5   6
ENDBRANCH   4   5
ENDBRANCH   3   4
ENDBRANCH   2   3
ENDBRANCH   1   2
BRANCH   1  17
ATOM     17  C   UNL     1     -32.083   5.266  -0.275  1.00  0.00     0.000 C 
BRANCH  17  18
ATOM     18  C   UNL     1     -32.004   6.797  -0.416  1.00  0.00     0.000 C 
BRANCH  18  19
ATOM     19  C   UNL     1     -31.730   7.315  -1.845  1.00  0.00     0.000 C 
BRANCH  19  20
ATOM     20  C   UNL     1     -30.825   8.557  -1.936  1.00  0.00     0.000 C 
BRANCH  20  21
ATOM     21  C   UNL     1     -29.630   8.502  -0.970  1.00  0.00     0.000 C 
BRANCH  21  22
ATOM     22  C   UNL     1     -28.500   7.581  -1.464  1.00  0.00    -0.000 C 
BRANCH  22  23
ATOM     23  C   UNL     1     -28.399   6.249  -0.691  1.00  0.00    -0.000 C 
BRANCH  23  24
ATOM     24  C   UNL     1     -27.699   5.155  -1.515  1.00  0.00    -0.000 C 
BRANCH  24  25
ATOM     25  C   UNL     1     -28.493   3.841  -1.551  1.00  0.00    -0.000 C 
BRANCH  25  26
ATOM     26  C   UNL     1     -29.038   3.520  -2.953  1.00  0.00    -0.000 C 
BRANCH  26  27
ATOM     27  C   UNL     1     -30.063   4.556  -3.439  1.00  0.00    -0.000 C 
BRANCH  27  28
ATOM     28  C   UNL     1     -29.783   5.037  -4.870  1.00  0.00    -0.000 C 
BRANCH  28  29
ATOM     29  C   UNL     1     -29.296   6.491  -4.874  1.00  0.00    -0.003 C 
ATOM     30  C   UNL     1     -27.773   6.561  -4.952  1.00  0.00     0.004 C 
ENDBRANCH  28  29
ENDBRANCH  27  28
ENDBRANCH  26  27
ENDBRANCH  25  26
ENDBRANCH  24  25
ENDBRANCH  23  24
ENDBRANCH  22  23
ENDBRANCH  21  22
ENDBRANCH  20  21
ENDBRANCH  19  20
ENDBRANCH  18  19
ENDBRANCH  17  18
ENDBRANCH   1  17
TORSDOF 26
ENDMDL
MODEL 2
REMARK VINA RESULT:    -3.851      2.218      5.243
REMARK INTER + INTRA:         -15.041
REMARK INTER:                  -9.670
REMARK INTRA:                  -5.371
REMARK UNBOUND:                -5.338
REMARK SMILES CCCCCCCCCCCCCCCCCCCCCCCCCCCC(=O)[O-]
REMARK SMILES IDX 15 1 16 2 17 3 18 4 19 5 20 6 21 7 22 8 23 9 24 10 25 11
REMARK SMILES IDX 26 12 27 13 28 14 29 15 30 16 14 17 13 18 12 19 11 20 10 21
REMARK SMILES IDX 9 22 8 23 7 24 6 25 5 26 4 27 3 28 2 29 1 30
REMARK H PARENT
REMARK Flexibility Score: inf
ROOT
ATOM      1  C   UNL     1     -35.755   2.920  -2.585  1.00  0.00     0.000 C 
ENDROOT
BRANCH   1   2
ATOM      2  C   UNL     1     -34.905   1.908  -3.371  1.00  0.00     0.000 C 
BRANCH   2   3
ATOM      3  C   UNL     1     -35.679   1.241  -4.521  1.00  0.00     0.000 C 
BRANCH   3   4
ATOM      4  C   UNL     1     -34.955   1.357  -5.874  1.00  0.00     0.000 C 
BRANCH   4   5
ATOM      5  C   UNL     1     -35.565   2.378  -6.853  1.00  0.00     0.000 C 
BRANCH   5   6
ATOM      6  C   UNL     1     -34.640   3.579  -7.117  1.00  0.00     0.000 C 
BRANCH   6   7
ATOM      7  C   UNL     1     -35.131   4.867  -6.436  1.00  0.00     0.000 C 
BRANCH   7   8
ATOM      8  C   UNL     1     -34.021   5.565  -5.630  1.00  0.00     0.000 C 
BRANCH   8   9
ATOM      9  C   UNL     1     -33.198   4.583  -4.780  1.00  0.00     0.000 C 
BRANCH   9  10
ATOM     10  C   UNL     1     -32.488   5.271  -3.600  1.00  0.00     0.000 C 
BRANCH  10  11
ATOM     11  C   UNL     1     -32.292   4.339  -2.391  1.00  0.00     0.000 C 
BRANCH  11  12
ATOM     12  C   UNL     1     -32.600   4.965  -1.015  1.00  0.00     0.006 C 
BRANCH  12  13
ATOM     13  C   UNL     1     -33.387   4.042  -0.067  1.00  0.00     0.053 C 
BRANCH  13  14
ATOM     14  C   UNL     1     -32.491   3.246   0.835  1.00  0.00     0.041 C 
ATOM     15  O   UNL     1     -32.503   3.447   2.079  1.00  0.00    -0.550 OA
ATOM     16  O   UNL     1     -31.675   2.253   0.309  1.00  0.00    -0.550 OA
ENDBRANCH  13  14
ENDBRANCH  12  13
ENDBRANCH  11  12
ENDBRANCH  10  11
ENDBRANCH   9  10
ENDBRANCH   8   9
ENDBRANCH   7   8
ENDBRANCH   6   7
ENDBRANCH   5   6
ENDBRANCH   4   5
ENDBRANCH   3   4
ENDBRANCH   2   3
ENDBRANCH   1   2
BRANCH   1  17
ATOM     17  C   UNL     1     -36.812   3.617  -3.458  1.00  0.00     0.000 C 
BRANCH  17  18
ATOM     18  C   UNL     1     -36.906   5.130  -3.192  1.00  0.00     0.000 C 
BRANCH  18  19
ATOM     19  C   UNL     1     -36.155   5.627  -1.938  1.00  0.00     0.000 C 
BRANCH  19  20
ATOM     20  C   UNL     1     -35.905   7.145  -1.875  1.00  0.00     0.000 C 
BRANCH  20  21
ATOM     21  C   UNL     1     -35.712   7.780  -3.262  1.00  0.00     0.000 C 
BRANCH  21  22
ATOM     22  C   UNL     1     -34.607   8.852  -3.282  1.00  0.00    -0.000 C 
BRANCH  22  23
ATOM     23  C   UNL     1     -33.316   8.429  -2.551  1.00  0.00    -0.000 C 
BRANCH  23  24
ATOM     24  C   UNL     1     -32.115   9.304  -2.949  1.00  0.00    -0.000 C 
BRANCH  24  25
ATOM     25  C   UNL     1     -30.838   8.484  -3.188  1.00  0.00    -0.000 C 
BRANCH  25  26
ATOM     26  C   UNL     1     -30.311   7.826  -1.901  1.00  0.00    -0.000 C 
BRANCH  26  27
ATOM     27  C   UNL     1     -29.279   6.724  -2.182  1.00  0.00    -0.000 C 
BRANCH  27  28
ATOM     28  C   UNL     1     -28.697   6.118  -0.897  1.00  0.00    -0.000 C 
BRANCH  28  29
ATOM     29  C   UNL     1     -27.793   4.921  -1.216  1.00  0.00    -0.003 C 
ATOM     30  C   UNL     1     -27.061   4.436   0.033  1.00  0.00     0.004 C 
ENDBRANCH  28  29
ENDBRANCH  27  28
ENDBRANCH  26  27
ENDBRANCH  25  26
ENDBRANCH  24  25
ENDBRANCH  23  24
ENDBRANCH  22  23
ENDBRANCH  21  22
ENDBRANCH  20  21
ENDBRANCH  19  20
ENDBRANCH  18  19
ENDBRANCH  17  18
ENDBRANCH   1  17
TORSDOF 26
ENDMDL
MODEL 3
REMARK VINA RESULT:    -3.849      2.856      5.188
REMARK INTER + INTRA:         -15.037
REMARK INTER:                  -9.785
REMARK INTRA:                  -5.252
REMARK UNBOUND:                -5.338
REMARK SMILES CCCCCCCCCCCCCCCCCCCCCCCCCCCC(=O)[O-]
REMARK SMILES IDX 15 1 16 2 17 3 18 4 19 5 20 6 21 7 22 8 23 9 24 10 25 11
REMARK SMILES IDX 26 12 27 13 28 14 29 15 30 16 14 17 13 18 12 19 11 20 10 21
REMARK SMILES IDX 9 22 8 23 7 24 6 25 5 26 4 27 3 28 2 29 1 30
REMARK H PARENT
REMARK Flexibility Score: inf
ROOT
ATOM      1  C   UNL     1     -35.628   5.812  -1.296  1.00  0.00     0.000 C 
ENDROOT
BRANCH   1   2
ATOM      2  C   UNL     1     -36.731   5.548  -2.334  1.00  0.00     0.000 C 
BRANCH   2   3
ATOM      3  C   UNL     1     -36.399   6.126  -3.721  1.00  0.00     0.000 C 
BRANCH   3   4
ATOM      4  C   UNL     1     -35.906   5.055  -4.711  1.00  0.00     0.000 C 
BRANCH   4   5
ATOM      5  C   UNL     1     -34.383   4.834  -4.725  1.00  0.00     0.000 C 
BRANCH   5   6
ATOM      6  C   UNL     1     -33.949   3.612  -3.897  1.00  0.00     0.000 C 
BRANCH   6   7
ATOM      7  C   UNL     1     -34.921   2.428  -4.031  1.00  0.00     0.000 C 
BRANCH   7   8
ATOM      8  C   UNL     1     -35.406   1.909  -2.666  1.00  0.00     0.000 C 
BRANCH   8   9
ATOM      9  C   UNL     1     -34.506   2.363  -1.505  1.00  0.00     0.000 C 
BRANCH   9  10
ATOM     10  C   UNL     1     -34.242   1.240  -0.486  1.00  0.00     0.000 C 
BRANCH  10  11
ATOM     11  C   UNL     1     -33.694   1.762   0.854  1.00  0.00     0.000 C 
BRANCH  11  12
ATOM     12  C   UNL     1     -34.346   3.057   1.379  1.00  0.00     0.006 C 
BRANCH  12  13
ATOM     13  C   UNL     1     -35.064   2.895   2.731  1.00  0.00     0.053 C 
BRANCH  13  14
ATOM     14  C   UNL     1     -34.120   2.552   3.845  1.00  0.00     0.041 C 
ATOM     15  O   UNL     1     -33.154   3.316   4.115  1.00  0.00    -0.550 OA
ATOM     16  O   UNL     1     -34.330   1.414   4.612  1.00  0.00    -0.550 OA
ENDBRANCH  13  14
ENDBRANCH  12  13
ENDBRANCH  11  12
ENDBRANCH  10  11
ENDBRANCH   9  10
ENDBRANCH   8   9
ENDBRANCH   7   8
ENDBRANCH   6   7
ENDBRANCH   5   6
ENDBRANCH   4   5
ENDBRANCH   3   4
ENDBRANCH   2   3
ENDBRANCH   1   2
BRANCH   1  17
ATOM     17  C   UNL     1     -34.745   7.019  -1.657  1.00  0.00     0.000 C 
BRANCH  17  18
ATOM     18  C   UNL     1     -33.332   6.930  -1.052  1.00  0.00     0.000 C 
BRANCH  18  19
ATOM     19  C   UNL     1     -32.684   5.530  -1.093  1.00  0.00     0.000 C 
BRANCH  19  20
ATOM     20  C   UNL     1     -31.712   5.216   0.059  1.00  0.00     0.000 C 
BRANCH  20  21
ATOM     21  C   UNL     1     -30.886   3.942  -0.182  1.00  0.00     0.000 C 
BRANCH  21  22
ATOM     22  C   UNL     1     -30.895   3.491  -1.653  1.00  0.00    -0.000 C 
BRANCH  22  23
ATOM     23  C   UNL     1     -29.490   3.403  -2.286  1.00  0.00    -0.000 C 
BRANCH  23  24
ATOM     24  C   UNL     1     -28.380   3.744  -1.275  1.00  0.00    -0.000 C 
BRANCH  24  25
ATOM     25  C   UNL     1     -27.718   5.101  -1.558  1.00  0.00    -0.000 C 
BRANCH  25  26
ATOM     26  C   UNL     1     -28.207   5.731  -2.874  1.00  0.00    -0.000 C 
BRANCH  26  27
ATOM     27  C   UNL     1     -28.916   7.076  -2.656  1.00  0.00    -0.000 C 
BRANCH  27  28
ATOM     28  C   UNL     1     -28.947   7.495  -1.179  1.00  0.00    -0.000 C 
BRANCH  28  29
ATOM     29  C   UNL     1     -30.046   8.534  -0.926  1.00  0.00    -0.003 C 
ATOM     30  C   UNL     1     -29.542   9.947  -1.205  1.00  0.00     0.004 C 
ENDBRANCH  28  29
ENDBRANCH  27  28
ENDBRANCH  26  27
ENDBRANCH  25  26
ENDBRANCH  24  25
ENDBRANCH  23  24
ENDBRANCH  22  23
ENDBRANCH  21  22
ENDBRANCH  20  21
ENDBRANCH  19  20
ENDBRANCH  18  19
ENDBRANCH  17  18
ENDBRANCH   1  17
TORSDOF 26
ENDMDL
MODEL 4
REMARK VINA RESULT:    -3.849      1.227      5.419
REMARK INTER + INTRA:         -15.036
REMARK INTER:                  -9.571
REMARK INTRA:                  -5.465
REMARK UNBOUND:                -5.338
REMARK SMILES CCCCCCCCCCCCCCCCCCCCCCCCCCCC(=O)[O-]
REMARK SMILES IDX 15 1 16 2 17 3 18 4 19 5 20 6 21 7 22 8 23 9 24 10 25 11
REMARK SMILES IDX 26 12 27 13 28 14 29 15 30 16 14 17 13 18 12 19 11 20 10 21
REMARK SMILES IDX 9 22 8 23 7 24 6 25 5 26 4 27 3 28 2 29 1 30
REMARK H PARENT
REMARK Flexibility Score: inf
ROOT
ATOM      1  C   UNL     1     -28.197   7.547  -2.404  1.00  0.00     0.000 C 
ENDROOT
BRANCH   1   2
ATOM      2  C   UNL     1     -28.506   6.762  -1.118  1.00  0.00     0.000 C 
BRANCH   2   3
ATOM      3  C   UNL     1     -27.825   5.383  -1.080  1.00  0.00     0.000 C 
BRANCH   3   4
ATOM      4  C   UNL     1     -28.802   4.246  -0.728  1.00  0.00     0.000 C 
BRANCH   4   5
ATOM      5  C   UNL     1     -29.505   3.596  -1.934  1.00  0.00     0.000 C 
BRANCH   5   6
ATOM      6  C   UNL     1     -28.618   3.553  -3.191  1.00  0.00     0.000 C 
BRANCH   6   7
ATOM      7  C   UNL     1     -29.185   4.394  -4.347  1.00  0.00     0.000 C 
BRANCH   7   8
ATOM      8  C   UNL     1     -30.606   4.907  -4.058  1.00  0.00     0.000 C 
BRANCH   8   9
ATOM      9  C   UNL     1     -31.226   5.644  -5.257  1.00  0.00     0.000 C 
BRANCH   9  10
ATOM     10  C   UNL     1     -31.526   4.705  -6.439  1.00  0.00     0.000 C 
BRANCH  10  11
ATOM     11  C   UNL     1     -33.017   4.671  -6.817  1.00  0.00     0.000 C 
BRANCH  11  12
ATOM     12  C   UNL     1     -34.003   4.792  -5.638  1.00  0.00     0.006 C 
BRANCH  12  13
ATOM     13  C   UNL     1     -34.243   3.473  -4.881  1.00  0.00     0.053 C 
BRANCH  13  14
ATOM     14  C   UNL     1     -35.602   2.898  -5.145  1.00  0.00     0.041 C 
ATOM     15  O   UNL     1     -36.390   2.666  -4.189  1.00  0.00    -0.550 OA
ATOM     16  O   UNL     1     -36.018   2.659  -6.449  1.00  0.00    -0.550 OA
ENDBRANCH  13  14
ENDBRANCH  12  13
ENDBRANCH  11  12
ENDBRANCH  10  11
ENDBRANCH   9  10
ENDBRANCH   8   9
ENDBRANCH   7   8
ENDBRANCH   6   7
ENDBRANCH   5   6
ENDBRANCH   4   5
ENDBRANCH   3   4
ENDBRANCH   2   3
ENDBRANCH   1   2
BRANCH   1  17
ATOM     17  C   UNL     1     -29.066   8.808  -2.557  1.00  0.00     0.000 C 
BRANCH  17  18
ATOM     18  C   UNL     1     -30.333   8.771  -1.683  1.00  0.00     0.000 C 
BRANCH  18  19
ATOM     19  C   UNL     1     -31.639   8.424  -2.428  1.00  0.00     0.000 C 
BRANCH  19  20
ATOM     20  C   UNL     1     -32.367   7.161  -1.935  1.00  0.00     0.000 C 
BRANCH  20  21
ATOM     21  C   UNL     1     -32.017   6.794  -0.483  1.00  0.00     0.000 C 
BRANCH  21  22
ATOM     22  C   UNL     1     -32.330   5.327  -0.142  1.00  0.00    -0.000 C 
BRANCH  22  23
ATOM     23  C   UNL     1     -33.028   4.558  -1.284  1.00  0.00    -0.000 C 
BRANCH  23  24
ATOM     24  C   UNL     1     -34.502   4.259  -0.961  1.00  0.00    -0.000 C 
BRANCH  24  25
ATOM     25  C   UNL     1     -35.475   5.081  -1.821  1.00  0.00    -0.000 C 
BRANCH  25  26
ATOM     26  C   UNL     1     -36.030   6.306  -1.073  1.00  0.00    -0.000 C 
BRANCH  26  27
ATOM     27  C   UNL     1     -36.099   7.558  -1.961  1.00  0.00    -0.000 C 
BRANCH  27  28
ATOM     28  C   UNL     1     -35.858   7.243  -3.445  1.00  0.00    -0.000 C 
BRANCH  28  29
ATOM     29  C   UNL     1     -35.143   8.407  -4.142  1.00  0.00    -0.003 C 
ATOM     30  C   UNL     1     -35.879   9.724  -3.909  1.00  0.00     0.004 C 
ENDBRANCH  28  29
ENDBRANCH  27  28
ENDBRANCH  26  27
ENDBRANCH  25  26
ENDBRANCH  24  25
ENDBRANCH  23  24
ENDBRANCH  22  23
ENDBRANCH  21  22
ENDBRANCH  20  21
ENDBRANCH  19  20
ENDBRANCH  18  19
ENDBRANCH  17  18
ENDBRANCH   1  17
TORSDOF 26
ENDMDL
MODEL 5
REMARK VINA RESULT:    -3.761      1.332      3.018
REMARK INTER + INTRA:         -14.815
REMARK INTER:                  -9.560
REMARK INTRA:                  -5.256
REMARK UNBOUND:                -5.338
REMARK SMILES CCCCCCCCCCCCCCCCCCCCCCCCCCCC(=O)[O-]
REMARK SMILES IDX 15 1 16 2 17 3 18 4 19 5 20 6 21 7 22 8 23 9 24 10 25 11
REMARK SMILES IDX 26 12 27 13 28 14 29 15 30 16 14 17 13 18 12 19 11 20 10 21
REMARK SMILES IDX 9 22 8 23 7 24 6 25 5 26 4 27 3 28 2 29 1 30
REMARK H PARENT
REMARK Flexibility Score: inf
ROOT
ATOM      1  C   UNL     1     -33.513   5.796  -0.785  1.00  0.00     0.000 C 
ENDROOT
BRANCH   1   2
ATOM      2  C   UNL     1     -34.637   4.789  -1.078  1.00  0.00     0.000 C 
BRANCH   2   3
ATOM      3  C   UNL     1     -35.882   5.445  -1.700  1.00  0.00     0.000 C 
BRANCH   3   4
ATOM      4  C   UNL     1     -35.936   6.965  -1.465  1.00  0.00     0.000 C 
BRANCH   4   5
ATOM      5  C   UNL     1     -35.781   7.825  -2.733  1.00  0.00     0.000 C 
BRANCH   5   6
ATOM      6  C   UNL     1     -36.038   7.034  -4.027  1.00  0.00     0.000 C 
BRANCH   6   7
ATOM      7  C   UNL     1     -34.869   7.124  -5.021  1.00  0.00     0.000 C 
BRANCH   7   8
ATOM      8  C   UNL     1     -33.502   6.938  -4.339  1.00  0.00     0.000 C 
BRANCH   8   9
ATOM      9  C   UNL     1     -32.874   5.566  -4.633  1.00  0.00     0.000 C 
BRANCH   9  10
ATOM     10  C   UNL     1     -33.304   4.996  -5.997  1.00  0.00     0.000 C 
BRANCH  10  11
ATOM     11  C   UNL     1     -33.996   3.627  -5.886  1.00  0.00     0.000 C 
BRANCH  11  12
ATOM     12  C   UNL     1     -34.502   3.252  -4.478  1.00  0.00     0.006 C 
BRANCH  12  13
ATOM     13  C   UNL     1     -35.849   2.504  -4.472  1.00  0.00     0.053 C 
BRANCH  13  14
ATOM     14  C   UNL     1     -35.883   1.376  -5.460  1.00  0.00     0.041 C 
ATOM     15  O   UNL     1     -36.662   1.422  -6.449  1.00  0.00    -0.550 OA
ATOM     16  O   UNL     1     -35.024   0.294  -5.314  1.00  0.00    -0.550 OA
ENDBRANCH  13  14
ENDBRANCH  12  13
ENDBRANCH  11  12
ENDBRANCH  10  11
ENDBRANCH   9  10
ENDBRANCH   8   9
ENDBRANCH   7   8
ENDBRANCH   6   7
ENDBRANCH   5   6
ENDBRANCH   4   5
ENDBRANCH   3   4
ENDBRANCH   2   3
ENDBRANCH   1   2
BRANCH   1  17
ATOM     17  C   UNL     1     -32.131   5.130  -0.666  1.00  0.00     0.000 C 
BRANCH  17  18
ATOM     18  C   UNL     1     -31.989   3.883  -1.559  1.00  0.00     0.000 C 
BRANCH  18  19
ATOM     19  C   UNL     1     -30.570   3.621  -2.105  1.00  0.00     0.000 C 
BRANCH  19  20
ATOM     20  C   UNL     1     -29.469   3.465  -1.041  1.00  0.00     0.000 C 
BRANCH  20  21
ATOM     21  C   UNL     1     -28.136   4.111  -1.456  1.00  0.00     0.000 C 
BRANCH  21  22
ATOM     22  C   UNL     1     -27.784   5.353  -0.618  1.00  0.00    -0.000 C 
BRANCH  22  23
ATOM     23  C   UNL     1     -28.621   6.600  -0.973  1.00  0.00    -0.000 C 
BRANCH  23  24
ATOM     24  C   UNL     1     -28.466   6.997  -2.452  1.00  0.00    -0.000 C 
BRANCH  24  25
ATOM     25  C   UNL     1     -29.814   7.281  -3.132  1.00  0.00    -0.000 C 
BRANCH  25  26
ATOM     26  C   UNL     1     -30.817   7.966  -2.189  1.00  0.00    -0.000 C 
BRANCH  26  27
ATOM     27  C   UNL     1     -31.069   9.435  -2.561  1.00  0.00    -0.000 C 
BRANCH  27  28
ATOM     28  C   UNL     1     -30.188  10.406  -1.761  1.00  0.00    -0.000 C 
BRANCH  28  29
ATOM     29  C   UNL     1     -28.997  10.884  -2.601  1.00  0.00    -0.003 C 
ATOM     30  C   UNL     1     -27.680  10.671  -1.860  1.00  0.00     0.004 C 
ENDBRANCH  28  29
ENDBRANCH  27  28
ENDBRANCH  26  27
ENDBRANCH  25  26
ENDBRANCH  24  25
ENDBRANCH  23  24
ENDBRANCH  22  23
ENDBRANCH  21  22
ENDBRANCH  20  21
ENDBRANCH  19  20
ENDBRANCH  18  19
ENDBRANCH  17  18
ENDBRANCH   1  17
TORSDOF 26
ENDMDL
MODEL 6
REMARK VINA RESULT:    -3.747      1.666      3.583
REMARK INTER + INTRA:         -14.780
REMARK INTER:                  -9.717
REMARK INTRA:                  -5.063
REMARK UNBOUND:                -5.338
REMARK SMILES CCCCCCCCCCCCCCCCCCCCCCCCCCCC(=O)[O-]
REMARK SMILES IDX 15 1 16 2 17 3 18 4 19 5 20 6 21 7 22 8 23 9 24 10 25 11
REMARK SMILES IDX 26 12 27 13 28 14 29 15 30 16 14 17 13 18 12 19 11 20 10 21
REMARK SMILES IDX 9 22 8 23 7 24 6 25 5 26 4 27 3 28 2 29 1 30
REMARK H PARENT
REMARK Flexibility Score: inf
ROOT
ATOM      1  C   UNL     1     -32.617   4.750  -3.471  1.00  0.00     0.000 C 
ENDROOT
BRANCH   1   2
ATOM      2  C   UNL     1     -31.499   5.116  -4.461  1.00  0.00     0.000 C 
BRANCH   2   3
ATOM      3  C   UNL     1     -31.590   6.571  -4.955  1.00  0.00     0.000 C 
BRANCH   3   4
ATOM      4  C   UNL     1     -32.930   7.239  -4.600  1.00  0.00     0.000 C 
BRANCH   4   5
ATOM      5  C   UNL     1     -32.817   8.672  -4.051  1.00  0.00     0.000 C 
BRANCH   5   6
ATOM      6  C   UNL     1     -33.863   8.980  -2.965  1.00  0.00     0.000 C 
BRANCH   6   7
ATOM      7  C   UNL     1     -34.988   7.933  -2.910  1.00  0.00     0.000 C 
BRANCH   7   8
ATOM      8  C   UNL     1     -35.239   7.416  -1.483  1.00  0.00     0.000 C 
BRANCH   8   9
ATOM      9  C   UNL     1     -36.386   6.394  -1.415  1.00  0.00     0.000 C 
BRANCH   9  10
ATOM     10  C   UNL     1     -36.021   5.048  -2.064  1.00  0.00     0.000 C 
BRANCH  10  11
ATOM     11  C   UNL     1     -36.853   4.741  -3.321  1.00  0.00     0.000 C 
BRANCH  11  12
ATOM     12  C   UNL     1     -36.045   4.314  -4.563  1.00  0.00     0.006 C 
BRANCH  12  13
ATOM     13  C   UNL     1     -36.351   2.886  -5.052  1.00  0.00     0.053 C 
BRANCH  13  14
ATOM     14  C   UNL     1     -35.348   1.884  -4.563  1.00  0.00     0.041 C 
ATOM     15  O   UNL     1     -34.634   1.248  -5.384  1.00  0.00    -0.550 OA
ATOM     16  O   UNL     1     -35.169   1.683  -3.200  1.00  0.00    -0.550 OA
ENDBRANCH  13  14
ENDBRANCH  12  13
ENDBRANCH  11  12
ENDBRANCH  10  11
ENDBRANCH   9  10
ENDBRANCH   8   9
ENDBRANCH   7   8
ENDBRANCH   6   7
ENDBRANCH   5   6
ENDBRANCH   4   5
ENDBRANCH   3   4
ENDBRANCH   2   3
ENDBRANCH   1   2
BRANCH   1  17
ATOM     17  C   UNL     1     -32.085   4.412  -2.068  1.00  0.00     0.000 C 
BRANCH  17  18
ATOM     18  C   UNL     1     -32.380   5.514  -1.034  1.00  0.00     0.000 C 
BRANCH  18  19
ATOM     19  C   UNL     1     -31.148   6.304  -0.542  1.00  0.00     0.000 C 
BRANCH  19  20
ATOM     20  C   UNL     1     -30.830   7.589  -1.328  1.00  0.00     0.000 C 
BRANCH  20  21
ATOM     21  C   UNL     1     -29.322   7.878  -1.421  1.00  0.00     0.000 C 
BRANCH  21  22
ATOM     22  C   UNL     1     -28.689   7.349  -2.720  1.00  0.00    -0.000 C 
BRANCH  22  23
ATOM     23  C   UNL     1     -27.822   6.088  -2.521  1.00  0.00    -0.000 C 
BRANCH  23  24
ATOM     24  C   UNL     1     -28.486   4.832  -3.113  1.00  0.00    -0.000 C 
BRANCH  24  25
ATOM     25  C   UNL     1     -28.451   3.635  -2.151  1.00  0.00    -0.000 C 
BRANCH  25  26
ATOM     26  C   UNL     1     -28.356   4.065  -0.677  1.00  0.00    -0.000 C 
BRANCH  26  27
ATOM     27  C   UNL     1     -28.506   2.884   0.293  1.00  0.00    -0.000 C 
BRANCH  27  28
ATOM     28  C   UNL     1     -27.288   2.719   1.214  1.00  0.00    -0.000 C 
BRANCH  28  29
ATOM     29  C   UNL     1     -26.207   3.755   0.885  1.00  0.00    -0.003 C 
ATOM     30  C   UNL     1     -25.832   4.571   2.119  1.00  0.00     0.004 C 
ENDBRANCH  28  29
ENDBRANCH  27  28
ENDBRANCH  26  27
ENDBRANCH  25  26
ENDBRANCH  24  25
ENDBRANCH  23  24
ENDBRANCH  22  23
ENDBRANCH  21  22
ENDBRANCH  20  21
ENDBRANCH  19  20
ENDBRANCH  18  19
ENDBRANCH  17  18
ENDBRANCH   1  17
TORSDOF 26
ENDMDL
MODEL 7
REMARK VINA RESULT:    -3.747      2.664      6.393
REMARK INTER + INTRA:         -14.779
REMARK INTER:                  -9.543
REMARK INTRA:                  -5.236
REMARK UNBOUND:                -5.338
REMARK SMILES CCCCCCCCCCCCCCCCCCCCCCCCCCCC(=O)[O-]
REMARK SMILES IDX 15 1 16 2 17 3 18 4 19 5 20 6 21 7 22 8 23 9 24 10 25 11
REMARK SMILES IDX 26 12 27 13 28 14 29 15 30 16 14 17 13 18 12 19 11 20 10 21
REMARK SMILES IDX 9 22 8 23 7 24 6 25 5 26 4 27 3 28 2 29 1 30
REMARK H PARENT
REMARK Flexibility Score: inf
ROOT
ATOM      1  C   UNL     1     -31.607   6.192  -1.023  1.00  0.00     0.000 C 
ENDROOT
BRANCH   1   2
ATOM      2  C   UNL     1     -31.416   5.505  -2.385  1.00  0.00     0.000 C 
BRANCH   2   3
ATOM      3  C   UNL     1     -30.145   4.641  -2.448  1.00  0.00     0.000 C 
BRANCH   3   4
ATOM      4  C   UNL     1     -28.946   5.387  -3.060  1.00  0.00     0.000 C 
BRANCH   4   5
ATOM      5  C   UNL     1     -27.767   5.624  -2.099  1.00  0.00     0.000 C 
BRANCH   5   6
ATOM      6  C   UNL     1     -28.119   5.313  -0.634  1.00  0.00     0.000 C 
BRANCH   6   7
ATOM      7  C   UNL     1     -26.989   4.575   0.104  1.00  0.00     0.000 C 
BRANCH   7   8
ATOM      8  C   UNL     1     -27.496   3.337   0.865  1.00  0.00     0.000 C 
BRANCH   8   9
ATOM      9  C   UNL     1     -28.568   2.559   0.086  1.00  0.00     0.000 C 
BRANCH   9  10
ATOM     10  C   UNL     1     -29.727   2.086   0.982  1.00  0.00     0.000 C 
BRANCH  10  11
ATOM     11  C   UNL     1     -31.053   2.806   0.680  1.00  0.00     0.000 C 
BRANCH  11  12
ATOM     12  C   UNL     1     -31.895   2.194  -0.458  1.00  0.00     0.006 C 
BRANCH  12  13
ATOM     13  C   UNL     1     -33.269   1.664  -0.009  1.00  0.00     0.053 C 
BRANCH  13  14
ATOM     14  C   UNL     1     -33.170   0.740   1.169  1.00  0.00     0.041 C 
ATOM     15  O   UNL     1     -33.724   1.042   2.260  1.00  0.00    -0.550 OA
ATOM     16  O   UNL     1     -32.504  -0.473   1.050  1.00  0.00    -0.550 OA
ENDBRANCH  13  14
ENDBRANCH  12  13
ENDBRANCH  11  12
ENDBRANCH  10  11
ENDBRANCH   9  10
ENDBRANCH   8   9
ENDBRANCH   7   8
ENDBRANCH   6   7
ENDBRANCH   5   6
ENDBRANCH   4   5
ENDBRANCH   3   4
ENDBRANCH   2   3
ENDBRANCH   1   2
BRANCH   1  17
ATOM     17  C   UNL     1     -33.087   6.387  -0.655  1.00  0.00     0.000 C 
BRANCH  17  18
ATOM     18  C   UNL     1     -33.950   5.150  -0.965  1.00  0.00     0.000 C 
BRANCH  18  19
ATOM     19  C   UNL     1     -35.363   5.449  -1.508  1.00  0.00     0.000 C 
BRANCH  19  20
ATOM     20  C   UNL     1     -35.902   6.860  -1.208  1.00  0.00     0.000 C 
BRANCH  20  21
ATOM     21  C   UNL     1     -36.106   7.707  -2.475  1.00  0.00     0.000 C 
BRANCH  21  22
ATOM     22  C   UNL     1     -35.408   7.114  -3.712  1.00  0.00    -0.000 C 
BRANCH  22  23
ATOM     23  C   UNL     1     -34.131   7.873  -4.130  1.00  0.00    -0.000 C 
BRANCH  23  24
ATOM     24  C   UNL     1     -33.938   9.166  -3.319  1.00  0.00    -0.000 C 
BRANCH  24  25
ATOM     25  C   UNL     1     -32.482   9.376  -2.878  1.00  0.00    -0.000 C 
BRANCH  25  26
ATOM     26  C   UNL     1     -31.474   8.722  -3.840  1.00  0.00    -0.000 C 
BRANCH  26  27
ATOM     27  C   UNL     1     -30.018   8.918  -3.392  1.00  0.00    -0.000 C 
BRANCH  27  28
ATOM     28  C   UNL     1     -29.883   9.942  -2.255  1.00  0.00    -0.000 C 
BRANCH  28  29
ATOM     29  C   UNL     1     -29.576   9.244  -0.924  1.00  0.00    -0.003 C 
ATOM     30  C   UNL     1     -28.072   9.073  -0.727  1.00  0.00     0.004 C 
ENDBRANCH  28  29
ENDBRANCH  27  28
ENDBRANCH  26  27
ENDBRANCH  25  26
ENDBRANCH  24  25
ENDBRANCH  23  24
ENDBRANCH  22  23
ENDBRANCH  21  22
ENDBRANCH  20  21
ENDBRANCH  19  20
ENDBRANCH  18  19
ENDBRANCH  17  18
ENDBRANCH   1  17
TORSDOF 26
ENDMDL
MODEL 8
REMARK VINA RESULT:    -3.747      2.079      3.792
REMARK INTER + INTRA:         -14.779
REMARK INTER:                  -8.873
REMARK INTRA:                  -5.905
REMARK UNBOUND:                -5.338
REMARK SMILES CCCCCCCCCCCCCCCCCCCCCCCCCCCC(=O)[O-]
REMARK SMILES IDX 15 1 16 2 17 3 18 4 19 5 20 6 21 7 22 8 23 9 24 10 25 11
REMARK SMILES IDX 26 12 27 13 28 14 29 15 30 16 14 17 13 18 12 19 11 20 10 21
REMARK SMILES IDX 9 22 8 23 7 24 6 25 5 26 4 27 3 28 2 29 1 30
REMARK H PARENT
REMARK Flexibility Score: inf
ROOT
ATOM      1  C   UNL     1     -35.760   5.599  -1.379  1.00  0.00     0.000 C 
ENDROOT
BRANCH   1   2
ATOM      2  C   UNL     1     -36.776   5.415  -2.518  1.00  0.00     0.000 C 
BRANCH   2   3
ATOM      3  C   UNL     1     -36.677   4.036  -3.193  1.00  0.00     0.000 C 
BRANCH   3   4
ATOM      4  C   UNL     1     -36.743   4.117  -4.728  1.00  0.00     0.000 C 
BRANCH   4   5
ATOM      5  C   UNL     1     -36.880   5.540  -5.299  1.00  0.00     0.000 C 
BRANCH   5   6
ATOM      6  C   UNL     1     -35.593   6.036  -5.982  1.00  0.00     0.000 C 
BRANCH   6   7
ATOM      7  C   UNL     1     -34.802   4.901  -6.655  1.00  0.00     0.000 C 
BRANCH   7   8
ATOM      8  C   UNL     1     -33.308   4.931  -6.289  1.00  0.00     0.000 C 
BRANCH   8   9
ATOM      9  C   UNL     1     -33.057   5.430  -4.857  1.00  0.00     0.000 C 
BRANCH   9  10
ATOM     10  C   UNL     1     -33.072   4.291  -3.821  1.00  0.00     0.000 C 
BRANCH  10  11
ATOM     11  C   UNL     1     -32.482   4.707  -2.462  1.00  0.00     0.000 C 
BRANCH  11  12
ATOM     12  C   UNL     1     -32.513   3.623  -1.366  1.00  0.00     0.006 C 
BRANCH  12  13
ATOM     13  C   UNL     1     -32.226   4.154   0.051  1.00  0.00     0.053 C 
BRANCH  13  14
ATOM     14  C   UNL     1     -32.956   3.384   1.111  1.00  0.00     0.041 C 
ATOM     15  O   UNL     1     -32.531   3.377   2.297  1.00  0.00    -0.550 OA
ATOM     16  O   UNL     1     -34.131   2.710   0.800  1.00  0.00    -0.550 OA
ENDBRANCH  13  14
ENDBRANCH  12  13
ENDBRANCH  11  12
ENDBRANCH  10  11
ENDBRANCH   9  10
ENDBRANCH   8   9
ENDBRANCH   7   8
ENDBRANCH   6   7
ENDBRANCH   5   6
ENDBRANCH   4   5
ENDBRANCH   3   4
ENDBRANCH   2   3
ENDBRANCH   1   2
BRANCH   1  17
ATOM     17  C   UNL     1     -35.129   7.002  -1.363  1.00  0.00     0.000 C 
BRANCH  17  18
ATOM     18  C   UNL     1     -35.457   7.820  -2.625  1.00  0.00     0.000 C 
BRANCH  18  19
ATOM     19  C   UNL     1     -34.237   8.401  -3.371  1.00  0.00     0.000 C 
BRANCH  19  20
ATOM     20  C   UNL     1     -32.917   8.402  -2.579  1.00  0.00     0.000 C 
BRANCH  20  21
ATOM     21  C   UNL     1     -31.685   8.643  -3.467  1.00  0.00     0.000 C 
BRANCH  21  22
ATOM     22  C   UNL     1     -30.539   7.654  -3.186  1.00  0.00    -0.000 C 
BRANCH  22  23
ATOM     23  C   UNL     1     -29.252   8.325  -2.664  1.00  0.00    -0.000 C 
BRANCH  23  24
ATOM     24  C   UNL     1     -28.799   7.734  -1.317  1.00  0.00    -0.000 C 
BRANCH  24  25
ATOM     25  C   UNL     1     -29.164   6.249  -1.171  1.00  0.00    -0.000 C 
BRANCH  25  26
ATOM     26  C   UNL     1     -28.001   5.316  -1.549  1.00  0.00    -0.000 C 
BRANCH  26  27
ATOM     27  C   UNL     1     -28.393   3.832  -1.497  1.00  0.00    -0.000 C 
BRANCH  27  28
ATOM     28  C   UNL     1     -29.055   3.350  -2.796  1.00  0.00    -0.000 C 
BRANCH  28  29
ATOM     29  C   UNL     1     -28.418   4.024  -4.017  1.00  0.00    -0.003 C 
ATOM     30  C   UNL     1     -29.485   4.583  -4.955  1.00  0.00     0.004 C 
ENDBRANCH  28  29
ENDBRANCH  27  28
ENDBRANCH  26  27
ENDBRANCH  25  26
ENDBRANCH  24  25
ENDBRANCH  23  24
ENDBRANCH  22  23
ENDBRANCH  21  22
ENDBRANCH  20  21
ENDBRANCH  19  20
ENDBRANCH  18  19
ENDBRANCH  17  18
ENDBRANCH   1  17
TORSDOF 26
ENDMDL
MODEL 9
REMARK VINA RESULT:    -3.677      2.295      4.405
REMARK INTER + INTRA:         -14.604
REMARK INTER:                  -9.295
REMARK INTRA:                  -5.309
REMARK UNBOUND:                -5.338
REMARK SMILES CCCCCCCCCCCCCCCCCCCCCCCCCCCC(=O)[O-]
REMARK SMILES IDX 15 1 16 2 17 3 18 4 19 5 20 6 21 7 22 8 23 9 24 10 25 11
REMARK SMILES IDX 26 12 27 13 28 14 29 15 30 16 14 17 13 18 12 19 11 20 10 21
REMARK SMILES IDX 9 22 8 23 7 24 6 25 5 26 4 27 3 28 2 29 1 30
REMARK H PARENT
REMARK Flexibility Score: inf
ROOT
ATOM      1  C   UNL     1     -33.645   7.002  -1.047  1.00  0.00     0.000 C 
ENDROOT
BRANCH   1   2
ATOM      2  C   UNL     1     -34.894   7.415  -1.842  1.00  0.00     0.000 C 
BRANCH   2   3
ATOM      3  C   UNL     1     -36.171   6.698  -1.368  1.00  0.00     0.000 C 
BRANCH   3   4
ATOM      4  C   UNL     1     -36.374   5.332  -2.046  1.00  0.00     0.000 C 
BRANCH   4   5
ATOM      5  C   UNL     1     -35.883   5.248  -3.502  1.00  0.00     0.000 C 
BRANCH   5   6
ATOM      6  C   UNL     1     -34.896   4.091  -3.734  1.00  0.00     0.000 C 
BRANCH   6   7
ATOM      7  C   UNL     1     -34.503   3.375  -2.431  1.00  0.00     0.000 C 
BRANCH   7   8
ATOM      8  C   UNL     1     -32.985   3.404  -2.181  1.00  0.00     0.000 C 
BRANCH   8   9
ATOM      9  C   UNL     1     -32.632   3.497  -0.687  1.00  0.00     0.000 C 
BRANCH   9  10
ATOM     10  C   UNL     1     -33.878   3.595   0.212  1.00  0.00     0.000 C 
BRANCH  10  11
ATOM     11  C   UNL     1     -34.011   2.411   1.185  1.00  0.00     0.000 C 
BRANCH  11  12
ATOM     12  C   UNL     1     -33.500   1.056   0.654  1.00  0.00     0.006 C 
BRANCH  12  13
ATOM     13  C   UNL     1     -34.519   0.296  -0.215  1.00  0.00     0.053 C 
BRANCH  13  14
ATOM     14  C   UNL     1     -34.754  -1.104   0.269  1.00  0.00     0.041 C 
ATOM     15  O   UNL     1     -35.358  -1.306   1.356  1.00  0.00    -0.550 OA
ATOM     16  O   UNL     1     -34.345  -2.186  -0.500  1.00  0.00    -0.550 OA
ENDBRANCH  13  14
ENDBRANCH  12  13
ENDBRANCH  11  12
ENDBRANCH  10  11
ENDBRANCH   9  10
ENDBRANCH   8   9
ENDBRANCH   7   8
ENDBRANCH   6   7
ENDBRANCH   5   6
ENDBRANCH   4   5
ENDBRANCH   3   4
ENDBRANCH   2   3
ENDBRANCH   1   2
BRANCH   1  17
ATOM     17  C   UNL     1     -32.345   7.156  -1.855  1.00  0.00     0.000 C 
BRANCH  17  18
ATOM     18  C   UNL     1     -32.522   6.807  -3.345  1.00  0.00     0.000 C 
BRANCH  18  19
ATOM     19  C   UNL     1     -31.517   7.480  -4.304  1.00  0.00     0.000 C 
BRANCH  19  20
ATOM     20  C   UNL     1     -30.616   6.518  -5.099  1.00  0.00     0.000 C 
BRANCH  20  21
ATOM     21  C   UNL     1     -30.520   5.121  -4.464  1.00  0.00     0.000 C 
BRANCH  21  22
ATOM     22  C   UNL     1     -29.281   4.335  -4.929  1.00  0.00    -0.000 C 
BRANCH  22  23
ATOM     23  C   UNL     1     -28.541   3.608  -3.786  1.00  0.00    -0.000 C 
BRANCH  23  24
ATOM     24  C   UNL     1     -29.182   3.887  -2.415  1.00  0.00    -0.000 C 
BRANCH  24  25
ATOM     25  C   UNL     1     -28.299   4.769  -1.518  1.00  0.00    -0.000 C 
BRANCH  25  26
ATOM     26  C   UNL     1     -28.829   6.209  -1.403  1.00  0.00    -0.000 C 
BRANCH  26  27
ATOM     27  C   UNL     1     -28.126   7.175  -2.368  1.00  0.00    -0.000 C 
BRANCH  27  28
ATOM     28  C   UNL     1     -28.747   8.580  -2.354  1.00  0.00    -0.000 C 
BRANCH  28  29
ATOM     29  C   UNL     1     -29.171   8.977  -0.935  1.00  0.00    -0.003 C 
ATOM     30  C   UNL     1     -28.042   9.699  -0.205  1.00  0.00     0.004 C 
ENDBRANCH  28  29
ENDBRANCH  27  28
ENDBRANCH  26  27
ENDBRANCH  25  26
ENDBRANCH  24  25
ENDBRANCH  23  24
ENDBRANCH  22  23
ENDBRANCH  21  22
ENDBRANCH  20  21
ENDBRANCH  19  20
ENDBRANCH  18  19
ENDBRANCH  17  18
ENDBRANCH   1  17
TORSDOF 26
ENDMDL
