MODEL 1
REMARK VINA RESULT:   127.348      0.000      0.000
REMARK INTER + INTRA:         138.904
REMARK INTER:                 138.515
REMARK INTRA:                   0.389
REMARK UNBOUND:                 0.389
REMARK SMILES CC1(C)CC[C@]2(C(=O)[O-])CC[C@@]3(C)C(=CC[C@@H]4[C@@]5(C)CC[C@@H](O)C(C)(C)[C@H]5CC[C@]43C)[C@@H]2C1
REMARK SMILES IDX 6 1 5 2 10 3 32 4 4 5 11 6 14 7 33 8 2 9 12 10 15 11 1 12
REMARK SMILES IDX 3 13 13 14 30 15 16 16 17 17 29 18 31 19 18 20 28 21 27 22
REMARK SMILES IDX 20 23 19 24 24 25 21 26 22 27 25 28 26 29 7 30 8 31 9 32
REMARK SMILES IDX 23 33
REMARK H PARENT 23 34
REMARK Flexibility Score: inf
ROOT
ATOM      1  C   UNL     1      -2.490   2.454   1.148  1.00  0.00     0.017 C 
ATOM      2  C   UNL     1      -2.498   4.023   1.075  1.00  0.00     0.014 C 
ATOM      3  C   UNL     1      -1.659   2.078   2.402  1.00  0.00     0.014 C 
ATOM      4  C   UNL     1      -1.838   1.833  -0.133  1.00  0.00     0.028 C 
ATOM      5  C   UNL     1      -2.547   4.571  -0.359  1.00  0.00     0.007 C 
ATOM      6  C   UNL     1      -1.501   0.575   2.647  1.00  0.00     0.013 C 
ATOM      7  C   UNL     1      -1.274   0.420   0.043  1.00  0.00    -0.064 C 
ATOM      8  C   UNL     1      -0.738   2.769  -0.701  1.00  0.00     0.015 C 
ATOM      9  C   UNL     1      -1.319   4.124  -1.208  1.00  0.00    -0.035 C 
ATOM     10  C   UNL     1      -1.080  -0.297   1.401  1.00  0.00    -0.006 C 
ATOM     11  C   UNL     1      -0.880  -0.238  -1.083  1.00  0.00    -0.027 C 
ATOM     12  C   UNL     1      -1.755   3.988  -2.685  1.00  0.00     0.011 C 
ATOM     13  C   UNL     1      -0.207   5.195  -1.137  1.00  0.00     0.011 C 
ATOM     14  C   UNL     1      -2.162  -1.437   1.354  1.00  0.00     0.017 C 
ATOM     15  C   UNL     1       0.459  -0.871   1.529  1.00  0.00    -0.020 C 
ATOM     16  C   UNL     1       0.139  -1.349  -0.991  1.00  0.00     0.032 C 
ATOM     17  C   UNL     1       1.144  -0.953   0.110  1.00  0.00     0.006 C 
ATOM     18  C   UNL     1       1.413   0.060   2.372  1.00  0.00     0.008 C 
ATOM     19  C   UNL     1       0.398  -2.259   2.244  1.00  0.00     0.012 C 
ATOM     20  C   UNL     1       2.600  -1.578   0.010  1.00  0.00    -0.025 C 
ATOM     21  C   UNL     1       2.914   0.098   1.956  1.00  0.00     0.005 C 
ATOM     22  C   UNL     1       3.444  -1.225   1.322  1.00  0.00     0.003 C 
ATOM     23  C   UNL     1       3.262  -1.004  -1.311  1.00  0.00     0.010 C 
ATOM     24  C   UNL     1       2.517  -3.125  -0.138  1.00  0.00     0.012 C 
ATOM     25  C   UNL     1       5.050  -1.335   1.183  1.00  0.00    -0.006 C 
ATOM     26  C   UNL     1       4.641  -0.383  -1.129  1.00  0.00     0.033 C 
ATOM     27  C   UNL     1       5.518  -1.317  -0.311  1.00  0.00     0.120 C 
ATOM     28  C   UNL     1       5.792  -0.220   1.974  1.00  0.00     0.014 C 
ATOM     29  C   UNL     1       5.529  -2.676   1.802  1.00  0.00     0.014 C 
ENDROOT
BRANCH   1  30
ATOM     30  C   UNL     1      -3.946   1.987   1.241  1.00  0.00     0.048 C 
ATOM     31  O   UNL     1      -4.851   2.472   0.515  1.00  0.00    -0.550 OA
ATOM     32  O   UNL     1      -4.295   0.976   2.132  1.00  0.00    -0.550 OA
ENDBRANCH   1  30
BRANCH  27  33
ATOM     33  O   UNL     1       6.859  -0.904  -0.442  1.00  0.00    -0.393 OA
ATOM     34  H   UNL     1       6.965  -0.070   0.091  1.00  0.00     0.210 HD
ENDBRANCH  27  33
TORSDOF 2
ENDMDL
