MODEL 1
REMARK VINA RESULT:    -3.828      0.000      0.000
REMARK INTER + INTRA:         -11.301
REMARK INTER:                  -8.304
REMARK INTRA:                  -2.997
REMARK UNBOUND:                -2.997
REMARK SMILES CCCCCCCCCCCCCCCCCCCCCC(=O)[O-]
REMARK SMILES IDX 12 1 11 2 10 3 9 4 8 5 7 6 6 7 5 8 4 9 3 10 2 11 1 12 13 13
REMARK SMILES IDX 14 14 15 15 16 16 17 17 18 18 19 19 20 20 21 21 22 22 23 23
REMARK SMILES IDX 24 24
REMARK H PARENT
REMARK Flexibility Score: inf
ROOT
ATOM      1  C   UNL     1      98.805 -68.614   3.806  1.00  0.00     0.000 C 
ENDROOT
BRANCH   1   2
ATOM      2  C   UNL     1      99.533 -69.165   5.043  1.00  0.00     0.000 C 
BRANCH   2   3
ATOM      3  C   UNL     1     100.615 -68.211   5.577  1.00  0.00     0.000 C 
BRANCH   3   4
ATOM      4  C   UNL     1     101.213 -68.647   6.931  1.00  0.00    -0.000 C 
BRANCH   4   5
ATOM      5  C   UNL     1     101.557 -67.447   7.831  1.00  0.00    -0.000 C 
BRANCH   5   6
ATOM      6  C   UNL     1     100.735 -66.196   7.483  1.00  0.00    -0.000 C 
BRANCH   6   7
ATOM      7  C   UNL     1     100.771 -65.137   8.599  1.00  0.00    -0.000 C 
BRANCH   7   8
ATOM      8  C   UNL     1     100.073 -65.612   9.890  1.00  0.00    -0.000 C 
BRANCH   8   9
ATOM      9  C   UNL     1     100.968 -65.549  11.143  1.00  0.00    -0.000 C 
BRANCH   9  10
ATOM     10  C   UNL     1     101.379 -66.916  11.723  1.00  0.00    -0.000 C 
BRANCH  10  11
ATOM     11  C   UNL     1     100.565 -68.113  11.196  1.00  0.00    -0.003 C 
ATOM     12  C   UNL     1     101.410 -69.374  11.017  1.00  0.00     0.004 C 
ENDBRANCH  10  11
ENDBRANCH   9  10
ENDBRANCH   8   9
ENDBRANCH   7   8
ENDBRANCH   6   7
ENDBRANCH   5   6
ENDBRANCH   4   5
ENDBRANCH   3   4
ENDBRANCH   2   3
ENDBRANCH   1   2
BRANCH   1  13
ATOM     13  C   UNL     1      97.653 -67.659   4.188  1.00  0.00     0.000 C 
BRANCH  13  14
ATOM     14  C   UNL     1      97.659 -66.336   3.401  1.00  0.00     0.000 C 
BRANCH  14  15
ATOM     15  C   UNL     1      98.246 -65.164   4.203  1.00  0.00     0.000 C 
BRANCH  15  16
ATOM     16  C   UNL     1      99.763 -65.012   4.002  1.00  0.00     0.000 C 
BRANCH  16  17
ATOM     17  C   UNL     1     100.197 -65.290   2.556  1.00  0.00     0.000 C 
BRANCH  17  18
ATOM     18  C   UNL     1     101.369 -66.283   2.517  1.00  0.00     0.000 C 
BRANCH  18  19
ATOM     19  C   UNL     1     101.236 -67.311   1.383  1.00  0.00     0.000 C 
BRANCH  19  20
ATOM     20  C   UNL     1      99.968 -67.100   0.540  1.00  0.00     0.006 C 
BRANCH  20  21
ATOM     21  C   UNL     1      99.925 -68.024  -0.684  1.00  0.00     0.053 C 
BRANCH  21  22
ATOM     22  C   UNL     1      98.897 -69.104  -0.532  1.00  0.00     0.041 C 
ATOM     23  O   UNL     1      98.860 -69.801   0.517  1.00  0.00    -0.550 OA
ATOM     24  O   UNL     1      97.963 -69.321  -1.537  1.00  0.00    -0.550 OA
ENDBRANCH  21  22
ENDBRANCH  20  21
ENDBRANCH  19  20
ENDBRANCH  18  19
ENDBRANCH  17  18
ENDBRANCH  16  17
ENDBRANCH  15  16
ENDBRANCH  14  15
ENDBRANCH  13  14
ENDBRANCH   1  13
TORSDOF 20
ENDMDL
MODEL 2
REMARK VINA RESULT:    -3.754      1.204      2.202
REMARK INTER + INTRA:         -11.141
REMARK INTER:                  -7.898
REMARK INTRA:                  -3.243
REMARK UNBOUND:                -2.997
REMARK SMILES CCCCCCCCCCCCCCCCCCCCCC(=O)[O-]
REMARK SMILES IDX 12 1 11 2 10 3 9 4 8 5 7 6 6 7 5 8 4 9 3 10 2 11 1 12 13 13
REMARK SMILES IDX 14 14 15 15 16 16 17 17 18 18 19 19 20 20 21 21 22 22 23 23
REMARK SMILES IDX 24 24
REMARK H PARENT
REMARK Flexibility Score: inf
ROOT
ATOM      1  C   UNL     1      97.717 -67.519   3.899  1.00  0.00     0.000 C 
ENDROOT
BRANCH   1   2
ATOM      2  C   UNL     1      98.781 -68.622   3.771  1.00  0.00     0.000 C 
BRANCH   2   3
ATOM      3  C   UNL     1      99.454 -68.964   5.111  1.00  0.00     0.000 C 
BRANCH   3   4
ATOM      4  C   UNL     1     100.929 -69.398   4.971  1.00  0.00    -0.000 C 
BRANCH   4   5
ATOM      5  C   UNL     1     101.742 -69.123   6.248  1.00  0.00    -0.000 C 
BRANCH   5   6
ATOM      6  C   UNL     1     102.043 -67.628   6.443  1.00  0.00    -0.000 C 
BRANCH   6   7
ATOM      7  C   UNL     1     101.444 -67.070   7.746  1.00  0.00    -0.000 C 
BRANCH   7   8
ATOM      8  C   UNL     1     101.420 -68.114   8.882  1.00  0.00    -0.000 C 
BRANCH   8   9
ATOM      9  C   UNL     1     100.292 -67.893   9.908  1.00  0.00    -0.000 C 
BRANCH   9  10
ATOM     10  C   UNL     1     100.712 -67.159  11.196  1.00  0.00    -0.000 C 
BRANCH  10  11
ATOM     11  C   UNL     1      99.960 -65.842  11.464  1.00  0.00    -0.003 C 
ATOM     12  C   UNL     1      99.946 -64.908  10.254  1.00  0.00     0.004 C 
ENDBRANCH  10  11
ENDBRANCH   9  10
ENDBRANCH   8   9
ENDBRANCH   7   8
ENDBRANCH   6   7
ENDBRANCH   5   6
ENDBRANCH   4   5
ENDBRANCH   3   4
ENDBRANCH   2   3
ENDBRANCH   1   2
BRANCH   1  13
ATOM     13  C   UNL     1      98.206 -66.172   3.323  1.00  0.00     0.000 C 
BRANCH  13  14
ATOM     14  C   UNL     1      98.835 -65.241   4.375  1.00  0.00     0.000 C 
BRANCH  14  15
ATOM     15  C   UNL     1     100.367 -65.174   4.276  1.00  0.00     0.000 C 
BRANCH  15  16
ATOM     16  C   UNL     1     100.883 -65.495   2.864  1.00  0.00     0.000 C 
BRANCH  16  17
ATOM     17  C   UNL     1     101.926 -66.621   2.859  1.00  0.00     0.000 C 
BRANCH  17  18
ATOM     18  C   UNL     1     101.666 -67.604   1.706  1.00  0.00     0.000 C 
BRANCH  18  19
ATOM     19  C   UNL     1     100.871 -66.968   0.555  1.00  0.00     0.000 C 
BRANCH  19  20
ATOM     20  C   UNL     1      99.584 -67.742   0.227  1.00  0.00     0.006 C 
BRANCH  20  21
ATOM     21  C   UNL     1      98.657 -66.957  -0.710  1.00  0.00     0.053 C 
BRANCH  21  22
ATOM     22  C   UNL     1      98.244 -67.771  -1.898  1.00  0.00     0.041 C 
ATOM     23  O   UNL     1      98.983 -68.700  -2.318  1.00  0.00    -0.550 OA
ATOM     24  O   UNL     1      97.028 -67.523  -2.522  1.00  0.00    -0.550 OA
ENDBRANCH  21  22
ENDBRANCH  20  21
ENDBRANCH  19  20
ENDBRANCH  18  19
ENDBRANCH  17  18
ENDBRANCH  16  17
ENDBRANCH  15  16
ENDBRANCH  14  15
ENDBRANCH  13  14
ENDBRANCH   1  13
TORSDOF 20
ENDMDL
MODEL 3
REMARK VINA RESULT:    -3.680      1.907      3.157
REMARK INTER + INTRA:         -10.979
REMARK INTER:                  -8.181
REMARK INTRA:                  -2.798
REMARK UNBOUND:                -2.997
REMARK SMILES CCCCCCCCCCCCCCCCCCCCCC(=O)[O-]
REMARK SMILES IDX 12 1 11 2 10 3 9 4 8 5 7 6 6 7 5 8 4 9 3 10 2 11 1 12 13 13
REMARK SMILES IDX 14 14 15 15 16 16 17 17 18 18 19 19 20 20 21 21 22 22 23 23
REMARK SMILES IDX 24 24
REMARK H PARENT
REMARK Flexibility Score: inf
ROOT
ATOM      1  C   UNL     1      97.253 -67.498   4.027  1.00  0.00     0.000 C 
ENDROOT
BRANCH   1   2
ATOM      2  C   UNL     1      98.315 -68.280   3.237  1.00  0.00     0.000 C 
BRANCH   2   3
ATOM      3  C   UNL     1      99.543 -68.650   4.086  1.00  0.00     0.000 C 
BRANCH   3   4
ATOM      4  C   UNL     1     100.887 -68.263   3.433  1.00  0.00    -0.000 C 
BRANCH   4   5
ATOM      5  C   UNL     1     101.720 -67.324   4.323  1.00  0.00    -0.000 C 
BRANCH   5   6
ATOM      6  C   UNL     1     100.873 -66.204   4.951  1.00  0.00    -0.000 C 
BRANCH   6   7
ATOM      7  C   UNL     1     100.783 -66.321   6.483  1.00  0.00    -0.000 C 
BRANCH   7   8
ATOM      8  C   UNL     1     101.743 -67.386   7.054  1.00  0.00    -0.000 C 
BRANCH   8   9
ATOM      9  C   UNL     1     101.029 -68.614   7.651  1.00  0.00    -0.000 C 
BRANCH   9  10
ATOM     10  C   UNL     1     100.938 -68.635   9.189  1.00  0.00    -0.000 C 
BRANCH  10  11
ATOM     11  C   UNL     1     100.735 -67.256   9.843  1.00  0.00    -0.003 C 
ATOM     12  C   UNL     1      99.960 -67.329  11.159  1.00  0.00     0.004 C 
ENDBRANCH  10  11
ENDBRANCH   9  10
ENDBRANCH   8   9
ENDBRANCH   7   8
ENDBRANCH   6   7
ENDBRANCH   5   6
ENDBRANCH   4   5
ENDBRANCH   3   4
ENDBRANCH   2   3
ENDBRANCH   1   2
BRANCH   1  13
ATOM     13  C   UNL     1      96.990 -66.102   3.422  1.00  0.00     0.000 C 
BRANCH  13  14
ATOM     14  C   UNL     1      98.118 -65.606   2.500  1.00  0.00     0.000 C 
BRANCH  14  15
ATOM     15  C   UNL     1      97.613 -65.184   1.110  1.00  0.00     0.000 C 
BRANCH  15  16
ATOM     16  C   UNL     1      98.627 -65.489  -0.004  1.00  0.00     0.000 C 
BRANCH  16  17
ATOM     17  C   UNL     1      99.852 -66.260   0.508  1.00  0.00     0.000 C 
BRANCH  17  18
ATOM     18  C   UNL     1     100.138 -67.484  -0.375  1.00  0.00     0.000 C 
BRANCH  18  19
ATOM     19  C   UNL     1      98.989 -68.505  -0.361  1.00  0.00     0.000 C 
BRANCH  19  20
ATOM     20  C   UNL     1      98.519 -68.886  -1.774  1.00  0.00     0.006 C 
BRANCH  20  21
ATOM     21  C   UNL     1      97.345 -68.019  -2.248  1.00  0.00     0.053 C 
BRANCH  21  22
ATOM     22  C   UNL     1      97.677 -67.269  -3.502  1.00  0.00     0.041 C 
ATOM     23  O   UNL     1      98.753 -67.500  -4.114  1.00  0.00    -0.550 OA
ATOM     24  O   UNL     1      96.783 -66.334  -4.008  1.00  0.00    -0.550 OA
ENDBRANCH  21  22
ENDBRANCH  20  21
ENDBRANCH  19  20
ENDBRANCH  18  19
ENDBRANCH  17  18
ENDBRANCH  16  17
ENDBRANCH  15  16
ENDBRANCH  14  15
ENDBRANCH  13  14
ENDBRANCH   1  13
TORSDOF 20
ENDMDL
MODEL 4
REMARK VINA RESULT:    -3.652      1.593      2.194
REMARK INTER + INTRA:         -10.918
REMARK INTER:                  -7.852
REMARK INTRA:                  -3.065
REMARK UNBOUND:                -2.997
REMARK SMILES CCCCCCCCCCCCCCCCCCCCCC(=O)[O-]
REMARK SMILES IDX 12 1 11 2 10 3 9 4 8 5 7 6 6 7 5 8 4 9 3 10 2 11 1 12 13 13
REMARK SMILES IDX 14 14 15 15 16 16 17 17 18 18 19 19 20 20 21 21 22 22 23 23
REMARK SMILES IDX 24 24
REMARK H PARENT
REMARK Flexibility Score: inf
ROOT
ATOM      1  C   UNL     1      99.018 -68.524   3.763  1.00  0.00     0.000 C 
ENDROOT
BRANCH   1   2
ATOM      2  C   UNL     1      99.487 -69.180   5.072  1.00  0.00     0.000 C 
BRANCH   2   3
ATOM      3  C   UNL     1     100.962 -68.887   5.395  1.00  0.00     0.000 C 
BRANCH   3   4
ATOM      4  C   UNL     1     101.649 -67.959   4.372  1.00  0.00    -0.000 C 
BRANCH   4   5
ATOM      5  C   UNL     1     102.125 -66.640   5.006  1.00  0.00    -0.000 C 
BRANCH   5   6
ATOM      6  C   UNL     1     100.991 -65.612   5.147  1.00  0.00    -0.000 C 
BRANCH   6   7
ATOM      7  C   UNL     1     100.614 -65.346   6.615  1.00  0.00    -0.000 C 
BRANCH   7   8
ATOM      8  C   UNL     1     101.614 -65.975   7.608  1.00  0.00    -0.000 C 
BRANCH   8   9
ATOM      9  C   UNL     1     100.952 -66.598   8.851  1.00  0.00    -0.000 C 
BRANCH   9  10
ATOM     10  C   UNL     1     100.999 -68.136   8.917  1.00  0.00    -0.000 C 
BRANCH  10  11
ATOM     11  C   UNL     1     100.493 -68.742  10.240  1.00  0.00    -0.003 C 
ATOM     12  C   UNL     1     100.044 -67.683  11.246  1.00  0.00     0.004 C 
ENDBRANCH  10  11
ENDBRANCH   9  10
ENDBRANCH   8   9
ENDBRANCH   7   8
ENDBRANCH   6   7
ENDBRANCH   5   6
ENDBRANCH   4   5
ENDBRANCH   3   4
ENDBRANCH   2   3
ENDBRANCH   1   2
BRANCH   1  13
ATOM     13  C   UNL     1      97.689 -67.757   3.941  1.00  0.00     0.000 C 
BRANCH  13  14
ATOM     14  C   UNL     1      97.850 -66.227   3.920  1.00  0.00     0.000 C 
BRANCH  14  15
ATOM     15  C   UNL     1      97.015 -65.552   2.820  1.00  0.00     0.000 C 
BRANCH  15  16
ATOM     16  C   UNL     1      97.880 -65.002   1.675  1.00  0.00     0.000 C 
BRANCH  16  17
ATOM     17  C   UNL     1      99.380 -65.231   1.906  1.00  0.00     0.000 C 
BRANCH  17  18
ATOM     18  C   UNL     1     100.055 -65.772   0.637  1.00  0.00     0.000 C 
BRANCH  18  19
ATOM     19  C   UNL     1     100.238 -67.298   0.668  1.00  0.00     0.000 C 
BRANCH  19  20
ATOM     20  C   UNL     1      99.074 -68.046  -0.001  1.00  0.00     0.006 C 
BRANCH  20  21
ATOM     21  C   UNL     1      99.302 -68.248  -1.505  1.00  0.00     0.053 C 
BRANCH  21  22
ATOM     22  C   UNL     1      98.280 -67.522  -2.326  1.00  0.00     0.041 C 
ATOM     23  O   UNL     1      98.093 -67.840  -3.531  1.00  0.00    -0.550 OA
ATOM     24  O   UNL     1      97.515 -66.515  -1.752  1.00  0.00    -0.550 OA
ENDBRANCH  21  22
ENDBRANCH  20  21
ENDBRANCH  19  20
ENDBRANCH  18  19
ENDBRANCH  17  18
ENDBRANCH  16  17
ENDBRANCH  15  16
ENDBRANCH  14  15
ENDBRANCH  13  14
ENDBRANCH   1  13
TORSDOF 20
ENDMDL
MODEL 5
REMARK VINA RESULT:    -3.595      3.643      9.187
REMARK INTER + INTRA:         -10.794
REMARK INTER:                  -8.046
REMARK INTRA:                  -2.749
REMARK UNBOUND:                -2.997
REMARK SMILES CCCCCCCCCCCCCCCCCCCCCC(=O)[O-]
REMARK SMILES IDX 12 1 11 2 10 3 9 4 8 5 7 6 6 7 5 8 4 9 3 10 2 11 1 12 13 13
REMARK SMILES IDX 14 14 15 15 16 16 17 17 18 18 19 19 20 20 21 21 22 22 23 23
REMARK SMILES IDX 24 24
REMARK H PARENT
REMARK Flexibility Score: inf
ROOT
ATOM      1  C   UNL     1      98.829 -65.375   4.370  1.00  0.00     0.000 C 
ENDROOT
BRANCH   1   2
ATOM      2  C   UNL     1     100.254 -65.252   3.806  1.00  0.00     0.000 C 
BRANCH   2   3
ATOM      3  C   UNL     1     100.340 -65.602   2.310  1.00  0.00     0.000 C 
BRANCH   3   4
ATOM      4  C   UNL     1     101.463 -66.604   1.970  1.00  0.00    -0.000 C 
BRANCH   4   5
ATOM      5  C   UNL     1     101.148 -67.430   0.712  1.00  0.00    -0.000 C 
BRANCH   5   6
ATOM      6  C   UNL     1      99.662 -67.366   0.323  1.00  0.00    -0.000 C 
BRANCH   6   7
ATOM      7  C   UNL     1      99.078 -68.750  -0.010  1.00  0.00    -0.000 C 
BRANCH   7   8
ATOM      8  C   UNL     1      98.445 -68.805  -1.417  1.00  0.00    -0.000 C 
BRANCH   8   9
ATOM      9  C   UNL     1      98.507 -67.469  -2.182  1.00  0.00    -0.000 C 
BRANCH   9  10
ATOM     10  C   UNL     1      97.919 -67.502  -3.605  1.00  0.00    -0.000 C 
BRANCH  10  11
ATOM     11  C   UNL     1      98.941 -67.789  -4.721  1.00  0.00    -0.003 C 
ATOM     12  C   UNL     1     100.377 -67.460  -4.312  1.00  0.00     0.004 C 
ENDBRANCH  10  11
ENDBRANCH   9  10
ENDBRANCH   8   9
ENDBRANCH   7   8
ENDBRANCH   6   7
ENDBRANCH   5   6
ENDBRANCH   4   5
ENDBRANCH   3   4
ENDBRANCH   2   3
ENDBRANCH   1   2
BRANCH   1  13
ATOM     13  C   UNL     1      97.914 -66.219   3.456  1.00  0.00     0.000 C 
BRANCH  13  14
ATOM     14  C   UNL     1      97.631 -67.631   3.998  1.00  0.00     0.000 C 
BRANCH  14  15
ATOM     15  C   UNL     1      98.754 -68.631   3.677  1.00  0.00     0.000 C 
BRANCH  15  16
ATOM     16  C   UNL     1      99.588 -68.999   4.915  1.00  0.00     0.000 C 
BRANCH  16  17
ATOM     17  C   UNL     1     101.098 -68.969   4.638  1.00  0.00     0.000 C 
BRANCH  17  18
ATOM     18  C   UNL     1     101.874 -68.495   5.876  1.00  0.00     0.000 C 
BRANCH  18  19
ATOM     19  C   UNL     1     100.959 -67.876   6.946  1.00  0.00     0.000 C 
BRANCH  19  20
ATOM     20  C   UNL     1     100.991 -68.652   8.272  1.00  0.00     0.006 C 
BRANCH  20  21
ATOM     21  C   UNL     1     101.487 -67.788   9.439  1.00  0.00     0.053 C 
BRANCH  21  22
ATOM     22  C   UNL     1     100.524 -67.793  10.586  1.00  0.00     0.041 C 
ATOM     23  O   UNL     1      99.869 -66.755  10.869  1.00  0.00    -0.550 OA
ATOM     24  O   UNL     1     100.329 -68.953  11.324  1.00  0.00    -0.550 OA
ENDBRANCH  21  22
ENDBRANCH  20  21
ENDBRANCH  19  20
ENDBRANCH  18  19
ENDBRANCH  17  18
ENDBRANCH  16  17
ENDBRANCH  15  16
ENDBRANCH  14  15
ENDBRANCH  13  14
ENDBRANCH   1  13
TORSDOF 20
ENDMDL
MODEL 6
REMARK VINA RESULT:    -3.538      1.621      2.914
REMARK INTER + INTRA:         -10.670
REMARK INTER:                  -8.432
REMARK INTRA:                  -2.239
REMARK UNBOUND:                -2.997
REMARK SMILES CCCCCCCCCCCCCCCCCCCCCC(=O)[O-]
REMARK SMILES IDX 12 1 11 2 10 3 9 4 8 5 7 6 6 7 5 8 4 9 3 10 2 11 1 12 13 13
REMARK SMILES IDX 14 14 15 15 16 16 17 17 18 18 19 19 20 20 21 21 22 22 23 23
REMARK SMILES IDX 24 24
REMARK H PARENT
REMARK Flexibility Score: inf
ROOT
ATOM      1  C   UNL     1     100.514 -65.708   5.117  1.00  0.00     0.000 C 
ENDROOT
BRANCH   1   2
ATOM      2  C   UNL     1     101.635 -66.440   4.360  1.00  0.00     0.000 C 
BRANCH   2   3
ATOM      3  C   UNL     1     101.715 -67.937   4.706  1.00  0.00     0.000 C 
BRANCH   3   4
ATOM      4  C   UNL     1     100.602 -68.413   5.663  1.00  0.00    -0.000 C 
BRANCH   4   5
ATOM      5  C   UNL     1     101.076 -69.540   6.596  1.00  0.00    -0.000 C 
BRANCH   5   6
ATOM      6  C   UNL     1     101.893 -69.014   7.787  1.00  0.00    -0.000 C 
BRANCH   6   7
ATOM      7  C   UNL     1     101.116 -67.985   8.627  1.00  0.00    -0.000 C 
BRANCH   7   8
ATOM      8  C   UNL     1     100.413 -68.622   9.845  1.00  0.00    -0.000 C 
BRANCH   8   9
ATOM      9  C   UNL     1     101.099 -68.318  11.190  1.00  0.00    -0.000 C 
BRANCH   9  10
ATOM     10  C   UNL     1     101.093 -66.835  11.609  1.00  0.00    -0.000 C 
BRANCH  10  11
ATOM     11  C   UNL     1      99.775 -66.090  11.326  1.00  0.00    -0.003 C 
ATOM     12  C   UNL     1      99.952 -64.910  10.370  1.00  0.00     0.004 C 
ENDBRANCH  10  11
ENDBRANCH   9  10
ENDBRANCH   8   9
ENDBRANCH   7   8
ENDBRANCH   6   7
ENDBRANCH   5   6
ENDBRANCH   4   5
ENDBRANCH   3   4
ENDBRANCH   2   3
ENDBRANCH   1   2
BRANCH   1  13
ATOM     13  C   UNL     1      99.597 -64.909   4.165  1.00  0.00     0.000 C 
BRANCH  13  14
ATOM     14  C   UNL     1      98.102 -65.235   4.329  1.00  0.00     0.000 C 
BRANCH  14  15
ATOM     15  C   UNL     1      97.581 -66.210   3.261  1.00  0.00     0.000 C 
BRANCH  15  16
ATOM     16  C   UNL     1      97.543 -67.664   3.756  1.00  0.00     0.000 C 
BRANCH  16  17
ATOM     17  C   UNL     1      98.479 -68.583   2.959  1.00  0.00     0.000 C 
BRANCH  17  18
ATOM     18  C   UNL     1      99.063 -67.849   1.742  1.00  0.00     0.000 C 
BRANCH  18  19
ATOM     19  C   UNL     1      98.944 -68.665   0.445  1.00  0.00     0.000 C 
BRANCH  19  20
ATOM     20  C   UNL     1      98.994 -67.783  -0.814  1.00  0.00     0.006 C 
BRANCH  20  21
ATOM     21  C   UNL     1      98.928 -68.611  -2.104  1.00  0.00     0.053 C 
BRANCH  21  22
ATOM     22  C   UNL     1      98.179 -67.896  -3.187  1.00  0.00     0.041 C 
ATOM     23  O   UNL     1      97.169 -67.197  -2.906  1.00  0.00    -0.550 OA
ATOM     24  O   UNL     1      98.613 -67.979  -4.504  1.00  0.00    -0.550 OA
ENDBRANCH  21  22
ENDBRANCH  20  21
ENDBRANCH  19  20
ENDBRANCH  18  19
ENDBRANCH  17  18
ENDBRANCH  16  17
ENDBRANCH  15  16
ENDBRANCH  14  15
ENDBRANCH  13  14
ENDBRANCH   1  13
TORSDOF 20
ENDMDL
MODEL 7
REMARK VINA RESULT:    -3.504      1.863      3.958
REMARK INTER + INTRA:         -10.598
REMARK INTER:                  -7.332
REMARK INTRA:                  -3.266
REMARK UNBOUND:                -2.997
REMARK SMILES CCCCCCCCCCCCCCCCCCCCCC(=O)[O-]
REMARK SMILES IDX 12 1 11 2 10 3 9 4 8 5 7 6 6 7 5 8 4 9 3 10 2 11 1 12 13 13
REMARK SMILES IDX 14 14 15 15 16 16 17 17 18 18 19 19 20 20 21 21 22 22 23 23
REMARK SMILES IDX 24 24
REMARK H PARENT
REMARK Flexibility Score: inf
ROOT
ATOM      1  C   UNL     1      98.478 -68.060   3.199  1.00  0.00     0.000 C 
ENDROOT
BRANCH   1   2
ATOM      2  C   UNL     1      98.329 -66.569   3.547  1.00  0.00     0.000 C 
BRANCH   2   3
ATOM      3  C   UNL     1      99.438 -66.058   4.482  1.00  0.00     0.000 C 
BRANCH   3   4
ATOM      4  C   UNL     1     100.581 -65.327   3.747  1.00  0.00    -0.000 C 
BRANCH   4   5
ATOM      5  C   UNL     1     101.847 -66.193   3.630  1.00  0.00    -0.000 C 
BRANCH   5   6
ATOM      6  C   UNL     1     101.985 -67.195   4.788  1.00  0.00    -0.000 C 
BRANCH   6   7
ATOM      7  C   UNL     1     101.968 -68.657   4.309  1.00  0.00    -0.000 C 
BRANCH   7   8
ATOM      8  C   UNL     1     101.401 -69.623   5.371  1.00  0.00    -0.000 C 
BRANCH   8   9
ATOM      9  C   UNL     1     100.648 -68.919   6.516  1.00  0.00    -0.000 C 
BRANCH   9  10
ATOM     10  C   UNL     1     101.294 -69.058   7.908  1.00  0.00    -0.000 C 
BRANCH  10  11
ATOM     11  C   UNL     1     100.736 -68.101   8.978  1.00  0.00    -0.003 C 
ATOM     12  C   UNL     1     100.761 -68.701  10.384  1.00  0.00     0.004 C 
ENDBRANCH  10  11
ENDBRANCH   9  10
ENDBRANCH   8   9
ENDBRANCH   7   8
ENDBRANCH   6   7
ENDBRANCH   5   6
ENDBRANCH   4   5
ENDBRANCH   3   4
ENDBRANCH   2   3
ENDBRANCH   1   2
BRANCH   1  13
ATOM     13  C   UNL     1      99.138 -68.271   1.819  1.00  0.00     0.000 C 
BRANCH  13  14
ATOM     14  C   UNL     1      98.933 -67.093   0.850  1.00  0.00     0.000 C 
BRANCH  14  15
ATOM     15  C   UNL     1     100.253 -66.556   0.273  1.00  0.00     0.000 C 
BRANCH  15  16
ATOM     16  C   UNL     1     101.380 -67.601   0.305  1.00  0.00     0.000 C 
BRANCH  16  17
ATOM     17  C   UNL     1     101.781 -68.079  -1.098  1.00  0.00     0.000 C 
BRANCH  17  18
ATOM     18  C   UNL     1     102.009 -66.887  -2.040  1.00  0.00     0.000 C 
BRANCH  18  19
ATOM     19  C   UNL     1     101.435 -67.126  -3.446  1.00  0.00     0.000 C 
BRANCH  19  20
ATOM     20  C   UNL     1     100.004 -66.585  -3.600  1.00  0.00     0.006 C 
BRANCH  20  21
ATOM     21  C   UNL     1      99.001 -67.690  -3.954  1.00  0.00     0.053 C 
BRANCH  21  22
ATOM     22  C   UNL     1      98.175 -68.094  -2.771  1.00  0.00     0.041 C 
ATOM     23  O   UNL     1      98.560 -69.028  -2.018  1.00  0.00    -0.550 OA
ATOM     24  O   UNL     1      96.995 -67.420  -2.484  1.00  0.00    -0.550 OA
ENDBRANCH  21  22
ENDBRANCH  20  21
ENDBRANCH  19  20
ENDBRANCH  18  19
ENDBRANCH  17  18
ENDBRANCH  16  17
ENDBRANCH  15  16
ENDBRANCH  14  15
ENDBRANCH  13  14
ENDBRANCH   1  13
TORSDOF 20
ENDMDL
MODEL 8
REMARK VINA RESULT:    -3.422      3.702      8.914
REMARK INTER + INTRA:         -10.421
REMARK INTER:                  -7.801
REMARK INTRA:                  -2.620
REMARK UNBOUND:                -2.997
REMARK SMILES CCCCCCCCCCCCCCCCCCCCCC(=O)[O-]
REMARK SMILES IDX 12 1 11 2 10 3 9 4 8 5 7 6 6 7 5 8 4 9 3 10 2 11 1 12 13 13
REMARK SMILES IDX 14 14 15 15 16 16 17 17 18 18 19 19 20 20 21 21 22 22 23 23
REMARK SMILES IDX 24 24
REMARK H PARENT
REMARK Flexibility Score: inf
ROOT
ATOM      1  C   UNL     1      97.240 -67.374   3.880  1.00  0.00     0.000 C 
ENDROOT
BRANCH   1   2
ATOM      2  C   UNL     1      97.588 -65.877   3.804  1.00  0.00     0.000 C 
BRANCH   2   3
ATOM      3  C   UNL     1      96.925 -65.168   2.611  1.00  0.00     0.000 C 
BRANCH   3   4
ATOM      4  C   UNL     1      97.769 -65.204   1.320  1.00  0.00    -0.000 C 
BRANCH   4   5
ATOM      5  C   UNL     1      99.276 -65.320   1.610  1.00  0.00    -0.000 C 
BRANCH   5   6
ATOM      6  C   UNL     1     100.069 -65.844   0.402  1.00  0.00    -0.000 C 
BRANCH   6   7
ATOM      7  C   UNL     1     100.758 -67.190   0.686  1.00  0.00    -0.000 C 
BRANCH   7   8
ATOM      8  C   UNL     1     101.147 -67.942  -0.604  1.00  0.00    -0.000 C 
BRANCH   8   9
ATOM      9  C   UNL     1     100.331 -67.522  -1.841  1.00  0.00    -0.000 C 
BRANCH   9  10
ATOM     10  C   UNL     1      99.088 -68.385  -2.130  1.00  0.00    -0.000 C 
BRANCH  10  11
ATOM     11  C   UNL     1      97.869 -67.607  -2.661  1.00  0.00    -0.003 C 
ATOM     12  C   UNL     1      98.079 -66.093  -2.648  1.00  0.00     0.004 C 
ENDBRANCH  10  11
ENDBRANCH   9  10
ENDBRANCH   8   9
ENDBRANCH   7   8
ENDBRANCH   6   7
ENDBRANCH   5   6
ENDBRANCH   4   5
ENDBRANCH   3   4
ENDBRANCH   2   3
ENDBRANCH   1   2
BRANCH   1  13
ATOM     13  C   UNL     1      98.427 -68.268   3.459  1.00  0.00     0.000 C 
BRANCH  13  14
ATOM     14  C   UNL     1      99.226 -68.835   4.645  1.00  0.00     0.000 C 
BRANCH  14  15
ATOM     15  C   UNL     1     100.726 -68.509   4.568  1.00  0.00     0.000 C 
BRANCH  15  16
ATOM     16  C   UNL     1     100.998 -67.002   4.436  1.00  0.00     0.000 C 
BRANCH  16  17
ATOM     17  C   UNL     1     100.858 -66.259   5.772  1.00  0.00     0.000 C 
BRANCH  17  18
ATOM     18  C   UNL     1     101.769 -66.879   6.843  1.00  0.00     0.000 C 
BRANCH  18  19
ATOM     19  C   UNL     1     101.021 -67.184   8.150  1.00  0.00     0.000 C 
BRANCH  19  20
ATOM     20  C   UNL     1     100.996 -68.685   8.480  1.00  0.00     0.006 C 
BRANCH  20  21
ATOM     21  C   UNL     1     101.878 -69.029   9.689  1.00  0.00     0.053 C 
BRANCH  21  22
ATOM     22  C   UNL     1     101.071 -69.187  10.941  1.00  0.00     0.041 C 
ATOM     23  O   UNL     1      99.894 -68.741  10.998  1.00  0.00    -0.550 OA
ATOM     24  O   UNL     1     101.608 -69.854  12.034  1.00  0.00    -0.550 OA
ENDBRANCH  21  22
ENDBRANCH  20  21
ENDBRANCH  19  20
ENDBRANCH  18  19
ENDBRANCH  17  18
ENDBRANCH  16  17
ENDBRANCH  15  16
ENDBRANCH  14  15
ENDBRANCH  13  14
ENDBRANCH   1  13
TORSDOF 20
ENDMDL
MODEL 9
REMARK VINA RESULT:    -3.418      1.607      3.190
REMARK INTER + INTRA:         -10.412
REMARK INTER:                  -7.214
REMARK INTRA:                  -3.198
REMARK UNBOUND:                -2.997
REMARK SMILES CCCCCCCCCCCCCCCCCCCCCC(=O)[O-]
REMARK SMILES IDX 12 1 11 2 10 3 9 4 8 5 7 6 6 7 5 8 4 9 3 10 2 11 1 12 13 13
REMARK SMILES IDX 14 14 15 15 16 16 17 17 18 18 19 19 20 20 21 21 22 22 23 23
REMARK SMILES IDX 24 24
REMARK H PARENT
REMARK Flexibility Score: inf
ROOT
ATOM      1  C   UNL     1      97.201 -66.715   3.374  1.00  0.00     0.000 C 
ENDROOT
BRANCH   1   2
ATOM      2  C   UNL     1      97.506 -65.563   4.346  1.00  0.00     0.000 C 
BRANCH   2   3
ATOM      3  C   UNL     1      98.920 -64.985   4.167  1.00  0.00     0.000 C 
BRANCH   3   4
ATOM      4  C   UNL     1      99.831 -65.181   5.396  1.00  0.00    -0.000 C 
BRANCH   4   5
ATOM      5  C   UNL     1     101.323 -65.196   5.020  1.00  0.00    -0.000 C 
BRANCH   5   6
ATOM      6  C   UNL     1     101.994 -66.545   5.331  1.00  0.00    -0.000 C 
BRANCH   6   7
ATOM      7  C   UNL     1     101.055 -67.515   6.069  1.00  0.00    -0.000 C 
BRANCH   7   8
ATOM      8  C   UNL     1     101.727 -68.178   7.290  1.00  0.00    -0.000 C 
BRANCH   8   9
ATOM      9  C   UNL     1     100.732 -68.774   8.304  1.00  0.00    -0.000 C 
BRANCH   9  10
ATOM     10  C   UNL     1     100.787 -68.157   9.715  1.00  0.00    -0.000 C 
BRANCH  10  11
ATOM     11  C   UNL     1     100.629 -66.626   9.758  1.00  0.00    -0.003 C 
ATOM     12  C   UNL     1      99.874 -66.140  10.995  1.00  0.00     0.004 C 
ENDBRANCH  10  11
ENDBRANCH   9  10
ENDBRANCH   8   9
ENDBRANCH   7   8
ENDBRANCH   6   7
ENDBRANCH   5   6
ENDBRANCH   4   5
ENDBRANCH   3   4
ENDBRANCH   2   3
ENDBRANCH   1   2
BRANCH   1  13
ATOM     13  C   UNL     1      98.175 -67.899   3.553  1.00  0.00     0.000 C 
BRANCH  13  14
ATOM     14  C   UNL     1      98.959 -68.253   2.277  1.00  0.00     0.000 C 
BRANCH  14  15
ATOM     15  C   UNL     1     100.470 -68.004   2.414  1.00  0.00     0.000 C 
BRANCH  15  16
ATOM     16  C   UNL     1     101.074 -67.335   1.169  1.00  0.00     0.000 C 
BRANCH  16  17
ATOM     17  C   UNL     1     101.173 -65.809   1.309  1.00  0.00     0.000 C 
BRANCH  17  18
ATOM     18  C   UNL     1     100.360 -65.104   0.213  1.00  0.00     0.000 C 
BRANCH  18  19
ATOM     19  C   UNL     1      98.854 -65.075   0.522  1.00  0.00     0.000 C 
BRANCH  19  20
ATOM     20  C   UNL     1      97.997 -65.530  -0.671  1.00  0.00     0.006 C 
BRANCH  20  21
ATOM     21  C   UNL     1      98.770 -66.456  -1.620  1.00  0.00     0.053 C 
BRANCH  21  22
ATOM     22  C   UNL     1      97.932 -67.611  -2.077  1.00  0.00     0.041 C 
ATOM     23  O   UNL     1      96.958 -67.420  -2.854  1.00  0.00    -0.550 OA
ATOM     24  O   UNL     1      98.244 -68.901  -1.669  1.00  0.00    -0.550 OA
ENDBRANCH  21  22
ENDBRANCH  20  21
ENDBRANCH  19  20
ENDBRANCH  18  19
ENDBRANCH  17  18
ENDBRANCH  16  17
ENDBRANCH  15  16
ENDBRANCH  14  15
ENDBRANCH  13  14
ENDBRANCH   1  13
TORSDOF 20
ENDMDL
