MODEL 1
REMARK VINA RESULT:    -4.296      0.000      0.000
REMARK INTER + INTRA:          -7.971
REMARK INTER:                  -6.808
REMARK INTRA:                  -1.163
REMARK UNBOUND:                -1.163
REMARK SMILES CCCCCCCCCCCC(=O)[O-]
REMARK SMILES IDX 7 1 8 2 9 3 10 4 11 5 12 6 13 7 14 8 6 9 5 10 4 11 3 12 2 13
REMARK SMILES IDX 1 14
REMARK H PARENT
REMARK Flexibility Score: inf
ROOT
ATOM      1  C   UNL     1      14.592 -33.685  19.988  1.00  0.00     0.000 C 
ENDROOT
BRANCH   1   2
ATOM      2  C   UNL     1      14.211 -32.660  21.080  1.00  0.00     0.000 C 
BRANCH   2   3
ATOM      3  C   UNL     1      14.791 -32.995  22.464  1.00  0.00     0.000 C 
BRANCH   3   4
ATOM      4  C   UNL     1      14.226 -32.096  23.576  1.00  0.00     0.006 C 
BRANCH   4   5
ATOM      5  C   UNL     1      14.327 -30.606  23.224  1.00  0.00     0.053 C 
BRANCH   5   6
ATOM      6  C   UNL     1      13.005 -29.913  23.354  1.00  0.00     0.041 C 
ATOM      7  O   UNL     1      12.100 -30.110  22.500  1.00  0.00    -0.550 OA
ATOM      8  O   UNL     1      12.785 -29.023  24.397  1.00  0.00    -0.550 OA
ENDBRANCH   5   6
ENDBRANCH   4   5
ENDBRANCH   3   4
ENDBRANCH   2   3
ENDBRANCH   1   2
BRANCH   1   9
ATOM      9  C   UNL     1      15.414 -34.869  20.526  1.00  0.00     0.000 C 
BRANCH   9  10
ATOM     10  C   UNL     1      16.445 -35.373  19.505  1.00  0.00    -0.000 C 
BRANCH  10  11
ATOM     11  C   UNL     1      17.877 -35.140  20.010  1.00  0.00    -0.000 C 
BRANCH  11  12
ATOM     12  C   UNL     1      17.990 -33.930  20.957  1.00  0.00    -0.000 C 
BRANCH  12  13
ATOM     13  C   UNL     1      18.168 -32.573  20.253  1.00  0.00    -0.003 C 
ATOM     14  C   UNL     1      17.831 -31.384  21.152  1.00  0.00     0.004 C 
ENDBRANCH  12  13
ENDBRANCH  11  12
ENDBRANCH  10  11
ENDBRANCH   9  10
ENDBRANCH   1   9
TORSDOF 10
ENDMDL
MODEL 2
REMARK VINA RESULT:    -4.244      3.434      5.563
REMARK INTER + INTRA:          -7.888
REMARK INTER:                  -6.740
REMARK INTRA:                  -1.148
REMARK UNBOUND:                -1.163
REMARK SMILES CCCCCCCCCCCC(=O)[O-]
REMARK SMILES IDX 7 1 8 2 9 3 10 4 11 5 12 6 13 7 14 8 6 9 5 10 4 11 3 12 2 13
REMARK SMILES IDX 1 14
REMARK H PARENT
REMARK Flexibility Score: inf
ROOT
ATOM      1  C   UNL     1      13.313 -31.244  21.918  1.00  0.00     0.000 C 
ENDROOT
BRANCH   1   2
ATOM      2  C   UNL     1      13.700 -32.083  20.680  1.00  0.00     0.000 C 
BRANCH   2   3
ATOM      3  C   UNL     1      14.603 -33.284  21.011  1.00  0.00     0.000 C 
BRANCH   3   4
ATOM      4  C   UNL     1      15.074 -34.035  19.755  1.00  0.00     0.006 C 
BRANCH   4   5
ATOM      5  C   UNL     1      15.683 -35.403  20.092  1.00  0.00     0.053 C 
BRANCH   5   6
ATOM      6  C   UNL     1      17.025 -35.587  19.452  1.00  0.00     0.041 C 
ATOM      7  O   UNL     1      17.517 -36.741  19.335  1.00  0.00    -0.550 OA
ATOM      8  O   UNL     1      17.748 -34.483  19.019  1.00  0.00    -0.550 OA
ENDBRANCH   5   6
ENDBRANCH   4   5
ENDBRANCH   3   4
ENDBRANCH   2   3
ENDBRANCH   1   2
BRANCH   1   9
ATOM      9  C   UNL     1      13.983 -31.729  23.215  1.00  0.00     0.000 C 
BRANCH   9  10
ATOM     10  C   UNL     1      15.197 -30.869  23.600  1.00  0.00    -0.000 C 
BRANCH  10  11
ATOM     11  C   UNL     1      15.231 -29.570  22.780  1.00  0.00    -0.000 C 
BRANCH  11  12
ATOM     12  C   UNL     1      16.522 -29.415  21.955  1.00  0.00    -0.000 C 
BRANCH  12  13
ATOM     13  C   UNL     1      17.528 -30.571  22.104  1.00  0.00    -0.003 C 
ATOM     14  C   UNL     1      17.724 -31.363  20.812  1.00  0.00     0.004 C 
ENDBRANCH  12  13
ENDBRANCH  11  12
ENDBRANCH  10  11
ENDBRANCH   9  10
ENDBRANCH   1   9
TORSDOF 10
ENDMDL
MODEL 3
REMARK VINA RESULT:    -4.225      1.873      2.929
REMARK INTER + INTRA:          -7.858
REMARK INTER:                  -6.550
REMARK INTRA:                  -1.308
REMARK UNBOUND:                -1.163
REMARK SMILES CCCCCCCCCCCC(=O)[O-]
REMARK SMILES IDX 7 1 8 2 9 3 10 4 11 5 12 6 13 7 14 8 6 9 5 10 4 11 3 12 2 13
REMARK SMILES IDX 1 14
REMARK H PARENT
REMARK Flexibility Score: inf
ROOT
ATOM      1  C   UNL     1      14.978 -33.503  22.078  1.00  0.00     0.000 C 
ENDROOT
BRANCH   1   2
ATOM      2  C   UNL     1      14.362 -32.642  20.952  1.00  0.00     0.000 C 
BRANCH   2   3
ATOM      3  C   UNL     1      13.419 -31.542  21.468  1.00  0.00     0.000 C 
BRANCH   3   4
ATOM      4  C   UNL     1      13.630 -31.232  22.959  1.00  0.00     0.006 C 
BRANCH   4   5
ATOM      5  C   UNL     1      14.143 -29.804  23.186  1.00  0.00     0.053 C 
BRANCH   5   6
ATOM      6  C   UNL     1      15.606 -29.685  22.885  1.00  0.00     0.041 C 
ATOM      7  O   UNL     1      16.456 -30.196  23.662  1.00  0.00    -0.550 OA
ATOM      8  O   UNL     1      16.032 -28.978  21.767  1.00  0.00    -0.550 OA
ENDBRANCH   5   6
ENDBRANCH   4   5
ENDBRANCH   3   4
ENDBRANCH   2   3
ENDBRANCH   1   2
BRANCH   1   9
ATOM      9  C   UNL     1      16.508 -33.369  22.176  1.00  0.00     0.000 C 
BRANCH   9  10
ATOM     10  C   UNL     1      17.113 -32.687  20.939  1.00  0.00    -0.000 C 
BRANCH  10  11
ATOM     11  C   UNL     1      17.975 -33.672  20.136  1.00  0.00    -0.000 C 
BRANCH  11  12
ATOM     12  C   UNL     1      17.182 -34.409  19.041  1.00  0.00    -0.000 C 
BRANCH  12  13
ATOM     13  C   UNL     1      16.547 -35.738  19.487  1.00  0.00    -0.003 C 
ATOM     14  C   UNL     1      17.470 -36.576  20.371  1.00  0.00     0.004 C 
ENDBRANCH  12  13
ENDBRANCH  11  12
ENDBRANCH  10  11
ENDBRANCH   9  10
ENDBRANCH   1   9
TORSDOF 10
ENDMDL
MODEL 4
REMARK VINA RESULT:    -4.208      2.852      4.598
REMARK INTER + INTRA:          -7.831
REMARK INTER:                  -6.476
REMARK INTRA:                  -1.355
REMARK UNBOUND:                -1.163
REMARK SMILES CCCCCCCCCCCC(=O)[O-]
REMARK SMILES IDX 7 1 8 2 9 3 10 4 11 5 12 6 13 7 14 8 6 9 5 10 4 11 3 12 2 13
REMARK SMILES IDX 1 14
REMARK H PARENT
REMARK Flexibility Score: inf
ROOT
ATOM      1  C   UNL     1      14.580 -29.696  23.303  1.00  0.00     0.000 C 
ENDROOT
BRANCH   1   2
ATOM      2  C   UNL     1      13.765 -30.985  23.050  1.00  0.00     0.000 C 
BRANCH   2   3
ATOM      3  C   UNL     1      13.122 -31.039  21.654  1.00  0.00     0.000 C 
BRANCH   3   4
ATOM      4  C   UNL     1      13.765 -32.101  20.747  1.00  0.00     0.006 C 
BRANCH   4   5
ATOM      5  C   UNL     1      14.658 -33.070  21.532  1.00  0.00     0.053 C 
BRANCH   5   6
ATOM      6  C   UNL     1      15.335 -34.058  20.630  1.00  0.00     0.041 C 
ATOM      7  O   UNL     1      15.123 -34.029  19.389  1.00  0.00    -0.550 OA
ATOM      8  O   UNL     1      16.169 -35.031  21.165  1.00  0.00    -0.550 OA
ENDBRANCH   5   6
ENDBRANCH   4   5
ENDBRANCH   3   4
ENDBRANCH   2   3
ENDBRANCH   1   2
BRANCH   1   9
ATOM      9  C   UNL     1      16.091 -29.878  23.076  1.00  0.00     0.000 C 
BRANCH   9  10
ATOM     10  C   UNL     1      16.548 -29.318  21.721  1.00  0.00    -0.000 C 
BRANCH  10  11
ATOM     11  C   UNL     1      17.918 -29.889  21.326  1.00  0.00    -0.000 C 
BRANCH  11  12
ATOM     12  C   UNL     1      17.816 -31.231  20.577  1.00  0.00    -0.000 C 
BRANCH  12  13
ATOM     13  C   UNL     1      18.751 -32.336  21.099  1.00  0.00    -0.003 C 
ATOM     14  C   UNL     1      18.521 -32.666  22.574  1.00  0.00     0.004 C 
ENDBRANCH  12  13
ENDBRANCH  11  12
ENDBRANCH  10  11
ENDBRANCH   9  10
ENDBRANCH   1   9
TORSDOF 10
ENDMDL
MODEL 5
REMARK VINA RESULT:    -4.204      3.383      5.951
REMARK INTER + INTRA:          -7.825
REMARK INTER:                  -6.459
REMARK INTRA:                  -1.367
REMARK UNBOUND:                -1.163
REMARK SMILES CCCCCCCCCCCC(=O)[O-]
REMARK SMILES IDX 7 1 8 2 9 3 10 4 11 5 12 6 13 7 14 8 6 9 5 10 4 11 3 12 2 13
REMARK SMILES IDX 1 14
REMARK H PARENT
REMARK Flexibility Score: inf
ROOT
ATOM      1  C   UNL     1      17.943 -30.557  21.977  1.00  0.00     0.000 C 
ENDROOT
BRANCH   1   2
ATOM      2  C   UNL     1      17.716 -31.230  20.605  1.00  0.00     0.000 C 
BRANCH   2   3
ATOM      3  C   UNL     1      18.243 -32.673  20.535  1.00  0.00     0.000 C 
BRANCH   3   4
ATOM      4  C   UNL     1      17.656 -33.462  19.354  1.00  0.00     0.006 C 
BRANCH   4   5
ATOM      5  C   UNL     1      18.091 -34.934  19.366  1.00  0.00     0.053 C 
BRANCH   5   6
ATOM      6  C   UNL     1      17.155 -35.784  20.170  1.00  0.00     0.041 C 
ATOM      7  O   UNL     1      16.029 -36.100  19.702  1.00  0.00    -0.550 OA
ATOM      8  O   UNL     1      17.510 -36.195  21.448  1.00  0.00    -0.550 OA
ENDBRANCH   5   6
ENDBRANCH   4   5
ENDBRANCH   3   4
ENDBRANCH   2   3
ENDBRANCH   1   2
BRANCH   1   9
ATOM      9  C   UNL     1      16.659 -29.959  22.580  1.00  0.00     0.000 C 
BRANCH   9  10
ATOM     10  C   UNL     1      15.494 -29.952  21.578  1.00  0.00    -0.000 C 
BRANCH  10  11
ATOM     11  C   UNL     1      14.233 -30.571  22.199  1.00  0.00    -0.000 C 
BRANCH  11  12
ATOM     12  C   UNL     1      13.525 -31.563  21.258  1.00  0.00    -0.000 C 
BRANCH  12  13
ATOM     13  C   UNL     1      14.356 -32.803  20.882  1.00  0.00    -0.003 C 
ATOM     14  C   UNL     1      14.944 -33.520  22.096  1.00  0.00     0.004 C 
ENDBRANCH  12  13
ENDBRANCH  11  12
ENDBRANCH  10  11
ENDBRANCH   9  10
ENDBRANCH   1   9
TORSDOF 10
ENDMDL
MODEL 6
REMARK VINA RESULT:    -4.201      1.166      2.675
REMARK INTER + INTRA:          -7.821
REMARK INTER:                  -6.929
REMARK INTRA:                  -0.891
REMARK UNBOUND:                -1.163
REMARK SMILES CCCCCCCCCCCC(=O)[O-]
REMARK SMILES IDX 7 1 8 2 9 3 10 4 11 5 12 6 13 7 14 8 6 9 5 10 4 11 3 12 2 13
REMARK SMILES IDX 1 14
REMARK H PARENT
REMARK Flexibility Score: inf
ROOT
ATOM      1  C   UNL     1      15.363 -33.063  22.265  1.00  0.00     0.000 C 
ENDROOT
BRANCH   1   2
ATOM      2  C   UNL     1      14.507 -32.489  21.113  1.00  0.00     0.000 C 
BRANCH   2   3
ATOM      3  C   UNL     1      13.444 -31.481  21.582  1.00  0.00     0.000 C 
BRANCH   3   4
ATOM      4  C   UNL     1      14.049 -30.305  22.366  1.00  0.00     0.006 C 
BRANCH   4   5
ATOM      5  C   UNL     1      13.447 -30.175  23.772  1.00  0.00     0.053 C 
BRANCH   5   6
ATOM      6  C   UNL     1      12.452 -29.057  23.849  1.00  0.00     0.041 C 
ATOM      7  O   UNL     1      12.576 -28.160  24.725  1.00  0.00    -0.550 OA
ATOM      8  O   UNL     1      11.370 -29.026  22.980  1.00  0.00    -0.550 OA
ENDBRANCH   5   6
ENDBRANCH   4   5
ENDBRANCH   3   4
ENDBRANCH   2   3
ENDBRANCH   1   2
BRANCH   1   9
ATOM      9  C   UNL     1      16.842 -32.647  22.188  1.00  0.00     0.000 C 
BRANCH   9  10
ATOM     10  C   UNL     1      17.253 -32.216  20.772  1.00  0.00    -0.000 C 
BRANCH  10  11
ATOM     11  C   UNL     1      18.228 -33.228  20.152  1.00  0.00    -0.000 C 
BRANCH  11  12
ATOM     12  C   UNL     1      17.610 -34.017  18.982  1.00  0.00    -0.000 C 
BRANCH  12  13
ATOM     13  C   UNL     1      16.550 -35.056  19.391  1.00  0.00    -0.003 C 
ATOM     14  C   UNL     1      17.099 -36.481  19.445  1.00  0.00     0.004 C 
ENDBRANCH  12  13
ENDBRANCH  11  12
ENDBRANCH  10  11
ENDBRANCH   9  10
ENDBRANCH   1   9
TORSDOF 10
ENDMDL
MODEL 7
REMARK VINA RESULT:    -4.179      1.310      2.989
REMARK INTER + INTRA:          -7.785
REMARK INTER:                  -6.728
REMARK INTRA:                  -1.057
REMARK UNBOUND:                -1.163
REMARK SMILES CCCCCCCCCCCC(=O)[O-]
REMARK SMILES IDX 7 1 8 2 9 3 10 4 11 5 12 6 13 7 14 8 6 9 5 10 4 11 3 12 2 13
REMARK SMILES IDX 1 14
REMARK H PARENT
REMARK Flexibility Score: inf
ROOT
ATOM      1  C   UNL     1      17.343 -31.080  22.790  1.00  0.00     0.000 C 
ENDROOT
BRANCH   1   2
ATOM      2  C   UNL     1      16.124 -31.030  23.738  1.00  0.00     0.000 C 
BRANCH   2   3
ATOM      3  C   UNL     1      15.380 -32.371  23.853  1.00  0.00     0.000 C 
BRANCH   3   4
ATOM      4  C   UNL     1      13.854 -32.198  23.910  1.00  0.00     0.006 C 
BRANCH   4   5
ATOM      5  C   UNL     1      13.416 -30.780  23.522  1.00  0.00     0.053 C 
BRANCH   5   6
ATOM      6  C   UNL     1      12.676 -30.763  22.219  1.00  0.00     0.041 C 
ATOM      7  O   UNL     1      11.565 -30.177  22.130  1.00  0.00    -0.550 OA
ATOM      8  O   UNL     1      13.196 -31.426  21.114  1.00  0.00    -0.550 OA
ENDBRANCH   5   6
ENDBRANCH   4   5
ENDBRANCH   3   4
ENDBRANCH   2   3
ENDBRANCH   1   2
BRANCH   1   9
ATOM      9  C   UNL     1      16.955 -31.117  21.302  1.00  0.00     0.000 C 
BRANCH   9  10
ATOM     10  C   UNL     1      18.035 -31.783  20.435  1.00  0.00    -0.000 C 
BRANCH  10  11
ATOM     11  C   UNL     1      17.953 -33.313  20.537  1.00  0.00    -0.000 C 
BRANCH  11  12
ATOM     12  C   UNL     1      17.323 -33.965  19.292  1.00  0.00    -0.000 C 
BRANCH  12  13
ATOM     13  C   UNL     1      16.159 -34.929  19.586  1.00  0.00    -0.003 C 
ATOM     14  C   UNL     1      15.275 -34.463  20.743  1.00  0.00     0.004 C 
ENDBRANCH  12  13
ENDBRANCH  11  12
ENDBRANCH  10  11
ENDBRANCH   9  10
ENDBRANCH   1   9
TORSDOF 10
ENDMDL
MODEL 8
REMARK VINA RESULT:    -4.163      1.912      4.199
REMARK INTER + INTRA:          -7.760
REMARK INTER:                  -6.556
REMARK INTRA:                  -1.204
REMARK UNBOUND:                -1.163
REMARK SMILES CCCCCCCCCCCC(=O)[O-]
REMARK SMILES IDX 7 1 8 2 9 3 10 4 11 5 12 6 13 7 14 8 6 9 5 10 4 11 3 12 2 13
REMARK SMILES IDX 1 14
REMARK H PARENT
REMARK Flexibility Score: inf
ROOT
ATOM      1  C   UNL     1      16.196 -34.115  19.612  1.00  0.00     0.000 C 
ENDROOT
BRANCH   1   2
ATOM      2  C   UNL     1      17.681 -33.746  19.398  1.00  0.00     0.000 C 
BRANCH   2   3
ATOM      3  C   UNL     1      18.279 -32.918  20.548  1.00  0.00     0.000 C 
BRANCH   3   4
ATOM      4  C   UNL     1      17.746 -31.476  20.579  1.00  0.00     0.006 C 
BRANCH   4   5
ATOM      5  C   UNL     1      18.158 -30.733  21.857  1.00  0.00     0.053 C 
BRANCH   5   6
ATOM      6  C   UNL     1      17.001 -30.009  22.476  1.00  0.00     0.041 C 
ATOM      7  O   UNL     1      16.647 -30.274  23.655  1.00  0.00    -0.550 OA
ATOM      8  O   UNL     1      16.293 -29.069  21.739  1.00  0.00    -0.550 OA
ENDBRANCH   5   6
ENDBRANCH   4   5
ENDBRANCH   3   4
ENDBRANCH   2   3
ENDBRANCH   1   2
BRANCH   1   9
ATOM      9  C   UNL     1      15.882 -34.561  21.051  1.00  0.00     0.000 C 
BRANCH   9  10
ATOM     10  C   UNL     1      14.925 -33.594  21.764  1.00  0.00    -0.000 C 
BRANCH  10  11
ATOM     11  C   UNL     1      14.127 -32.763  20.749  1.00  0.00    -0.000 C 
BRANCH  11  12
ATOM     12  C   UNL     1      13.687 -31.396  21.306  1.00  0.00    -0.000 C 
BRANCH  12  13
ATOM     13  C   UNL     1      13.471 -31.357  22.829  1.00  0.00    -0.003 C 
ATOM     14  C   UNL     1      13.133 -29.961  23.350  1.00  0.00     0.004 C 
ENDBRANCH  12  13
ENDBRANCH  11  12
ENDBRANCH  10  11
ENDBRANCH   9  10
ENDBRANCH   1   9
TORSDOF 10
ENDMDL
MODEL 9
REMARK VINA RESULT:    -4.062      3.622      5.906
REMARK INTER + INTRA:          -7.600
REMARK INTER:                  -6.135
REMARK INTRA:                  -1.465
REMARK UNBOUND:                -1.163
REMARK SMILES CCCCCCCCCCCC(=O)[O-]
REMARK SMILES IDX 7 1 8 2 9 3 10 4 11 5 12 6 13 7 14 8 6 9 5 10 4 11 3 12 2 13
REMARK SMILES IDX 1 14
REMARK H PARENT
REMARK Flexibility Score: inf
ROOT
ATOM      1  C   UNL     1      16.960 -32.613  24.225  1.00  0.00     0.000 C 
ENDROOT
BRANCH   1   2
ATOM      2  C   UNL     1      17.080 -33.446  22.929  1.00  0.00     0.000 C 
BRANCH   2   3
ATOM      3  C   UNL     1      15.734 -33.993  22.425  1.00  0.00     0.000 C 
BRANCH   3   4
ATOM      4  C   UNL     1      15.514 -33.737  20.926  1.00  0.00     0.006 C 
BRANCH   4   5
ATOM      5  C   UNL     1      15.340 -35.041  20.135  1.00  0.00     0.053 C 
BRANCH   5   6
ATOM      6  C   UNL     1      16.655 -35.707  19.866  1.00  0.00     0.041 C 
ATOM      7  O   UNL     1      16.851 -36.893  20.243  1.00  0.00    -0.550 OA
ATOM      8  O   UNL     1      17.674 -35.008  19.233  1.00  0.00    -0.550 OA
ENDBRANCH   5   6
ENDBRANCH   4   5
ENDBRANCH   3   4
ENDBRANCH   2   3
ENDBRANCH   1   2
BRANCH   1   9
ATOM      9  C   UNL     1      17.589 -31.214  24.108  1.00  0.00     0.000 C 
BRANCH   9  10
ATOM     10  C   UNL     1      17.130 -30.473  22.844  1.00  0.00    -0.000 C 
BRANCH  10  11
ATOM     11  C   UNL     1      15.730 -29.871  23.039  1.00  0.00    -0.000 C 
BRANCH  11  12
ATOM     12  C   UNL     1      14.753 -30.243  21.908  1.00  0.00    -0.000 C 
BRANCH  12  13
ATOM     13  C   UNL     1      13.435 -30.885  22.377  1.00  0.00    -0.003 C 
ATOM     14  C   UNL     1      13.497 -31.393  23.817  1.00  0.00     0.004 C 
ENDBRANCH  12  13
ENDBRANCH  11  12
ENDBRANCH  10  11
ENDBRANCH   9  10
ENDBRANCH   1   9
TORSDOF 10
ENDMDL
