MODEL 1
REMARK VINA RESULT:    -6.416      0.000      0.000
REMARK INTER + INTRA:          -6.557
REMARK INTER:                  -6.979
REMARK INTRA:                   0.422
REMARK UNBOUND:                 0.422
REMARK SMILES C[C@H]1[C@H]2C3=CC[C@@H]4[C@@]5(C)CC[C@H](O)C(C)(C)[C@@H]5CC[C@]4(C)[C@]3(C)CC[C@]2(C(=O)[O-])CC[C@@H]1C
REMARK SMILES IDX 26 1 30 2 25 3 3 4 31 5 24 6 4 7 2 8 32 9 22 10 5 11 1 12
REMARK SMILES IDX 33 13 23 14 20 15 6 16 7 17 19 18 21 19 8 20 18 21 17 22
REMARK SMILES IDX 10 23 9 24 14 25 11 26 12 27 15 28 16 29 27 30 28 31 29 32
REMARK SMILES IDX 13 33
REMARK H PARENT 13 34
REMARK Flexibility Score: inf
ROOT
ATOM      1  C   UNL     1     175.303 169.002 170.864  1.00  0.00     0.017 C 
ATOM      2  C   UNL     1     176.383 168.642 169.815  1.00  0.00     0.014 C 
ATOM      3  C   UNL     1     174.907 170.520 170.762  1.00  0.00     0.014 C 
ATOM      4  C   UNL     1     174.031 168.156 170.560  1.00  0.00     0.030 C 
ATOM      5  C   UNL     1     176.828 167.161 169.906  1.00  0.00     0.004 C 
ATOM      6  C   UNL     1     173.383 170.838 170.929  1.00  0.00     0.013 C 
ATOM      7  C   UNL     1     172.987 168.443 171.650  1.00  0.00    -0.063 C 
ATOM      8  C   UNL     1     174.309 166.724 169.945  1.00  0.00    -0.003 C 
ATOM      9  C   UNL     1     175.702 166.173 170.341  1.00  0.00    -0.011 C 
ATOM     10  C   UNL     1     172.603 169.896 171.925  1.00  0.00    -0.006 C 
ATOM     11  C   UNL     1     172.438 167.506 172.420  1.00  0.00    -0.027 C 
ATOM     12  C   UNL     1     173.157 165.705 170.052  1.00  0.00     0.008 C 
ATOM     13  C   UNL     1     175.987 164.782 169.747  1.00  0.00     0.008 C 
ATOM     14  C   UNL     1     173.102 170.280 173.359  1.00  0.00     0.017 C 
ATOM     15  C   UNL     1     171.003 170.013 171.816  1.00  0.00    -0.020 C 
ATOM     16  C   UNL     1     171.038 167.639 172.946  1.00  0.00     0.032 C 
ATOM     17  C   UNL     1     170.313 169.048 172.886  1.00  0.00     0.006 C 
ATOM     18  C   UNL     1     170.517 169.613 170.359  1.00  0.00     0.008 C 
ATOM     19  C   UNL     1     170.620 171.507 172.119  1.00  0.00     0.012 C 
ATOM     20  C   UNL     1     168.693 168.930 172.781  1.00  0.00    -0.025 C 
ATOM     21  C   UNL     1     169.193 168.804 170.280  1.00  0.00     0.005 C 
ATOM     22  C   UNL     1     168.207 169.319 171.339  1.00  0.00     0.003 C 
ATOM     23  C   UNL     1     167.989 169.923 173.754  1.00  0.00     0.010 C 
ATOM     24  C   UNL     1     168.230 167.493 173.209  1.00  0.00     0.012 C 
ATOM     25  C   UNL     1     166.657 169.255 171.061  1.00  0.00    -0.006 C 
ATOM     26  C   UNL     1     166.444 169.955 173.597  1.00  0.00     0.033 C 
ATOM     27  C   UNL     1     165.947 170.151 172.141  1.00  0.00     0.120 C 
ATOM     28  C   UNL     1     166.083 167.814 171.023  1.00  0.00     0.014 C 
ATOM     29  C   UNL     1     166.348 169.893 169.673  1.00  0.00     0.014 C 
ENDROOT
BRANCH   1  30
ATOM     30  C   UNL     1     175.908 168.735 172.246  1.00  0.00     0.048 C 
ATOM     31  O   UNL     1     176.613 169.620 172.801  1.00  0.00    -0.550 OA
ATOM     32  O   UNL     1     175.717 167.530 172.912  1.00  0.00    -0.550 OA
ENDBRANCH   1  30
BRANCH  27  33
ATOM     33  O   UNL     1     164.555 169.957 172.090  1.00  0.00    -0.393 OA
ATOM     34  H   UNL     1     164.152 170.558 172.770  1.00  0.00     0.210 HD
ENDBRANCH  27  33
TORSDOF 2
ENDMDL
MODEL 2
REMARK VINA RESULT:    -6.321      2.834      8.494
REMARK INTER + INTRA:          -6.453
REMARK INTER:                  -6.884
REMARK INTRA:                   0.431
REMARK UNBOUND:                 0.422
REMARK SMILES C[C@H]1[C@H]2C3=CC[C@@H]4[C@@]5(C)CC[C@H](O)C(C)(C)[C@@H]5CC[C@]4(C)[C@]3(C)CC[C@]2(C(=O)[O-])CC[C@@H]1C
REMARK SMILES IDX 26 1 30 2 25 3 3 4 31 5 24 6 4 7 2 8 32 9 22 10 5 11 1 12
REMARK SMILES IDX 33 13 23 14 20 15 6 16 7 17 19 18 21 19 8 20 18 21 17 22
REMARK SMILES IDX 10 23 9 24 14 25 11 26 12 27 15 28 16 29 27 30 28 31 29 32
REMARK SMILES IDX 13 33
REMARK H PARENT 13 34
REMARK Flexibility Score: inf
ROOT
ATOM      1  C   UNL     1     174.252 169.455 172.010  1.00  0.00     0.017 C 
ATOM      2  C   UNL     1     173.229 169.965 173.054  1.00  0.00     0.014 C 
ATOM      3  C   UNL     1     175.594 169.023 172.706  1.00  0.00     0.014 C 
ATOM      4  C   UNL     1     173.650 168.199 171.314  1.00  0.00     0.030 C 
ATOM      5  C   UNL     1     171.903 170.436 172.404  1.00  0.00     0.004 C 
ATOM      6  C   UNL     1     176.265 167.725 172.143  1.00  0.00     0.013 C 
ATOM      7  C   UNL     1     174.622 167.741 170.216  1.00  0.00    -0.063 C 
ATOM      8  C   UNL     1     172.074 168.205 171.165  1.00  0.00    -0.003 C 
ATOM      9  C   UNL     1     171.492 169.641 171.127  1.00  0.00    -0.011 C 
ATOM     10  C   UNL     1     176.081 167.488 170.595  1.00  0.00    -0.006 C 
ATOM     11  C   UNL     1     174.289 167.611 168.934  1.00  0.00    -0.027 C 
ATOM     12  C   UNL     1     171.488 167.242 170.113  1.00  0.00     0.008 C 
ATOM     13  C   UNL     1     169.959 169.662 170.986  1.00  0.00     0.008 C 
ATOM     14  C   UNL     1     176.972 168.563 169.887  1.00  0.00     0.017 C 
ATOM     15  C   UNL     1     176.465 166.004 170.111  1.00  0.00    -0.020 C 
ATOM     16  C   UNL     1     174.941 166.587 168.050  1.00  0.00     0.032 C 
ATOM     17  C   UNL     1     176.277 165.881 168.530  1.00  0.00     0.006 C 
ATOM     18  C   UNL     1     175.547 164.931 170.834  1.00  0.00     0.008 C 
ATOM     19  C   UNL     1     177.973 165.764 170.490  1.00  0.00     0.012 C 
ATOM     20  C   UNL     1     176.467 164.386 167.915  1.00  0.00    -0.025 C 
ATOM     21  C   UNL     1     175.092 163.726 169.963  1.00  0.00     0.005 C 
ATOM     22  C   UNL     1     176.233 163.302 169.028  1.00  0.00     0.003 C 
ATOM     23  C   UNL     1     177.921 164.166 167.400  1.00  0.00     0.010 C 
ATOM     24  C   UNL     1     175.526 164.191 166.674  1.00  0.00     0.012 C 
ATOM     25  C   UNL     1     176.375 161.791 168.602  1.00  0.00    -0.006 C 
ATOM     26  C   UNL     1     178.199 162.711 166.932  1.00  0.00     0.033 C 
ATOM     27  C   UNL     1     177.796 161.615 167.953  1.00  0.00     0.120 C 
ATOM     28  C   UNL     1     175.238 161.291 167.672  1.00  0.00     0.014 C 
ATOM     29  C   UNL     1     176.343 160.885 169.869  1.00  0.00     0.014 C 
ENDROOT
BRANCH   1  30
ATOM     30  C   UNL     1     174.537 170.616 171.051  1.00  0.00     0.048 C 
ATOM     31  O   UNL     1     175.422 171.465 171.344  1.00  0.00    -0.550 OA
ATOM     32  O   UNL     1     173.836 170.777 169.862  1.00  0.00    -0.550 OA
ENDBRANCH   1  30
BRANCH  27  33
ATOM     33  O   UNL     1     177.897 160.350 167.347  1.00  0.00    -0.393 OA
ATOM     34  H   UNL     1     177.695 160.472 166.382  1.00  0.00     0.210 HD
ENDBRANCH  27  33
TORSDOF 2
ENDMDL
MODEL 3
REMARK VINA RESULT:    -6.285      4.164      5.956
REMARK INTER + INTRA:          -6.414
REMARK INTER:                  -6.834
REMARK INTRA:                   0.420
REMARK UNBOUND:                 0.422
REMARK SMILES C[C@H]1[C@H]2C3=CC[C@@H]4[C@@]5(C)CC[C@H](O)C(C)(C)[C@@H]5CC[C@]4(C)[C@]3(C)CC[C@]2(C(=O)[O-])CC[C@@H]1C
REMARK SMILES IDX 26 1 30 2 25 3 3 4 31 5 24 6 4 7 2 8 32 9 22 10 5 11 1 12
REMARK SMILES IDX 33 13 23 14 20 15 6 16 7 17 19 18 21 19 8 20 18 21 17 22
REMARK SMILES IDX 10 23 9 24 14 25 11 26 12 27 15 28 16 29 27 30 28 31 29 32
REMARK SMILES IDX 13 33
REMARK H PARENT 13 34
REMARK Flexibility Score: inf
ROOT
ATOM      1  C   UNL     1     174.462 169.687 171.062  1.00  0.00     0.017 C 
ATOM      2  C   UNL     1     173.923 170.771 170.097  1.00  0.00     0.014 C 
ATOM      3  C   UNL     1     174.421 170.193 172.550  1.00  0.00     0.014 C 
ATOM      4  C   UNL     1     173.534 168.440 170.958  1.00  0.00     0.030 C 
ATOM      5  C   UNL     1     173.979 170.324 168.614  1.00  0.00     0.004 C 
ATOM      6  C   UNL     1     173.977 169.136 173.617  1.00  0.00     0.013 C 
ATOM      7  C   UNL     1     174.114 167.330 171.847  1.00  0.00    -0.063 C 
ATOM      8  C   UNL     1     172.894 168.198 169.530  1.00  0.00    -0.003 C 
ATOM      9  C   UNL     1     173.755 168.798 168.390  1.00  0.00    -0.011 C 
ATOM     10  C   UNL     1     174.408 167.650 173.313  1.00  0.00    -0.006 C 
ATOM     11  C   UNL     1     174.440 166.117 171.406  1.00  0.00    -0.027 C 
ATOM     12  C   UNL     1     172.360 166.777 169.259  1.00  0.00     0.008 C 
ATOM     13  C   UNL     1     173.142 168.572 166.996  1.00  0.00     0.008 C 
ATOM     14  C   UNL     1     175.957 167.597 173.532  1.00  0.00     0.017 C 
ATOM     15  C   UNL     1     173.655 166.554 174.217  1.00  0.00    -0.020 C 
ATOM     16  C   UNL     1     174.342 164.905 172.288  1.00  0.00     0.032 C 
ATOM     17  C   UNL     1     174.186 165.092 173.854  1.00  0.00     0.006 C 
ATOM     18  C   UNL     1     172.088 166.618 173.974  1.00  0.00     0.008 C 
ATOM     19  C   UNL     1     173.980 166.883 175.719  1.00  0.00     0.012 C 
ATOM     20  C   UNL     1     173.395 163.862 174.570  1.00  0.00    -0.025 C 
ATOM     21  C   UNL     1     171.346 165.253 173.951  1.00  0.00     0.005 C 
ATOM     22  C   UNL     1     171.954 164.314 175.002  1.00  0.00     0.003 C 
ATOM     23  C   UNL     1     174.115 163.410 175.877  1.00  0.00     0.010 C 
ATOM     24  C   UNL     1     173.379 162.611 173.622  1.00  0.00     0.012 C 
ATOM     25  C   UNL     1     171.046 163.238 175.710  1.00  0.00    -0.006 C 
ATOM     26  C   UNL     1     173.330 162.335 176.676  1.00  0.00     0.033 C 
ATOM     27  C   UNL     1     171.844 162.688 176.948  1.00  0.00     0.120 C 
ATOM     28  C   UNL     1     170.564 162.103 174.769  1.00  0.00     0.014 C 
ATOM     29  C   UNL     1     169.763 163.924 176.270  1.00  0.00     0.014 C 
ENDROOT
BRANCH   1  30
ATOM     30  C   UNL     1     175.916 169.411 170.667  1.00  0.00     0.048 C 
ATOM     31  O   UNL     1     176.834 170.155 171.105  1.00  0.00    -0.550 OA
ATOM     32  O   UNL     1     176.262 168.364 169.820  1.00  0.00    -0.550 OA
ENDBRANCH   1  30
BRANCH  27  33
ATOM     33  O   UNL     1     171.187 161.567 177.487  1.00  0.00    -0.393 OA
ATOM     34  H   UNL     1     171.889 160.956 177.834  1.00  0.00     0.210 HD
ENDBRANCH  27  33
TORSDOF 2
ENDMDL
MODEL 4
REMARK VINA RESULT:    -6.233      4.220      6.012
REMARK INTER + INTRA:          -6.358
REMARK INTER:                  -6.793
REMARK INTRA:                   0.435
REMARK UNBOUND:                 0.422
REMARK SMILES C[C@H]1[C@H]2C3=CC[C@@H]4[C@@]5(C)CC[C@H](O)C(C)(C)[C@@H]5CC[C@]4(C)[C@]3(C)CC[C@]2(C(=O)[O-])CC[C@@H]1C
REMARK SMILES IDX 26 1 30 2 25 3 3 4 31 5 24 6 4 7 2 8 32 9 22 10 5 11 1 12
REMARK SMILES IDX 33 13 23 14 20 15 6 16 7 17 19 18 21 19 8 20 18 21 17 22
REMARK SMILES IDX 10 23 9 24 14 25 11 26 12 27 15 28 16 29 27 30 28 31 29 32
REMARK SMILES IDX 13 33
REMARK H PARENT 13 34
REMARK Flexibility Score: inf
ROOT
ATOM      1  C   UNL     1     175.167 168.590 171.909  1.00  0.00     0.017 C 
ATOM      2  C   UNL     1     175.843 167.610 172.899  1.00  0.00     0.014 C 
ATOM      3  C   UNL     1     176.231 169.238 170.950  1.00  0.00     0.014 C 
ATOM      4  C   UNL     1     174.166 167.781 171.033  1.00  0.00     0.030 C 
ATOM      5  C   UNL     1     174.832 166.976 173.888  1.00  0.00     0.004 C 
ATOM      6  C   UNL     1     175.790 169.401 169.456  1.00  0.00     0.013 C 
ATOM      7  C   UNL     1     173.428 168.762 170.109  1.00  0.00    -0.063 C 
ATOM      8  C   UNL     1     173.482 166.551 171.759  1.00  0.00    -0.003 C 
ATOM      9  C   UNL     1     173.409 166.740 173.295  1.00  0.00    -0.011 C 
ATOM     10  C   UNL     1     174.257 169.701 169.234  1.00  0.00    -0.006 C 
ATOM     11  C   UNL     1     172.104 168.893 170.068  1.00  0.00    -0.027 C 
ATOM     12  C   UNL     1     172.188 166.017 171.112  1.00  0.00     0.008 C 
ATOM     13  C   UNL     1     172.749 165.550 174.014  1.00  0.00     0.008 C 
ATOM     14  C   UNL     1     174.032 171.170 169.728  1.00  0.00     0.017 C 
ATOM     15  C   UNL     1     173.770 169.517 167.714  1.00  0.00    -0.020 C 
ATOM     16  C   UNL     1     171.389 169.280 168.805  1.00  0.00     0.032 C 
ATOM     17  C   UNL     1     172.218 169.877 167.592  1.00  0.00     0.006 C 
ATOM     18  C   UNL     1     174.000 168.022 167.235  1.00  0.00     0.008 C 
ATOM     19  C   UNL     1     174.617 170.502 166.827  1.00  0.00     0.012 C 
ATOM     20  C   UNL     1     171.540 169.577 166.144  1.00  0.00    -0.025 C 
ATOM     21  C   UNL     1     172.893 167.419 166.326  1.00  0.00     0.005 C 
ATOM     22  C   UNL     1     172.370 168.495 165.364  1.00  0.00     0.003 C 
ATOM     23  C   UNL     1     171.539 170.849 165.244  1.00  0.00     0.010 C 
ATOM     24  C   UNL     1     170.036 169.168 166.329  1.00  0.00     0.012 C 
ATOM     25  C   UNL     1     171.847 168.080 163.936  1.00  0.00    -0.006 C 
ATOM     26  C   UNL     1     171.032 170.586 163.800  1.00  0.00     0.033 C 
ATOM     27  C   UNL     1     171.716 169.394 163.081  1.00  0.00     0.120 C 
ATOM     28  C   UNL     1     170.530 167.261 163.961  1.00  0.00     0.014 C 
ATOM     29  C   UNL     1     172.912 167.188 163.229  1.00  0.00     0.014 C 
ENDROOT
BRANCH   1  30
ATOM     30  C   UNL     1     174.508 169.694 172.743  1.00  0.00     0.048 C 
ATOM     31  O   UNL     1     175.184 170.696 173.099  1.00  0.00    -0.550 OA
ATOM     32  O   UNL     1     173.177 169.621 173.139  1.00  0.00    -0.550 OA
ENDBRANCH   1  30
BRANCH  27  33
ATOM     33  O   UNL     1     171.042 169.122 161.878  1.00  0.00    -0.393 OA
ATOM     34  H   UNL     1     170.732 168.179 161.924  1.00  0.00     0.210 HD
ENDBRANCH  27  33
TORSDOF 2
ENDMDL
MODEL 5
REMARK VINA RESULT:    -6.208      6.907      9.116
REMARK INTER + INTRA:          -6.330
REMARK INTER:                  -6.736
REMARK INTRA:                   0.406
REMARK UNBOUND:                 0.422
REMARK SMILES C[C@H]1[C@H]2C3=CC[C@@H]4[C@@]5(C)CC[C@H](O)C(C)(C)[C@@H]5CC[C@]4(C)[C@]3(C)CC[C@]2(C(=O)[O-])CC[C@@H]1C
REMARK SMILES IDX 26 1 30 2 25 3 3 4 31 5 24 6 4 7 2 8 32 9 22 10 5 11 1 12
REMARK SMILES IDX 33 13 23 14 20 15 6 16 7 17 19 18 21 19 8 20 18 21 17 22
REMARK SMILES IDX 10 23 9 24 14 25 11 26 12 27 15 28 16 29 27 30 28 31 29 32
REMARK SMILES IDX 13 33
REMARK H PARENT 13 34
REMARK Flexibility Score: inf
ROOT
ATOM      1  C   UNL     1     172.929 164.164 175.726  1.00  0.00     0.017 C 
ATOM      2  C   UNL     1     173.759 165.470 175.672  1.00  0.00     0.014 C 
ATOM      3  C   UNL     1     173.306 163.313 176.993  1.00  0.00     0.014 C 
ATOM      4  C   UNL     1     171.425 164.550 175.841  1.00  0.00     0.030 C 
ATOM      5  C   UNL     1     173.443 166.322 174.417  1.00  0.00     0.004 C 
ATOM      6  C   UNL     1     172.109 162.621 177.729  1.00  0.00     0.013 C 
ATOM      7  C   UNL     1     170.590 163.261 175.806  1.00  0.00    -0.063 C 
ATOM      8  C   UNL     1     171.020 165.897 175.114  1.00  0.00    -0.003 C 
ATOM      9  C   UNL     1     171.964 166.233 173.932  1.00  0.00    -0.011 C 
ATOM     10  C   UNL     1     170.928 162.147 176.797  1.00  0.00    -0.006 C 
ATOM     11  C   UNL     1     169.625 163.023 174.920  1.00  0.00    -0.027 C 
ATOM     12  C   UNL     1     169.518 166.080 174.814  1.00  0.00     0.008 C 
ATOM     13  C   UNL     1     171.583 167.542 173.217  1.00  0.00     0.008 C 
ATOM     14  C   UNL     1     171.479 160.920 175.996  1.00  0.00     0.017 C 
ATOM     15  C   UNL     1     169.583 161.768 177.591  1.00  0.00    -0.020 C 
ATOM     16  C   UNL     1     168.432 162.178 175.262  1.00  0.00     0.032 C 
ATOM     17  C   UNL     1     168.466 161.271 176.562  1.00  0.00     0.006 C 
ATOM     18  C   UNL     1     169.037 163.026 178.388  1.00  0.00     0.008 C 
ATOM     19  C   UNL     1     169.940 160.610 178.592  1.00  0.00     0.012 C 
ATOM     20  C   UNL     1     166.991 161.011 177.200  1.00  0.00    -0.025 C 
ATOM     21  C   UNL     1     167.493 163.199 178.415  1.00  0.00     0.005 C 
ATOM     22  C   UNL     1     166.819 161.825 178.532  1.00  0.00     0.003 C 
ATOM     23  C   UNL     1     166.796 159.513 177.583  1.00  0.00     0.010 C 
ATOM     24  C   UNL     1     165.882 161.341 176.140  1.00  0.00     0.012 C 
ATOM     25  C   UNL     1     165.440 161.691 179.283  1.00  0.00    -0.006 C 
ATOM     26  C   UNL     1     165.461 159.232 178.325  1.00  0.00     0.033 C 
ATOM     27  C   UNL     1     165.188 160.160 179.538  1.00  0.00     0.120 C 
ATOM     28  C   UNL     1     164.254 162.367 178.546  1.00  0.00     0.014 C 
ATOM     29  C   UNL     1     165.538 162.370 180.682  1.00  0.00     0.014 C 
ENDROOT
BRANCH   1  30
ATOM     30  C   UNL     1     173.267 163.361 174.466  1.00  0.00     0.048 C 
ATOM     31  O   UNL     1     174.373 162.763 174.384  1.00  0.00    -0.550 OA
ATOM     32  O   UNL     1     172.391 163.279 173.389  1.00  0.00    -0.550 OA
ENDBRANCH   1  30
BRANCH  27  33
ATOM     33  O   UNL     1     163.875 159.956 179.998  1.00  0.00    -0.393 OA
ATOM     34  H   UNL     1     163.833 159.032 180.361  1.00  0.00     0.210 HD
ENDBRANCH  27  33
TORSDOF 2
ENDMDL
MODEL 6
REMARK VINA RESULT:    -5.702      4.098      6.852
REMARK INTER + INTRA:          -5.780
REMARK INTER:                  -6.192
REMARK INTRA:                   0.412
REMARK UNBOUND:                 0.422
REMARK SMILES C[C@H]1[C@H]2C3=CC[C@@H]4[C@@]5(C)CC[C@H](O)C(C)(C)[C@@H]5CC[C@]4(C)[C@]3(C)CC[C@]2(C(=O)[O-])CC[C@@H]1C
REMARK SMILES IDX 26 1 30 2 25 3 3 4 31 5 24 6 4 7 2 8 32 9 22 10 5 11 1 12
REMARK SMILES IDX 33 13 23 14 20 15 6 16 7 17 19 18 21 19 8 20 18 21 17 22
REMARK SMILES IDX 10 23 9 24 14 25 11 26 12 27 15 28 16 29 27 30 28 31 29 32
REMARK SMILES IDX 13 33
REMARK H PARENT 13 34
REMARK Flexibility Score: inf
ROOT
ATOM      1  C   UNL     1     171.632 169.521 165.885  1.00  0.00     0.017 C 
ATOM      2  C   UNL     1     170.795 169.267 164.608  1.00  0.00     0.014 C 
ATOM      3  C   UNL     1     170.726 170.070 167.047  1.00  0.00     0.014 C 
ATOM      4  C   UNL     1     172.232 168.162 166.351  1.00  0.00     0.030 C 
ATOM      5  C   UNL     1     171.658 168.758 163.426  1.00  0.00     0.004 C 
ATOM      6  C   UNL     1     171.034 169.505 168.474  1.00  0.00     0.013 C 
ATOM      7  C   UNL     1     173.135 168.423 167.566  1.00  0.00    -0.063 C 
ATOM      8  C   UNL     1     172.574 167.146 165.186  1.00  0.00    -0.003 C 
ATOM      9  C   UNL     1     172.865 167.864 163.844  1.00  0.00    -0.011 C 
ATOM     10  C   UNL     1     172.550 169.179 168.759  1.00  0.00    -0.006 C 
ATOM     11  C   UNL     1     174.422 168.086 167.623  1.00  0.00    -0.027 C 
ATOM     12  C   UNL     1     173.560 166.015 165.541  1.00  0.00     0.008 C 
ATOM     13  C   UNL     1     173.196 166.887 162.702  1.00  0.00     0.008 C 
ATOM     14  C   UNL     1     173.273 170.563 168.872  1.00  0.00     0.017 C 
ATOM     15  C   UNL     1     172.791 168.287 170.074  1.00  0.00    -0.020 C 
ATOM     16  C   UNL     1     175.082 167.712 168.920  1.00  0.00     0.032 C 
ATOM     17  C   UNL     1     174.355 168.044 170.289  1.00  0.00     0.006 C 
ATOM     18  C   UNL     1     172.057 166.887 169.936  1.00  0.00     0.008 C 
ATOM     19  C   UNL     1     172.202 169.084 171.295  1.00  0.00     0.012 C 
ATOM     20  C   UNL     1     174.747 167.016 171.488  1.00  0.00    -0.025 C 
ATOM     21  C   UNL     1     172.818 165.659 170.510  1.00  0.00     0.005 C 
ATOM     22  C   UNL     1     173.543 166.057 171.803  1.00  0.00     0.003 C 
ATOM     23  C   UNL     1     175.048 167.780 172.813  1.00  0.00     0.010 C 
ATOM     24  C   UNL     1     176.060 166.239 171.121  1.00  0.00     0.012 C 
ATOM     25  C   UNL     1     173.755 164.989 172.942  1.00  0.00    -0.006 C 
ATOM     26  C   UNL     1     175.290 166.842 174.027  1.00  0.00     0.033 C 
ATOM     27  C   UNL     1     174.196 165.763 174.239  1.00  0.00     0.120 C 
ATOM     28  C   UNL     1     174.747 163.857 172.567  1.00  0.00     0.014 C 
ATOM     29  C   UNL     1     172.396 164.299 173.270  1.00  0.00     0.014 C 
ENDROOT
BRANCH   1  30
ATOM     30  C   UNL     1     172.687 170.575 165.532  1.00  0.00     0.048 C 
ATOM     31  O   UNL     1     172.340 171.776 165.367  1.00  0.00    -0.550 OA
ATOM     32  O   UNL     1     174.028 170.248 165.372  1.00  0.00    -0.550 OA
ENDBRANCH   1  30
BRANCH  27  33
ATOM     33  O   UNL     1     174.619 164.853 175.223  1.00  0.00    -0.393 OA
ATOM     34  H   UNL     1     174.099 165.051 176.046  1.00  0.00     0.210 HD
ENDBRANCH  27  33
TORSDOF 2
ENDMDL
MODEL 7
REMARK VINA RESULT:    -5.653      6.179      8.207
REMARK INTER + INTRA:          -5.727
REMARK INTER:                  -6.153
REMARK INTRA:                   0.426
REMARK UNBOUND:                 0.422
REMARK SMILES C[C@H]1[C@H]2C3=CC[C@@H]4[C@@]5(C)CC[C@H](O)C(C)(C)[C@@H]5CC[C@]4(C)[C@]3(C)CC[C@]2(C(=O)[O-])CC[C@@H]1C
REMARK SMILES IDX 26 1 30 2 25 3 3 4 31 5 24 6 4 7 2 8 32 9 22 10 5 11 1 12
REMARK SMILES IDX 33 13 23 14 20 15 6 16 7 17 19 18 21 19 8 20 18 21 17 22
REMARK SMILES IDX 10 23 9 24 14 25 11 26 12 27 15 28 16 29 27 30 28 31 29 32
REMARK SMILES IDX 13 33
REMARK H PARENT 13 34
REMARK Flexibility Score: inf
ROOT
ATOM      1  C   UNL     1     173.514 166.680 174.326  1.00  0.00     0.017 C 
ATOM      2  C   UNL     1     173.249 168.163 173.969  1.00  0.00     0.014 C 
ATOM      3  C   UNL     1     173.916 166.533 175.840  1.00  0.00     0.014 C 
ATOM      4  C   UNL     1     172.195 165.884 174.103  1.00  0.00     0.030 C 
ATOM      5  C   UNL     1     172.885 168.357 172.475  1.00  0.00     0.004 C 
ATOM      6  C   UNL     1     173.308 165.298 176.587  1.00  0.00     0.013 C 
ATOM      7  C   UNL     1     172.476 164.398 174.372  1.00  0.00    -0.063 C 
ATOM      8  C   UNL     1     171.276 166.422 172.932  1.00  0.00    -0.003 C 
ATOM      9  C   UNL     1     172.087 167.174 171.846  1.00  0.00    -0.011 C 
ATOM     10  C   UNL     1     173.112 164.006 175.705  1.00  0.00    -0.006 C 
ATOM     11  C   UNL     1     172.259 163.427 173.486  1.00  0.00    -0.027 C 
ATOM     12  C   UNL     1     170.226 165.434 172.386  1.00  0.00     0.008 C 
ATOM     13  C   UNL     1     171.206 167.705 170.702  1.00  0.00     0.008 C 
ATOM     14  C   UNL     1     174.550 163.453 175.427  1.00  0.00     0.017 C 
ATOM     15  C   UNL     1     172.180 162.887 176.386  1.00  0.00    -0.020 C 
ATOM     16  C   UNL     1     171.882 162.038 173.915  1.00  0.00     0.032 C 
ATOM     17  C   UNL     1     172.074 161.611 175.430  1.00  0.00     0.006 C 
ATOM     18  C   UNL     1     170.726 163.464 176.652  1.00  0.00     0.008 C 
ATOM     19  C   UNL     1     172.855 162.480 177.747  1.00  0.00     0.012 C 
ATOM     20  C   UNL     1     171.027 160.461 175.909  1.00  0.00    -0.025 C 
ATOM     21  C   UNL     1     169.547 162.481 176.410  1.00  0.00     0.005 C 
ATOM     22  C   UNL     1     169.944 161.071 176.870  1.00  0.00     0.003 C 
ATOM     23  C   UNL     1     171.745 159.344 176.724  1.00  0.00     0.010 C 
ATOM     24  C   UNL     1     170.396 159.755 174.657  1.00  0.00     0.012 C 
ATOM     25  C   UNL     1     168.843 160.091 177.427  1.00  0.00    -0.006 C 
ATOM     26  C   UNL     1     170.773 158.294 177.326  1.00  0.00     0.033 C 
ATOM     27  C   UNL     1     169.587 158.894 178.125  1.00  0.00     0.120 C 
ATOM     28  C   UNL     1     167.830 159.609 176.356  1.00  0.00     0.014 C 
ATOM     29  C   UNL     1     168.013 160.811 178.532  1.00  0.00     0.014 C 
ENDROOT
BRANCH   1  30
ATOM     30  C   UNL     1     174.679 166.206 173.452  1.00  0.00     0.048 C 
ATOM     31  O   UNL     1     175.838 166.660 173.653  1.00  0.00    -0.550 OA
ATOM     32  O   UNL     1     174.499 165.291 172.421  1.00  0.00    -0.550 OA
ENDBRANCH   1  30
BRANCH  27  33
ATOM     33  O   UNL     1     168.671 157.875 178.441  1.00  0.00    -0.393 OA
ATOM     34  H   UNL     1     169.016 157.414 179.251  1.00  0.00     0.210 HD
ENDBRANCH  27  33
TORSDOF 2
ENDMDL
MODEL 8
REMARK VINA RESULT:    -5.641      5.265      9.175
REMARK INTER + INTRA:          -5.714
REMARK INTER:                  -6.118
REMARK INTRA:                   0.404
REMARK UNBOUND:                 0.422
REMARK SMILES C[C@H]1[C@H]2C3=CC[C@@H]4[C@@]5(C)CC[C@H](O)C(C)(C)[C@@H]5CC[C@]4(C)[C@]3(C)CC[C@]2(C(=O)[O-])CC[C@@H]1C
REMARK SMILES IDX 26 1 30 2 25 3 3 4 31 5 24 6 4 7 2 8 32 9 22 10 5 11 1 12
REMARK SMILES IDX 33 13 23 14 20 15 6 16 7 17 19 18 21 19 8 20 18 21 17 22
REMARK SMILES IDX 10 23 9 24 14 25 11 26 12 27 15 28 16 29 27 30 28 31 29 32
REMARK SMILES IDX 13 33
REMARK H PARENT 13 34
REMARK Flexibility Score: inf
ROOT
ATOM      1  C   UNL     1     169.538 161.334 176.503  1.00  0.00     0.017 C 
ATOM      2  C   UNL     1     168.310 160.409 176.319  1.00  0.00     0.014 C 
ATOM      3  C   UNL     1     170.876 160.544 176.256  1.00  0.00     0.014 C 
ATOM      4  C   UNL     1     169.453 162.470 175.441  1.00  0.00     0.030 C 
ATOM      5  C   UNL     1     166.972 161.141 176.588  1.00  0.00     0.004 C 
ATOM      6  C   UNL     1     171.987 161.318 175.470  1.00  0.00     0.013 C 
ATOM      7  C   UNL     1     170.621 163.440 175.676  1.00  0.00    -0.063 C 
ATOM      8  C   UNL     1     167.985 162.917 175.054  1.00  0.00    -0.003 C 
ATOM      9  C   UNL     1     166.968 162.649 176.192  1.00  0.00    -0.011 C 
ATOM     10  C   UNL     1     172.039 162.873 175.731  1.00  0.00    -0.006 C 
ATOM     11  C   UNL     1     170.473 164.744 175.900  1.00  0.00    -0.027 C 
ATOM     12  C   UNL     1     167.852 164.299 174.381  1.00  0.00     0.008 C 
ATOM     13  C   UNL     1     165.535 163.077 175.827  1.00  0.00     0.008 C 
ATOM     14  C   UNL     1     172.588 163.046 177.187  1.00  0.00     0.017 C 
ATOM     15  C   UNL     1     172.936 163.682 174.671  1.00  0.00    -0.020 C 
ATOM     16  C   UNL     1     171.507 165.742 175.464  1.00  0.00     0.032 C 
ATOM     17  C   UNL     1     172.949 165.236 175.043  1.00  0.00     0.006 C 
ATOM     18  C   UNL     1     172.359 163.500 173.204  1.00  0.00     0.008 C 
ATOM     19  C   UNL     1     174.395 163.102 174.751  1.00  0.00     0.012 C 
ATOM     20  C   UNL     1     173.679 166.210 173.962  1.00  0.00    -0.025 C 
ATOM     21  C   UNL     1     172.412 164.755 172.289  1.00  0.00     0.005 C 
ATOM     22  C   UNL     1     173.712 165.530 172.546  1.00  0.00     0.003 C 
ATOM     23  C   UNL     1     175.166 166.471 174.349  1.00  0.00     0.010 C 
ATOM     24  C   UNL     1     172.977 167.613 173.944  1.00  0.00     0.012 C 
ATOM     25  C   UNL     1     174.384 166.342 171.375  1.00  0.00    -0.006 C 
ATOM     26  C   UNL     1     175.952 167.278 173.280  1.00  0.00     0.033 C 
ATOM     27  C   UNL     1     175.838 166.721 171.837  1.00  0.00     0.120 C 
ATOM     28  C   UNL     1     173.569 167.582 170.921  1.00  0.00     0.014 C 
ATOM     29  C   UNL     1     174.534 165.426 170.122  1.00  0.00     0.014 C 
ENDROOT
BRANCH   1  30
ATOM     30  C   UNL     1     169.514 161.836 177.950  1.00  0.00     0.048 C 
ATOM     31  O   UNL     1     169.864 161.066 178.885  1.00  0.00    -0.550 OA
ATOM     32  O   UNL     1     169.100 163.123 178.275  1.00  0.00    -0.550 OA
ENDBRANCH   1  30
BRANCH  27  33
ATOM     33  O   UNL     1     176.408 167.637 170.934  1.00  0.00    -0.393 OA
ATOM     34  H   UNL     1     175.694 168.279 170.681  1.00  0.00     0.210 HD
ENDBRANCH  27  33
TORSDOF 2
ENDMDL
MODEL 9
REMARK VINA RESULT:    -5.608      4.309      7.342
REMARK INTER + INTRA:          -5.678
REMARK INTER:                  -6.091
REMARK INTRA:                   0.413
REMARK UNBOUND:                 0.422
REMARK SMILES C[C@H]1[C@H]2C3=CC[C@@H]4[C@@]5(C)CC[C@H](O)C(C)(C)[C@@H]5CC[C@]4(C)[C@]3(C)CC[C@]2(C(=O)[O-])CC[C@@H]1C
REMARK SMILES IDX 26 1 30 2 25 3 3 4 31 5 24 6 4 7 2 8 32 9 22 10 5 11 1 12
REMARK SMILES IDX 33 13 23 14 20 15 6 16 7 17 19 18 21 19 8 20 18 21 17 22
REMARK SMILES IDX 10 23 9 24 14 25 11 26 12 27 15 28 16 29 27 30 28 31 29 32
REMARK SMILES IDX 13 33
REMARK H PARENT 13 34
REMARK Flexibility Score: inf
ROOT
ATOM      1  C   UNL     1     168.631 170.138 171.972  1.00  0.00     0.017 C 
ATOM      2  C   UNL     1     168.752 171.329 172.954  1.00  0.00     0.014 C 
ATOM      3  C   UNL     1     167.357 170.290 171.063  1.00  0.00     0.014 C 
ATOM      4  C   UNL     1     169.881 170.146 171.044  1.00  0.00     0.030 C 
ATOM      5  C   UNL     1     169.978 171.200 173.893  1.00  0.00     0.004 C 
ATOM      6  C   UNL     1     167.539 169.883 169.562  1.00  0.00     0.013 C 
ATOM      7  C   UNL     1     169.810 168.916 170.126  1.00  0.00    -0.063 C 
ATOM      8  C   UNL     1     171.211 170.685 171.714  1.00  0.00    -0.003 C 
ATOM      9  C   UNL     1     171.213 170.497 173.252  1.00  0.00    -0.011 C 
ATOM     10  C   UNL     1     168.542 168.694 169.303  1.00  0.00    -0.006 C 
ATOM     11  C   UNL     1     170.763 167.989 170.048  1.00  0.00    -0.027 C 
ATOM     12  C   UNL     1     172.529 170.296 171.013  1.00  0.00     0.008 C 
ATOM     13  C   UNL     1     172.499 171.019 173.917  1.00  0.00     0.008 C 
ATOM     14  C   UNL     1     167.826 167.406 169.831  1.00  0.00     0.017 C 
ATOM     15  C   UNL     1     168.975 168.530 167.764  1.00  0.00    -0.020 C 
ATOM     16  C   UNL     1     171.029 167.237 168.775  1.00  0.00     0.032 C 
ATOM     17  C   UNL     1     169.960 167.282 167.606  1.00  0.00     0.006 C 
ATOM     18  C   UNL     1     169.705 169.842 167.251  1.00  0.00     0.008 C 
ATOM     19  C   UNL     1     167.664 168.284 166.932  1.00  0.00     0.012 C 
ATOM     20  C   UNL     1     170.618 167.090 166.130  1.00  0.00    -0.025 C 
ATOM     21  C   UNL     1     170.908 169.622 166.292  1.00  0.00     0.005 C 
ATOM     22  C   UNL     1     170.609 168.451 165.345  1.00  0.00     0.003 C 
ATOM     23  C   UNL     1     169.790 166.091 165.266  1.00  0.00     0.010 C 
ATOM     24  C   UNL     1     172.055 166.475 166.258  1.00  0.00     0.012 C 
ATOM     25  C   UNL     1     171.217 168.446 163.891  1.00  0.00    -0.006 C 
ATOM     26  C   UNL     1     170.291 165.976 163.801  1.00  0.00     0.033 C 
ATOM     27  C   UNL     1     170.468 167.333 163.070  1.00  0.00     0.120 C 
ATOM     28  C   UNL     1     172.757 168.268 163.853  1.00  0.00     0.014 C 
ATOM     29  C   UNL     1     170.910 169.805 163.191  1.00  0.00     0.014 C 
ENDROOT
BRANCH   1  30
ATOM     30  C   UNL     1     168.495 168.867 172.817  1.00  0.00     0.048 C 
ATOM     31  O   UNL     1     167.367 168.539 173.275  1.00  0.00    -0.550 OA
ATOM     32  O   UNL     1     169.587 168.060 173.111  1.00  0.00    -0.550 OA
ENDBRANCH   1  30
BRANCH  27  33
ATOM     33  O   UNL     1     171.115 167.123 161.839  1.00  0.00    -0.393 OA
ATOM     34  H   UNL     1     170.521 167.489 161.132  1.00  0.00     0.210 HD
ENDBRANCH  27  33
TORSDOF 2
ENDMDL
