MODEL 1
REMARK VINA RESULT:    -3.709      0.000      0.000
REMARK INTER + INTRA:          -5.177
REMARK INTER:                  -4.793
REMARK INTRA:                  -0.384
REMARK UNBOUND:                -0.384
REMARK SMILES CCOC(=O)C=Cc1ccc(O)c(O)c1
REMARK SMILES IDX 6 1 7 2 4 3 5 4 3 5 2 6 1 7 8 8 15 9 9 10 13 11 10 12 11 13
REMARK SMILES IDX 14 14 12 16
REMARK H PARENT 14 15 12 17
REMARK Flexibility Score: inf
ROOT
ATOM      1  C   UNL     1      50.384  83.713  32.392  1.00  0.00     0.094 C 
ATOM      2  C   UNL     1      51.271  83.036  31.649  1.00  0.00     0.016 C 
ENDROOT
BRANCH   1   3
ATOM      3  C   UNL     1      48.935  83.465  32.308  1.00  0.00     0.330 C 
ATOM      4  O   UNL     1      48.230  83.405  33.354  1.00  0.00    -0.247 OA
BRANCH   3   5
ATOM      5  O   UNL     1      48.353  83.288  31.048  1.00  0.00    -0.463 OA
BRANCH   5   6
ATOM      6  C   UNL     1      48.111  84.359  30.136  1.00  0.00     0.230 C 
ATOM      7  C   UNL     1      48.951  84.192  28.876  1.00  0.00     0.049 C 
ENDBRANCH   5   6
ENDBRANCH   3   5
ENDBRANCH   1   3
BRANCH   2   8
ATOM      8  C   UNL     1      52.738  83.250  31.717  1.00  0.00    -0.021 A 
ATOM      9  C   UNL     1      53.538  82.251  32.295  1.00  0.00     0.058 A 
ATOM     10  C   UNL     1      53.361  84.401  31.193  1.00  0.00     0.012 A 
ATOM     11  C   UNL     1      54.927  82.399  32.374  1.00  0.00     0.157 A 
ATOM     12  C   UNL     1      54.747  84.552  31.271  1.00  0.00     0.051 A 
ATOM     13  C   UNL     1      55.537  83.557  31.863  1.00  0.00     0.157 A 
BRANCH  11  14
ATOM     14  O   UNL     1      55.685  81.388  32.963  1.00  0.00    -0.504 OA
ATOM     15  H   UNL     1      56.616  81.553  33.324  1.00  0.00     0.293 HD
ENDBRANCH  11  14
BRANCH  13  16
ATOM     16  O   UNL     1      56.920  83.713  31.939  1.00  0.00    -0.504 OA
ATOM     17  H   UNL     1      57.353  84.239  32.688  1.00  0.00     0.293 HD
ENDBRANCH  13  16
ENDBRANCH   2   8
TORSDOF 6
ENDMDL
MODEL 2
REMARK VINA RESULT:    -3.691     12.179     13.981
REMARK INTER + INTRA:          -5.154
REMARK INTER:                  -4.885
REMARK INTRA:                  -0.269
REMARK UNBOUND:                -0.384
REMARK SMILES CCOC(=O)C=Cc1ccc(O)c(O)c1
REMARK SMILES IDX 6 1 7 2 4 3 5 4 3 5 2 6 1 7 8 8 15 9 9 10 13 11 10 12 11 13
REMARK SMILES IDX 14 14 12 16
REMARK H PARENT 14 15 12 17
REMARK Flexibility Score: inf
ROOT
ATOM      1  C   UNL     1      48.502  80.655  45.604  1.00  0.00     0.094 C 
ATOM      2  C   UNL     1      47.876  80.559  44.422  1.00  0.00     0.016 C 
ENDROOT
BRANCH   1   3
ATOM      3  C   UNL     1      48.206  79.750  46.727  1.00  0.00     0.330 C 
ATOM      4  O   UNL     1      47.892  78.544  46.518  1.00  0.00    -0.247 OA
BRANCH   3   5
ATOM      5  O   UNL     1      48.269  80.251  48.031  1.00  0.00    -0.463 OA
BRANCH   5   6
ATOM      6  C   UNL     1      49.418  80.905  48.568  1.00  0.00     0.230 C 
ATOM      7  C   UNL     1      49.079  82.329  48.990  1.00  0.00     0.049 C 
ENDBRANCH   5   6
ENDBRANCH   3   5
ENDBRANCH   1   3
BRANCH   2   8
ATOM      8  C   UNL     1      48.158  81.444  43.265  1.00  0.00    -0.021 A 
ATOM      9  C   UNL     1      48.243  80.873  41.985  1.00  0.00     0.058 A 
ATOM     10  C   UNL     1      48.309  82.839  43.398  1.00  0.00     0.012 A 
ATOM     11  C   UNL     1      48.497  81.666  40.860  1.00  0.00     0.157 A 
ATOM     12  C   UNL     1      48.563  83.633  42.277  1.00  0.00     0.051 A 
ATOM     13  C   UNL     1      48.661  83.053  41.005  1.00  0.00     0.157 A 
BRANCH  11  14
ATOM     14  O   UNL     1      48.584  81.058  39.608  1.00  0.00    -0.504 OA
ATOM     15  H   UNL     1      47.771  80.686  39.132  1.00  0.00     0.293 HD
ENDBRANCH  11  14
BRANCH  13  16
ATOM     16  O   UNL     1      48.916  83.849  39.889  1.00  0.00    -0.504 OA
ATOM     17  H   UNL     1      49.060  84.848  39.972  1.00  0.00     0.293 HD
ENDBRANCH  13  16
ENDBRANCH   2   8
TORSDOF 6
ENDMDL
MODEL 3
REMARK VINA RESULT:    -3.680      1.030      1.980
REMARK INTER + INTRA:          -5.139
REMARK INTER:                  -4.823
REMARK INTRA:                  -0.316
REMARK UNBOUND:                -0.384
REMARK SMILES CCOC(=O)C=Cc1ccc(O)c(O)c1
REMARK SMILES IDX 6 1 7 2 4 3 5 4 3 5 2 6 1 7 8 8 15 9 9 10 13 11 10 12 11 13
REMARK SMILES IDX 14 14 12 16
REMARK H PARENT 14 15 12 17
REMARK Flexibility Score: inf
ROOT
ATOM      1  C   UNL     1      50.372  83.713  31.298  1.00  0.00     0.094 C 
ATOM      2  C   UNL     1      51.262  82.986  31.989  1.00  0.00     0.016 C 
ENDROOT
BRANCH   1   3
ATOM      3  C   UNL     1      48.923  83.465  31.377  1.00  0.00     0.330 C 
ATOM      4  O   UNL     1      48.378  82.589  30.649  1.00  0.00    -0.247 OA
BRANCH   3   5
ATOM      5  O   UNL     1      48.157  84.224  32.268  1.00  0.00    -0.463 OA
BRANCH   5   6
ATOM      6  C   UNL     1      47.940  83.857  33.630  1.00  0.00     0.230 C 
ATOM      7  C   UNL     1      48.145  85.055  34.549  1.00  0.00     0.049 C 
ENDBRANCH   5   6
ENDBRANCH   3   5
ENDBRANCH   1   3
BRANCH   2   8
ATOM      8  C   UNL     1      52.727  83.217  31.944  1.00  0.00    -0.021 A 
ATOM      9  C   UNL     1      53.581  82.225  32.453  1.00  0.00     0.058 A 
ATOM     10  C   UNL     1      53.295  84.376  31.377  1.00  0.00     0.012 A 
ATOM     11  C   UNL     1      54.970  82.389  32.425  1.00  0.00     0.157 A 
ATOM     12  C   UNL     1      54.681  84.542  31.347  1.00  0.00     0.051 A 
ATOM     13  C   UNL     1      55.526  83.555  31.872  1.00  0.00     0.157 A 
BRANCH  11  14
ATOM     14  O   UNL     1      55.783  81.384  32.949  1.00  0.00    -0.504 OA
ATOM     15  H   UNL     1      55.889  80.485  32.497  1.00  0.00     0.293 HD
ENDBRANCH  11  14
BRANCH  13  16
ATOM     16  O   UNL     1      56.909  83.725  31.841  1.00  0.00    -0.504 OA
ATOM     17  H   UNL     1      57.394  83.966  30.986  1.00  0.00     0.293 HD
ENDBRANCH  13  16
ENDBRANCH   2   8
TORSDOF 6
ENDMDL
MODEL 4
REMARK VINA RESULT:    -3.437      1.593      6.285
REMARK INTER + INTRA:          -4.825
REMARK INTER:                  -4.565
REMARK INTRA:                  -0.260
REMARK UNBOUND:                -0.384
REMARK SMILES CCOC(=O)C=Cc1ccc(O)c(O)c1
REMARK SMILES IDX 6 1 7 2 4 3 5 4 3 5 2 6 1 7 8 8 15 9 9 10 13 11 10 12 11 13
REMARK SMILES IDX 14 14 12 16
REMARK H PARENT 14 15 12 17
REMARK Flexibility Score: inf
ROOT
ATOM      1  C   UNL     1      54.065  83.051  31.251  1.00  0.00     0.094 C 
ATOM      2  C   UNL     1      52.906  83.321  31.869  1.00  0.00     0.016 C 
ENDROOT
BRANCH   1   3
ATOM      3  C   UNL     1      55.316  82.819  31.991  1.00  0.00     0.330 C 
ATOM      4  O   UNL     1      55.389  81.911  32.865  1.00  0.00    -0.247 OA
BRANCH   3   5
ATOM      5  O   UNL     1      56.422  83.629  31.714  1.00  0.00    -0.463 OA
BRANCH   5   6
ATOM      6  C   UNL     1      56.465  84.562  30.635  1.00  0.00     0.230 C 
ATOM      7  C   UNL     1      57.804  84.487  29.912  1.00  0.00     0.049 C 
ENDBRANCH   5   6
ENDBRANCH   3   5
ENDBRANCH   1   3
BRANCH   2   8
ATOM      8  C   UNL     1      51.624  83.547  31.157  1.00  0.00    -0.021 A 
ATOM      9  C   UNL     1      50.691  82.498  31.100  1.00  0.00     0.058 A 
ATOM     10  C   UNL     1      51.293  84.784  30.567  1.00  0.00     0.012 A 
ATOM     11  C   UNL     1      49.464  82.663  30.449  1.00  0.00     0.157 A 
ATOM     12  C   UNL     1      50.068  84.951  29.917  1.00  0.00     0.051 A 
ATOM     13  C   UNL     1      49.150  83.895  29.851  1.00  0.00     0.157 A 
BRANCH  11  14
ATOM     14  O   UNL     1      48.570  81.594  30.406  1.00  0.00    -0.504 OA
ATOM     15  H   UNL     1      47.567  81.730  30.378  1.00  0.00     0.293 HD
ENDBRANCH  11  14
BRANCH  13  16
ATOM     16  O   UNL     1      47.929  84.066  29.200  1.00  0.00    -0.504 OA
ATOM     17  H   UNL     1      47.083  83.622  29.535  1.00  0.00     0.293 HD
ENDBRANCH  13  16
ENDBRANCH   2   8
TORSDOF 6
ENDMDL
MODEL 5
REMARK VINA RESULT:    -3.374      1.587      6.269
REMARK INTER + INTRA:          -4.744
REMARK INTER:                  -4.367
REMARK INTRA:                  -0.377
REMARK UNBOUND:                -0.384
REMARK SMILES CCOC(=O)C=Cc1ccc(O)c(O)c1
REMARK SMILES IDX 6 1 7 2 4 3 5 4 3 5 2 6 1 7 8 8 15 9 9 10 13 11 10 12 11 13
REMARK SMILES IDX 14 14 12 16
REMARK H PARENT 14 15 12 17
REMARK Flexibility Score: inf
ROOT
ATOM      1  C   UNL     1      54.257  83.500  31.874  1.00  0.00     0.094 C 
ATOM      2  C   UNL     1      53.430  84.000  30.944  1.00  0.00     0.016 C 
ENDROOT
BRANCH   1   3
ATOM      3  C   UNL     1      55.655  83.941  32.003  1.00  0.00     0.330 C 
ATOM      4  O   UNL     1      56.337  83.630  33.019  1.00  0.00    -0.247 OA
BRANCH   3   5
ATOM      5  O   UNL     1      56.214  84.719  30.984  1.00  0.00    -0.463 OA
BRANCH   5   6
ATOM      6  C   UNL     1      57.310  84.291  30.177  1.00  0.00     0.230 C 
ATOM      7  C   UNL     1      56.856  83.250  29.161  1.00  0.00     0.049 C 
ENDBRANCH   5   6
ENDBRANCH   3   5
ENDBRANCH   1   3
BRANCH   2   8
ATOM      8  C   UNL     1      52.012  83.589  30.794  1.00  0.00    -0.021 A 
ATOM      9  C   UNL     1      51.171  83.650  31.917  1.00  0.00     0.058 A 
ATOM     10  C   UNL     1      51.470  83.175  29.560  1.00  0.00     0.012 A 
ATOM     11  C   UNL     1      49.824  83.283  31.826  1.00  0.00     0.157 A 
ATOM     12  C   UNL     1      50.125  82.809  29.467  1.00  0.00     0.051 A 
ATOM     13  C   UNL     1      49.297  82.857  30.595  1.00  0.00     0.157 A 
BRANCH  11  14
ATOM     14  O   UNL     1      49.024  83.348  32.967  1.00  0.00    -0.504 OA
ATOM     15  H   UNL     1      48.770  84.228  33.397  1.00  0.00     0.293 HD
ENDBRANCH  11  14
BRANCH  13  16
ATOM     16  O   UNL     1      47.956  82.489  30.497  1.00  0.00    -0.504 OA
ATOM     17  H   UNL     1      47.681  81.534  30.305  1.00  0.00     0.293 HD
ENDBRANCH  13  16
ENDBRANCH   2   8
TORSDOF 6
ENDMDL
MODEL 6
REMARK VINA RESULT:    -3.349      1.475      6.104
REMARK INTER + INTRA:          -4.711
REMARK INTER:                  -4.427
REMARK INTRA:                  -0.285
REMARK UNBOUND:                -0.384
REMARK SMILES CCOC(=O)C=Cc1ccc(O)c(O)c1
REMARK SMILES IDX 6 1 7 2 4 3 5 4 3 5 2 6 1 7 8 8 15 9 9 10 13 11 10 12 11 13
REMARK SMILES IDX 14 14 12 16
REMARK H PARENT 14 15 12 17
REMARK Flexibility Score: inf
ROOT
ATOM      1  C   UNL     1      54.434  84.112  31.953  1.00  0.00     0.094 C 
ATOM      2  C   UNL     1      53.506  83.145  31.923  1.00  0.00     0.016 C 
ENDROOT
BRANCH   1   3
ATOM      3  C   UNL     1      55.877  83.819  31.949  1.00  0.00     0.330 C 
ATOM      4  O   UNL     1      56.494  83.602  33.029  1.00  0.00    -0.247 OA
BRANCH   3   5
ATOM      5  O   UNL     1      56.556  83.795  30.726  1.00  0.00    -0.463 OA
BRANCH   5   6
ATOM      6  C   UNL     1      55.926  83.491  29.482  1.00  0.00     0.230 C 
ATOM      7  C   UNL     1      55.912  81.987  29.239  1.00  0.00     0.049 C 
ENDBRANCH   5   6
ENDBRANCH   3   5
ENDBRANCH   1   3
BRANCH   2   8
ATOM      8  C   UNL     1      52.045  83.403  31.913  1.00  0.00    -0.021 A 
ATOM      9  C   UNL     1      51.214  82.545  31.174  1.00  0.00     0.058 A 
ATOM     10  C   UNL     1      51.457  84.455  32.644  1.00  0.00     0.012 A 
ATOM     11  C   UNL     1      49.829  82.740  31.140  1.00  0.00     0.157 A 
ATOM     12  C   UNL     1      50.074  84.651  32.612  1.00  0.00     0.051 A 
ATOM     13  C   UNL     1      49.254  83.800  31.860  1.00  0.00     0.157 A 
BRANCH  11  14
ATOM     14  O   UNL     1      49.040  81.871  30.386  1.00  0.00    -0.504 OA
ATOM     15  H   UNL     1      48.693  80.997  30.760  1.00  0.00     0.293 HD
ENDBRANCH  11  14
BRANCH  13  16
ATOM     16  O   UNL     1      47.875  84.001  31.830  1.00  0.00    -0.504 OA
ATOM     17  H   UNL     1      47.246  83.303  31.452  1.00  0.00     0.293 HD
ENDBRANCH  13  16
ENDBRANCH   2   8
TORSDOF 6
ENDMDL
MODEL 7
REMARK VINA RESULT:    -3.105      1.844      6.369
REMARK INTER + INTRA:          -4.397
REMARK INTER:                  -4.121
REMARK INTRA:                  -0.276
REMARK UNBOUND:                -0.384
REMARK SMILES CCOC(=O)C=Cc1ccc(O)c(O)c1
REMARK SMILES IDX 6 1 7 2 4 3 5 4 3 5 2 6 1 7 8 8 15 9 9 10 13 11 10 12 11 13
REMARK SMILES IDX 14 14 12 16
REMARK H PARENT 14 15 12 17
REMARK Flexibility Score: inf
ROOT
ATOM      1  C   UNL     1      54.001  82.709  30.293  1.00  0.00     0.094 C 
ATOM      2  C   UNL     1      53.442  82.922  31.493  1.00  0.00     0.016 C 
ENDROOT
BRANCH   1   3
ATOM      3  C   UNL     1      55.423  82.359  30.139  1.00  0.00     0.330 C 
ATOM      4  O   UNL     1      55.778  81.435  29.355  1.00  0.00    -0.247 OA
BRANCH   3   5
ATOM      5  O   UNL     1      56.375  83.062  30.884  1.00  0.00    -0.463 OA
BRANCH   5   6
ATOM      6  C   UNL     1      56.889  84.337  30.501  1.00  0.00     0.230 C 
ATOM      7  C   UNL     1      57.771  84.213  29.265  1.00  0.00     0.049 C 
ENDBRANCH   5   6
ENDBRANCH   3   5
ENDBRANCH   1   3
BRANCH   2   8
ATOM      8  C   UNL     1      52.010  83.263  31.686  1.00  0.00    -0.021 A 
ATOM      9  C   UNL     1      51.040  82.510  31.004  1.00  0.00     0.058 A 
ATOM     10  C   UNL     1      51.587  84.290  32.553  1.00  0.00     0.012 A 
ATOM     11  C   UNL     1      49.678  82.784  31.160  1.00  0.00     0.157 A 
ATOM     12  C   UNL     1      50.227  84.566  32.711  1.00  0.00     0.051 A 
ATOM     13  C   UNL     1      49.266  83.820  32.016  1.00  0.00     0.157 A 
BRANCH  11  14
ATOM     14  O   UNL     1      48.747  82.019  30.459  1.00  0.00    -0.504 OA
ATOM     15  H   UNL     1      48.974  81.109  30.079  1.00  0.00     0.293 HD
ENDBRANCH  11  14
BRANCH  13  16
ATOM     16  O   UNL     1      47.910  84.100  32.175  1.00  0.00    -0.504 OA
ATOM     17  H   UNL     1      47.283  83.446  32.628  1.00  0.00     0.293 HD
ENDBRANCH  13  16
ENDBRANCH   2   8
TORSDOF 6
ENDMDL
MODEL 8
REMARK VINA RESULT:    -3.000      1.974      6.503
REMARK INTER + INTRA:          -4.261
REMARK INTER:                  -3.974
REMARK INTRA:                  -0.287
REMARK UNBOUND:                -0.384
REMARK SMILES CCOC(=O)C=Cc1ccc(O)c(O)c1
REMARK SMILES IDX 6 1 7 2 4 3 5 4 3 5 2 6 1 7 8 8 15 9 9 10 13 11 10 12 11 13
REMARK SMILES IDX 14 14 12 16
REMARK H PARENT 14 15 12 17
REMARK Flexibility Score: inf
ROOT
ATOM      1  C   UNL     1      54.389  83.997  30.008  1.00  0.00     0.094 C 
ATOM      2  C   UNL     1      53.459  83.070  29.741  1.00  0.00     0.016 C 
ENDROOT
BRANCH   1   3
ATOM      3  C   UNL     1      55.816  83.663  30.150  1.00  0.00     0.330 C 
ATOM      4  O   UNL     1      56.471  83.206  29.172  1.00  0.00    -0.247 OA
BRANCH   3   5
ATOM      5  O   UNL     1      56.432  83.852  31.391  1.00  0.00    -0.463 OA
BRANCH   5   6
ATOM      6  C   UNL     1      55.830  83.488  32.633  1.00  0.00     0.230 C 
ATOM      7  C   UNL     1      55.429  82.017  32.625  1.00  0.00     0.049 C 
ENDBRANCH   5   6
ENDBRANCH   3   5
ENDBRANCH   1   3
BRANCH   2   8
ATOM      8  C   UNL     1      52.015  83.373  29.578  1.00  0.00    -0.021 A 
ATOM      9  C   UNL     1      51.074  82.443  30.051  1.00  0.00     0.058 A 
ATOM     10  C   UNL     1      51.553  84.572  29.000  1.00  0.00     0.012 A 
ATOM     11  C   UNL     1      49.702  82.685  29.931  1.00  0.00     0.157 A 
ATOM     12  C   UNL     1      50.183  84.817  28.879  1.00  0.00     0.051 A 
ATOM     13  C   UNL     1      49.251  83.878  29.339  1.00  0.00     0.157 A 
BRANCH  11  14
ATOM     14  O   UNL     1      48.800  81.733  30.404  1.00  0.00    -0.504 OA
ATOM     15  H   UNL     1      48.826  81.393  31.358  1.00  0.00     0.293 HD
ENDBRANCH  11  14
BRANCH  13  16
ATOM     16  O   UNL     1      47.885  84.125  29.215  1.00  0.00    -0.504 OA
ATOM     17  H   UNL     1      47.353  84.550  29.965  1.00  0.00     0.293 HD
ENDBRANCH  13  16
ENDBRANCH   2   8
TORSDOF 6
ENDMDL
MODEL 9
REMARK VINA RESULT:    -1.649     12.092     13.683
REMARK INTER + INTRA:          -2.514
REMARK INTER:                  -2.229
REMARK INTRA:                  -0.285
REMARK UNBOUND:                -0.384
REMARK SMILES CCOC(=O)C=Cc1ccc(O)c(O)c1
REMARK SMILES IDX 6 1 7 2 4 3 5 4 3 5 2 6 1 7 8 8 15 9 9 10 13 11 10 12 11 13
REMARK SMILES IDX 14 14 12 16
REMARK H PARENT 14 15 12 17
REMARK Flexibility Score: inf
ROOT
ATOM      1  C   UNL     1      48.477  81.735  42.441  1.00  0.00     0.094 C 
ATOM      2  C   UNL     1      48.263  82.334  43.621  1.00  0.00     0.016 C 
ENDROOT
BRANCH   1   3
ATOM      3  C   UNL     1      48.340  82.448  41.160  1.00  0.00     0.330 C 
ATOM      4  O   UNL     1      48.630  83.674  41.071  1.00  0.00    -0.247 OA
BRANCH   3   5
ATOM      5  O   UNL     1      47.875  81.746  40.044  1.00  0.00    -0.463 OA
BRANCH   5   6
ATOM      6  C   UNL     1      47.995  80.331  39.898  1.00  0.00     0.230 C 
ATOM      7  C   UNL     1      49.361  79.963  39.330  1.00  0.00     0.049 C 
ENDBRANCH   5   6
ENDBRANCH   3   5
ENDBRANCH   1   3
BRANCH   2   8
ATOM      8  C   UNL     1      48.404  81.651  44.931  1.00  0.00    -0.021 A 
ATOM      9  C   UNL     1      48.124  80.276  45.007  1.00  0.00     0.058 A 
ATOM     10  C   UNL     1      48.842  82.320  46.091  1.00  0.00     0.012 A 
ATOM     11  C   UNL     1      48.251  79.583  46.215  1.00  0.00     0.157 A 
ATOM     12  C   UNL     1      48.971  81.630  47.299  1.00  0.00     0.051 A 
ATOM     13  C   UNL     1      48.674  80.262  47.370  1.00  0.00     0.157 A 
BRANCH  11  14
ATOM     14  O   UNL     1      47.953  78.221  46.250  1.00  0.00    -0.504 OA
ATOM     15  H   UNL     1      47.341  77.785  45.572  1.00  0.00     0.293 HD
ENDBRANCH  11  14
BRANCH  13  16
ATOM     16  O   UNL     1      48.802  79.578  48.578  1.00  0.00    -0.504 OA
ATOM     17  H   UNL     1      48.974  78.581  48.606  1.00  0.00     0.293 HD
ENDBRANCH  13  16
ENDBRANCH   2   8
TORSDOF 6
ENDMDL
