MODEL 1
REMARK VINA RESULT:    -3.329      0.000      0.000
REMARK INTER + INTRA:          -8.365
REMARK INTER:                  -6.249
REMARK INTRA:                  -2.116
REMARK UNBOUND:                -2.116
REMARK SMILES CCCCCCCCC=CCCCCCCCC(=O)[O-]
REMARK SMILES IDX 10 1 9 2 11 3 12 4 13 5 14 6 15 7 16 8 17 9 18 10 19 11
REMARK SMILES IDX 20 12 8 13 7 14 6 15 5 16 4 17 3 18 2 19 1 20
REMARK H PARENT
REMARK Flexibility Score: inf
ROOT
ATOM      1  C   UNL     1      24.594  10.090   4.345  1.00  0.00    -0.031 C 
ATOM      2  C   UNL     1      25.386   9.326   5.121  1.00  0.00    -0.031 C 
ENDROOT
BRANCH   1   3
ATOM      3  C   UNL     1      24.046  11.435   4.747  1.00  0.00     0.027 C 
BRANCH   3   4
ATOM      4  C   UNL     1      22.687  11.283   5.446  1.00  0.00     0.004 C 
BRANCH   4   5
ATOM      5  C   UNL     1      22.323  12.501   6.309  1.00  0.00     0.000 C 
BRANCH   5   6
ATOM      6  C   UNL     1      21.899  12.109   7.735  1.00  0.00     0.000 C 
BRANCH   6   7
ATOM      7  C   UNL     1      21.749  10.588   7.909  1.00  0.00     0.000 C 
BRANCH   7   8
ATOM      8  C   UNL     1      20.638  10.210   8.900  1.00  0.00     0.006 C 
BRANCH   8   9
ATOM      9  C   UNL     1      19.390   9.719   8.160  1.00  0.00     0.053 C 
BRANCH   9  10
ATOM     10  C   UNL     1      18.446   9.052   9.109  1.00  0.00     0.041 C 
ATOM     11  O   UNL     1      18.714   7.912   9.572  1.00  0.00    -0.550 OA
ATOM     12  O   UNL     1      17.294   9.708   9.521  1.00  0.00    -0.550 OA
ENDBRANCH   9  10
ENDBRANCH   8   9
ENDBRANCH   7   8
ENDBRANCH   6   7
ENDBRANCH   5   6
ENDBRANCH   4   5
ENDBRANCH   3   4
ENDBRANCH   1   3
BRANCH   2  13
ATOM     13  C   UNL     1      25.773   9.662   6.539  1.00  0.00     0.027 C 
BRANCH  13  14
ATOM     14  C   UNL     1      27.224  10.150   6.605  1.00  0.00     0.004 C 
BRANCH  14  15
ATOM     15  C   UNL     1      27.296  11.677   6.490  1.00  0.00     0.000 C 
BRANCH  15  16
ATOM     16  C   UNL     1      27.901  12.099   5.142  1.00  0.00     0.000 C 
BRANCH  16  17
ATOM     17  C   UNL     1      28.771  11.000   4.506  1.00  0.00    -0.000 C 
BRANCH  17  18
ATOM     18  C   UNL     1      28.324  10.543   3.102  1.00  0.00    -0.000 C 
BRANCH  18  19
ATOM     19  C   UNL     1      28.283   9.018   2.896  1.00  0.00    -0.003 C 
ATOM     20  C   UNL     1      29.068   8.252   3.961  1.00  0.00     0.004 C 
ENDBRANCH  18  19
ENDBRANCH  17  18
ENDBRANCH  16  17
ENDBRANCH  15  16
ENDBRANCH  14  15
ENDBRANCH  13  14
ENDBRANCH   2  13
TORSDOF 15
ENDMDL
MODEL 2
REMARK VINA RESULT:    -3.313     16.262     18.643
REMARK INTER + INTRA:          -8.334
REMARK INTER:                  -5.616
REMARK INTRA:                  -2.718
REMARK UNBOUND:                -2.116
REMARK SMILES CCCCCCCCC=CCCCCCCCC(=O)[O-]
REMARK SMILES IDX 10 1 9 2 11 3 12 4 13 5 14 6 15 7 16 8 17 9 18 10 19 11
REMARK SMILES IDX 20 12 8 13 7 14 6 15 5 16 4 17 3 18 2 19 1 20
REMARK H PARENT
REMARK Flexibility Score: inf
ROOT
ATOM      1  C   UNL     1      16.053  -3.171  14.439  1.00  0.00    -0.031 C 
ATOM      2  C   UNL     1      15.835  -4.053  15.432  1.00  0.00    -0.031 C 
ENDROOT
BRANCH   1   3
ATOM      3  C   UNL     1      15.318  -1.864  14.281  1.00  0.00     0.027 C 
BRANCH   3   4
ATOM      4  C   UNL     1      16.263  -0.676  14.514  1.00  0.00     0.004 C 
BRANCH   4   5
ATOM      5  C   UNL     1      17.441  -1.027  15.437  1.00  0.00     0.000 C 
BRANCH   5   6
ATOM      6  C   UNL     1      17.430  -0.214  16.743  1.00  0.00     0.000 C 
BRANCH   6   7
ATOM      7  C   UNL     1      18.213  -0.904  17.873  1.00  0.00     0.000 C 
BRANCH   7   8
ATOM      8  C   UNL     1      19.611  -0.301  18.080  1.00  0.00     0.006 C 
BRANCH   8   9
ATOM      9  C   UNL     1      20.673  -1.117  17.335  1.00  0.00     0.053 C 
BRANCH   9  10
ATOM     10  C   UNL     1      21.152  -2.251  18.183  1.00  0.00     0.041 C 
ATOM     11  O   UNL     1      21.579  -3.308  17.646  1.00  0.00    -0.550 OA
ATOM     12  O   UNL     1      21.172  -2.126  19.566  1.00  0.00    -0.550 OA
ENDBRANCH   9  10
ENDBRANCH   8   9
ENDBRANCH   7   8
ENDBRANCH   6   7
ENDBRANCH   5   6
ENDBRANCH   4   5
ENDBRANCH   3   4
ENDBRANCH   1   3
BRANCH   2  13
ATOM     13  C   UNL     1      14.765  -3.907  16.485  1.00  0.00     0.027 C 
BRANCH  13  14
ATOM     14  C   UNL     1      15.335  -3.255  17.751  1.00  0.00     0.004 C 
BRANCH  14  15
ATOM     15  C   UNL     1      14.546  -1.993  18.120  1.00  0.00     0.000 C 
BRANCH  15  16
ATOM     16  C   UNL     1      13.314  -1.831  17.219  1.00  0.00     0.000 C 
BRANCH  16  17
ATOM     17  C   UNL     1      13.081  -0.374  16.779  1.00  0.00    -0.000 C 
BRANCH  17  18
ATOM     18  C   UNL     1      13.926   0.677  17.527  1.00  0.00    -0.000 C 
BRANCH  18  19
ATOM     19  C   UNL     1      13.862   2.099  16.942  1.00  0.00    -0.003 C 
ATOM     20  C   UNL     1      15.035   2.416  16.015  1.00  0.00     0.004 C 
ENDBRANCH  18  19
ENDBRANCH  17  18
ENDBRANCH  16  17
ENDBRANCH  15  16
ENDBRANCH  14  15
ENDBRANCH  13  14
ENDBRANCH   2  13
TORSDOF 15
ENDMDL
MODEL 3
REMARK VINA RESULT:    -3.313      3.987      9.057
REMARK INTER + INTRA:          -8.334
REMARK INTER:                  -6.752
REMARK INTRA:                  -1.582
REMARK UNBOUND:                -2.116
REMARK SMILES CCCCCCCCC=CCCCCCCCC(=O)[O-]
REMARK SMILES IDX 10 1 9 2 11 3 12 4 13 5 14 6 15 7 16 8 17 9 18 10 19 11
REMARK SMILES IDX 20 12 8 13 7 14 6 15 5 16 4 17 3 18 2 19 1 20
REMARK H PARENT
REMARK Flexibility Score: inf
ROOT
ATOM      1  C   UNL     1      20.920  11.366   7.903  1.00  0.00    -0.031 C 
ATOM      2  C   UNL     1      19.792  11.231   7.180  1.00  0.00    -0.031 C 
ENDROOT
BRANCH   1   3
ATOM      3  C   UNL     1      22.174  10.557   7.688  1.00  0.00     0.027 C 
BRANCH   3   4
ATOM      4  C   UNL     1      23.119  11.267   6.708  1.00  0.00     0.004 C 
BRANCH   4   5
ATOM      5  C   UNL     1      23.358  10.459   5.423  1.00  0.00     0.000 C 
BRANCH   5   6
ATOM      6  C   UNL     1      24.840  10.100   5.218  1.00  0.00     0.000 C 
BRANCH   6   7
ATOM      7  C   UNL     1      25.493   9.539   6.492  1.00  0.00     0.000 C 
BRANCH   7   8
ATOM      8  C   UNL     1      26.978   9.912   6.612  1.00  0.00     0.006 C 
BRANCH   8   9
ATOM      9  C   UNL     1      27.462  10.639   5.354  1.00  0.00     0.053 C 
BRANCH   9  10
ATOM     10  C   UNL     1      28.025  11.979   5.707  1.00  0.00     0.041 C 
ATOM     11  O   UNL     1      27.862  12.450   6.863  1.00  0.00    -0.550 OA
ATOM     12  O   UNL     1      28.771  12.688   4.774  1.00  0.00    -0.550 OA
ENDBRANCH   9  10
ENDBRANCH   8   9
ENDBRANCH   7   8
ENDBRANCH   6   7
ENDBRANCH   5   6
ENDBRANCH   4   5
ENDBRANCH   3   4
ENDBRANCH   1   3
BRANCH   2  13
ATOM     13  C   UNL     1      19.586  10.194   6.104  1.00  0.00     0.027 C 
BRANCH  13  14
ATOM     14  C   UNL     1      18.830   8.981   6.657  1.00  0.00     0.004 C 
BRANCH  14  15
ATOM     15  C   UNL     1      17.977   9.372   7.869  1.00  0.00     0.000 C 
BRANCH  15  16
ATOM     16  C   UNL     1      18.430   8.618   9.127  1.00  0.00     0.000 C 
BRANCH  16  17
ATOM     17  C   UNL     1      17.970   9.295  10.431  1.00  0.00    -0.000 C 
BRANCH  17  18
ATOM     18  C   UNL     1      17.713  10.812  10.324  1.00  0.00    -0.000 C 
BRANCH  18  19
ATOM     19  C   UNL     1      18.748  11.699  11.037  1.00  0.00    -0.003 C 
ATOM     20  C   UNL     1      18.200  12.351  12.307  1.00  0.00     0.004 C 
ENDBRANCH  18  19
ENDBRANCH  17  18
ENDBRANCH  16  17
ENDBRANCH  15  16
ENDBRANCH  14  15
ENDBRANCH  13  14
ENDBRANCH   2  13
TORSDOF 15
ENDMDL
MODEL 4
REMARK VINA RESULT:    -3.296      4.087      8.559
REMARK INTER + INTRA:          -8.302
REMARK INTER:                  -6.683
REMARK INTRA:                  -1.619
REMARK UNBOUND:                -2.116
REMARK SMILES CCCCCCCCC=CCCCCCCCC(=O)[O-]
REMARK SMILES IDX 10 1 9 2 11 3 12 4 13 5 14 6 15 7 16 8 17 9 18 10 19 11
REMARK SMILES IDX 20 12 8 13 7 14 6 15 5 16 4 17 3 18 2 19 1 20
REMARK H PARENT
REMARK Flexibility Score: inf
ROOT
ATOM      1  C   UNL     1      23.889  10.943   5.480  1.00  0.00    -0.031 C 
ATOM      2  C   UNL     1      23.128  10.556   6.521  1.00  0.00    -0.031 C 
ENDROOT
BRANCH   1   3
ATOM      3  C   UNL     1      24.085  12.376   5.051  1.00  0.00     0.027 C 
BRANCH   3   4
ATOM      4  C   UNL     1      25.568  12.664   4.776  1.00  0.00     0.004 C 
BRANCH   4   5
ATOM      5  C   UNL     1      26.415  12.690   6.058  1.00  0.00     0.000 C 
BRANCH   5   6
ATOM      6  C   UNL     1      27.568  11.671   6.026  1.00  0.00     0.000 C 
BRANCH   6   7
ATOM      7  C   UNL     1      27.229  10.375   6.782  1.00  0.00     0.000 C 
BRANCH   7   8
ATOM      8  C   UNL     1      27.094   9.162   5.849  1.00  0.00     0.006 C 
BRANCH   8   9
ATOM      9  C   UNL     1      27.461   9.537   4.409  1.00  0.00     0.053 C 
BRANCH   9  10
ATOM     10  C   UNL     1      28.370   8.508   3.816  1.00  0.00     0.041 C 
ATOM     11  O   UNL     1      29.395   8.131   4.443  1.00  0.00    -0.550 OA
ATOM     12  O   UNL     1      28.061   7.930   2.591  1.00  0.00    -0.550 OA
ENDBRANCH   9  10
ENDBRANCH   8   9
ENDBRANCH   7   8
ENDBRANCH   6   7
ENDBRANCH   5   6
ENDBRANCH   4   5
ENDBRANCH   3   4
ENDBRANCH   1   3
BRANCH   2  13
ATOM     13  C   UNL     1      22.291  11.489   7.360  1.00  0.00     0.027 C 
BRANCH  13  14
ATOM     14  C   UNL     1      21.214  10.712   8.126  1.00  0.00     0.004 C 
BRANCH  14  15
ATOM     15  C   UNL     1      19.999  11.600   8.417  1.00  0.00     0.000 C 
BRANCH  15  16
ATOM     16  C   UNL     1      19.880  11.895   9.919  1.00  0.00     0.000 C 
BRANCH  16  17
ATOM     17  C   UNL     1      18.521  11.475  10.507  1.00  0.00    -0.000 C 
BRANCH  17  18
ATOM     18  C   UNL     1      17.807  10.334   9.753  1.00  0.00    -0.000 C 
BRANCH  18  19
ATOM     19  C   UNL     1      18.016   8.930  10.348  1.00  0.00    -0.003 C 
ATOM     20  C   UNL     1      18.695   7.966   9.376  1.00  0.00     0.004 C 
ENDBRANCH  18  19
ENDBRANCH  17  18
ENDBRANCH  16  17
ENDBRANCH  15  16
ENDBRANCH  14  15
ENDBRANCH  13  14
ENDBRANCH   2  13
TORSDOF 15
ENDMDL
MODEL 5
REMARK VINA RESULT:    -3.291      9.419     10.750
REMARK INTER + INTRA:          -8.292
REMARK INTER:                  -5.379
REMARK INTRA:                  -2.913
REMARK UNBOUND:                -2.116
REMARK SMILES CCCCCCCCC=CCCCCCCCC(=O)[O-]
REMARK SMILES IDX 10 1 9 2 11 3 12 4 13 5 14 6 15 7 16 8 17 9 18 10 19 11
REMARK SMILES IDX 20 12 8 13 7 14 6 15 5 16 4 17 3 18 2 19 1 20
REMARK H PARENT
REMARK Flexibility Score: inf
ROOT
ATOM      1  C   UNL     1      25.793   2.212   5.700  1.00  0.00    -0.031 C 
ATOM      2  C   UNL     1      26.159   1.027   5.174  1.00  0.00    -0.031 C 
ENDROOT
BRANCH   1   3
ATOM      3  C   UNL     1      24.541   2.437   6.508  1.00  0.00     0.027 C 
BRANCH   3   4
ATOM      4  C   UNL     1      23.440   3.067   5.642  1.00  0.00     0.004 C 
BRANCH   4   5
ATOM      5  C   UNL     1      22.090   2.345   5.782  1.00  0.00     0.000 C 
BRANCH   5   6
ATOM      6  C   UNL     1      21.685   1.596   4.500  1.00  0.00     0.000 C 
BRANCH   6   7
ATOM      7  C   UNL     1      21.607   0.074   4.707  1.00  0.00     0.000 C 
BRANCH   7   8
ATOM      8  C   UNL     1      21.740  -0.332   6.183  1.00  0.00     0.006 C 
BRANCH   8   9
ATOM      9  C   UNL     1      21.961  -1.842   6.317  1.00  0.00     0.053 C 
BRANCH   9  10
ATOM     10  C   UNL     1      20.851  -2.467   7.100  1.00  0.00     0.041 C 
ATOM     11  O   UNL     1      20.351  -1.860   8.084  1.00  0.00    -0.550 OA
ATOM     12  O   UNL     1      20.335  -3.698   6.716  1.00  0.00    -0.550 OA
ENDBRANCH   9  10
ENDBRANCH   8   9
ENDBRANCH   7   8
ENDBRANCH   6   7
ENDBRANCH   5   6
ENDBRANCH   4   5
ENDBRANCH   3   4
ENDBRANCH   1   3
BRANCH   2  13
ATOM     13  C   UNL     1      25.328  -0.230   5.242  1.00  0.00     0.027 C 
BRANCH  13  14
ATOM     14  C   UNL     1      25.944  -1.236   6.221  1.00  0.00     0.004 C 
BRANCH  14  15
ATOM     15  C   UNL     1      25.398  -1.028   7.638  1.00  0.00     0.000 C 
BRANCH  15  16
ATOM     16  C   UNL     1      26.539  -0.784   8.636  1.00  0.00     0.000 C 
BRANCH  16  17
ATOM     17  C   UNL     1      26.373   0.526   9.427  1.00  0.00    -0.000 C 
BRANCH  17  18
ATOM     18  C   UNL     1      27.383   1.637   9.072  1.00  0.00    -0.000 C 
BRANCH  18  19
ATOM     19  C   UNL     1      28.691   1.145   8.429  1.00  0.00    -0.003 C 
ATOM     20  C   UNL     1      29.126   1.994   7.235  1.00  0.00     0.004 C 
ENDBRANCH  18  19
ENDBRANCH  17  18
ENDBRANCH  16  17
ENDBRANCH  15  16
ENDBRANCH  14  15
ENDBRANCH  13  14
ENDBRANCH   2  13
TORSDOF 15
ENDMDL
MODEL 6
REMARK VINA RESULT:    -3.288      9.202     11.626
REMARK INTER + INTRA:          -8.286
REMARK INTER:                  -6.115
REMARK INTRA:                  -2.171
REMARK UNBOUND:                -2.116
REMARK SMILES CCCCCCCCC=CCCCCCCCC(=O)[O-]
REMARK SMILES IDX 10 1 9 2 11 3 12 4 13 5 14 6 15 7 16 8 17 9 18 10 19 11
REMARK SMILES IDX 20 12 8 13 7 14 6 15 5 16 4 17 3 18 2 19 1 20
REMARK H PARENT
REMARK Flexibility Score: inf
ROOT
ATOM      1  C   UNL     1      25.962   1.249   6.282  1.00  0.00    -0.031 C 
ATOM      2  C   UNL     1      25.397   2.332   5.717  1.00  0.00    -0.031 C 
ENDROOT
BRANCH   1   3
ATOM      3  C   UNL     1      25.360   0.468   7.423  1.00  0.00     0.027 C 
BRANCH   3   4
ATOM      4  C   UNL     1      26.458  -0.189   8.272  1.00  0.00     0.004 C 
BRANCH   4   5
ATOM      5  C   UNL     1      26.304   0.106   9.773  1.00  0.00     0.000 C 
BRANCH   5   6
ATOM      6  C   UNL     1      27.577   0.711  10.389  1.00  0.00     0.000 C 
BRANCH   6   7
ATOM      7  C   UNL     1      28.120   1.898   9.575  1.00  0.00     0.000 C 
BRANCH   7   8
ATOM      8  C   UNL     1      29.588   1.712   9.161  1.00  0.00     0.006 C 
BRANCH   8   9
ATOM      9  C   UNL     1      30.029   2.822   8.201  1.00  0.00     0.053 C 
BRANCH   9  10
ATOM     10  C   UNL     1      31.032   3.715   8.859  1.00  0.00     0.041 C 
ATOM     11  O   UNL     1      31.314   4.832   8.351  1.00  0.00    -0.550 OA
ATOM     12  O   UNL     1      31.620   3.335  10.058  1.00  0.00    -0.550 OA
ENDBRANCH   9  10
ENDBRANCH   8   9
ENDBRANCH   7   8
ENDBRANCH   6   7
ENDBRANCH   5   6
ENDBRANCH   4   5
ENDBRANCH   3   4
ENDBRANCH   1   3
BRANCH   2  13
ATOM     13  C   UNL     1      24.121   2.977   6.195  1.00  0.00     0.027 C 
BRANCH  13  14
ATOM     14  C   UNL     1      23.149   3.190   5.029  1.00  0.00     0.004 C 
BRANCH  14  15
ATOM     15  C   UNL     1      21.712   2.854   5.444  1.00  0.00     0.000 C 
BRANCH  15  16
ATOM     16  C   UNL     1      21.613   1.414   5.967  1.00  0.00     0.000 C 
BRANCH  16  17
ATOM     17  C   UNL     1      21.649   0.364   4.842  1.00  0.00    -0.000 C 
BRANCH  17  18
ATOM     18  C   UNL     1      22.935  -0.487   4.783  1.00  0.00    -0.000 C 
BRANCH  18  19
ATOM     19  C   UNL     1      23.795  -0.279   3.525  1.00  0.00    -0.003 C 
ATOM     20  C   UNL     1      23.087   0.541   2.447  1.00  0.00     0.004 C 
ENDBRANCH  18  19
ENDBRANCH  17  18
ENDBRANCH  16  17
ENDBRANCH  15  16
ENDBRANCH  14  15
ENDBRANCH  13  14
ENDBRANCH   2  13
TORSDOF 15
ENDMDL
MODEL 7
REMARK VINA RESULT:    -3.248     10.286     11.603
REMARK INTER + INTRA:          -8.212
REMARK INTER:                  -6.149
REMARK INTRA:                  -2.063
REMARK UNBOUND:                -2.116
REMARK SMILES CCCCCCCCC=CCCCCCCCC(=O)[O-]
REMARK SMILES IDX 10 1 9 2 11 3 12 4 13 5 14 6 15 7 16 8 17 9 18 10 19 11
REMARK SMILES IDX 20 12 8 13 7 14 6 15 5 16 4 17 3 18 2 19 1 20
REMARK H PARENT
REMARK Flexibility Score: inf
ROOT
ATOM      1  C   UNL     1      21.264   1.197   5.815  1.00  0.00    -0.031 C 
ATOM      2  C   UNL     1      22.049   2.198   6.256  1.00  0.00    -0.031 C 
ENDROOT
BRANCH   1   3
ATOM      3  C   UNL     1      21.353   0.584   4.440  1.00  0.00     0.027 C 
BRANCH   3   4
ATOM      4  C   UNL     1      22.081  -0.767   4.492  1.00  0.00     0.004 C 
BRANCH   4   5
ATOM      5  C   UNL     1      22.327  -1.254   5.929  1.00  0.00     0.000 C 
BRANCH   5   6
ATOM      6  C   UNL     1      23.677  -1.974   6.085  1.00  0.00     0.000 C 
BRANCH   6   7
ATOM      7  C   UNL     1      24.125  -2.074   7.553  1.00  0.00     0.000 C 
BRANCH   7   8
ATOM      8  C   UNL     1      23.249  -3.029   8.378  1.00  0.00     0.006 C 
BRANCH   8   9
ATOM      9  C   UNL     1      23.959  -3.443   9.671  1.00  0.00     0.053 C 
BRANCH   9  10
ATOM     10  C   UNL     1      22.983  -3.524  10.801  1.00  0.00     0.041 C 
ATOM     11  O   UNL     1      23.169  -2.850  11.849  1.00  0.00    -0.550 OA
ATOM     12  O   UNL     1      21.842  -4.306  10.680  1.00  0.00    -0.550 OA
ENDBRANCH   9  10
ENDBRANCH   8   9
ENDBRANCH   7   8
ENDBRANCH   6   7
ENDBRANCH   5   6
ENDBRANCH   4   5
ENDBRANCH   3   4
ENDBRANCH   1   3
BRANCH   2  13
ATOM     13  C   UNL     1      23.076   2.913   5.414  1.00  0.00     0.027 C 
BRANCH  13  14
ATOM     14  C   UNL     1      24.442   2.916   6.110  1.00  0.00     0.004 C 
BRANCH  14  15
ATOM     15  C   UNL     1      24.768   1.534   6.686  1.00  0.00     0.000 C 
BRANCH  15  16
ATOM     16  C   UNL     1      25.998   0.927   5.995  1.00  0.00     0.000 C 
BRANCH  16  17
ATOM     17  C   UNL     1      27.186   0.729   6.953  1.00  0.00    -0.000 C 
BRANCH  17  18
ATOM     18  C   UNL     1      27.271   1.747   8.109  1.00  0.00    -0.000 C 
BRANCH  18  19
ATOM     19  C   UNL     1      27.289   1.131   9.519  1.00  0.00    -0.003 C 
ATOM     20  C   UNL     1      26.272   0.004   9.690  1.00  0.00     0.004 C 
ENDBRANCH  18  19
ENDBRANCH  17  18
ENDBRANCH  16  17
ENDBRANCH  15  16
ENDBRANCH  14  15
ENDBRANCH  13  14
ENDBRANCH   2  13
TORSDOF 15
ENDMDL
MODEL 8
REMARK VINA RESULT:    -3.245      9.063     10.796
REMARK INTER + INTRA:          -8.205
REMARK INTER:                  -5.765
REMARK INTRA:                  -2.440
REMARK UNBOUND:                -2.116
REMARK SMILES CCCCCCCCC=CCCCCCCCC(=O)[O-]
REMARK SMILES IDX 10 1 9 2 11 3 12 4 13 5 14 6 15 7 16 8 17 9 18 10 19 11
REMARK SMILES IDX 20 12 8 13 7 14 6 15 5 16 4 17 3 18 2 19 1 20
REMARK H PARENT
REMARK Flexibility Score: inf
ROOT
ATOM      1  C   UNL     1      28.752   1.851   8.546  1.00  0.00    -0.031 C 
ATOM      2  C   UNL     1      29.852   2.544   8.898  1.00  0.00    -0.031 C 
ENDROOT
BRANCH   1   3
ATOM      3  C   UNL     1      27.481   1.797   9.356  1.00  0.00     0.027 C 
BRANCH   3   4
ATOM      4  C   UNL     1      26.720   0.491   9.089  1.00  0.00     0.004 C 
BRANCH   4   5
ATOM      5  C   UNL     1      26.524   0.214   7.590  1.00  0.00     0.000 C 
BRANCH   5   6
ATOM      6  C   UNL     1      25.254   0.876   7.028  1.00  0.00     0.000 C 
BRANCH   6   7
ATOM      7  C   UNL     1      25.558   2.164   6.245  1.00  0.00     0.000 C 
BRANCH   7   8
ATOM      8  C   UNL     1      24.362   3.128   6.201  1.00  0.00     0.006 C 
BRANCH   8   9
ATOM      9  C   UNL     1      23.075   2.385   5.827  1.00  0.00     0.053 C 
BRANCH   9  10
ATOM     10  C   UNL     1      22.174   3.269   5.025  1.00  0.00     0.041 C 
ATOM     11  O   UNL     1      20.979   3.444   5.379  1.00  0.00    -0.550 OA
ATOM     12  O   UNL     1      22.667   3.939   3.913  1.00  0.00    -0.550 OA
ENDBRANCH   9  10
ENDBRANCH   8   9
ENDBRANCH   7   8
ENDBRANCH   6   7
ENDBRANCH   5   6
ENDBRANCH   4   5
ENDBRANCH   3   4
ENDBRANCH   1   3
BRANCH   2  13
ATOM     13  C   UNL     1      30.007   3.299  10.194  1.00  0.00     0.027 C 
BRANCH  13  14
ATOM     14  C   UNL     1      30.643   2.409  11.268  1.00  0.00     0.004 C 
BRANCH  14  15
ATOM     15  C   UNL     1      29.702   2.238  12.466  1.00  0.00     0.000 C 
BRANCH  15  16
ATOM     16  C   UNL     1      29.051   0.847  12.459  1.00  0.00     0.000 C 
BRANCH  16  17
ATOM     17  C   UNL     1      30.027  -0.269  12.044  1.00  0.00    -0.000 C 
BRANCH  17  18
ATOM     18  C   UNL     1      29.560  -1.139  10.859  1.00  0.00    -0.000 C 
BRANCH  18  19
ATOM     19  C   UNL     1      30.535  -1.196   9.670  1.00  0.00    -0.003 C 
ATOM     20  C   UNL     1      29.878  -1.698   8.384  1.00  0.00     0.004 C 
ENDBRANCH  18  19
ENDBRANCH  17  18
ENDBRANCH  16  17
ENDBRANCH  15  16
ENDBRANCH  14  15
ENDBRANCH  13  14
ENDBRANCH   2  13
TORSDOF 15
ENDMDL
MODEL 9
REMARK VINA RESULT:    -3.194     16.319     19.214
REMARK INTER + INTRA:          -8.111
REMARK INTER:                  -6.321
REMARK INTRA:                  -1.790
REMARK UNBOUND:                -2.116
REMARK SMILES CCCCCCCCC=CCCCCCCCC(=O)[O-]
REMARK SMILES IDX 10 1 9 2 11 3 12 4 13 5 14 6 15 7 16 8 17 9 18 10 19 11
REMARK SMILES IDX 20 12 8 13 7 14 6 15 5 16 4 17 3 18 2 19 1 20
REMARK H PARENT
REMARK Flexibility Score: inf
ROOT
ATOM      1  C   UNL     1      15.040  -5.082  17.265  1.00  0.00    -0.031 C 
ATOM      2  C   UNL     1      15.878  -5.340  16.244  1.00  0.00    -0.031 C 
ENDROOT
BRANCH   1   3
ATOM      3  C   UNL     1      13.540  -5.226  17.197  1.00  0.00     0.027 C 
BRANCH   3   4
ATOM      4  C   UNL     1      12.851  -4.183  18.088  1.00  0.00     0.004 C 
BRANCH   4   5
ATOM      5  C   UNL     1      12.682  -2.824  17.390  1.00  0.00     0.000 C 
BRANCH   5   6
ATOM      6  C   UNL     1      13.622  -1.747  17.958  1.00  0.00     0.000 C 
BRANCH   6   7
ATOM      7  C   UNL     1      14.782  -1.414  17.004  1.00  0.00     0.000 C 
BRANCH   7   8
ATOM      8  C   UNL     1      14.448  -1.719  15.535  1.00  0.00     0.006 C 
BRANCH   8   9
ATOM      9  C   UNL     1      15.726  -1.929  14.717  1.00  0.00     0.053 C 
BRANCH   9  10
ATOM     10  C   UNL     1      16.709  -0.836  14.991  1.00  0.00     0.041 C 
ATOM     11  O   UNL     1      17.849  -1.109  15.451  1.00  0.00    -0.550 OA
ATOM     12  O   UNL     1      16.385   0.481  14.694  1.00  0.00    -0.550 OA
ENDBRANCH   9  10
ENDBRANCH   8   9
ENDBRANCH   7   8
ENDBRANCH   6   7
ENDBRANCH   5   6
ENDBRANCH   4   5
ENDBRANCH   3   4
ENDBRANCH   1   3
BRANCH   2  13
ATOM     13  C   UNL     1      15.438  -5.730  14.856  1.00  0.00     0.027 C 
BRANCH  13  14
ATOM     14  C   UNL     1      16.576  -5.526  13.848  1.00  0.00     0.004 C 
BRANCH  14  15
ATOM     15  C   UNL     1      16.024  -5.190  12.458  1.00  0.00     0.000 C 
BRANCH  15  16
ATOM     16  C   UNL     1      15.743  -6.468  11.654  1.00  0.00     0.000 C 
BRANCH  16  17
ATOM     17  C   UNL     1      14.926  -6.204  10.376  1.00  0.00    -0.000 C 
BRANCH  17  18
ATOM     18  C   UNL     1      15.575  -6.708   9.070  1.00  0.00    -0.000 C 
BRANCH  18  19
ATOM     19  C   UNL     1      17.052  -6.318   8.884  1.00  0.00    -0.003 C 
ATOM     20  C   UNL     1      17.229  -4.975   8.176  1.00  0.00     0.004 C 
ENDBRANCH  18  19
ENDBRANCH  17  18
ENDBRANCH  16  17
ENDBRANCH  15  16
ENDBRANCH  14  15
ENDBRANCH  13  14
ENDBRANCH   2  13
TORSDOF 15
ENDMDL
