MODEL 1
REMARK VINA RESULT:    -5.286      0.000      0.000
REMARK INTER + INTRA:          -5.595
REMARK INTER:                  -5.595
REMARK INTRA:                   0.000
REMARK UNBOUND:                 0.000
REMARK SMILES O=c1ccc2cc(O)c(O)cc2o1
REMARK SMILES IDX 4 1 3 2 2 3 1 4 13 5 12 6 11 7 9 8 7 9 6 10 5 11 8 12 10 14
REMARK H PARENT 8 13 10 15
REMARK Flexibility Score: inf
ROOT
ATOM      1  C   UNL     1       9.106  37.023  24.359  1.00  0.00     0.019 A 
ATOM      2  C   UNL     1       8.505  37.824  25.330  1.00  0.00     0.094 A 
ATOM      3  C   UNL     1       7.163  37.601  25.656  1.00  0.00     0.336 A 
ATOM      4  O   UNL     1       6.602  38.313  26.529  1.00  0.00    -0.246 OA
ATOM      5  O   UNL     1       6.474  36.639  25.049  1.00  0.00    -0.423 OA
ATOM      6  C   UNL     1       7.009  35.853  24.118  1.00  0.00     0.142 A 
ATOM      7  C   UNL     1       6.236  34.858  23.514  1.00  0.00     0.098 A 
ATOM      8  C   UNL     1       6.785  34.022  22.532  1.00  0.00     0.161 A 
ATOM      9  C   UNL     1       8.140  34.190  22.150  1.00  0.00     0.158 A 
ATOM     10  C   UNL     1       8.913  35.188  22.757  1.00  0.00     0.062 A 
ATOM     11  C   UNL     1       8.356  36.019  23.738  1.00  0.00     0.022 A 
ENDROOT
BRANCH   9  12
ATOM     12  O   UNL     1       8.752  33.394  21.179  1.00  0.00    -0.504 OA
ATOM     13  H   UNL     1       8.254  32.758  20.574  1.00  0.00     0.293 HD
ENDBRANCH   9  12
BRANCH   8  14
ATOM     14  O   UNL     1       5.959  33.048  21.970  1.00  0.00    -0.504 OA
ATOM     15  H   UNL     1       5.484  32.334  22.503  1.00  0.00     0.293 HD
ENDBRANCH   8  14
TORSDOF 2
ENDMDL
MODEL 2
REMARK VINA RESULT:    -5.212      1.056      2.265
REMARK INTER + INTRA:          -5.516
REMARK INTER:                  -5.516
REMARK INTRA:                   0.000
REMARK UNBOUND:                 0.000
REMARK SMILES O=c1ccc2cc(O)c(O)cc2o1
REMARK SMILES IDX 4 1 3 2 2 3 1 4 13 5 12 6 11 7 9 8 7 9 6 10 5 11 8 12 10 14
REMARK H PARENT 8 13 10 15
REMARK Flexibility Score: inf
ROOT
ATOM      1  C   UNL     1       5.956  36.695  24.784  1.00  0.00     0.019 A 
ATOM      2  C   UNL     1       6.706  37.654  25.464  1.00  0.00     0.094 A 
ATOM      3  C   UNL     1       8.080  37.740  25.215  1.00  0.00     0.336 A 
ATOM      4  O   UNL     1       8.776  38.599  25.818  1.00  0.00    -0.246 OA
ATOM      5  O   UNL     1       8.660  36.920  24.343  1.00  0.00    -0.423 OA
ATOM      6  C   UNL     1       7.980  35.991  23.674  1.00  0.00     0.142 A 
ATOM      7  C   UNL     1       8.642  35.157  22.770  1.00  0.00     0.098 A 
ATOM      8  C   UNL     1       7.941  34.174  22.058  1.00  0.00     0.161 A 
ATOM      9  C   UNL     1       6.546  34.028  22.258  1.00  0.00     0.158 A 
ATOM     10  C   UNL     1       5.884  34.866  23.165  1.00  0.00     0.062 A 
ATOM     11  C   UNL     1       6.593  35.846  23.873  1.00  0.00     0.022 A 
ENDROOT
BRANCH   9  12
ATOM     12  O   UNL     1       5.785  33.071  21.583  1.00  0.00    -0.504 OA
ATOM     13  H   UNL     1       5.639  33.067  20.584  1.00  0.00     0.293 HD
ENDBRANCH   9  12
BRANCH   8  14
ATOM     14  O   UNL     1       8.663  33.375  21.170  1.00  0.00    -0.504 OA
ATOM     15  H   UNL     1       9.302  33.736  20.476  1.00  0.00     0.293 HD
ENDBRANCH   8  14
TORSDOF 2
ENDMDL
MODEL 3
REMARK VINA RESULT:    -5.162      1.931      4.811
REMARK INTER + INTRA:          -5.463
REMARK INTER:                  -5.463
REMARK INTRA:                   0.000
REMARK UNBOUND:                 0.000
REMARK SMILES O=c1ccc2cc(O)c(O)cc2o1
REMARK SMILES IDX 4 1 3 2 2 3 1 4 13 5 12 6 11 7 9 8 7 9 6 10 5 11 8 12 10 14
REMARK H PARENT 8 13 10 15
REMARK Flexibility Score: inf
ROOT
ATOM      1  C   UNL     1       7.776  37.860  23.545  1.00  0.00     0.019 A 
ATOM      2  C   UNL     1       8.364  36.784  22.881  1.00  0.00     0.094 A 
ATOM      3  C   UNL     1       7.960  35.485  23.208  1.00  0.00     0.336 A 
ATOM      4  O   UNL     1       8.478  34.499  22.621  1.00  0.00    -0.246 OA
ATOM      5  O   UNL     1       7.029  35.282  24.137  1.00  0.00    -0.423 OA
ATOM      6  C   UNL     1       6.444  36.281  24.793  1.00  0.00     0.142 A 
ATOM      7  C   UNL     1       5.472  36.008  25.759  1.00  0.00     0.098 A 
ATOM      8  C   UNL     1       4.847  37.049  26.458  1.00  0.00     0.161 A 
ATOM      9  C   UNL     1       5.205  38.392  26.181  1.00  0.00     0.158 A 
ATOM     10  C   UNL     1       6.180  38.663  25.211  1.00  0.00     0.062 A 
ATOM     11  C   UNL     1       6.800  37.617  24.517  1.00  0.00     0.022 A 
ENDROOT
BRANCH   9  12
ATOM     12  O   UNL     1       4.623  39.478  26.839  1.00  0.00    -0.504 OA
ATOM     13  H   UNL     1       4.372  40.344  26.386  1.00  0.00     0.293 HD
ENDBRANCH   9  12
BRANCH   8  14
ATOM     14  O   UNL     1       3.884  36.707  27.410  1.00  0.00    -0.504 OA
ATOM     15  H   UNL     1       3.990  36.861  28.402  1.00  0.00     0.293 HD
ENDBRANCH   8  14
TORSDOF 2
ENDMDL
MODEL 4
REMARK VINA RESULT:    -5.145      1.252      1.715
REMARK INTER + INTRA:          -5.446
REMARK INTER:                  -5.446
REMARK INTRA:                   0.000
REMARK UNBOUND:                 0.000
REMARK SMILES O=c1ccc2cc(O)c(O)cc2o1
REMARK SMILES IDX 4 1 3 2 2 3 1 4 13 5 12 6 11 7 9 8 7 9 6 10 5 11 8 12 10 14
REMARK H PARENT 8 13 10 15
REMARK Flexibility Score: inf
ROOT
ATOM      1  C   UNL     1       7.934  37.276  25.036  1.00  0.00     0.019 A 
ATOM      2  C   UNL     1       6.750  37.362  25.767  1.00  0.00     0.094 A 
ATOM      3  C   UNL     1       5.716  36.462  25.487  1.00  0.00     0.336 A 
ATOM      4  O   UNL     1       4.638  36.523  26.135  1.00  0.00    -0.246 OA
ATOM      5  O   UNL     1       5.862  35.541  24.539  1.00  0.00    -0.423 OA
ATOM      6  C   UNL     1       6.976  35.426  23.819  1.00  0.00     0.142 A 
ATOM      7  C   UNL     1       7.073  34.439  22.835  1.00  0.00     0.098 A 
ATOM      8  C   UNL     1       8.238  34.305  22.069  1.00  0.00     0.161 A 
ATOM      9  C   UNL     1       9.329  35.181  22.297  1.00  0.00     0.158 A 
ATOM     10  C   UNL     1       9.229  36.170  23.284  1.00  0.00     0.062 A 
ATOM     11  C   UNL     1       8.060  36.297  24.045  1.00  0.00     0.022 A 
ENDROOT
BRANCH   9  12
ATOM     12  O   UNL     1      10.520  35.105  21.571  1.00  0.00    -0.504 OA
ATOM     13  H   UNL     1      10.574  35.169  20.565  1.00  0.00     0.293 HD
ENDBRANCH   9  12
BRANCH   8  14
ATOM     14  O   UNL     1       8.270  33.297  21.103  1.00  0.00    -0.504 OA
ATOM     15  H   UNL     1       8.377  32.316  21.314  1.00  0.00     0.293 HD
ENDBRANCH   8  14
TORSDOF 2
ENDMDL
MODEL 5
REMARK VINA RESULT:    -5.129      2.344      4.955
REMARK INTER + INTRA:          -5.429
REMARK INTER:                  -5.429
REMARK INTRA:                   0.000
REMARK UNBOUND:                 0.000
REMARK SMILES O=c1ccc2cc(O)c(O)cc2o1
REMARK SMILES IDX 4 1 3 2 2 3 1 4 13 5 12 6 11 7 9 8 7 9 6 10 5 11 8 12 10 14
REMARK H PARENT 8 13 10 15
REMARK Flexibility Score: inf
ROOT
ATOM      1  C   UNL     1       7.121  35.224  24.137  1.00  0.00     0.019 A 
ATOM      2  C   UNL     1       8.128  35.526  23.221  1.00  0.00     0.094 A 
ATOM      3  C   UNL     1       8.488  36.865  23.028  1.00  0.00     0.336 A 
ATOM      4  O   UNL     1       9.395  37.160  22.206  1.00  0.00    -0.246 OA
ATOM      5  O   UNL     1       7.878  37.831  23.708  1.00  0.00    -0.423 OA
ATOM      6  C   UNL     1       6.913  37.585  24.591  1.00  0.00     0.142 A 
ATOM      7  C   UNL     1       6.307  38.641  25.277  1.00  0.00     0.098 A 
ATOM      8  C   UNL     1       5.289  38.398  26.209  1.00  0.00     0.161 A 
ATOM      9  C   UNL     1       4.872  37.067  26.458  1.00  0.00     0.158 A 
ATOM     10  C   UNL     1       5.481  36.010  25.769  1.00  0.00     0.062 A 
ATOM     11  C   UNL     1       6.497  36.261  24.838  1.00  0.00     0.022 A 
ENDROOT
BRANCH   9  12
ATOM     12  O   UNL     1       3.864  36.752  27.373  1.00  0.00    -0.504 OA
ATOM     13  H   UNL     1       3.403  37.431  27.960  1.00  0.00     0.293 HD
ENDBRANCH   9  12
BRANCH   8  14
ATOM     14  O   UNL     1       4.728  39.498  26.860  1.00  0.00    -0.504 OA
ATOM     15  H   UNL     1       5.102  40.435  26.813  1.00  0.00     0.293 HD
ENDBRANCH   8  14
TORSDOF 2
ENDMDL
MODEL 6
REMARK VINA RESULT:    -4.526      1.236      1.561
REMARK INTER + INTRA:          -4.790
REMARK INTER:                  -4.790
REMARK INTRA:                   0.000
REMARK UNBOUND:                 0.000
REMARK SMILES O=c1ccc2cc(O)c(O)cc2o1
REMARK SMILES IDX 4 1 3 2 2 3 1 4 13 5 12 6 11 7 9 8 7 9 6 10 5 11 8 12 10 14
REMARK H PARENT 8 13 10 15
REMARK Flexibility Score: inf
ROOT
ATOM      1  C   UNL     1       8.057  38.007  25.688  1.00  0.00     0.019 A 
ATOM      2  C   UNL     1       7.070  38.700  26.389  1.00  0.00     0.094 A 
ATOM      3  C   UNL     1       5.739  38.287  26.269  1.00  0.00     0.336 A 
ATOM      4  O   UNL     1       4.832  38.899  26.893  1.00  0.00    -0.246 OA
ATOM      5  O   UNL     1       5.422  37.250  25.499  1.00  0.00    -0.423 OA
ATOM      6  C   UNL     1       6.333  36.562  24.815  1.00  0.00     0.142 A 
ATOM      7  C   UNL     1       5.942  35.480  24.022  1.00  0.00     0.098 A 
ATOM      8  C   UNL     1       6.889  34.747  23.295  1.00  0.00     0.161 A 
ATOM      9  C   UNL     1       8.258  35.107  23.368  1.00  0.00     0.158 A 
ATOM     10  C   UNL     1       8.648  36.192  24.164  1.00  0.00     0.062 A 
ATOM     11  C   UNL     1       7.694  36.920  24.887  1.00  0.00     0.022 A 
ENDROOT
BRANCH   9  12
ATOM     12  O   UNL     1       9.255  34.420  22.671  1.00  0.00    -0.504 OA
ATOM     13  H   UNL     1      10.126  34.119  23.083  1.00  0.00     0.293 HD
ENDBRANCH   9  12
BRANCH   8  14
ATOM     14  O   UNL     1       6.431  33.677  22.523  1.00  0.00    -0.504 OA
ATOM     15  H   UNL     1       5.975  33.781  21.628  1.00  0.00     0.293 HD
ENDBRANCH   8  14
TORSDOF 2
ENDMDL
MODEL 7
REMARK VINA RESULT:    -4.398      1.175      4.519
REMARK INTER + INTRA:          -4.655
REMARK INTER:                  -4.655
REMARK INTRA:                   0.000
REMARK UNBOUND:                 0.000
REMARK SMILES O=c1ccc2cc(O)c(O)cc2o1
REMARK SMILES IDX 4 1 3 2 2 3 1 4 13 5 12 6 11 7 9 8 7 9 6 10 5 11 8 12 10 14
REMARK H PARENT 8 13 10 15
REMARK Flexibility Score: inf
ROOT
ATOM      1  C   UNL     1       8.615  34.862  22.752  1.00  0.00     0.019 A 
ATOM      2  C   UNL     1       7.829  34.015  21.972  1.00  0.00     0.094 A 
ATOM      3  C   UNL     1       6.437  34.074  22.101  1.00  0.00     0.336 A 
ATOM      4  O   UNL     1       5.708  33.318  21.406  1.00  0.00    -0.246 OA
ATOM      5  O   UNL     1       5.875  34.926  22.954  1.00  0.00    -0.423 OA
ATOM      6  C   UNL     1       6.590  35.751  23.716  1.00  0.00     0.142 A 
ATOM      7  C   UNL     1       5.945  36.626  24.595  1.00  0.00     0.098 A 
ATOM      8  C   UNL     1       6.683  37.500  25.404  1.00  0.00     0.161 A 
ATOM      9  C   UNL     1       8.098  37.497  25.327  1.00  0.00     0.158 A 
ATOM     10  C   UNL     1       8.743  36.619  24.445  1.00  0.00     0.062 A 
ATOM     11  C   UNL     1       7.997  35.748  23.640  1.00  0.00     0.022 A 
ENDROOT
BRANCH   9  12
ATOM     12  O   UNL     1       8.896  38.341  26.103  1.00  0.00    -0.504 OA
ATOM     13  H   UNL     1       8.545  39.134  26.618  1.00  0.00     0.293 HD
ENDBRANCH   9  12
BRANCH   8  14
ATOM     14  O   UNL     1       5.977  38.348  26.259  1.00  0.00    -0.504 OA
ATOM     15  H   UNL     1       6.282  38.594  27.189  1.00  0.00     0.293 HD
ENDBRANCH   8  14
TORSDOF 2
ENDMDL
MODEL 8
REMARK VINA RESULT:    -4.334     17.721     19.204
REMARK INTER + INTRA:          -4.588
REMARK INTER:                  -4.588
REMARK INTRA:                   0.000
REMARK UNBOUND:                 0.000
REMARK SMILES O=c1ccc2cc(O)c(O)cc2o1
REMARK SMILES IDX 4 1 3 2 2 3 1 4 13 5 12 6 11 7 9 8 7 9 6 10 5 11 8 12 10 14
REMARK H PARENT 8 13 10 15
REMARK Flexibility Score: inf
ROOT
ATOM      1  C   UNL     1      -8.926  34.220  36.157  1.00  0.00     0.019 A 
ATOM      2  C   UNL     1      -8.438  33.014  36.659  1.00  0.00     0.094 A 
ATOM      3  C   UNL     1      -7.587  32.243  35.859  1.00  0.00     0.336 A 
ATOM      4  O   UNL     1      -7.135  31.151  36.292  1.00  0.00    -0.246 OA
ATOM      5  O   UNL     1      -7.250  32.657  34.640  1.00  0.00    -0.423 OA
ATOM      6  C   UNL     1      -7.693  33.801  34.125  1.00  0.00     0.142 A 
ATOM      7  C   UNL     1      -7.305  34.185  32.839  1.00  0.00     0.098 A 
ATOM      8  C   UNL     1      -7.764  35.386  32.282  1.00  0.00     0.161 A 
ATOM      9  C   UNL     1      -8.630  36.220  33.034  1.00  0.00     0.158 A 
ATOM     10  C   UNL     1      -9.017  35.832  34.324  1.00  0.00     0.062 A 
ATOM     11  C   UNL     1      -8.554  34.629  34.872  1.00  0.00     0.022 A 
ENDROOT
BRANCH   9  12
ATOM     12  O   UNL     1      -9.125  37.430  32.543  1.00  0.00    -0.504 OA
ATOM     13  H   UNL     1      -9.882  37.502  31.880  1.00  0.00     0.293 HD
ENDBRANCH   9  12
BRANCH   8  14
ATOM     14  O   UNL     1      -7.338  35.711  30.993  1.00  0.00    -0.504 OA
ATOM     15  H   UNL     1      -7.275  35.047  30.235  1.00  0.00     0.293 HD
ENDBRANCH   8  14
TORSDOF 2
ENDMDL
MODEL 9
REMARK VINA RESULT:    -4.299     17.155     18.392
REMARK INTER + INTRA:          -4.550
REMARK INTER:                  -4.550
REMARK INTRA:                   0.000
REMARK UNBOUND:                 0.000
REMARK SMILES O=c1ccc2cc(O)c(O)cc2o1
REMARK SMILES IDX 4 1 3 2 2 3 1 4 13 5 12 6 11 7 9 8 7 9 6 10 5 11 8 12 10 14
REMARK H PARENT 8 13 10 15
REMARK Flexibility Score: inf
ROOT
ATOM      1  C   UNL     1      -7.260  36.385  30.944  1.00  0.00     0.019 A 
ATOM      2  C   UNL     1      -7.743  37.652  30.618  1.00  0.00     0.094 A 
ATOM      3  C   UNL     1      -8.620  38.290  31.502  1.00  0.00     0.336 A 
ATOM      4  O   UNL     1      -9.068  39.434  31.227  1.00  0.00    -0.246 OA
ATOM      5  O   UNL     1      -8.984  37.697  32.635  1.00  0.00    -0.423 OA
ATOM      6  C   UNL     1      -8.546  36.489  32.983  1.00  0.00     0.142 A 
ATOM      7  C   UNL     1      -8.963  35.914  34.186  1.00  0.00     0.098 A 
ATOM      8  C   UNL     1      -8.511  34.643  34.566  1.00  0.00     0.161 A 
ATOM      9  C   UNL     1      -7.620  33.936  33.721  1.00  0.00     0.158 A 
ATOM     10  C   UNL     1      -7.203  34.515  32.515  1.00  0.00     0.062 A 
ATOM     11  C   UNL     1      -7.660  35.785  32.142  1.00  0.00     0.022 A 
ENDROOT
BRANCH   9  12
ATOM     12  O   UNL     1      -7.129  32.667  34.037  1.00  0.00    -0.504 OA
ATOM     13  H   UNL     1      -7.621  31.999  34.611  1.00  0.00     0.293 HD
ENDBRANCH   9  12
BRANCH   8  14
ATOM     14  O   UNL     1      -8.965  34.128  35.781  1.00  0.00    -0.504 OA
ATOM     15  H   UNL     1      -8.627  34.427  36.685  1.00  0.00     0.293 HD
ENDBRANCH   8  14
TORSDOF 2
ENDMDL
