MODEL 1
REMARK VINA RESULT:    -5.611      0.000      0.000
REMARK INTER + INTRA:          -7.061
REMARK INTER:                  -6.759
REMARK INTRA:                  -0.302
REMARK UNBOUND:                -0.302
REMARK SMILES O=c1c(O)c(-c2ccc(O)c(O)c2)oc2cc(O)cc(O)c12
REMARK SMILES IDX 5 1 3 2 2 3 1 4 22 5 20 6 19 7 17 8 16 9 15 10 14 11 6 12
REMARK SMILES IDX 7 13 8 14 9 15 13 16 11 17 10 18 12 20 4 22 21 24 18 26
REMARK H PARENT 10 19 12 21 4 23 21 25 18 27
REMARK Flexibility Score: inf
ROOT
ATOM      1  C   UNL     1      23.588  29.540   5.879  1.00  0.00     0.180 A 
ATOM      2  C   UNL     1      24.919  29.501   6.331  1.00  0.00     0.208 A 
ATOM      3  C   UNL     1      25.551  28.257   6.478  1.00  0.00     0.238 A 
ATOM      4  O   UNL     1      26.724  28.226   6.935  1.00  0.00    -0.285 OA
ATOM      5  C   UNL     1      24.853  27.069   6.155  1.00  0.00     0.111 A 
ATOM      6  C   UNL     1      25.410  25.757   6.229  1.00  0.00     0.134 A 
ATOM      7  C   UNL     1      24.587  24.644   6.011  1.00  0.00     0.093 A 
ATOM      8  C   UNL     1      23.243  24.800   5.659  1.00  0.00     0.123 A 
ATOM      9  C   UNL     1      22.707  26.078   5.528  1.00  0.00     0.094 A 
ATOM     10  C   UNL     1      23.493  27.206   5.773  1.00  0.00     0.146 A 
ATOM     11  O   UNL     1      22.939  28.406   5.647  1.00  0.00    -0.452 OA
ENDROOT
BRANCH   1  12
ATOM     12  C   UNL     1      22.862  30.816   5.675  1.00  0.00     0.025 A 
ATOM     13  C   UNL     1      22.730  31.387   4.398  1.00  0.00     0.016 A 
ATOM     14  C   UNL     1      22.020  32.578   4.227  1.00  0.00     0.051 A 
ATOM     15  C   UNL     1      21.420  33.208   5.324  1.00  0.00     0.157 A 
ATOM     16  C   UNL     1      22.240  31.439   6.770  1.00  0.00     0.062 A 
ATOM     17  C   UNL     1      21.530  32.632   6.602  1.00  0.00     0.158 A 
BRANCH  15  18
ATOM     18  O   UNL     1      20.714  34.397   5.152  1.00  0.00    -0.504 OA
ATOM     19  H   UNL     1      20.870  35.198   5.753  1.00  0.00     0.293 HD
ENDBRANCH  15  18
BRANCH  17  20
ATOM     20  O   UNL     1      20.938  33.230   7.715  1.00  0.00    -0.504 OA
ATOM     21  H   UNL     1      19.941  33.179   7.887  1.00  0.00     0.293 HD
ENDBRANCH  17  20
ENDBRANCH   1  12
BRANCH   2  22
ATOM     22  O   UNL     1      25.582  30.686   6.665  1.00  0.00    -0.502 OA
ATOM     23  H   UNL     1      25.756  30.959   7.625  1.00  0.00     0.293 HD
ENDBRANCH   2  22
BRANCH   6  24
ATOM     24  O   UNL     1      26.759  25.493   6.481  1.00  0.00    -0.507 OA
ATOM     25  H   UNL     1      27.375  26.100   7.002  1.00  0.00     0.293 HD
ENDBRANCH   6  24
BRANCH   8  26
ATOM     26  O   UNL     1      22.436  23.688   5.429  1.00  0.00    -0.508 OA
ATOM     27  H   UNL     1      21.994  23.187   6.191  1.00  0.00     0.293 HD
ENDBRANCH   8  26
TORSDOF 6
ENDMDL
MODEL 2
REMARK VINA RESULT:    -5.070      1.131      1.816
REMARK INTER + INTRA:          -6.409
REMARK INTER:                  -6.144
REMARK INTRA:                  -0.266
REMARK UNBOUND:                -0.302
REMARK SMILES O=c1c(O)c(-c2ccc(O)c(O)c2)oc2cc(O)cc(O)c12
REMARK SMILES IDX 5 1 3 2 2 3 1 4 22 5 20 6 19 7 17 8 16 9 15 10 14 11 6 12
REMARK SMILES IDX 7 13 8 14 9 15 13 16 11 17 10 18 12 20 4 22 21 24 18 26
REMARK H PARENT 10 19 12 21 4 23 21 25 18 27
REMARK Flexibility Score: inf
ROOT
ATOM      1  C   UNL     1      24.222  29.751   6.335  1.00  0.00     0.180 A 
ATOM      2  C   UNL     1      25.482  29.948   6.926  1.00  0.00     0.208 A 
ATOM      3  C   UNL     1      26.353  28.855   7.051  1.00  0.00     0.238 A 
ATOM      4  O   UNL     1      27.458  29.025   7.631  1.00  0.00    -0.285 OA
ATOM      5  C   UNL     1      25.961  27.583   6.570  1.00  0.00     0.111 A 
ATOM      6  C   UNL     1      26.779  26.414   6.608  1.00  0.00     0.134 A 
ATOM      7  C   UNL     1      26.240  25.180   6.222  1.00  0.00     0.093 A 
ATOM      8  C   UNL     1      24.933  25.085   5.738  1.00  0.00     0.123 A 
ATOM      9  C   UNL     1      24.147  26.230   5.641  1.00  0.00     0.094 A 
ATOM     10  C   UNL     1      24.644  27.469   6.052  1.00  0.00     0.146 A 
ATOM     11  O   UNL     1      23.857  28.533   5.953  1.00  0.00    -0.452 OA
ENDROOT
BRANCH   1  12
ATOM     12  C   UNL     1      23.259  30.861   6.146  1.00  0.00     0.025 A 
ATOM     13  C   UNL     1      22.521  31.382   7.224  1.00  0.00     0.016 A 
ATOM     14  C   UNL     1      21.637  32.445   7.025  1.00  0.00     0.051 A 
ATOM     15  C   UNL     1      21.487  33.014   5.754  1.00  0.00     0.157 A 
ATOM     16  C   UNL     1      23.121  31.449   4.877  1.00  0.00     0.062 A 
ATOM     17  C   UNL     1      22.236  32.513   4.675  1.00  0.00     0.158 A 
BRANCH  15  18
ATOM     18  O   UNL     1      20.602  34.072   5.559  1.00  0.00    -0.504 OA
ATOM     19  H   UNL     1      20.452  34.776   6.273  1.00  0.00     0.293 HD
ENDBRANCH  15  18
BRANCH  17  20
ATOM     20  O   UNL     1      22.115  33.061   3.399  1.00  0.00    -0.504 OA
ATOM     21  H   UNL     1      22.741  33.783   3.062  1.00  0.00     0.293 HD
ENDBRANCH  17  20
ENDBRANCH   1  12
BRANCH   2  22
ATOM     22  O   UNL     1      25.840  31.208   7.415  1.00  0.00    -0.502 OA
ATOM     23  H   UNL     1      25.264  32.029   7.274  1.00  0.00     0.293 HD
ENDBRANCH   2  22
BRANCH   6  24
ATOM     24  O   UNL     1      28.125  26.415   6.987  1.00  0.00    -0.507 OA
ATOM     25  H   UNL     1      28.902  26.360   6.346  1.00  0.00     0.293 HD
ENDBRANCH   6  24
BRANCH   8  26
ATOM     26  O   UNL     1      24.410  23.856   5.341  1.00  0.00    -0.508 OA
ATOM     27  H   UNL     1      23.638  23.794   4.688  1.00  0.00     0.293 HD
ENDBRANCH   8  26
TORSDOF 6
ENDMDL
MODEL 3
REMARK VINA RESULT:    -5.043      1.667      2.322
REMARK INTER + INTRA:          -6.377
REMARK INTER:                  -6.064
REMARK INTRA:                  -0.313
REMARK UNBOUND:                -0.302
REMARK SMILES O=c1c(O)c(-c2ccc(O)c(O)c2)oc2cc(O)cc(O)c12
REMARK SMILES IDX 5 1 3 2 2 3 1 4 22 5 20 6 19 7 17 8 16 9 15 10 14 11 6 12
REMARK SMILES IDX 7 13 8 14 9 15 13 16 11 17 10 18 12 20 4 22 21 24 18 26
REMARK H PARENT 10 19 12 21 4 23 21 25 18 27
REMARK Flexibility Score: inf
ROOT
ATOM      1  C   UNL     1      24.528  29.596   6.110  1.00  0.00     0.180 A 
ATOM      2  C   UNL     1      25.714  29.971   5.454  1.00  0.00     0.208 A 
ATOM      3  C   UNL     1      26.573  28.970   4.976  1.00  0.00     0.238 A 
ATOM      4  O   UNL     1      27.659  29.311   4.438  1.00  0.00    -0.285 OA
ATOM      5  C   UNL     1      26.230  27.607   5.146  1.00  0.00     0.111 A 
ATOM      6  C   UNL     1      27.007  26.510   4.666  1.00  0.00     0.134 A 
ATOM      7  C   UNL     1      26.639  25.202   5.004  1.00  0.00     0.093 A 
ATOM      8  C   UNL     1      25.484  24.949   5.750  1.00  0.00     0.123 A 
ATOM      9  C   UNL     1      24.688  26.011   6.172  1.00  0.00     0.094 A 
ATOM     10  C   UNL     1      25.049  27.328   5.881  1.00  0.00     0.146 A 
ATOM     11  O   UNL     1      24.267  28.310   6.312  1.00  0.00    -0.452 OA
ENDROOT
BRANCH   1  12
ATOM     12  C   UNL     1      23.560  30.595   6.620  1.00  0.00     0.025 A 
ATOM     13  C   UNL     1      23.603  31.043   7.951  1.00  0.00     0.016 A 
ATOM     14  C   UNL     1      22.694  32.004   8.402  1.00  0.00     0.051 A 
ATOM     15  C   UNL     1      21.741  32.542   7.529  1.00  0.00     0.157 A 
ATOM     16  C   UNL     1      22.617  31.153   5.741  1.00  0.00     0.062 A 
ATOM     17  C   UNL     1      21.705  32.115   6.190  1.00  0.00     0.158 A 
BRANCH  15  18
ATOM     18  O   UNL     1      20.835  33.499   7.982  1.00  0.00    -0.504 OA
ATOM     19  H   UNL     1      20.932  33.932   8.894  1.00  0.00     0.293 HD
ENDBRANCH  15  18
BRANCH  17  20
ATOM     20  O   UNL     1      20.773  32.636   5.293  1.00  0.00    -0.504 OA
ATOM     21  H   UNL     1      20.797  32.417   4.304  1.00  0.00     0.293 HD
ENDBRANCH  17  20
ENDBRANCH   1  12
BRANCH   2  22
ATOM     22  O   UNL     1      26.043  31.323   5.317  1.00  0.00    -0.502 OA
ATOM     23  H   UNL     1      25.460  31.976   4.808  1.00  0.00     0.293 HD
ENDBRANCH   2  22
BRANCH   6  24
ATOM     24  O   UNL     1      28.125  26.648   3.837  1.00  0.00    -0.507 OA
ATOM     25  H   UNL     1      28.379  26.002   3.105  1.00  0.00     0.293 HD
ENDBRANCH   6  24
BRANCH   8  26
ATOM     26  O   UNL     1      25.116  23.644   6.069  1.00  0.00    -0.508 OA
ATOM     27  H   UNL     1      24.171  23.413   6.351  1.00  0.00     0.293 HD
ENDBRANCH   8  26
TORSDOF 6
ENDMDL
MODEL 4
REMARK VINA RESULT:    -4.987      1.395      2.871
REMARK INTER + INTRA:          -6.309
REMARK INTER:                  -6.140
REMARK INTRA:                  -0.170
REMARK UNBOUND:                -0.302
REMARK SMILES O=c1c(O)c(-c2ccc(O)c(O)c2)oc2cc(O)cc(O)c12
REMARK SMILES IDX 5 1 3 2 2 3 1 4 22 5 20 6 19 7 17 8 16 9 15 10 14 11 6 12
REMARK SMILES IDX 7 13 8 14 9 15 13 16 11 17 10 18 12 20 4 22 21 24 18 26
REMARK H PARENT 10 19 12 21 4 23 21 25 18 27
REMARK Flexibility Score: inf
ROOT
ATOM      1  C   UNL     1      23.391  29.537   5.144  1.00  0.00     0.180 A 
ATOM      2  C   UNL     1      22.848  28.464   4.415  1.00  0.00     0.208 A 
ATOM      3  C   UNL     1      23.455  27.202   4.508  1.00  0.00     0.238 A 
ATOM      4  O   UNL     1      22.998  26.258   3.812  1.00  0.00    -0.285 OA
ATOM      5  C   UNL     1      24.587  27.024   5.340  1.00  0.00     0.111 A 
ATOM      6  C   UNL     1      25.257  25.780   5.540  1.00  0.00     0.134 A 
ATOM      7  C   UNL     1      26.445  25.747   6.283  1.00  0.00     0.093 A 
ATOM      8  C   UNL     1      26.949  26.902   6.886  1.00  0.00     0.123 A 
ATOM      9  C   UNL     1      26.269  28.109   6.745  1.00  0.00     0.094 A 
ATOM     10  C   UNL     1      25.102  28.180   5.981  1.00  0.00     0.146 A 
ATOM     11  O   UNL     1      24.492  29.353   5.864  1.00  0.00    -0.452 OA
ENDROOT
BRANCH   1  12
ATOM     12  C   UNL     1      22.791  30.892   5.116  1.00  0.00     0.025 A 
ATOM     13  C   UNL     1      22.772  31.659   3.939  1.00  0.00     0.016 A 
ATOM     14  C   UNL     1      22.179  32.925   3.931  1.00  0.00     0.051 A 
ATOM     15  C   UNL     1      21.584  33.435   5.092  1.00  0.00     0.157 A 
ATOM     16  C   UNL     1      22.175  31.398   6.272  1.00  0.00     0.062 A 
ATOM     17  C   UNL     1      21.581  32.665   6.268  1.00  0.00     0.158 A 
BRANCH  15  18
ATOM     18  O   UNL     1      20.995  34.697   5.081  1.00  0.00    -0.504 OA
ATOM     19  H   UNL     1      21.222  35.394   5.782  1.00  0.00     0.293 HD
ENDBRANCH  15  18
BRANCH  17  20
ATOM     20  O   UNL     1      20.991  33.141   7.438  1.00  0.00    -0.504 OA
ATOM     21  H   UNL     1      21.416  33.872   7.996  1.00  0.00     0.293 HD
ENDBRANCH  17  20
ENDBRANCH   1  12
BRANCH   2  22
ATOM     22  O   UNL     1      21.744  28.668   3.583  1.00  0.00    -0.502 OA
ATOM     23  H   UNL     1      21.706  28.313   2.635  1.00  0.00     0.293 HD
ENDBRANCH   2  22
BRANCH   6  24
ATOM     24  O   UNL     1      24.789  24.553   5.060  1.00  0.00    -0.507 OA
ATOM     25  H   UNL     1      25.095  23.652   5.394  1.00  0.00     0.293 HD
ENDBRANCH   6  24
BRANCH   8  26
ATOM     26  O   UNL     1      28.123  26.857   7.636  1.00  0.00    -0.508 OA
ATOM     27  H   UNL     1      28.293  27.508   8.393  1.00  0.00     0.293 HD
ENDBRANCH   8  26
TORSDOF 6
ENDMDL
MODEL 5
REMARK VINA RESULT:    -4.724      2.178      5.999
REMARK INTER + INTRA:          -5.992
REMARK INTER:                  -5.708
REMARK INTRA:                  -0.284
REMARK UNBOUND:                -0.302
REMARK SMILES O=c1c(O)c(-c2ccc(O)c(O)c2)oc2cc(O)cc(O)c12
REMARK SMILES IDX 5 1 3 2 2 3 1 4 22 5 20 6 19 7 17 8 16 9 15 10 14 11 6 12
REMARK SMILES IDX 7 13 8 14 9 15 13 16 11 17 10 18 12 20 4 22 21 24 18 26
REMARK H PARENT 10 19 12 21 4 23 21 25 18 27
REMARK Flexibility Score: inf
ROOT
ATOM      1  C   UNL     1      23.635  28.131   5.493  1.00  0.00     0.180 A 
ATOM      2  C   UNL     1      25.037  28.105   5.396  1.00  0.00     0.208 A 
ATOM      3  C   UNL     1      25.783  29.094   6.055  1.00  0.00     0.238 A 
ATOM      4  O   UNL     1      27.035  29.098   5.920  1.00  0.00    -0.285 OA
ATOM      5  C   UNL     1      25.120  30.087   6.816  1.00  0.00     0.111 A 
ATOM      6  C   UNL     1      25.779  31.113   7.558  1.00  0.00     0.134 A 
ATOM      7  C   UNL     1      25.020  32.120   8.168  1.00  0.00     0.093 A 
ATOM      8  C   UNL     1      23.623  32.100   8.118  1.00  0.00     0.123 A 
ATOM      9  C   UNL     1      22.971  31.069   7.446  1.00  0.00     0.094 A 
ATOM     10  C   UNL     1      23.702  30.071   6.798  1.00  0.00     0.146 A 
ATOM     11  O   UNL     1      23.040  29.113   6.160  1.00  0.00    -0.452 OA
ENDROOT
BRANCH   1  12
ATOM     12  C   UNL     1      22.781  27.108   4.846  1.00  0.00     0.025 A 
ATOM     13  C   UNL     1      22.508  27.148   3.467  1.00  0.00     0.016 A 
ATOM     14  C   UNL     1      21.720  26.157   2.875  1.00  0.00     0.051 A 
ATOM     15  C   UNL     1      21.207  25.106   3.645  1.00  0.00     0.157 A 
ATOM     16  C   UNL     1      22.283  26.040   5.610  1.00  0.00     0.062 A 
ATOM     17  C   UNL     1      21.493  25.047   5.020  1.00  0.00     0.158 A 
BRANCH  15  18
ATOM     18  O   UNL     1      20.420  24.121   3.052  1.00  0.00    -0.504 OA
ATOM     19  H   UNL     1      20.553  23.846   2.085  1.00  0.00     0.293 HD
ENDBRANCH  15  18
BRANCH  17  20
ATOM     20  O   UNL     1      21.003  24.010   5.814  1.00  0.00    -0.504 OA
ATOM     21  H   UNL     1      20.808  23.090   5.437  1.00  0.00     0.293 HD
ENDBRANCH  17  20
ENDBRANCH   1  12
BRANCH   2  22
ATOM     22  O   UNL     1      25.669  27.129   4.621  1.00  0.00    -0.502 OA
ATOM     23  H   UNL     1      25.977  26.244   5.006  1.00  0.00     0.293 HD
ENDBRANCH   2  22
BRANCH   6  24
ATOM     24  O   UNL     1      27.163  31.174   7.749  1.00  0.00    -0.507 OA
ATOM     25  H   UNL     1      27.836  30.607   7.256  1.00  0.00     0.293 HD
ENDBRANCH   6  24
BRANCH   8  26
ATOM     26  O   UNL     1      22.876  33.096   8.741  1.00  0.00    -0.508 OA
ATOM     27  H   UNL     1      23.205  33.560   9.579  1.00  0.00     0.293 HD
ENDBRANCH   8  26
TORSDOF 6
ENDMDL
MODEL 6
REMARK VINA RESULT:    -4.612      1.599      6.378
REMARK INTER + INTRA:          -5.858
REMARK INTER:                  -5.541
REMARK INTRA:                  -0.317
REMARK UNBOUND:                -0.302
REMARK SMILES O=c1c(O)c(-c2ccc(O)c(O)c2)oc2cc(O)cc(O)c12
REMARK SMILES IDX 5 1 3 2 2 3 1 4 22 5 20 6 19 7 17 8 16 9 15 10 14 11 6 12
REMARK SMILES IDX 7 13 8 14 9 15 13 16 11 17 10 18 12 20 4 22 21 24 18 26
REMARK H PARENT 10 19 12 21 4 23 21 25 18 27
REMARK Flexibility Score: inf
ROOT
ATOM      1  C   UNL     1      23.531  27.415   5.454  1.00  0.00     0.180 A 
ATOM      2  C   UNL     1      24.706  27.364   6.223  1.00  0.00     0.208 A 
ATOM      3  C   UNL     1      25.151  28.531   6.864  1.00  0.00     0.238 A 
ATOM      4  O   UNL     1      26.233  28.493   7.507  1.00  0.00    -0.285 OA
ATOM      5  C   UNL     1      24.407  29.729   6.742  1.00  0.00     0.111 A 
ATOM      6  C   UNL     1      24.744  30.961   7.380  1.00  0.00     0.134 A 
ATOM      7  C   UNL     1      24.010  32.116   7.084  1.00  0.00     0.093 A 
ATOM      8  C   UNL     1      22.911  32.069   6.222  1.00  0.00     0.123 A 
ATOM      9  C   UNL     1      22.539  30.860   5.640  1.00  0.00     0.094 A 
ATOM     10  C   UNL     1      23.274  29.699   5.889  1.00  0.00     0.146 A 
ATOM     11  O   UNL     1      22.891  28.569   5.305  1.00  0.00    -0.452 OA
ENDROOT
BRANCH   1  12
ATOM     12  C   UNL     1      22.985  26.220   4.769  1.00  0.00     0.025 A 
ATOM     13  C   UNL     1      23.436  25.839   3.494  1.00  0.00     0.016 A 
ATOM     14  C   UNL     1      22.924  24.693   2.878  1.00  0.00     0.051 A 
ATOM     15  C   UNL     1      21.969  23.905   3.531  1.00  0.00     0.157 A 
ATOM     16  C   UNL     1      22.043  25.414   5.430  1.00  0.00     0.062 A 
ATOM     17  C   UNL     1      21.528  24.267   4.816  1.00  0.00     0.158 A 
BRANCH  15  18
ATOM     18  O   UNL     1      21.459  22.764   2.914  1.00  0.00    -0.504 OA
ATOM     19  H   UNL     1      20.529  22.751   2.509  1.00  0.00     0.293 HD
ENDBRANCH  15  18
BRANCH  17  20
ATOM     20  O   UNL     1      20.583  23.500   5.497  1.00  0.00    -0.504 OA
ATOM     21  H   UNL     1      20.058  23.866   6.282  1.00  0.00     0.293 HD
ENDBRANCH  17  20
ENDBRANCH   1  12
BRANCH   2  22
ATOM     22  O   UNL     1      25.437  26.176   6.313  1.00  0.00    -0.502 OA
ATOM     23  H   UNL     1      26.430  26.133   6.121  1.00  0.00     0.293 HD
ENDBRANCH   2  22
BRANCH   6  24
ATOM     24  O   UNL     1      25.764  31.096   8.327  1.00  0.00    -0.507 OA
ATOM     25  H   UNL     1      26.413  30.367   8.581  1.00  0.00     0.293 HD
ENDBRANCH   6  24
BRANCH   8  26
ATOM     26  O   UNL     1      22.176  33.221   5.945  1.00  0.00    -0.508 OA
ATOM     27  H   UNL     1      21.177  33.186   5.783  1.00  0.00     0.293 HD
ENDBRANCH   8  26
TORSDOF 6
ENDMDL
MODEL 7
REMARK VINA RESULT:    -4.564      2.451      6.711
REMARK INTER + INTRA:          -5.800
REMARK INTER:                  -5.608
REMARK INTRA:                  -0.191
REMARK UNBOUND:                -0.302
REMARK SMILES O=c1c(O)c(-c2ccc(O)c(O)c2)oc2cc(O)cc(O)c12
REMARK SMILES IDX 5 1 3 2 2 3 1 4 22 5 20 6 19 7 17 8 16 9 15 10 14 11 6 12
REMARK SMILES IDX 7 13 8 14 9 15 13 16 11 17 10 18 12 20 4 22 21 24 18 26
REMARK H PARENT 10 19 12 21 4 23 21 25 18 27
REMARK Flexibility Score: inf
ROOT
ATOM      1  C   UNL     1      23.719  27.084   5.382  1.00  0.00     0.180 A 
ATOM      2  C   UNL     1      22.960  28.214   5.032  1.00  0.00     0.208 A 
ATOM      3  C   UNL     1      23.419  29.485   5.410  1.00  0.00     0.238 A 
ATOM      4  O   UNL     1      22.708  30.490   5.141  1.00  0.00    -0.285 OA
ATOM      5  C   UNL     1      24.638  29.613   6.118  1.00  0.00     0.111 A 
ATOM      6  C   UNL     1      25.217  30.855   6.517  1.00  0.00     0.134 A 
ATOM      7  C   UNL     1      26.360  30.855   7.327  1.00  0.00     0.093 A 
ATOM      8  C   UNL     1      26.980  29.659   7.699  1.00  0.00     0.123 A 
ATOM      9  C   UNL     1      26.455  28.445   7.265  1.00  0.00     0.094 A 
ATOM     10  C   UNL     1      25.296  28.411   6.486  1.00  0.00     0.146 A 
ATOM     11  O   UNL     1      24.823  27.231   6.104  1.00  0.00    -0.452 OA
ENDROOT
BRANCH   1  12
ATOM     12  C   UNL     1      23.312  25.712   4.997  1.00  0.00     0.025 A 
ATOM     13  C   UNL     1      24.065  24.955   4.084  1.00  0.00     0.016 A 
ATOM     14  C   UNL     1      23.675  23.654   3.755  1.00  0.00     0.051 A 
ATOM     15  C   UNL     1      22.538  23.085   4.343  1.00  0.00     0.157 A 
ATOM     16  C   UNL     1      22.185  25.130   5.602  1.00  0.00     0.062 A 
ATOM     17  C   UNL     1      21.791  23.828   5.273  1.00  0.00     0.158 A 
BRANCH  15  18
ATOM     18  O   UNL     1      22.151  21.789   4.011  1.00  0.00    -0.504 OA
ATOM     19  H   UNL     1      21.197  21.572   3.745  1.00  0.00     0.293 HD
ENDBRANCH  15  18
BRANCH  17  20
ATOM     20  O   UNL     1      20.658  23.289   5.882  1.00  0.00    -0.504 OA
ATOM     21  H   UNL     1      20.310  23.632   6.770  1.00  0.00     0.293 HD
ENDBRANCH  17  20
ENDBRANCH   1  12
BRANCH   2  22
ATOM     22  O   UNL     1      21.748  28.064   4.351  1.00  0.00    -0.502 OA
ATOM     23  H   UNL     1      20.879  27.857   4.828  1.00  0.00     0.293 HD
ENDBRANCH   2  22
BRANCH   6  24
ATOM     24  O   UNL     1      24.732  32.105   6.124  1.00  0.00    -0.507 OA
ATOM     25  H   UNL     1      24.473  32.350   5.180  1.00  0.00     0.293 HD
ENDBRANCH   6  24
BRANCH   8  26
ATOM     26  O   UNL     1      28.125  29.670   8.493  1.00  0.00    -0.508 OA
ATOM     27  H   UNL     1      28.670  28.831   8.647  1.00  0.00     0.293 HD
ENDBRANCH   8  26
TORSDOF 6
ENDMDL
MODEL 8
REMARK VINA RESULT:    -4.463      2.108      6.569
REMARK INTER + INTRA:          -5.678
REMARK INTER:                  -5.481
REMARK INTRA:                  -0.197
REMARK UNBOUND:                -0.302
REMARK SMILES O=c1c(O)c(-c2ccc(O)c(O)c2)oc2cc(O)cc(O)c12
REMARK SMILES IDX 5 1 3 2 2 3 1 4 22 5 20 6 19 7 17 8 16 9 15 10 14 11 6 12
REMARK SMILES IDX 7 13 8 14 9 15 13 16 11 17 10 18 12 20 4 22 21 24 18 26
REMARK H PARENT 10 19 12 21 4 23 21 25 18 27
REMARK Flexibility Score: inf
ROOT
ATOM      1  C   UNL     1      23.499  28.031   4.656  1.00  0.00     0.180 A 
ATOM      2  C   UNL     1      24.797  28.096   4.120  1.00  0.00     0.208 A 
ATOM      3  C   UNL     1      25.367  29.353   3.870  1.00  0.00     0.238 A 
ATOM      4  O   UNL     1      26.508  29.405   3.339  1.00  0.00    -0.285 OA
ATOM      5  C   UNL     1      24.641  30.530   4.174  1.00  0.00     0.111 A 
ATOM      6  C   UNL     1      25.138  31.857   3.998  1.00  0.00     0.134 A 
ATOM      7  C   UNL     1      24.284  32.947   4.209  1.00  0.00     0.093 A 
ATOM      8  C   UNL     1      22.971  32.759   4.652  1.00  0.00     0.123 A 
ATOM      9  C   UNL     1      22.498  31.470   4.882  1.00  0.00     0.094 A 
ATOM     10  C   UNL     1      23.314  30.362   4.646  1.00  0.00     0.146 A 
ATOM     11  O   UNL     1      22.818  29.151   4.868  1.00  0.00    -0.452 OA
ENDROOT
BRANCH   1  12
ATOM     12  C   UNL     1      22.840  26.741   4.970  1.00  0.00     0.025 A 
ATOM     13  C   UNL     1      23.338  25.890   5.971  1.00  0.00     0.016 A 
ATOM     14  C   UNL     1      22.685  24.690   6.266  1.00  0.00     0.051 A 
ATOM     15  C   UNL     1      21.520  24.330   5.578  1.00  0.00     0.157 A 
ATOM     16  C   UNL     1      21.659  26.387   4.296  1.00  0.00     0.062 A 
ATOM     17  C   UNL     1      21.004  25.186   4.589  1.00  0.00     0.158 A 
BRANCH  15  18
ATOM     18  O   UNL     1      20.873  23.132   5.872  1.00  0.00    -0.504 OA
ATOM     19  H   UNL     1      21.310  22.421   6.449  1.00  0.00     0.293 HD
ENDBRANCH  15  18
BRANCH  17  20
ATOM     20  O   UNL     1      19.842  24.860   3.890  1.00  0.00    -0.504 OA
ATOM     21  H   UNL     1      19.000  24.550   4.360  1.00  0.00     0.293 HD
ENDBRANCH  17  20
ENDBRANCH   1  12
BRANCH   2  22
ATOM     22  O   UNL     1      25.488  26.921   3.807  1.00  0.00    -0.502 OA
ATOM     23  H   UNL     1      25.013  26.061   3.560  1.00  0.00     0.293 HD
ENDBRANCH   2  22
BRANCH   6  24
ATOM     24  O   UNL     1      26.457  32.157   3.649  1.00  0.00    -0.507 OA
ATOM     25  H   UNL     1      26.754  32.464   2.735  1.00  0.00     0.293 HD
ENDBRANCH   6  24
BRANCH   8  26
ATOM     26  O   UNL     1      22.134  33.850   4.874  1.00  0.00    -0.508 OA
ATOM     27  H   UNL     1      21.133  33.738   4.979  1.00  0.00     0.293 HD
ENDBRANCH   8  26
TORSDOF 6
ENDMDL
MODEL 9
REMARK VINA RESULT:    -4.294      1.935      6.533
REMARK INTER + INTRA:          -5.475
REMARK INTER:                  -5.171
REMARK INTRA:                  -0.303
REMARK UNBOUND:                -0.302
REMARK SMILES O=c1c(O)c(-c2ccc(O)c(O)c2)oc2cc(O)cc(O)c12
REMARK SMILES IDX 5 1 3 2 2 3 1 4 22 5 20 6 19 7 17 8 16 9 15 10 14 11 6 12
REMARK SMILES IDX 7 13 8 14 9 15 13 16 11 17 10 18 12 20 4 22 21 24 18 26
REMARK H PARENT 10 19 12 21 4 23 21 25 18 27
REMARK Flexibility Score: inf
ROOT
ATOM      1  C   UNL     1      25.034  28.288   5.858  1.00  0.00     0.180 A 
ATOM      2  C   UNL     1      26.253  28.755   6.380  1.00  0.00     0.208 A 
ATOM      3  C   UNL     1      26.260  29.934   7.141  1.00  0.00     0.238 A 
ATOM      4  O   UNL     1      27.362  30.377   7.560  1.00  0.00    -0.285 OA
ATOM      5  C   UNL     1      25.047  30.622   7.386  1.00  0.00     0.111 A 
ATOM      6  C   UNL     1      24.932  31.804   8.178  1.00  0.00     0.134 A 
ATOM      7  C   UNL     1      23.703  32.473   8.245  1.00  0.00     0.093 A 
ATOM      8  C   UNL     1      22.571  31.966   7.601  1.00  0.00     0.123 A 
ATOM      9  C   UNL     1      22.661  30.781   6.875  1.00  0.00     0.094 A 
ATOM     10  C   UNL     1      23.880  30.111   6.761  1.00  0.00     0.146 A 
ATOM     11  O   UNL     1      23.924  28.991   6.050  1.00  0.00    -0.452 OA
ENDROOT
BRANCH   1  12
ATOM     12  C   UNL     1      24.943  27.039   5.066  1.00  0.00     0.025 A 
ATOM     13  C   UNL     1      24.958  27.061   3.661  1.00  0.00     0.016 A 
ATOM     14  C   UNL     1      24.896  25.868   2.936  1.00  0.00     0.051 A 
ATOM     15  C   UNL     1      24.834  24.637   3.601  1.00  0.00     0.157 A 
ATOM     16  C   UNL     1      24.902  25.801   5.730  1.00  0.00     0.062 A 
ATOM     17  C   UNL     1      24.839  24.605   5.007  1.00  0.00     0.158 A 
BRANCH  15  18
ATOM     18  O   UNL     1      24.770  23.450   2.876  1.00  0.00    -0.504 OA
ATOM     19  H   UNL     1      24.835  23.442   1.864  1.00  0.00     0.293 HD
ENDBRANCH  15  18
BRANCH  17  20
ATOM     20  O   UNL     1      24.785  23.397   5.700  1.00  0.00    -0.504 OA
ATOM     21  H   UNL     1      24.287  22.591   5.339  1.00  0.00     0.293 HD
ENDBRANCH  17  20
ENDBRANCH   1  12
BRANCH   2  22
ATOM     22  O   UNL     1      27.442  28.072   6.107  1.00  0.00    -0.502 OA
ATOM     23  H   UNL     1      27.622  27.630   5.214  1.00  0.00     0.293 HD
ENDBRANCH   2  22
BRANCH   6  24
ATOM     24  O   UNL     1      25.976  32.343   8.935  1.00  0.00    -0.507 OA
ATOM     25  H   UNL     1      26.908  32.514   8.587  1.00  0.00     0.293 HD
ENDBRANCH   6  24
BRANCH   8  26
ATOM     26  O   UNL     1      21.349  32.630   7.686  1.00  0.00    -0.508 OA
ATOM     27  H   UNL     1      21.236  33.462   8.252  1.00  0.00     0.293 HD
ENDBRANCH   8  26
TORSDOF 6
ENDMDL
