MODEL 1
REMARK VINA RESULT:    -6.722      0.000      0.000
REMARK INTER + INTRA:          -7.923
REMARK INTER:                  -7.901
REMARK INTRA:                  -0.022
REMARK UNBOUND:                -0.022
REMARK SMILES O=c1c(O)c(-c2ccc(O)cc2)oc2cc(O)cc(O)c12
REMARK SMILES IDX 5 1 3 2 2 3 1 4 21 5 19 6 18 7 16 8 15 9 14 10 13 11 6 12
REMARK SMILES IDX 7 13 8 14 9 15 12 16 11 17 10 18 4 20 20 22 17 24
REMARK H PARENT 10 19 4 21 20 23 17 25
REMARK Flexibility Score: inf
ROOT
ATOM      1  C   UNL     1      14.091  31.848  30.215  1.00  0.00     0.180 A 
ATOM      2  C   UNL     1      14.635  33.047  30.716  1.00  0.00     0.208 A 
ATOM      3  C   UNL     1      14.527  33.318  32.090  1.00  0.00     0.238 A 
ATOM      4  O   UNL     1      15.020  34.383  32.551  1.00  0.00    -0.285 OA
ATOM      5  C   UNL     1      13.865  32.401  32.931  1.00  0.00     0.111 A 
ATOM      6  C   UNL     1      13.711  32.601  34.324  1.00  0.00     0.134 A 
ATOM      7  C   UNL     1      13.029  31.646  35.093  1.00  0.00     0.093 A 
ATOM      8  C   UNL     1      12.500  30.496  34.495  1.00  0.00     0.123 A 
ATOM      9  C   UNL     1      12.650  30.295  33.122  1.00  0.00     0.094 A 
ATOM     10  C   UNL     1      13.328  31.234  32.339  1.00  0.00     0.146 A 
ATOM     11  O   UNL     1      13.460  31.014  31.036  1.00  0.00    -0.452 OA
ENDROOT
BRANCH   1  12
ATOM     12  C   UNL     1      14.180  31.482  28.783  1.00  0.00     0.021 A 
ATOM     13  C   UNL     1      14.733  30.255  28.373  1.00  0.00     0.016 A 
ATOM     14  C   UNL     1      14.784  29.921  27.017  1.00  0.00     0.047 A 
ATOM     15  C   UNL     1      14.273  30.800  26.054  1.00  0.00     0.115 A 
ATOM     16  C   UNL     1      13.651  32.350  27.813  1.00  0.00     0.016 A 
ATOM     17  C   UNL     1      13.704  32.012  26.457  1.00  0.00     0.047 A 
BRANCH  15  18
ATOM     18  O   UNL     1      14.319  30.479  24.700  1.00  0.00    -0.508 OA
ATOM     19  H   UNL     1      14.565  31.169  24.000  1.00  0.00     0.293 HD
ENDBRANCH  15  18
ENDBRANCH   1  12
BRANCH   2  20
ATOM     20  O   UNL     1      15.244  33.961  29.853  1.00  0.00    -0.502 OA
ATOM     21  H   UNL     1      16.070  34.487  30.114  1.00  0.00     0.293 HD
ENDBRANCH   2  20
BRANCH   6  22
ATOM     22  O   UNL     1      14.226  33.738  34.948  1.00  0.00    -0.507 OA
ATOM     23  H   UNL     1      14.587  33.709  35.895  1.00  0.00     0.293 HD
ENDBRANCH   6  22
BRANCH   8  24
ATOM     24  O   UNL     1      11.822  29.548  35.258  1.00  0.00    -0.508 OA
ATOM     25  H   UNL     1      11.293  29.810  36.082  1.00  0.00     0.293 HD
ENDBRANCH   8  24
TORSDOF 5
ENDMDL
MODEL 2
REMARK VINA RESULT:    -6.500      8.508     10.823
REMARK INTER + INTRA:          -7.662
REMARK INTER:                  -7.418
REMARK INTRA:                  -0.244
REMARK UNBOUND:                -0.022
REMARK SMILES O=c1c(O)c(-c2ccc(O)cc2)oc2cc(O)cc(O)c12
REMARK SMILES IDX 5 1 3 2 2 3 1 4 21 5 19 6 18 7 16 8 15 9 14 10 13 11 6 12
REMARK SMILES IDX 7 13 8 14 9 15 12 16 11 17 10 18 4 20 20 22 17 24
REMARK H PARENT 10 19 4 21 20 23 17 25
REMARK Flexibility Score: inf
ROOT
ATOM      1  C   UNL     1      18.956  38.227  35.890  1.00  0.00     0.180 A 
ATOM      2  C   UNL     1      19.968  37.392  35.380  1.00  0.00     0.208 A 
ATOM      3  C   UNL     1      21.020  37.006  36.227  1.00  0.00     0.238 A 
ATOM      4  O   UNL     1      21.926  36.250  35.785  1.00  0.00    -0.285 OA
ATOM      5  C   UNL     1      21.051  37.476  37.557  1.00  0.00     0.111 A 
ATOM      6  C   UNL     1      22.077  37.137  38.472  1.00  0.00     0.134 A 
ATOM      7  C   UNL     1      22.043  37.653  39.776  1.00  0.00     0.093 A 
ATOM      8  C   UNL     1      21.004  38.500  40.180  1.00  0.00     0.123 A 
ATOM      9  C   UNL     1      19.991  38.836  39.280  1.00  0.00     0.094 A 
ATOM     10  C   UNL     1      20.007  38.331  37.977  1.00  0.00     0.146 A 
ATOM     11  O   UNL     1      19.027  38.663  37.144  1.00  0.00    -0.452 OA
ENDROOT
BRANCH   1  12
ATOM     12  C   UNL     1      17.805  38.662  35.065  1.00  0.00     0.021 A 
ATOM     13  C   UNL     1      16.752  37.782  34.754  1.00  0.00     0.016 A 
ATOM     14  C   UNL     1      15.665  38.223  33.994  1.00  0.00     0.047 A 
ATOM     15  C   UNL     1      15.607  39.549  33.548  1.00  0.00     0.115 A 
ATOM     16  C   UNL     1      17.730  39.996  34.631  1.00  0.00     0.016 A 
ATOM     17  C   UNL     1      16.641  40.433  33.871  1.00  0.00     0.047 A 
BRANCH  15  18
ATOM     18  O   UNL     1      14.530  39.999  32.789  1.00  0.00    -0.508 OA
ATOM     19  H   UNL     1      14.102  39.416  32.079  1.00  0.00     0.293 HD
ENDBRANCH  15  18
ENDBRANCH   1  12
BRANCH   2  20
ATOM     20  O   UNL     1      19.939  36.980  34.045  1.00  0.00    -0.502 OA
ATOM     21  H   UNL     1      19.092  37.004  33.489  1.00  0.00     0.293 HD
ENDBRANCH   2  20
BRANCH   6  22
ATOM     22  O   UNL     1      23.125  36.296  38.098  1.00  0.00    -0.507 OA
ATOM     23  H   UNL     1      23.101  35.765  37.235  1.00  0.00     0.293 HD
ENDBRANCH   6  22
BRANCH   8  24
ATOM     24  O   UNL     1      20.971  39.014  41.475  1.00  0.00    -0.508 OA
ATOM     25  H   UNL     1      20.808  39.999  41.651  1.00  0.00     0.293 HD
ENDBRANCH   8  24
TORSDOF 5
ENDMDL
MODEL 3
REMARK VINA RESULT:    -6.298      9.442     12.926
REMARK INTER + INTRA:          -7.425
REMARK INTER:                  -7.131
REMARK INTRA:                  -0.294
REMARK UNBOUND:                -0.022
REMARK SMILES O=c1c(O)c(-c2ccc(O)cc2)oc2cc(O)cc(O)c12
REMARK SMILES IDX 5 1 3 2 2 3 1 4 21 5 19 6 18 7 16 8 15 9 14 10 13 11 6 12
REMARK SMILES IDX 7 13 8 14 9 15 12 16 11 17 10 18 4 20 20 22 17 24
REMARK H PARENT 10 19 4 21 20 23 17 25
REMARK Flexibility Score: inf
ROOT
ATOM      1  C   UNL     1      20.997  38.354  37.600  1.00  0.00     0.180 A 
ATOM      2  C   UNL     1      21.819  37.579  36.759  1.00  0.00     0.208 A 
ATOM      3  C   UNL     1      21.295  37.110  35.543  1.00  0.00     0.238 A 
ATOM      4  O   UNL     1      22.025  36.424  34.777  1.00  0.00    -0.285 OA
ATOM      5  C   UNL     1      19.960  37.406  35.200  1.00  0.00     0.111 A 
ATOM      6  C   UNL     1      19.356  36.969  33.996  1.00  0.00     0.134 A 
ATOM      7  C   UNL     1      18.018  37.296  33.732  1.00  0.00     0.093 A 
ATOM      8  C   UNL     1      17.274  38.051  34.646  1.00  0.00     0.123 A 
ATOM      9  C   UNL     1      17.866  38.484  35.834  1.00  0.00     0.094 A 
ATOM     10  C   UNL     1      19.199  38.170  36.115  1.00  0.00     0.146 A 
ATOM     11  O   UNL     1      19.738  38.600  37.251  1.00  0.00    -0.452 OA
ENDROOT
BRANCH   1  12
ATOM     12  C   UNL     1      21.482  38.899  38.888  1.00  0.00     0.021 A 
ATOM     13  C   UNL     1      22.036  40.190  38.976  1.00  0.00     0.016 A 
ATOM     14  C   UNL     1      22.465  40.692  40.208  1.00  0.00     0.047 A 
ATOM     15  C   UNL     1      22.333  39.920  41.369  1.00  0.00     0.115 A 
ATOM     16  C   UNL     1      21.335  38.139  40.060  1.00  0.00     0.016 A 
ATOM     17  C   UNL     1      21.765  38.645  41.291  1.00  0.00     0.047 A 
BRANCH  15  18
ATOM     18  O   UNL     1      22.758  40.410  42.601  1.00  0.00    -0.508 OA
ATOM     19  H   UNL     1      23.665  40.848  42.713  1.00  0.00     0.293 HD
ENDBRANCH  15  18
ENDBRANCH   1  12
BRANCH   2  20
ATOM     20  O   UNL     1      23.123  37.259  37.145  1.00  0.00    -0.502 OA
ATOM     21  H   UNL     1      23.904  37.294  36.500  1.00  0.00     0.293 HD
ENDBRANCH   2  20
BRANCH   6  22
ATOM     22  O   UNL     1      20.071  36.214  33.066  1.00  0.00    -0.507 OA
ATOM     23  H   UNL     1      21.064  36.353  32.918  1.00  0.00     0.293 HD
ENDBRANCH   6  22
BRANCH   8  24
ATOM     24  O   UNL     1      15.945  38.375  34.383  1.00  0.00    -0.508 OA
ATOM     25  H   UNL     1      15.637  39.339  34.319  1.00  0.00     0.293 HD
ENDBRANCH   8  24
TORSDOF 5
ENDMDL
MODEL 4
REMARK VINA RESULT:    -6.246      2.879      6.829
REMARK INTER + INTRA:          -7.363
REMARK INTER:                  -7.073
REMARK INTRA:                  -0.290
REMARK UNBOUND:                -0.022
REMARK SMILES O=c1c(O)c(-c2ccc(O)cc2)oc2cc(O)cc(O)c12
REMARK SMILES IDX 5 1 3 2 2 3 1 4 21 5 19 6 18 7 16 8 15 9 14 10 13 11 6 12
REMARK SMILES IDX 7 13 8 14 9 15 12 16 11 17 10 18 4 20 20 22 17 24
REMARK H PARENT 10 19 4 21 20 23 17 25
REMARK Flexibility Score: inf
ROOT
ATOM      1  C   UNL     1      12.875  30.873  33.749  1.00  0.00     0.180 A 
ATOM      2  C   UNL     1      12.982  30.501  32.395  1.00  0.00     0.208 A 
ATOM      3  C   UNL     1      13.641  31.364  31.504  1.00  0.00     0.238 A 
ATOM      4  O   UNL     1      13.752  31.037  30.292  1.00  0.00    -0.285 OA
ATOM      5  C   UNL     1      14.162  32.586  31.976  1.00  0.00     0.111 A 
ATOM      6  C   UNL     1      14.836  33.512  31.144  1.00  0.00     0.134 A 
ATOM      7  C   UNL     1      15.318  34.713  31.688  1.00  0.00     0.093 A 
ATOM      8  C   UNL     1      15.138  35.003  33.045  1.00  0.00     0.123 A 
ATOM      9  C   UNL     1      14.474  34.092  33.869  1.00  0.00     0.094 A 
ATOM     10  C   UNL     1      13.989  32.890  33.346  1.00  0.00     0.146 A 
ATOM     11  O   UNL     1      13.365  32.040  34.155  1.00  0.00    -0.452 OA
ENDROOT
BRANCH   1  12
ATOM     12  C   UNL     1      12.212  30.009  34.752  1.00  0.00     0.021 A 
ATOM     13  C   UNL     1      10.826  30.090  34.988  1.00  0.00     0.016 A 
ATOM     14  C   UNL     1      10.219  29.247  35.923  1.00  0.00     0.047 A 
ATOM     15  C   UNL     1      10.981  28.304  36.623  1.00  0.00     0.115 A 
ATOM     16  C   UNL     1      12.966  29.047  35.443  1.00  0.00     0.016 A 
ATOM     17  C   UNL     1      12.354  28.205  36.378  1.00  0.00     0.047 A 
BRANCH  15  18
ATOM     18  O   UNL     1      10.387  27.461  37.557  1.00  0.00    -0.508 OA
ATOM     19  H   UNL     1      10.197  26.487  37.347  1.00  0.00     0.293 HD
ENDBRANCH  15  18
ENDBRANCH   1  12
BRANCH   2  20
ATOM     20  O   UNL     1      12.414  29.307  31.943  1.00  0.00    -0.502 OA
ATOM     21  H   UNL     1      11.419  29.208  31.776  1.00  0.00     0.293 HD
ENDBRANCH   2  20
BRANCH   6  22
ATOM     22  O   UNL     1      15.029  33.251  29.788  1.00  0.00    -0.507 OA
ATOM     23  H   UNL     1      15.535  33.893  29.187  1.00  0.00     0.293 HD
ENDBRANCH   6  22
BRANCH   8  24
ATOM     24  O   UNL     1      15.616  36.196  33.585  1.00  0.00    -0.508 OA
ATOM     25  H   UNL     1      16.539  36.259  33.997  1.00  0.00     0.293 HD
ENDBRANCH   8  24
TORSDOF 5
ENDMDL
MODEL 5
REMARK VINA RESULT:    -6.074      8.164      9.673
REMARK INTER + INTRA:          -7.162
REMARK INTER:                  -6.902
REMARK INTRA:                  -0.260
REMARK UNBOUND:                -0.022
REMARK SMILES O=c1c(O)c(-c2ccc(O)cc2)oc2cc(O)cc(O)c12
REMARK SMILES IDX 5 1 3 2 2 3 1 4 21 5 19 6 18 7 16 8 15 9 14 10 13 11 6 12
REMARK SMILES IDX 7 13 8 14 9 15 12 16 11 17 10 18 4 20 20 22 17 24
REMARK H PARENT 10 19 4 21 20 23 17 25
REMARK Flexibility Score: inf
ROOT
ATOM      1  C   UNL     1      17.309  38.465  34.322  1.00  0.00     0.180 A 
ATOM      2  C   UNL     1      18.179  37.783  33.450  1.00  0.00     0.208 A 
ATOM      3  C   UNL     1      19.388  37.278  33.956  1.00  0.00     0.238 A 
ATOM      4  O   UNL     1      20.170  36.655  33.187  1.00  0.00    -0.285 OA
ATOM      5  C   UNL     1      19.714  37.480  35.313  1.00  0.00     0.111 A 
ATOM      6  C   UNL     1      20.912  37.006  35.899  1.00  0.00     0.134 A 
ATOM      7  C   UNL     1      21.169  37.256  37.255  1.00  0.00     0.093 A 
ATOM      8  C   UNL     1      20.251  37.970  38.034  1.00  0.00     0.123 A 
ATOM      9  C   UNL     1      19.067  38.438  37.460  1.00  0.00     0.094 A 
ATOM     10  C   UNL     1      18.793  38.197  36.111  1.00  0.00     0.146 A 
ATOM     11  O   UNL     1      17.657  38.650  35.592  1.00  0.00    -0.452 OA
ENDROOT
BRANCH   1  12
ATOM     12  C   UNL     1      16.009  39.011  33.869  1.00  0.00     0.021 A 
ATOM     13  C   UNL     1      14.799  38.350  34.150  1.00  0.00     0.016 A 
ATOM     14  C   UNL     1      13.582  38.897  33.733  1.00  0.00     0.047 A 
ATOM     15  C   UNL     1      13.556  40.115  33.043  1.00  0.00     0.115 A 
ATOM     16  C   UNL     1      15.973  40.242  33.195  1.00  0.00     0.016 A 
ATOM     17  C   UNL     1      14.754  40.786  32.778  1.00  0.00     0.047 A 
BRANCH  15  18
ATOM     18  O   UNL     1      12.350  40.669  32.621  1.00  0.00    -0.508 OA
ATOM     19  H   UNL     1      12.263  41.659  32.422  1.00  0.00     0.293 HD
ENDBRANCH  15  18
ENDBRANCH   1  12
BRANCH   2  20
ATOM     20  O   UNL     1      17.854  37.639  32.098  1.00  0.00    -0.502 OA
ATOM     21  H   UNL     1      18.149  38.307  31.396  1.00  0.00     0.293 HD
ENDBRANCH   2  20
BRANCH   6  22
ATOM     22  O   UNL     1      21.847  36.293  35.148  1.00  0.00    -0.507 OA
ATOM     23  H   UNL     1      22.638  35.831  35.581  1.00  0.00     0.293 HD
ENDBRANCH   6  22
BRANCH   8  24
ATOM     24  O   UNL     1      20.506  38.219  39.381  1.00  0.00    -0.508 OA
ATOM     25  H   UNL     1      21.347  38.697  39.682  1.00  0.00     0.293 HD
ENDBRANCH   8  24
TORSDOF 5
ENDMDL
MODEL 6
REMARK VINA RESULT:    -5.936      8.324     10.070
REMARK INTER + INTRA:          -6.999
REMARK INTER:                  -6.741
REMARK INTRA:                  -0.258
REMARK UNBOUND:                -0.022
REMARK SMILES O=c1c(O)c(-c2ccc(O)cc2)oc2cc(O)cc(O)c12
REMARK SMILES IDX 5 1 3 2 2 3 1 4 21 5 19 6 18 7 16 8 15 9 14 10 13 11 6 12
REMARK SMILES IDX 7 13 8 14 9 15 12 16 11 17 10 18 4 20 20 22 17 24
REMARK H PARENT 10 19 4 21 20 23 17 25
REMARK Flexibility Score: inf
ROOT
ATOM      1  C   UNL     1      20.280  37.700  34.581  1.00  0.00     0.180 A 
ATOM      2  C   UNL     1      19.830  38.885  35.195  1.00  0.00     0.208 A 
ATOM      3  C   UNL     1      20.156  39.117  36.541  1.00  0.00     0.238 A 
ATOM      4  O   UNL     1      19.768  40.179  37.099  1.00  0.00    -0.285 OA
ATOM      5  C   UNL     1      20.907  38.157  37.252  1.00  0.00     0.111 A 
ATOM      6  C   UNL     1      21.274  38.314  38.610  1.00  0.00     0.134 A 
ATOM      7  C   UNL     1      22.013  37.308  39.250  1.00  0.00     0.093 A 
ATOM      8  C   UNL     1      22.391  36.152  38.558  1.00  0.00     0.123 A 
ATOM      9  C   UNL     1      22.031  35.994  37.219  1.00  0.00     0.094 A 
ATOM     10  C   UNL     1      21.296  36.985  36.563  1.00  0.00     0.146 A 
ATOM     11  O   UNL     1      20.972  36.811  35.286  1.00  0.00    -0.452 OA
ENDROOT
BRANCH   1  12
ATOM     12  C   UNL     1      19.992  37.392  33.161  1.00  0.00     0.021 A 
ATOM     13  C   UNL     1      18.735  36.904  32.757  1.00  0.00     0.016 A 
ATOM     14  C   UNL     1      18.479  36.643  31.408  1.00  0.00     0.047 A 
ATOM     15  C   UNL     1      19.468  36.879  30.444  1.00  0.00     0.115 A 
ATOM     16  C   UNL     1      20.971  37.645  32.187  1.00  0.00     0.016 A 
ATOM     17  C   UNL     1      20.711  37.383  30.838  1.00  0.00     0.047 A 
BRANCH  15  18
ATOM     18  O   UNL     1      19.225  36.621  29.098  1.00  0.00    -0.508 OA
ATOM     19  H   UNL     1      19.528  35.759  28.660  1.00  0.00     0.293 HD
ENDBRANCH  15  18
ENDBRANCH   1  12
BRANCH   2  20
ATOM     20  O   UNL     1      19.047  39.797  34.483  1.00  0.00    -0.502 OA
ATOM     21  H   UNL     1      19.181  39.970  33.493  1.00  0.00     0.293 HD
ENDBRANCH   2  20
BRANCH   6  22
ATOM     22  O   UNL     1      20.911  39.455  39.326  1.00  0.00    -0.507 OA
ATOM     23  H   UNL     1      21.238  39.618  40.271  1.00  0.00     0.293 HD
ENDBRANCH   6  22
BRANCH   8  24
ATOM     24  O   UNL     1      23.125  35.152  39.194  1.00  0.00    -0.508 OA
ATOM     25  H   UNL     1      23.285  34.252  38.757  1.00  0.00     0.293 HD
ENDBRANCH   8  24
TORSDOF 5
ENDMDL
MODEL 7
REMARK VINA RESULT:    -5.882      8.534     12.314
REMARK INTER + INTRA:          -6.936
REMARK INTER:                  -6.658
REMARK INTRA:                  -0.278
REMARK UNBOUND:                -0.022
REMARK SMILES O=c1c(O)c(-c2ccc(O)cc2)oc2cc(O)cc(O)c12
REMARK SMILES IDX 5 1 3 2 2 3 1 4 21 5 19 6 18 7 16 8 15 9 14 10 13 11 6 12
REMARK SMILES IDX 7 13 8 14 9 15 12 16 11 17 10 18 4 20 20 22 17 24
REMARK H PARENT 10 19 4 21 20 23 17 25
REMARK Flexibility Score: inf
ROOT
ATOM      1  C   UNL     1      19.848  38.701  35.784  1.00  0.00     0.180 A 
ATOM      2  C   UNL     1      18.636  38.134  35.347  1.00  0.00     0.208 A 
ATOM      3  C   UNL     1      18.537  37.682  34.021  1.00  0.00     0.238 A 
ATOM      4  O   UNL     1      17.460  37.162  33.621  1.00  0.00    -0.285 OA
ATOM      5  C   UNL     1      19.640  37.823  33.153  1.00  0.00     0.111 A 
ATOM      6  C   UNL     1      19.621  37.398  31.803  1.00  0.00     0.134 A 
ATOM      7  C   UNL     1      20.756  37.583  31.000  1.00  0.00     0.093 A 
ATOM      8  C   UNL     1      21.908  38.183  31.521  1.00  0.00     0.123 A 
ATOM      9  C   UNL     1      21.931  38.604  32.852  1.00  0.00     0.094 A 
ATOM     10  C   UNL     1      20.810  38.427  33.669  1.00  0.00     0.146 A 
ATOM     11  O   UNL     1      20.862  38.832  34.933  1.00  0.00    -0.452 OA
ENDROOT
BRANCH   1  12
ATOM     12  C   UNL     1      20.036  39.184  37.171  1.00  0.00     0.021 A 
ATOM     13  C   UNL     1      19.830  40.533  37.513  1.00  0.00     0.016 A 
ATOM     14  C   UNL     1      19.990  40.960  38.834  1.00  0.00     0.047 A 
ATOM     15  C   UNL     1      20.344  40.045  39.833  1.00  0.00     0.115 A 
ATOM     16  C   UNL     1      20.370  38.268  38.182  1.00  0.00     0.016 A 
ATOM     17  C   UNL     1      20.530  38.699  39.503  1.00  0.00     0.047 A 
BRANCH  15  18
ATOM     18  O   UNL     1      20.507  40.459  41.152  1.00  0.00    -0.508 OA
ATOM     19  H   UNL     1      19.793  40.294  41.851  1.00  0.00     0.293 HD
ENDBRANCH  15  18
ENDBRANCH   1  12
BRANCH   2  20
ATOM     20  O   UNL     1      17.542  38.050  36.213  1.00  0.00    -0.502 OA
ATOM     21  H   UNL     1      16.648  37.672  35.922  1.00  0.00     0.293 HD
ENDBRANCH   2  20
BRANCH   6  22
ATOM     22  O   UNL     1      18.488  36.797  31.255  1.00  0.00    -0.507 OA
ATOM     23  H   UNL     1      18.055  35.986  31.682  1.00  0.00     0.293 HD
ENDBRANCH   6  22
BRANCH   8  24
ATOM     24  O   UNL     1      23.035  38.368  30.724  1.00  0.00    -0.508 OA
ATOM     25  H   UNL     1      23.467  37.596  30.230  1.00  0.00     0.293 HD
ENDBRANCH   8  24
TORSDOF 5
ENDMDL
MODEL 8
REMARK VINA RESULT:    -5.875      8.709     11.879
REMARK INTER + INTRA:          -6.928
REMARK INTER:                  -6.764
REMARK INTRA:                  -0.164
REMARK UNBOUND:                -0.022
REMARK SMILES O=c1c(O)c(-c2ccc(O)cc2)oc2cc(O)cc(O)c12
REMARK SMILES IDX 5 1 3 2 2 3 1 4 21 5 19 6 18 7 16 8 15 9 14 10 13 11 6 12
REMARK SMILES IDX 7 13 8 14 9 15 12 16 11 17 10 18 4 20 20 22 17 24
REMARK H PARENT 10 19 4 21 20 23 17 25
REMARK Flexibility Score: inf
ROOT
ATOM      1  C   UNL     1      19.510  38.380  36.235  1.00  0.00     0.180 A 
ATOM      2  C   UNL     1      20.102  37.509  35.300  1.00  0.00     0.208 A 
ATOM      3  C   UNL     1      19.650  37.531  33.971  1.00  0.00     0.238 A 
ATOM      4  O   UNL     1      20.181  36.762  33.123  1.00  0.00    -0.285 OA
ATOM      5  C   UNL     1      18.606  38.405  33.605  1.00  0.00     0.111 A 
ATOM      6  C   UNL     1      18.092  38.486  32.288  1.00  0.00     0.134 A 
ATOM      7  C   UNL     1      17.044  39.375  32.005  1.00  0.00     0.093 A 
ATOM      8  C   UNL     1      16.503  40.183  33.012  1.00  0.00     0.123 A 
ATOM      9  C   UNL     1      17.008  40.106  34.311  1.00  0.00     0.094 A 
ATOM     10  C   UNL     1      18.053  39.228  34.613  1.00  0.00     0.146 A 
ATOM     11  O   UNL     1      18.518  39.180  35.857  1.00  0.00    -0.452 OA
ENDROOT
BRANCH   1  12
ATOM     12  C   UNL     1      19.944  38.429  37.650  1.00  0.00     0.021 A 
ATOM     13  C   UNL     1      21.236  38.856  38.007  1.00  0.00     0.016 A 
ATOM     14  C   UNL     1      21.615  38.917  39.350  1.00  0.00     0.047 A 
ATOM     15  C   UNL     1      20.705  38.566  40.356  1.00  0.00     0.115 A 
ATOM     16  C   UNL     1      19.031  38.098  38.665  1.00  0.00     0.016 A 
ATOM     17  C   UNL     1      19.413  38.160  40.009  1.00  0.00     0.047 A 
BRANCH  15  18
ATOM     18  O   UNL     1      21.071  38.622  41.698  1.00  0.00    -0.508 OA
ATOM     19  H   UNL     1      21.969  38.277  42.017  1.00  0.00     0.293 HD
ENDBRANCH  15  18
ENDBRANCH   1  12
BRANCH   2  20
ATOM     20  O   UNL     1      21.102  36.618  35.700  1.00  0.00    -0.502 OA
ATOM     21  H   UNL     1      21.270  35.741  35.221  1.00  0.00     0.293 HD
ENDBRANCH   2  20
BRANCH   6  22
ATOM     22  O   UNL     1      18.609  37.693  31.264  1.00  0.00    -0.507 OA
ATOM     23  H   UNL     1      18.516  36.683  31.272  1.00  0.00     0.293 HD
ENDBRANCH   6  22
BRANCH   8  24
ATOM     24  O   UNL     1      15.462  41.065  32.731  1.00  0.00    -0.508 OA
ATOM     25  H   UNL     1      15.115  41.193  31.787  1.00  0.00     0.293 HD
ENDBRANCH   8  24
TORSDOF 5
ENDMDL
