MODEL 1
REMARK VINA RESULT:    -8.631      0.000      0.000
REMARK INTER + INTRA:         -10.472
REMARK INTER:                 -10.397
REMARK INTRA:                  -0.075
REMARK UNBOUND:                -0.075
REMARK SMILES O=c1c(O)c(-c2ccc(O)c(O)c2)oc2cc(O)cc(O)c12
REMARK SMILES IDX 5 1 3 2 2 3 1 4 22 5 20 6 19 7 17 8 16 9 15 10 14 11 6 12
REMARK SMILES IDX 7 13 8 14 9 15 13 16 11 17 10 18 12 20 4 22 21 24 18 26
REMARK H PARENT 10 19 12 21 4 23 21 25 18 27
REMARK Flexibility Score: inf
ROOT
ATOM      1  C   UNL     1       7.227  14.595   1.936  1.00  0.00     0.180 A 
ATOM      2  C   UNL     1       6.979  15.151   3.203  1.00  0.00     0.208 A 
ATOM      3  C   UNL     1       5.651  15.290   3.638  1.00  0.00     0.238 A 
ATOM      4  O   UNL     1       5.434  15.837   4.750  1.00  0.00    -0.285 OA
ATOM      5  C   UNL     1       4.589  14.858   2.807  1.00  0.00     0.111 A 
ATOM      6  C   UNL     1       3.208  14.915   3.164  1.00  0.00     0.134 A 
ATOM      7  C   UNL     1       2.236  14.582   2.212  1.00  0.00     0.093 A 
ATOM      8  C   UNL     1       2.595  14.132   0.943  1.00  0.00     0.123 A 
ATOM      9  C   UNL     1       3.943  14.017   0.604  1.00  0.00     0.094 A 
ATOM     10  C   UNL     1       4.936  14.376   1.518  1.00  0.00     0.146 A 
ATOM     11  O   UNL     1       6.207  14.261   1.153  1.00  0.00    -0.452 OA
ENDROOT
BRANCH   1  12
ATOM     12  C   UNL     1       8.600  14.394   1.419  1.00  0.00     0.025 A 
ATOM     13  C   UNL     1       9.559  13.673   2.151  1.00  0.00     0.016 A 
ATOM     14  C   UNL     1      10.841  13.473   1.632  1.00  0.00     0.051 A 
ATOM     15  C   UNL     1      11.178  13.980   0.370  1.00  0.00     0.157 A 
ATOM     16  C   UNL     1       8.938  14.881   0.145  1.00  0.00     0.062 A 
ATOM     17  C   UNL     1      10.224  14.682  -0.376  1.00  0.00     0.158 A 
BRANCH  15  18
ATOM     18  O   UNL     1      12.457  13.785  -0.150  1.00  0.00    -0.504 OA
ATOM     19  H   UNL     1      12.838  12.856  -0.286  1.00  0.00     0.293 HD
ENDBRANCH  15  18
BRANCH  17  20
ATOM     20  O   UNL     1      10.560  15.178  -1.635  1.00  0.00    -0.504 OA
ATOM     21  H   UNL     1      10.950  14.579  -2.354  1.00  0.00     0.293 HD
ENDBRANCH  17  20
ENDBRANCH   1  12
BRANCH   2  22
ATOM     22  O   UNL     1       8.042  15.591   3.998  1.00  0.00    -0.502 OA
ATOM     23  H   UNL     1       8.730  16.255   3.666  1.00  0.00     0.293 HD
ENDBRANCH   2  22
BRANCH   6  24
ATOM     24  O   UNL     1       2.743  15.263   4.435  1.00  0.00    -0.507 OA
ATOM     25  H   UNL     1       2.465  14.603   5.146  1.00  0.00     0.293 HD
ENDBRANCH   6  24
BRANCH   8  26
ATOM     26  O   UNL     1       1.601  13.794   0.027  1.00  0.00    -0.508 OA
ATOM     27  H   UNL     1       1.771  13.816  -0.972  1.00  0.00     0.293 HD
ENDBRANCH   8  26
TORSDOF 6
ENDMDL
MODEL 2
REMARK VINA RESULT:    -8.216      3.011      8.878
REMARK INTER + INTRA:          -9.972
REMARK INTER:                 -10.373
REMARK INTRA:                   0.401
REMARK UNBOUND:                -0.075
REMARK SMILES O=c1c(O)c(-c2ccc(O)c(O)c2)oc2cc(O)cc(O)c12
REMARK SMILES IDX 5 1 3 2 2 3 1 4 22 5 20 6 19 7 17 8 16 9 15 10 14 11 6 12
REMARK SMILES IDX 7 13 8 14 9 15 13 16 11 17 10 18 12 20 4 22 21 24 18 26
REMARK H PARENT 10 19 12 21 4 23 21 25 18 27
REMARK Flexibility Score: inf
ROOT
ATOM      1  C   UNL     1       1.364  14.596   3.120  1.00  0.00     0.180 A 
ATOM      2  C   UNL     1       1.566  14.087   1.825  1.00  0.00     0.208 A 
ATOM      3  C   UNL     1       2.865  14.076   1.293  1.00  0.00     0.238 A 
ATOM      4  O   UNL     1       3.031  13.669   0.114  1.00  0.00    -0.285 OA
ATOM      5  C   UNL     1       3.948  14.558   2.068  1.00  0.00     0.111 A 
ATOM      6  C   UNL     1       5.311  14.556   1.644  1.00  0.00     0.134 A 
ATOM      7  C   UNL     1       6.282  15.177   2.439  1.00  0.00     0.093 A 
ATOM      8  C   UNL     1       5.951  15.741   3.670  1.00  0.00     0.123 A 
ATOM      9  C   UNL     1       4.632  15.696   4.121  1.00  0.00     0.094 A 
ATOM     10  C   UNL     1       3.635  15.116   3.334  1.00  0.00     0.146 A 
ATOM     11  O   UNL     1       2.390  15.102   3.796  1.00  0.00    -0.452 OA
ENDROOT
BRANCH   1  12
ATOM     12  C   UNL     1       0.028  14.620   3.758  1.00  0.00     0.025 A 
ATOM     13  C   UNL     1      -1.148  14.501   2.997  1.00  0.00     0.016 A 
ATOM     14  C   UNL     1      -2.398  14.500   3.623  1.00  0.00     0.051 A 
ATOM     15  C   UNL     1      -2.489  14.605   5.017  1.00  0.00     0.157 A 
ATOM     16  C   UNL     1      -0.069  14.703   5.157  1.00  0.00     0.062 A 
ATOM     17  C   UNL     1      -1.322  14.703   5.786  1.00  0.00     0.158 A 
BRANCH  15  18
ATOM     18  O   UNL     1      -3.733  14.607   5.645  1.00  0.00    -0.504 OA
ATOM     19  H   UNL     1      -3.822  14.742   6.645  1.00  0.00     0.293 HD
ENDBRANCH  15  18
BRANCH  17  20
ATOM     20  O   UNL     1      -1.416  14.799   7.174  1.00  0.00    -0.504 OA
ATOM     21  H   UNL     1      -2.068  14.229   7.701  1.00  0.00     0.293 HD
ENDBRANCH  17  20
ENDBRANCH   1  12
BRANCH   2  22
ATOM     22  O   UNL     1       0.480  13.637   1.070  1.00  0.00    -0.502 OA
ATOM     23  H   UNL     1      -0.288  14.243   0.806  1.00  0.00     0.293 HD
ENDBRANCH   2  22
BRANCH   6  24
ATOM     24  O   UNL     1       5.764  13.939   0.474  1.00  0.00    -0.507 OA
ATOM     25  H   UNL     1       5.775  12.943   0.317  1.00  0.00     0.293 HD
ENDBRANCH   6  24
BRANCH   8  26
ATOM     26  O   UNL     1       6.946  16.337   4.443  1.00  0.00    -0.508 OA
ATOM     27  H   UNL     1       7.892  15.975   4.461  1.00  0.00     0.293 HD
ENDBRANCH   8  26
TORSDOF 6
ENDMDL
MODEL 3
REMARK VINA RESULT:    -8.027      2.685      8.102
REMARK INTER + INTRA:          -9.744
REMARK INTER:                 -10.288
REMARK INTRA:                   0.544
REMARK UNBOUND:                -0.075
REMARK SMILES O=c1c(O)c(-c2ccc(O)c(O)c2)oc2cc(O)cc(O)c12
REMARK SMILES IDX 5 1 3 2 2 3 1 4 22 5 20 6 19 7 17 8 16 9 15 10 14 11 6 12
REMARK SMILES IDX 7 13 8 14 9 15 13 16 11 17 10 18 12 20 4 22 21 24 18 26
REMARK H PARENT 10 19 12 21 4 23 21 25 18 27
REMARK Flexibility Score: inf
ROOT
ATOM      1  C   UNL     1       2.085  14.722   3.437  1.00  0.00     0.180 A 
ATOM      2  C   UNL     1       2.672  15.178   4.630  1.00  0.00     0.208 A 
ATOM      3  C   UNL     1       4.060  15.386   4.669  1.00  0.00     0.238 A 
ATOM      4  O   UNL     1       4.587  15.743   5.755  1.00  0.00    -0.285 OA
ATOM      5  C   UNL     1       4.840  15.152   3.511  1.00  0.00     0.111 A 
ATOM      6  C   UNL     1       6.249  15.368   3.426  1.00  0.00     0.134 A 
ATOM      7  C   UNL     1       6.939  14.979   2.271  1.00  0.00     0.093 A 
ATOM      8  C   UNL     1       6.264  14.442   1.176  1.00  0.00     0.123 A 
ATOM      9  C   UNL     1       4.879  14.281   1.226  1.00  0.00     0.094 A 
ATOM     10  C   UNL     1       4.168  14.626   2.377  1.00  0.00     0.146 A 
ATOM     11  O   UNL     1       2.852  14.448   2.388  1.00  0.00    -0.452 OA
ENDROOT
BRANCH   1  12
ATOM     12  C   UNL     1       0.626  14.502   3.311  1.00  0.00     0.025 A 
ATOM     13  C   UNL     1       0.046  14.119   2.088  1.00  0.00     0.016 A 
ATOM     14  C   UNL     1      -1.330  13.893   1.999  1.00  0.00     0.051 A 
ATOM     15  C   UNL     1      -2.144  14.033   3.130  1.00  0.00     0.157 A 
ATOM     16  C   UNL     1      -0.193  14.620   4.447  1.00  0.00     0.062 A 
ATOM     17  C   UNL     1      -1.573  14.395   4.358  1.00  0.00     0.158 A 
BRANCH  15  18
ATOM     18  O   UNL     1      -3.517  13.811   3.045  1.00  0.00    -0.504 OA
ATOM     19  H   UNL     1      -3.978  13.678   2.152  1.00  0.00     0.293 HD
ENDBRANCH  15  18
BRANCH  17  20
ATOM     20  O   UNL     1      -2.384  14.526   5.484  1.00  0.00    -0.504 OA
ATOM     21  H   UNL     1      -2.056  14.992   6.322  1.00  0.00     0.293 HD
ENDBRANCH  17  20
ENDBRANCH   1  12
BRANCH   2  22
ATOM     22  O   UNL     1       1.886  15.382   5.767  1.00  0.00    -0.502 OA
ATOM     23  H   UNL     1       1.398  14.627   6.234  1.00  0.00     0.293 HD
ENDBRANCH   2  22
BRANCH   6  24
ATOM     24  O   UNL     1       7.006  15.982   4.428  1.00  0.00    -0.507 OA
ATOM     25  H   UNL     1       6.763  16.850   4.881  1.00  0.00     0.293 HD
ENDBRANCH   6  24
BRANCH   8  26
ATOM     26  O   UNL     1       6.980  14.080   0.038  1.00  0.00    -0.508 OA
ATOM     27  H   UNL     1       7.990  14.160  -0.002  1.00  0.00     0.293 HD
ENDBRANCH   8  26
TORSDOF 6
ENDMDL
MODEL 4
REMARK VINA RESULT:    -8.025      1.627      3.053
REMARK INTER + INTRA:          -9.741
REMARK INTER:                  -9.648
REMARK INTRA:                  -0.093
REMARK UNBOUND:                -0.075
REMARK SMILES O=c1c(O)c(-c2ccc(O)c(O)c2)oc2cc(O)cc(O)c12
REMARK SMILES IDX 5 1 3 2 2 3 1 4 22 5 20 6 19 7 17 8 16 9 15 10 14 11 6 12
REMARK SMILES IDX 7 13 8 14 9 15 13 16 11 17 10 18 12 20 4 22 21 24 18 26
REMARK H PARENT 10 19 12 21 4 23 21 25 18 27
REMARK Flexibility Score: inf
ROOT
ATOM      1  C   UNL     1       7.667  14.652   1.941  1.00  0.00     0.180 A 
ATOM      2  C   UNL     1       6.726  14.057   1.082  1.00  0.00     0.208 A 
ATOM      3  C   UNL     1       5.363  14.135   1.408  1.00  0.00     0.238 A 
ATOM      4  O   UNL     1       4.530  13.555   0.664  1.00  0.00    -0.285 OA
ATOM      5  C   UNL     1       4.956  14.820   2.579  1.00  0.00     0.111 A 
ATOM      6  C   UNL     1       3.598  14.995   2.984  1.00  0.00     0.134 A 
ATOM      7  C   UNL     1       3.319  15.576   4.227  1.00  0.00     0.093 A 
ATOM      8  C   UNL     1       4.343  16.045   5.049  1.00  0.00     0.123 A 
ATOM      9  C   UNL     1       5.670  15.933   4.636  1.00  0.00     0.094 A 
ATOM     10  C   UNL     1       5.983  15.325   3.417  1.00  0.00     0.146 A 
ATOM     11  O   UNL     1       7.260  15.229   3.065  1.00  0.00    -0.452 OA
ENDROOT
BRANCH   1  12
ATOM     12  C   UNL     1       9.119  14.632   1.653  1.00  0.00     0.025 A 
ATOM     13  C   UNL     1       9.819  13.423   1.500  1.00  0.00     0.016 A 
ATOM     14  C   UNL     1      11.185  13.428   1.204  1.00  0.00     0.051 A 
ATOM     15  C   UNL     1      11.867  14.641   1.042  1.00  0.00     0.157 A 
ATOM     16  C   UNL     1       9.805  15.845   1.468  1.00  0.00     0.062 A 
ATOM     17  C   UNL     1      11.175  15.852   1.172  1.00  0.00     0.158 A 
BRANCH  15  18
ATOM     18  O   UNL     1      13.229  14.651   0.748  1.00  0.00    -0.504 OA
ATOM     19  H   UNL     1      13.608  15.229   0.006  1.00  0.00     0.293 HD
ENDBRANCH  15  18
BRANCH  17  20
ATOM     20  O   UNL     1      11.855  17.057   1.003  1.00  0.00    -0.504 OA
ATOM     21  H   UNL     1      11.695  17.647   0.194  1.00  0.00     0.293 HD
ENDBRANCH  17  20
ENDBRANCH   1  12
BRANCH   2  22
ATOM     22  O   UNL     1       7.151  13.368  -0.057  1.00  0.00    -0.502 OA
ATOM     23  H   UNL     1       8.130  13.249  -0.287  1.00  0.00     0.293 HD
ENDBRANCH   2  22
BRANCH   6  24
ATOM     24  O   UNL     1       2.497  14.644   2.197  1.00  0.00    -0.507 OA
ATOM     25  H   UNL     1       2.550  14.353   1.233  1.00  0.00     0.293 HD
ENDBRANCH   6  24
BRANCH   8  26
ATOM     26  O   UNL     1       4.027  16.631   6.273  1.00  0.00    -0.508 OA
ATOM     27  H   UNL     1       3.100  16.555   6.674  1.00  0.00     0.293 HD
ENDBRANCH   8  26
TORSDOF 6
ENDMDL
MODEL 5
REMARK VINA RESULT:    -7.550      1.764      3.672
REMARK INTER + INTRA:          -9.170
REMARK INTER:                  -9.686
REMARK INTRA:                   0.516
REMARK UNBOUND:                -0.075
REMARK SMILES O=c1c(O)c(-c2ccc(O)c(O)c2)oc2cc(O)cc(O)c12
REMARK SMILES IDX 5 1 3 2 2 3 1 4 22 5 20 6 19 7 17 8 16 9 15 10 14 11 6 12
REMARK SMILES IDX 7 13 8 14 9 15 13 16 11 17 10 18 12 20 4 22 21 24 18 26
REMARK H PARENT 10 19 12 21 4 23 21 25 18 27
REMARK Flexibility Score: inf
ROOT
ATOM      1  C   UNL     1       4.887  14.446   2.198  1.00  0.00     0.180 A 
ATOM      2  C   UNL     1       4.046  14.196   1.099  1.00  0.00     0.208 A 
ATOM      3  C   UNL     1       2.654  14.207   1.291  1.00  0.00     0.238 A 
ATOM      4  O   UNL     1       1.908  13.930   0.316  1.00  0.00    -0.285 OA
ATOM      5  C   UNL     1       2.122  14.484   2.574  1.00  0.00     0.111 A 
ATOM      6  C   UNL     1       0.728  14.561   2.873  1.00  0.00     0.134 A 
ATOM      7  C   UNL     1       0.315  14.711   4.202  1.00  0.00     0.093 A 
ATOM      8  C   UNL     1       1.243  14.853   5.233  1.00  0.00     0.123 A 
ATOM      9  C   UNL     1       2.608  14.839   4.944  1.00  0.00     0.094 A 
ATOM     10  C   UNL     1       3.051  14.654   3.633  1.00  0.00     0.146 A 
ATOM     11  O   UNL     1       4.359  14.636   3.401  1.00  0.00    -0.452 OA
ENDROOT
BRANCH   1  12
ATOM     12  C   UNL     1       6.362  14.475   2.069  1.00  0.00     0.025 A 
ATOM     13  C   UNL     1       7.179  14.933   3.118  1.00  0.00     0.016 A 
ATOM     14  C   UNL     1       8.569  14.929   2.984  1.00  0.00     0.051 A 
ATOM     15  C   UNL     1       9.164  14.454   1.808  1.00  0.00     0.157 A 
ATOM     16  C   UNL     1       6.965  13.980   0.900  1.00  0.00     0.062 A 
ATOM     17  C   UNL     1       8.360  13.976   0.765  1.00  0.00     0.158 A 
BRANCH  15  18
ATOM     18  O   UNL     1      10.551  14.449   1.669  1.00  0.00    -0.504 OA
ATOM     19  H   UNL     1      11.092  15.304   1.729  1.00  0.00     0.293 HD
ENDBRANCH  15  18
BRANCH  17  20
ATOM     20  O   UNL     1       8.954  13.497  -0.401  1.00  0.00    -0.504 OA
ATOM     21  H   UNL     1       9.124  12.507  -0.542  1.00  0.00     0.293 HD
ENDBRANCH  17  20
ENDBRANCH   1  12
BRANCH   2  22
ATOM     22  O   UNL     1       4.592  13.904  -0.153  1.00  0.00    -0.502 OA
ATOM     23  H   UNL     1       5.588  13.945  -0.335  1.00  0.00     0.293 HD
ENDBRANCH   2  22
BRANCH   6  24
ATOM     24  O   UNL     1      -0.281  14.522   1.906  1.00  0.00    -0.507 OA
ATOM     25  H   UNL     1      -0.957  13.781   1.811  1.00  0.00     0.293 HD
ENDBRANCH   6  24
BRANCH   8  26
ATOM     26  O   UNL     1       0.796  15.016   6.542  1.00  0.00    -0.508 OA
ATOM     27  H   UNL     1      -0.187  15.134   6.757  1.00  0.00     0.293 HD
ENDBRANCH   8  26
TORSDOF 6
ENDMDL
MODEL 6
REMARK VINA RESULT:    -7.462      2.909      5.732
REMARK INTER + INTRA:          -9.064
REMARK INTER:                  -9.284
REMARK INTRA:                   0.220
REMARK UNBOUND:                -0.075
REMARK SMILES O=c1c(O)c(-c2ccc(O)c(O)c2)oc2cc(O)cc(O)c12
REMARK SMILES IDX 5 1 3 2 2 3 1 4 22 5 20 6 19 7 17 8 16 9 15 10 14 11 6 12
REMARK SMILES IDX 7 13 8 14 9 15 13 16 11 17 10 18 12 20 4 22 21 24 18 26
REMARK H PARENT 10 19 12 21 4 23 21 25 18 27
REMARK Flexibility Score: inf
ROOT
ATOM      1  C   UNL     1       2.661  14.571   3.330  1.00  0.00     0.180 A 
ATOM      2  C   UNL     1       1.734  14.421   2.285  1.00  0.00     0.208 A 
ATOM      3  C   UNL     1       0.363  14.401   2.589  1.00  0.00     0.238 A 
ATOM      4  O   UNL     1      -0.460  14.212   1.656  1.00  0.00    -0.285 OA
ATOM      5  C   UNL     1      -0.063  14.548   3.932  1.00  0.00     0.111 A 
ATOM      6  C   UNL     1      -1.428  14.583   4.349  1.00  0.00     0.134 A 
ATOM      7  C   UNL     1      -1.731  14.601   5.716  1.00  0.00     0.093 A 
ATOM      8  C   UNL     1      -0.723  14.651   6.677  1.00  0.00     0.123 A 
ATOM      9  C   UNL     1       0.614  14.677   6.278  1.00  0.00     0.094 A 
ATOM     10  C   UNL     1       0.949  14.623   4.923  1.00  0.00     0.146 A 
ATOM     11  O   UNL     1       2.233  14.640   4.586  1.00  0.00    -0.452 OA
ENDROOT
BRANCH   1  12
ATOM     12  C   UNL     1       4.121  14.625   3.086  1.00  0.00     0.025 A 
ATOM     13  C   UNL     1       4.720  13.870   2.063  1.00  0.00     0.016 A 
ATOM     14  C   UNL     1       6.096  13.956   1.834  1.00  0.00     0.051 A 
ATOM     15  C   UNL     1       6.890  14.806   2.615  1.00  0.00     0.157 A 
ATOM     16  C   UNL     1       4.919  15.492   3.852  1.00  0.00     0.062 A 
ATOM     17  C   UNL     1       6.299  15.578   3.624  1.00  0.00     0.158 A 
BRANCH  15  18
ATOM     18  O   UNL     1       8.263  14.893   2.392  1.00  0.00    -0.504 OA
ATOM     19  H   UNL     1       8.832  14.065   2.262  1.00  0.00     0.293 HD
ENDBRANCH  15  18
BRANCH  17  20
ATOM     20  O   UNL     1       7.090  16.429   4.394  1.00  0.00    -0.504 OA
ATOM     21  H   UNL     1       6.711  17.271   4.813  1.00  0.00     0.293 HD
ENDBRANCH  17  20
ENDBRANCH   1  12
BRANCH   2  22
ATOM     22  O   UNL     1       2.177  14.255   0.970  1.00  0.00    -0.502 OA
ATOM     23  H   UNL     1       1.672  13.696   0.293  1.00  0.00     0.293 HD
ENDBRANCH   2  22
BRANCH   6  24
ATOM     24  O   UNL     1      -2.513  14.629   3.468  1.00  0.00    -0.507 OA
ATOM     25  H   UNL     1      -2.484  14.330   2.506  1.00  0.00     0.293 HD
ENDBRANCH   6  24
BRANCH   8  26
ATOM     26  O   UNL     1      -1.061  14.684   8.027  1.00  0.00    -0.508 OA
ATOM     27  H   UNL     1      -1.770  14.070   8.412  1.00  0.00     0.293 HD
ENDBRANCH   8  26
TORSDOF 6
ENDMDL
MODEL 7
REMARK VINA RESULT:    -7.450      2.438      4.082
REMARK INTER + INTRA:          -9.049
REMARK INTER:                  -9.439
REMARK INTRA:                   0.390
REMARK UNBOUND:                -0.075
REMARK SMILES O=c1c(O)c(-c2ccc(O)c(O)c2)oc2cc(O)cc(O)c12
REMARK SMILES IDX 5 1 3 2 2 3 1 4 22 5 20 6 19 7 17 8 16 9 15 10 14 11 6 12
REMARK SMILES IDX 7 13 8 14 9 15 13 16 11 17 10 18 12 20 4 22 21 24 18 26
REMARK H PARENT 10 19 12 21 4 23 21 25 18 27
REMARK Flexibility Score: inf
ROOT
ATOM      1  C   UNL     1       3.780  14.742   3.574  1.00  0.00     0.180 A 
ATOM      2  C   UNL     1       3.319  15.072   4.861  1.00  0.00     0.208 A 
ATOM      3  C   UNL     1       1.949  14.949   5.145  1.00  0.00     0.238 A 
ATOM      4  O   UNL     1       1.536  15.297   6.282  1.00  0.00    -0.285 OA
ATOM      5  C   UNL     1       1.061  14.485   4.146  1.00  0.00     0.111 A 
ATOM      6  C   UNL     1      -0.340  14.284   4.337  1.00  0.00     0.134 A 
ATOM      7  C   UNL     1      -1.144  13.946   3.242  1.00  0.00     0.093 A 
ATOM      8  C   UNL     1      -0.591  13.738   1.980  1.00  0.00     0.123 A 
ATOM      9  C   UNL     1       0.785  13.873   1.794  1.00  0.00     0.094 A 
ATOM     10  C   UNL     1       1.609  14.245   2.859  1.00  0.00     0.146 A 
ATOM     11  O   UNL     1       2.912  14.373   2.639  1.00  0.00    -0.452 OA
ENDROOT
BRANCH   1  12
ATOM     12  C   UNL     1       5.211  14.822   3.205  1.00  0.00     0.025 A 
ATOM     13  C   UNL     1       5.738  14.063   2.145  1.00  0.00     0.016 A 
ATOM     14  C   UNL     1       7.087  14.173   1.799  1.00  0.00     0.051 A 
ATOM     15  C   UNL     1       7.926  15.051   2.497  1.00  0.00     0.157 A 
ATOM     16  C   UNL     1       6.053  15.717   3.888  1.00  0.00     0.062 A 
ATOM     17  C   UNL     1       7.407  15.827   3.542  1.00  0.00     0.158 A 
BRANCH  15  18
ATOM     18  O   UNL     1       9.273  15.162   2.156  1.00  0.00    -0.504 OA
ATOM     19  H   UNL     1       9.568  15.634   1.310  1.00  0.00     0.293 HD
ENDBRANCH  15  18
BRANCH  17  20
ATOM     20  O   UNL     1       8.242  16.705   4.230  1.00  0.00    -0.504 OA
ATOM     21  H   UNL     1       8.539  16.519   5.182  1.00  0.00     0.293 HD
ENDBRANCH  17  20
ENDBRANCH   1  12
BRANCH   2  22
ATOM     22  O   UNL     1       4.211  15.549   5.826  1.00  0.00    -0.502 OA
ATOM     23  H   UNL     1       4.719  16.417   5.713  1.00  0.00     0.293 HD
ENDBRANCH   2  22
BRANCH   6  24
ATOM     24  O   UNL     1      -0.979  14.377   5.577  1.00  0.00    -0.507 OA
ATOM     25  H   UNL     1      -1.977  14.327   5.714  1.00  0.00     0.293 HD
ENDBRANCH   6  24
BRANCH   8  26
ATOM     26  O   UNL     1      -1.420  13.388   0.916  1.00  0.00    -0.508 OA
ATOM     27  H   UNL     1      -2.416  13.252   1.042  1.00  0.00     0.293 HD
ENDBRANCH   8  26
TORSDOF 6
ENDMDL
MODEL 8
REMARK VINA RESULT:    -7.409      1.944      7.525
REMARK INTER + INTRA:          -8.999
REMARK INTER:                  -9.525
REMARK INTRA:                   0.525
REMARK UNBOUND:                -0.075
REMARK SMILES O=c1c(O)c(-c2ccc(O)c(O)c2)oc2cc(O)cc(O)c12
REMARK SMILES IDX 5 1 3 2 2 3 1 4 22 5 20 6 19 7 17 8 16 9 15 10 14 11 6 12
REMARK SMILES IDX 7 13 8 14 9 15 13 16 11 17 10 18 12 20 4 22 21 24 18 26
REMARK H PARENT 10 19 12 21 4 23 21 25 18 27
REMARK Flexibility Score: inf
ROOT
ATOM      1  C   UNL     1       4.053  14.496   2.317  1.00  0.00     0.180 A 
ATOM      2  C   UNL     1       4.554  13.830   1.184  1.00  0.00     0.208 A 
ATOM      3  C   UNL     1       5.935  13.866   0.931  1.00  0.00     0.238 A 
ATOM      4  O   UNL     1       6.372  13.314  -0.113  1.00  0.00    -0.285 OA
ATOM      5  C   UNL     1       6.798  14.551   1.820  1.00  0.00     0.111 A 
ATOM      6  C   UNL     1       8.217  14.617   1.682  1.00  0.00     0.134 A 
ATOM      7  C   UNL     1       8.958  15.432   2.547  1.00  0.00     0.093 A 
ATOM      8  C   UNL     1       8.340  16.130   3.583  1.00  0.00     0.123 A 
ATOM      9  C   UNL     1       6.960  16.026   3.764  1.00  0.00     0.094 A 
ATOM     10  C   UNL     1       6.190  15.250   2.895  1.00  0.00     0.146 A 
ATOM     11  O   UNL     1       4.879  15.185   3.095  1.00  0.00    -0.452 OA
ENDROOT
BRANCH   1  12
ATOM     12  C   UNL     1       2.613  14.484   2.664  1.00  0.00     0.025 A 
ATOM     13  C   UNL     1       2.150  15.010   3.882  1.00  0.00     0.016 A 
ATOM     14  C   UNL     1       0.784  15.011   4.178  1.00  0.00     0.051 A 
ATOM     15  C   UNL     1      -0.138  14.498   3.257  1.00  0.00     0.157 A 
ATOM     16  C   UNL     1       1.681  13.990   1.735  1.00  0.00     0.062 A 
ATOM     17  C   UNL     1       0.312  13.989   2.031  1.00  0.00     0.158 A 
BRANCH  15  18
ATOM     18  O   UNL     1      -1.501  14.495   3.549  1.00  0.00    -0.504 OA
ATOM     19  H   UNL     1      -1.936  13.721   4.038  1.00  0.00     0.293 HD
ENDBRANCH  15  18
BRANCH  17  20
ATOM     20  O   UNL     1      -0.609  13.487   1.113  1.00  0.00    -0.504 OA
ATOM     21  H   UNL     1      -1.605  13.489   1.305  1.00  0.00     0.293 HD
ENDBRANCH  17  20
ENDBRANCH   1  12
BRANCH   2  22
ATOM     22  O   UNL     1       3.683  13.178   0.308  1.00  0.00    -0.502 OA
ATOM     23  H   UNL     1       3.650  13.388  -0.682  1.00  0.00     0.293 HD
ENDBRANCH   2  22
BRANCH   6  24
ATOM     24  O   UNL     1       8.944  13.886   0.737  1.00  0.00    -0.507 OA
ATOM     25  H   UNL     1       9.795  14.202   0.298  1.00  0.00     0.293 HD
ENDBRANCH   6  24
BRANCH   8  26
ATOM     26  O   UNL     1       9.110  16.919   4.434  1.00  0.00    -0.508 OA
ATOM     27  H   UNL     1       8.803  17.142   5.374  1.00  0.00     0.293 HD
ENDBRANCH   8  26
TORSDOF 6
ENDMDL
MODEL 9
REMARK VINA RESULT:    -7.312      1.499      2.097
REMARK INTER + INTRA:          -8.883
REMARK INTER:                  -9.354
REMARK INTRA:                   0.471
REMARK UNBOUND:                -0.075
REMARK SMILES O=c1c(O)c(-c2ccc(O)c(O)c2)oc2cc(O)cc(O)c12
REMARK SMILES IDX 5 1 3 2 2 3 1 4 22 5 20 6 19 7 17 8 16 9 15 10 14 11 6 12
REMARK SMILES IDX 7 13 8 14 9 15 13 16 11 17 10 18 12 20 4 22 21 24 18 26
REMARK H PARENT 10 19 12 21 4 23 21 25 18 27
REMARK Flexibility Score: inf
ROOT
ATOM      1  C   UNL     1       5.467  14.865   2.770  1.00  0.00     0.180 A 
ATOM      2  C   UNL     1       5.184  15.459   4.012  1.00  0.00     0.208 A 
ATOM      3  C   UNL     1       3.852  15.504   4.457  1.00  0.00     0.238 A 
ATOM      4  O   UNL     1       3.599  16.085   5.545  1.00  0.00    -0.285 OA
ATOM      5  C   UNL     1       2.825  14.940   3.663  1.00  0.00     0.111 A 
ATOM      6  C   UNL     1       1.447  14.894   4.036  1.00  0.00     0.134 A 
ATOM      7  C   UNL     1       0.499  14.431   3.115  1.00  0.00     0.093 A 
ATOM      8  C   UNL     1       0.884  13.952   1.864  1.00  0.00     0.123 A 
ATOM      9  C   UNL     1       2.234  13.937   1.513  1.00  0.00     0.094 A 
ATOM     10  C   UNL     1       3.200  14.427   2.395  1.00  0.00     0.146 A 
ATOM     11  O   UNL     1       4.473  14.405   2.019  1.00  0.00    -0.452 OA
ENDROOT
BRANCH   1  12
ATOM     12  C   UNL     1       6.847  14.759   2.245  1.00  0.00     0.025 A 
ATOM     13  C   UNL     1       7.939  15.306   2.940  1.00  0.00     0.016 A 
ATOM     14  C   UNL     1       9.236  15.172   2.437  1.00  0.00     0.051 A 
ATOM     15  C   UNL     1       9.462  14.478   1.242  1.00  0.00     0.157 A 
ATOM     16  C   UNL     1       7.082  14.045   1.057  1.00  0.00     0.062 A 
ATOM     17  C   UNL     1       8.383  13.911   0.552  1.00  0.00     0.158 A 
BRANCH  15  18
ATOM     18  O   UNL     1      10.754  14.344   0.736  1.00  0.00    -0.504 OA
ATOM     19  H   UNL     1      11.561  14.306   1.348  1.00  0.00     0.293 HD
ENDBRANCH  15  18
BRANCH  17  20
ATOM     20  O   UNL     1       8.611  13.214  -0.634  1.00  0.00    -0.504 OA
ATOM     21  H   UNL     1       9.454  13.358  -1.179  1.00  0.00     0.293 HD
ENDBRANCH  17  20
ENDBRANCH   1  12
BRANCH   2  22
ATOM     22  O   UNL     1       6.211  16.029   4.770  1.00  0.00    -0.502 OA
ATOM     23  H   UNL     1       6.040  16.505   5.647  1.00  0.00     0.293 HD
ENDBRANCH   2  22
BRANCH   6  24
ATOM     24  O   UNL     1       0.966  15.263   5.295  1.00  0.00    -0.507 OA
ATOM     25  H   UNL     1       1.264  14.852   6.167  1.00  0.00     0.293 HD
ENDBRANCH   6  24
BRANCH   8  26
ATOM     26  O   UNL     1      -0.084  13.483   0.980  1.00  0.00    -0.508 OA
ATOM     27  H   UNL     1      -1.030  13.285   1.285  1.00  0.00     0.293 HD
ENDBRANCH   8  26
TORSDOF 6
ENDMDL
