MODEL 1
REMARK VINA RESULT:    -7.580      0.000      0.000
REMARK INTER + INTRA:         -15.041
REMARK INTER:                 -12.454
REMARK INTRA:                  -2.587
REMARK UNBOUND:                -2.587
REMARK SMILES C[C@@H]1O[C@@H](OC[C@@H]2O[C@H](Oc3c(-c4ccc(O)c(O)c4)oc4cc(O)cc(O)c4c3=O)[C@H](O)[C@@H](O)[C@H]2O)[C@H](O)[C@@H](O)[C@@H]1O
REMARK SMILES IDX 7 1 36 2 34 3 32 4 9 5 8 6 6 7 5 8 4 9 1 10 2 11 42 12 3 13
REMARK SMILES IDX 40 14 38 15 43 16 41 18 39 20 37 22 35 24 10 26 11 27 12 28
REMARK SMILES IDX 30 29 21 30 29 31 31 32 22 33 27 34 23 35 26 36 24 37 13 38
REMARK SMILES IDX 20 39 14 40 18 41 15 42 16 43 19 44 17 46 28 48 25 50 33 52
REMARK H PARENT 43 17 41 19 39 21 37 23 35 25 19 45 17 47 28 49 25 51 33 53
REMARK Flexibility Score: inf
ROOT
ATOM      1  C   UNL     1       8.192  28.309  63.881  1.00  0.00     0.180 C 
ATOM      2  C   UNL     1       8.258  29.822  63.518  1.00  0.00     0.177 C 
ATOM      3  C   UNL     1       7.735  30.700  64.683  1.00  0.00     0.180 C 
ATOM      4  C   UNL     1       7.938  29.978  66.029  1.00  0.00     0.214 C 
ATOM      5  C   UNL     1       7.242  28.582  66.004  1.00  0.00     0.339 C 
ATOM      6  O   UNL     1       7.058  28.059  64.694  1.00  0.00    -0.332 OA
ENDROOT
BRANCH   1   7
ATOM      7  C   UNL     1       8.120  27.446  62.613  1.00  0.00     0.198 C 
BRANCH   7   8
ATOM      8  O   UNL     1       9.261  27.700  61.813  1.00  0.00    -0.347 OA
BRANCH   8   9
ATOM      9  C   UNL     1      10.295  26.749  62.005  1.00  0.00     0.281 C 
ATOM     10  C   UNL     1      10.265  23.180  62.794  1.00  0.00     0.041 C 
ATOM     11  C   UNL     1      10.685  24.629  63.056  1.00  0.00     0.150 C 
ATOM     12  C   UNL     1      12.160  24.852  62.635  1.00  0.00     0.174 C 
ATOM     13  O   UNL     1       9.752  25.495  62.414  1.00  0.00    -0.344 OA
ATOM     14  C   UNL     1      12.600  26.276  63.026  1.00  0.00     0.179 C 
ATOM     15  C   UNL     1      11.428  27.297  62.914  1.00  0.00     0.202 C 
BRANCH  12  16
ATOM     16  O   UNL     1      12.297  24.657  61.247  1.00  0.00    -0.388 OA
ATOM     17  H   UNL     1      13.078  25.194  60.950  1.00  0.00     0.211 HD
ENDBRANCH  12  16
BRANCH  14  18
ATOM     18  O   UNL     1      13.071  26.253  64.354  1.00  0.00    -0.387 OA
ATOM     19  H   UNL     1      13.661  25.456  64.435  1.00  0.00     0.211 HD
ENDBRANCH  14  18
BRANCH  15  20
ATOM     20  O   UNL     1      11.891  28.515  62.392  1.00  0.00    -0.385 OA
ATOM     21  H   UNL     1      12.873  28.435  62.295  1.00  0.00     0.211 HD
ENDBRANCH  15  20
ENDBRANCH   8   9
ENDBRANCH   7   8
ENDBRANCH   1   7
BRANCH   2  22
ATOM     22  O   UNL     1       9.567  30.189  63.132  1.00  0.00    -0.387 OA
ATOM     23  H   UNL     1      10.205  29.626  63.646  1.00  0.00     0.211 HD
ENDBRANCH   2  22
BRANCH   3  24
ATOM     24  O   UNL     1       8.390  31.945  64.684  1.00  0.00    -0.387 OA
ATOM     25  H   UNL     1       8.227  32.360  65.573  1.00  0.00     0.211 HD
ENDBRANCH   3  24
BRANCH   5  26
ATOM     26  O   UNL     1       5.961  28.715  66.619  1.00  0.00    -0.454 OA
BRANCH  26  27
ATOM     27  C   UNL     1       5.459  28.023  67.737  1.00  0.00     0.214 A 
ATOM     28  C   UNL     1       4.498  27.025  67.498  1.00  0.00     0.180 A 
ATOM     29  C   UNL     1       5.826  28.300  69.072  1.00  0.00     0.239 A 
ATOM     30  O   UNL     1       3.874  26.443  68.515  1.00  0.00    -0.452 OA
ATOM     31  C   UNL     1       5.190  27.607  70.133  1.00  0.00     0.111 A 
ATOM     32  O   UNL     1       6.704  29.169  69.310  1.00  0.00    -0.285 OA
ATOM     33  C   UNL     1       4.154  26.703  69.786  1.00  0.00     0.146 A 
ATOM     34  C   UNL     1       5.489  27.794  71.516  1.00  0.00     0.134 A 
ATOM     35  C   UNL     1       3.406  26.065  70.777  1.00  0.00     0.094 A 
ATOM     36  C   UNL     1       4.692  27.176  72.488  1.00  0.00     0.093 A 
ATOM     37  C   UNL     1       3.658  26.315  72.128  1.00  0.00     0.123 A 
BRANCH  28  38
ATOM     38  C   UNL     1       4.134  26.618  66.122  1.00  0.00     0.025 A 
ATOM     39  C   UNL     1       4.763  25.508  65.533  1.00  0.00     0.062 A 
ATOM     40  C   UNL     1       3.198  27.355  65.373  1.00  0.00     0.016 A 
ATOM     41  C   UNL     1       4.438  25.118  64.222  1.00  0.00     0.158 A 
ATOM     42  C   UNL     1       2.879  26.971  64.067  1.00  0.00     0.051 A 
ATOM     43  C   UNL     1       3.493  25.855  63.491  1.00  0.00     0.157 A 
BRANCH  41  44
ATOM     44  O   UNL     1       5.055  24.006  63.649  1.00  0.00    -0.504 OA
ATOM     45  H   UNL     1       5.031  23.098  64.097  1.00  0.00     0.293 HD
ENDBRANCH  41  44
BRANCH  43  46
ATOM     46  O   UNL     1       3.153  25.494  62.186  1.00  0.00    -0.504 OA
ATOM     47  H   UNL     1       2.934  24.537  61.930  1.00  0.00     0.293 HD
ENDBRANCH  43  46
ENDBRANCH  28  38
BRANCH  34  48
ATOM     48  O   UNL     1       6.567  28.548  71.984  1.00  0.00    -0.507 OA
ATOM     49  H   UNL     1       6.634  29.554  71.913  1.00  0.00     0.293 HD
ENDBRANCH  34  48
BRANCH  37  50
ATOM     50  O   UNL     1       2.894  25.701  73.118  1.00  0.00    -0.508 OA
ATOM     51  H   UNL     1       2.051  26.133  73.481  1.00  0.00     0.293 HD
ENDBRANCH  37  50
ENDBRANCH  26  27
ENDBRANCH   5  26
BRANCH   4  52
ATOM     52  O   UNL     1       7.433  30.757  67.086  1.00  0.00    -0.384 OA
ATOM     53  H   UNL     1       6.442  30.761  66.999  1.00  0.00     0.211 HD
ENDBRANCH   4  52
TORSDOF 16
ENDMDL
MODEL 2
REMARK VINA RESULT:    -6.580      1.787      4.922
REMARK INTER + INTRA:         -13.398
REMARK INTER:                 -11.023
REMARK INTRA:                  -2.376
REMARK UNBOUND:                -2.587
REMARK SMILES C[C@@H]1O[C@@H](OC[C@@H]2O[C@H](Oc3c(-c4ccc(O)c(O)c4)oc4cc(O)cc(O)c4c3=O)[C@H](O)[C@@H](O)[C@H]2O)[C@H](O)[C@@H](O)[C@@H]1O
REMARK SMILES IDX 7 1 36 2 34 3 32 4 9 5 8 6 6 7 5 8 4 9 1 10 2 11 42 12 3 13
REMARK SMILES IDX 40 14 38 15 43 16 41 18 39 20 37 22 35 24 10 26 11 27 12 28
REMARK SMILES IDX 30 29 21 30 29 31 31 32 22 33 27 34 23 35 26 36 24 37 13 38
REMARK SMILES IDX 20 39 14 40 18 41 15 42 16 43 19 44 17 46 28 48 25 50 33 52
REMARK H PARENT 43 17 41 19 39 21 37 23 35 25 19 45 17 47 28 49 25 51 33 53
REMARK Flexibility Score: inf
ROOT
ATOM      1  C   UNL     1       7.069  24.829  63.730  1.00  0.00     0.180 C 
ATOM      2  C   UNL     1       5.799  24.001  64.091  1.00  0.00     0.177 C 
ATOM      3  C   UNL     1       4.553  24.914  64.212  1.00  0.00     0.180 C 
ATOM      4  C   UNL     1       4.721  26.167  63.332  1.00  0.00     0.214 C 
ATOM      5  C   UNL     1       6.029  26.927  63.716  1.00  0.00     0.339 C 
ATOM      6  O   UNL     1       7.003  26.103  64.347  1.00  0.00    -0.332 OA
ENDROOT
BRANCH   1   7
ATOM      7  C   UNL     1       8.342  24.100  64.184  1.00  0.00     0.198 C 
BRANCH   7   8
ATOM      8  O   UNL     1       9.138  23.806  63.049  1.00  0.00    -0.347 OA
BRANCH   8   9
ATOM      9  C   UNL     1      10.410  24.431  63.088  1.00  0.00     0.281 C 
ATOM     10  C   UNL     1      12.989  24.648  65.668  1.00  0.00     0.041 C 
ATOM     11  C   UNL     1      12.013  25.267  64.664  1.00  0.00     0.150 C 
ATOM     12  C   UNL     1      12.770  25.772  63.410  1.00  0.00     0.174 C 
ATOM     13  O   UNL     1      10.985  24.317  64.388  1.00  0.00    -0.344 OA
ATOM     14  C   UNL     1      11.790  26.504  62.473  1.00  0.00     0.179 C 
ATOM     15  C   UNL     1      10.365  25.875  62.518  1.00  0.00     0.202 C 
BRANCH  12  16
ATOM     16  O   UNL     1      13.372  24.687  62.743  1.00  0.00    -0.388 OA
ATOM     17  H   UNL     1      12.722  24.359  62.067  1.00  0.00     0.211 HD
ENDBRANCH  12  16
BRANCH  14  18
ATOM     18  O   UNL     1      11.714  27.855  62.868  1.00  0.00    -0.387 OA
ATOM     19  H   UNL     1      12.380  27.979  63.597  1.00  0.00     0.211 HD
ENDBRANCH  14  18
BRANCH  15  20
ATOM     20  O   UNL     1       9.804  25.847  61.231  1.00  0.00    -0.385 OA
ATOM     21  H   UNL     1      10.054  24.979  60.824  1.00  0.00     0.211 HD
ENDBRANCH  15  20
ENDBRANCH   8   9
ENDBRANCH   7   8
ENDBRANCH   1   7
BRANCH   2  22
ATOM     22  O   UNL     1       5.598  22.959  63.158  1.00  0.00    -0.387 OA
ATOM     23  H   UNL     1       4.668  23.035  62.813  1.00  0.00     0.211 HD
ENDBRANCH   2  22
BRANCH   3  24
ATOM     24  O   UNL     1       3.394  24.203  63.848  1.00  0.00    -0.387 OA
ATOM     25  H   UNL     1       3.604  23.714  63.009  1.00  0.00     0.211 HD
ENDBRANCH   3  24
BRANCH   5  26
ATOM     26  O   UNL     1       5.681  27.980  64.614  1.00  0.00    -0.454 OA
BRANCH  26  27
ATOM     27  C   UNL     1       6.103  28.161  65.945  1.00  0.00     0.214 A 
ATOM     28  C   UNL     1       7.139  29.083  66.172  1.00  0.00     0.180 A 
ATOM     29  C   UNL     1       5.583  27.446  67.046  1.00  0.00     0.239 A 
ATOM     30  O   UNL     1       7.685  29.189  67.377  1.00  0.00    -0.452 OA
ATOM     31  C   UNL     1       6.143  27.637  68.334  1.00  0.00     0.111 A 
ATOM     32  O   UNL     1       4.637  26.636  66.873  1.00  0.00    -0.285 OA
ATOM     33  C   UNL     1       7.260  28.506  68.432  1.00  0.00     0.146 A 
ATOM     34  C   UNL     1       5.691  26.981  69.519  1.00  0.00     0.134 A 
ATOM     35  C   UNL     1       7.936  28.661  69.644  1.00  0.00     0.094 A 
ATOM     36  C   UNL     1       6.416  27.122  70.709  1.00  0.00     0.093 A 
ATOM     37  C   UNL     1       7.530  27.955  70.778  1.00  0.00     0.123 A 
BRANCH  28  38
ATOM     38  C   UNL     1       7.668  29.934  65.082  1.00  0.00     0.025 A 
ATOM     39  C   UNL     1       9.048  29.950  64.815  1.00  0.00     0.062 A 
ATOM     40  C   UNL     1       6.814  30.767  64.334  1.00  0.00     0.016 A 
ATOM     41  C   UNL     1       9.566  30.764  63.793  1.00  0.00     0.158 A 
ATOM     42  C   UNL     1       7.330  31.581  63.321  1.00  0.00     0.051 A 
ATOM     43  C   UNL     1       8.701  31.580  63.047  1.00  0.00     0.157 A 
BRANCH  41  44
ATOM     44  O   UNL     1      10.935  30.763  63.523  1.00  0.00    -0.504 OA
ATOM     45  H   UNL     1      11.350  30.086  62.895  1.00  0.00     0.293 HD
ENDBRANCH  41  44
BRANCH  43  46
ATOM     46  O   UNL     1       9.187  32.401  62.029  1.00  0.00    -0.504 OA
ATOM     47  H   UNL     1       8.837  32.346  61.077  1.00  0.00     0.293 HD
ENDBRANCH  43  46
ENDBRANCH  28  38
BRANCH  34  48
ATOM     48  O   UNL     1       4.528  26.210  69.586  1.00  0.00    -0.507 OA
ATOM     49  H   UNL     1       4.508  25.202  69.527  1.00  0.00     0.293 HD
ENDBRANCH  34  48
BRANCH  37  50
ATOM     50  O   UNL     1       8.220  28.087  71.981  1.00  0.00    -0.508 OA
ATOM     51  H   UNL     1       8.402  28.996  72.391  1.00  0.00     0.293 HD
ENDBRANCH  37  50
ENDBRANCH  26  27
ENDBRANCH   5  26
BRANCH   4  52
ATOM     52  O   UNL     1       3.607  27.016  63.466  1.00  0.00    -0.384 OA
ATOM     53  H   UNL     1       3.924  27.848  63.908  1.00  0.00     0.211 HD
ENDBRANCH   4  52
TORSDOF 16
ENDMDL
MODEL 3
REMARK VINA RESULT:    -6.546      2.690      4.778
REMARK INTER + INTRA:         -13.341
REMARK INTER:                 -11.724
REMARK INTRA:                  -1.617
REMARK UNBOUND:                -2.587
REMARK SMILES C[C@@H]1O[C@@H](OC[C@@H]2O[C@H](Oc3c(-c4ccc(O)c(O)c4)oc4cc(O)cc(O)c4c3=O)[C@H](O)[C@@H](O)[C@H]2O)[C@H](O)[C@@H](O)[C@@H]1O
REMARK SMILES IDX 7 1 36 2 34 3 32 4 9 5 8 6 6 7 5 8 4 9 1 10 2 11 42 12 3 13
REMARK SMILES IDX 40 14 38 15 43 16 41 18 39 20 37 22 35 24 10 26 11 27 12 28
REMARK SMILES IDX 30 29 21 30 29 31 31 32 22 33 27 34 23 35 26 36 24 37 13 38
REMARK SMILES IDX 20 39 14 40 18 41 15 42 16 43 19 44 17 46 28 48 25 50 33 52
REMARK H PARENT 43 17 41 19 39 21 37 23 35 25 19 45 17 47 28 49 25 51 33 53
REMARK Flexibility Score: inf
ROOT
ATOM      1  C   UNL     1       6.766  28.368  67.705  1.00  0.00     0.180 C 
ATOM      2  C   UNL     1       7.385  29.797  67.769  1.00  0.00     0.177 C 
ATOM      3  C   UNL     1       7.442  30.315  69.228  1.00  0.00     0.180 C 
ATOM      4  C   UNL     1       7.535  29.133  70.212  1.00  0.00     0.214 C 
ATOM      5  C   UNL     1       6.338  28.156  69.997  1.00  0.00     0.339 C 
ATOM      6  O   UNL     1       5.764  28.234  68.698  1.00  0.00    -0.332 OA
ENDROOT
BRANCH   1   7
ATOM      7  C   UNL     1       6.162  28.097  66.319  1.00  0.00     0.198 C 
BRANCH   7   8
ATOM      8  O   UNL     1       6.950  27.129  65.650  1.00  0.00    -0.347 OA
BRANCH   8   9
ATOM      9  C   UNL     1       7.579  27.636  64.484  1.00  0.00     0.281 C 
ATOM     10  C   UNL     1       8.542  31.008  63.453  1.00  0.00     0.041 C 
ATOM     11  C   UNL     1       7.811  29.679  63.248  1.00  0.00     0.150 C 
ATOM     12  C   UNL     1       8.560  28.801  62.214  1.00  0.00     0.174 C 
ATOM     13  O   UNL     1       7.627  29.061  64.521  1.00  0.00    -0.344 OA
ATOM     14  C   UNL     1       7.740  27.527  61.926  1.00  0.00     0.179 C 
ATOM     15  C   UNL     1       6.968  27.037  63.188  1.00  0.00     0.202 C 
BRANCH  12  16
ATOM     16  O   UNL     1       9.836  28.465  62.703  1.00  0.00    -0.388 OA
ATOM     17  H   UNL     1      10.265  27.875  62.030  1.00  0.00     0.211 HD
ENDBRANCH  12  16
BRANCH  14  18
ATOM     18  O   UNL     1       6.820  27.807  60.897  1.00  0.00    -0.387 OA
ATOM     19  H   UNL     1       7.342  27.859  60.051  1.00  0.00     0.211 HD
ENDBRANCH  14  18
BRANCH  15  20
ATOM     20  O   UNL     1       7.002  25.636  63.266  1.00  0.00    -0.385 OA
ATOM     21  H   UNL     1       6.488  25.289  62.494  1.00  0.00     0.211 HD
ENDBRANCH  15  20
ENDBRANCH   8   9
ENDBRANCH   7   8
ENDBRANCH   1   7
BRANCH   2  22
ATOM     22  O   UNL     1       8.656  29.821  67.153  1.00  0.00    -0.387 OA
ATOM     23  H   UNL     1       9.083  30.692  67.370  1.00  0.00     0.211 HD
ENDBRANCH   2  22
BRANCH   3  24
ATOM     24  O   UNL     1       8.538  31.184  69.391  1.00  0.00    -0.387 OA
ATOM     25  H   UNL     1       8.201  31.994  69.858  1.00  0.00     0.211 HD
ENDBRANCH   3  24
BRANCH   5  26
ATOM     26  O   UNL     1       5.328  28.476  70.954  1.00  0.00    -0.454 OA
BRANCH  26  27
ATOM     27  C   UNL     1       4.980  27.766  72.118  1.00  0.00     0.214 A 
ATOM     28  C   UNL     1       4.357  26.517  71.949  1.00  0.00     0.180 A 
ATOM     29  C   UNL     1       5.178  28.248  73.431  1.00  0.00     0.239 A 
ATOM     30  O   UNL     1       3.867  25.868  72.998  1.00  0.00    -0.452 OA
ATOM     31  C   UNL     1       4.705  27.495  74.534  1.00  0.00     0.111 A 
ATOM     32  O   UNL     1       5.758  29.350  73.609  1.00  0.00    -0.285 OA
ATOM     33  C   UNL     1       3.989  26.304  74.245  1.00  0.00     0.146 A 
ATOM     34  C   UNL     1       4.860  27.876  75.901  1.00  0.00     0.134 A 
ATOM     35  C   UNL     1       3.398  25.564  75.271  1.00  0.00     0.094 A 
ATOM     36  C   UNL     1       4.218  27.138  76.904  1.00  0.00     0.093 A 
ATOM     37  C   UNL     1       3.492  25.990  76.598  1.00  0.00     0.123 A 
BRANCH  28  38
ATOM     38  C   UNL     1       4.202  25.907  70.609  1.00  0.00     0.025 A 
ATOM     39  C   UNL     1       5.125  24.943  70.170  1.00  0.00     0.062 A 
ATOM     40  C   UNL     1       3.168  26.313  69.744  1.00  0.00     0.016 A 
ATOM     41  C   UNL     1       4.999  24.366  68.894  1.00  0.00     0.158 A 
ATOM     42  C   UNL     1       3.046  25.743  68.473  1.00  0.00     0.051 A 
ATOM     43  C   UNL     1       3.956  24.770  68.047  1.00  0.00     0.157 A 
BRANCH  41  44
ATOM     44  O   UNL     1       5.910  23.397  68.470  1.00  0.00    -0.504 OA
ATOM     45  H   UNL     1       6.489  23.538  67.651  1.00  0.00     0.293 HD
ENDBRANCH  41  44
BRANCH  43  46
ATOM     46  O   UNL     1       3.807  24.218  66.774  1.00  0.00    -0.504 OA
ATOM     47  H   UNL     1       4.423  24.462  66.004  1.00  0.00     0.293 HD
ENDBRANCH  43  46
ENDBRANCH  28  38
BRANCH  34  48
ATOM     48  O   UNL     1       5.652  28.945  76.326  1.00  0.00    -0.507 OA
ATOM     49  H   UNL     1       6.177  29.548  75.707  1.00  0.00     0.293 HD
ENDBRANCH  34  48
BRANCH  37  50
ATOM     50  O   UNL     1       2.878  25.268  77.620  1.00  0.00    -0.508 OA
ATOM     51  H   UNL     1       2.751  25.664  78.545  1.00  0.00     0.293 HD
ENDBRANCH  37  50
ENDBRANCH  26  27
ENDBRANCH   5  26
BRANCH   4  52
ATOM     52  O   UNL     1       7.553  29.599  71.540  1.00  0.00    -0.384 OA
ATOM     53  H   UNL     1       8.094  30.433  71.550  1.00  0.00     0.211 HD
ENDBRANCH   4  52
TORSDOF 16
ENDMDL
MODEL 4
REMARK VINA RESULT:    -6.466      2.395      4.206
REMARK INTER + INTRA:         -13.211
REMARK INTER:                 -11.630
REMARK INTRA:                  -1.581
REMARK UNBOUND:                -2.587
REMARK SMILES C[C@@H]1O[C@@H](OC[C@@H]2O[C@H](Oc3c(-c4ccc(O)c(O)c4)oc4cc(O)cc(O)c4c3=O)[C@H](O)[C@@H](O)[C@H]2O)[C@H](O)[C@@H](O)[C@@H]1O
REMARK SMILES IDX 7 1 36 2 34 3 32 4 9 5 8 6 6 7 5 8 4 9 1 10 2 11 42 12 3 13
REMARK SMILES IDX 40 14 38 15 43 16 41 18 39 20 37 22 35 24 10 26 11 27 12 28
REMARK SMILES IDX 30 29 21 30 29 31 31 32 22 33 27 34 23 35 26 36 24 37 13 38
REMARK SMILES IDX 20 39 14 40 18 41 15 42 16 43 19 44 17 46 28 48 25 50 33 52
REMARK H PARENT 43 17 41 19 39 21 37 23 35 25 19 45 17 47 28 49 25 51 33 53
REMARK Flexibility Score: inf
ROOT
ATOM      1  C   UNL     1       6.693  28.307  67.475  1.00  0.00     0.180 C 
ATOM      2  C   UNL     1       7.297  29.741  67.564  1.00  0.00     0.177 C 
ATOM      3  C   UNL     1       7.318  30.248  69.028  1.00  0.00     0.180 C 
ATOM      4  C   UNL     1       7.400  29.059  70.004  1.00  0.00     0.214 C 
ATOM      5  C   UNL     1       6.217  28.073  69.756  1.00  0.00     0.339 C 
ATOM      6  O   UNL     1       5.670  28.156  68.445  1.00  0.00    -0.332 OA
ENDROOT
BRANCH   1   7
ATOM      7  C   UNL     1       6.121  28.042  66.074  1.00  0.00     0.198 C 
BRANCH   7   8
ATOM      8  O   UNL     1       6.780  28.876  65.138  1.00  0.00    -0.347 OA
BRANCH   8   9
ATOM      9  C   UNL     1       7.369  28.153  64.070  1.00  0.00     0.281 C 
ATOM     10  C   UNL     1       8.112  24.606  63.589  1.00  0.00     0.041 C 
ATOM     11  C   UNL     1       8.506  26.085  63.642  1.00  0.00     0.150 C 
ATOM     12  C   UNL     1       8.693  26.649  62.210  1.00  0.00     0.174 C 
ATOM     13  O   UNL     1       7.543  26.783  64.428  1.00  0.00    -0.344 OA
ATOM     14  C   UNL     1       9.214  28.097  62.288  1.00  0.00     0.179 C 
ATOM     15  C   UNL     1       8.644  28.853  63.526  1.00  0.00     0.202 C 
BRANCH  12  16
ATOM     16  O   UNL     1       7.471  26.601  61.512  1.00  0.00    -0.388 OA
ATOM     17  H   UNL     1       7.653  26.197  60.624  1.00  0.00     0.211 HD
ENDBRANCH  12  16
BRANCH  14  18
ATOM     18  O   UNL     1      10.620  28.067  62.368  1.00  0.00    -0.387 OA
ATOM     19  H   UNL     1      10.964  28.409  61.500  1.00  0.00     0.211 HD
ENDBRANCH  14  18
BRANCH  15  20
ATOM     20  O   UNL     1       8.335  30.179  63.188  1.00  0.00    -0.385 OA
ATOM     21  H   UNL     1       7.815  30.151  62.345  1.00  0.00     0.211 HD
ENDBRANCH  15  20
ENDBRANCH   8   9
ENDBRANCH   7   8
ENDBRANCH   1   7
BRANCH   2  22
ATOM     22  O   UNL     1       8.581  29.781  66.975  1.00  0.00    -0.387 OA
ATOM     23  H   UNL     1       8.533  30.379  66.182  1.00  0.00     0.211 HD
ENDBRANCH   2  22
BRANCH   3  24
ATOM     24  O   UNL     1       8.402  31.124  69.221  1.00  0.00    -0.387 OA
ATOM     25  H   UNL     1       8.556  31.592  68.357  1.00  0.00     0.211 HD
ENDBRANCH   3  24
BRANCH   5  26
ATOM     26  O   UNL     1       5.184  28.375  70.693  1.00  0.00    -0.454 OA
BRANCH  26  27
ATOM     27  C   UNL     1       4.871  27.701  71.887  1.00  0.00     0.214 A 
ATOM     28  C   UNL     1       4.341  26.404  71.775  1.00  0.00     0.180 A 
ATOM     29  C   UNL     1       5.015  28.261  73.176  1.00  0.00     0.239 A 
ATOM     30  O   UNL     1       3.884  25.774  72.850  1.00  0.00    -0.452 OA
ATOM     31  C   UNL     1       4.582  27.530  74.311  1.00  0.00     0.111 A 
ATOM     32  O   UNL     1       5.512  29.408  73.305  1.00  0.00    -0.285 OA
ATOM     33  C   UNL     1       3.957  26.278  74.075  1.00  0.00     0.146 A 
ATOM     34  C   UNL     1       4.690  27.988  75.659  1.00  0.00     0.134 A 
ATOM     35  C   UNL     1       3.405  25.549  75.130  1.00  0.00     0.094 A 
ATOM     36  C   UNL     1       4.087  27.257  76.690  1.00  0.00     0.093 A 
ATOM     37  C   UNL     1       3.450  26.045  76.435  1.00  0.00     0.123 A 
BRANCH  28  38
ATOM     38  C   UNL     1       4.249  25.719  70.465  1.00  0.00     0.025 A 
ATOM     39  C   UNL     1       5.230  24.782  70.096  1.00  0.00     0.062 A 
ATOM     40  C   UNL     1       3.216  26.025  69.559  1.00  0.00     0.016 A 
ATOM     41  C   UNL     1       5.164  24.135  68.850  1.00  0.00     0.158 A 
ATOM     42  C   UNL     1       3.154  25.385  68.317  1.00  0.00     0.051 A 
ATOM     43  C   UNL     1       4.121  24.441  67.961  1.00  0.00     0.157 A 
BRANCH  41  44
ATOM     44  O   UNL     1       6.132  23.195  68.497  1.00  0.00    -0.504 OA
ATOM     45  H   UNL     1       6.833  23.396  67.794  1.00  0.00     0.293 HD
ENDBRANCH  41  44
BRANCH  43  46
ATOM     46  O   UNL     1       4.031  23.817  66.716  1.00  0.00    -0.504 OA
ATOM     47  H   UNL     1       4.158  24.327  65.847  1.00  0.00     0.293 HD
ENDBRANCH  43  46
ENDBRANCH  28  38
BRANCH  34  48
ATOM     48  O   UNL     1       5.397  29.131  76.037  1.00  0.00    -0.507 OA
ATOM     49  H   UNL     1       6.090  29.590  75.462  1.00  0.00     0.293 HD
ENDBRANCH  34  48
BRANCH  37  50
ATOM     50  O   UNL     1       2.875  25.333  77.485  1.00  0.00    -0.508 OA
ATOM     51  H   UNL     1       2.468  25.805  78.285  1.00  0.00     0.293 HD
ENDBRANCH  37  50
ENDBRANCH  26  27
ENDBRANCH   5  26
BRANCH   4  52
ATOM     52  O   UNL     1       7.385  29.513  71.335  1.00  0.00    -0.384 OA
ATOM     53  H   UNL     1       7.810  30.412  71.343  1.00  0.00     0.211 HD
ENDBRANCH   4  52
TORSDOF 16
ENDMDL
MODEL 5
REMARK VINA RESULT:    -6.413      3.053      9.358
REMARK INTER + INTRA:         -13.124
REMARK INTER:                 -11.118
REMARK INTRA:                  -2.006
REMARK UNBOUND:                -2.587
REMARK SMILES C[C@@H]1O[C@@H](OC[C@@H]2O[C@H](Oc3c(-c4ccc(O)c(O)c4)oc4cc(O)cc(O)c4c3=O)[C@H](O)[C@@H](O)[C@H]2O)[C@H](O)[C@@H](O)[C@@H]1O
REMARK SMILES IDX 7 1 36 2 34 3 32 4 9 5 8 6 6 7 5 8 4 9 1 10 2 11 42 12 3 13
REMARK SMILES IDX 40 14 38 15 43 16 41 18 39 20 37 22 35 24 10 26 11 27 12 28
REMARK SMILES IDX 30 29 21 30 29 31 31 32 22 33 27 34 23 35 26 36 24 37 13 38
REMARK SMILES IDX 20 39 14 40 18 41 15 42 16 43 19 44 17 46 28 48 25 50 33 52
REMARK H PARENT 43 17 41 19 39 21 37 23 35 25 19 45 17 47 28 49 25 51 33 53
REMARK Flexibility Score: inf
ROOT
ATOM      1  C   UNL     1       6.423  29.005  70.482  1.00  0.00     0.180 C 
ATOM      2  C   UNL     1       7.744  29.797  70.717  1.00  0.00     0.177 C 
ATOM      3  C   UNL     1       8.510  30.013  69.388  1.00  0.00     0.180 C 
ATOM      4  C   UNL     1       7.528  30.024  68.201  1.00  0.00     0.214 C 
ATOM      5  C   UNL     1       6.695  28.706  68.175  1.00  0.00     0.339 C 
ATOM      6  O   UNL     1       6.607  28.061  69.441  1.00  0.00    -0.332 OA
ENDROOT
BRANCH   1   7
ATOM      7  C   UNL     1       5.983  28.283  71.764  1.00  0.00     0.198 C 
BRANCH   7   8
ATOM      8  O   UNL     1       4.803  28.890  72.258  1.00  0.00    -0.347 OA
BRANCH   8   9
ATOM      9  C   UNL     1       4.581  28.631  73.634  1.00  0.00     0.281 C 
ATOM     10  C   UNL     1       6.468  29.469  76.651  1.00  0.00     0.041 C 
ATOM     11  C   UNL     1       5.783  28.479  75.705  1.00  0.00     0.150 C 
ATOM     12  C   UNL     1       4.426  28.015  76.293  1.00  0.00     0.174 C 
ATOM     13  O   UNL     1       5.690  29.077  74.413  1.00  0.00    -0.344 OA
ATOM     14  C   UNL     1       3.816  26.925  75.391  1.00  0.00     0.179 C 
ATOM     15  C   UNL     1       4.155  27.160  73.888  1.00  0.00     0.202 C 
BRANCH  12  16
ATOM     16  O   UNL     1       3.550  29.112  76.403  1.00  0.00    -0.388 OA
ATOM     17  H   UNL     1       3.612  29.625  75.555  1.00  0.00     0.211 HD
ENDBRANCH  12  16
BRANCH  14  18
ATOM     18  O   UNL     1       4.323  25.673  75.791  1.00  0.00    -0.387 OA
ATOM     19  H   UNL     1       3.555  25.039  75.790  1.00  0.00     0.211 HD
ENDBRANCH  14  18
BRANCH  15  20
ATOM     20  O   UNL     1       3.045  26.855  73.084  1.00  0.00    -0.385 OA
ATOM     21  H   UNL     1       3.193  25.948  72.715  1.00  0.00     0.211 HD
ENDBRANCH  15  20
ENDBRANCH   8   9
ENDBRANCH   7   8
ENDBRANCH   1   7
BRANCH   2  22
ATOM     22  O   UNL     1       7.486  31.018  71.379  1.00  0.00    -0.387 OA
ATOM     23  H   UNL     1       6.752  30.862  72.031  1.00  0.00     0.211 HD
ENDBRANCH   2  22
BRANCH   3  24
ATOM     24  O   UNL     1       9.241  31.214  69.440  1.00  0.00    -0.387 OA
ATOM     25  H   UNL     1       9.579  31.310  70.370  1.00  0.00     0.211 HD
ENDBRANCH   3  24
BRANCH   5  26
ATOM     26  O   UNL     1       7.316  27.808  67.256  1.00  0.00    -0.454 OA
BRANCH  26  27
ATOM     27  C   UNL     1       6.733  27.152  66.156  1.00  0.00     0.214 A 
ATOM     28  C   UNL     1       5.900  26.053  66.429  1.00  0.00     0.180 A 
ATOM     29  C   UNL     1       6.969  27.501  64.808  1.00  0.00     0.239 A 
ATOM     30  O   UNL     1       5.444  25.299  65.436  1.00  0.00    -0.452 OA
ATOM     31  C   UNL     1       6.406  26.716  63.771  1.00  0.00     0.111 A 
ATOM     32  O   UNL     1       7.688  28.497  64.539  1.00  0.00    -0.285 OA
ATOM     33  C   UNL     1       5.676  25.562  64.157  1.00  0.00     0.146 A 
ATOM     34  C   UNL     1       6.564  26.981  62.377  1.00  0.00     0.134 A 
ATOM     35  C   UNL     1       5.184  24.678  63.194  1.00  0.00     0.094 A 
ATOM     36  C   UNL     1       6.099  26.053  61.437  1.00  0.00     0.093 A 
ATOM     37  C   UNL     1       5.412  24.909  61.836  1.00  0.00     0.123 A 
BRANCH  28  38
ATOM     38  C   UNL     1       5.535  25.687  67.816  1.00  0.00     0.025 A 
ATOM     39  C   UNL     1       4.381  26.236  68.402  1.00  0.00     0.062 A 
ATOM     40  C   UNL     1       6.352  24.831  68.578  1.00  0.00     0.016 A 
ATOM     41  C   UNL     1       4.030  25.909  69.723  1.00  0.00     0.158 A 
ATOM     42  C   UNL     1       6.005  24.510  69.894  1.00  0.00     0.051 A 
ATOM     43  C   UNL     1       4.847  25.044  70.468  1.00  0.00     0.157 A 
BRANCH  41  44
ATOM     44  O   UNL     1       2.875  26.446  70.294  1.00  0.00    -0.504 OA
ATOM     45  H   UNL     1       1.985  26.418  69.812  1.00  0.00     0.293 HD
ENDBRANCH  41  44
BRANCH  43  46
ATOM     46  O   UNL     1       4.526  24.705  71.783  1.00  0.00    -0.504 OA
ATOM     47  H   UNL     1       4.528  23.743  72.108  1.00  0.00     0.293 HD
ENDBRANCH  43  46
ENDBRANCH  28  38
BRANCH  34  48
ATOM     48  O   UNL     1       7.141  28.146  61.868  1.00  0.00    -0.507 OA
ATOM     49  H   UNL     1       7.061  29.058  62.296  1.00  0.00     0.293 HD
ENDBRANCH  34  48
BRANCH  37  50
ATOM     50  O   UNL     1       4.947  24.013  60.876  1.00  0.00    -0.508 OA
ATOM     51  H   UNL     1       5.097  24.172  59.886  1.00  0.00     0.293 HD
ENDBRANCH  37  50
ENDBRANCH  26  27
ENDBRANCH   5  26
BRANCH   4  52
ATOM     52  O   UNL     1       8.223  30.186  66.989  1.00  0.00    -0.384 OA
ATOM     53  H   UNL     1       8.919  29.477  66.954  1.00  0.00     0.211 HD
ENDBRANCH   4  52
TORSDOF 16
ENDMDL
MODEL 6
REMARK VINA RESULT:    -6.346      3.128     10.372
REMARK INTER + INTRA:         -13.014
REMARK INTER:                 -12.145
REMARK INTRA:                  -0.869
REMARK UNBOUND:                -2.587
REMARK SMILES C[C@@H]1O[C@@H](OC[C@@H]2O[C@H](Oc3c(-c4ccc(O)c(O)c4)oc4cc(O)cc(O)c4c3=O)[C@H](O)[C@@H](O)[C@H]2O)[C@H](O)[C@@H](O)[C@@H]1O
REMARK SMILES IDX 7 1 36 2 34 3 32 4 9 5 8 6 6 7 5 8 4 9 1 10 2 11 42 12 3 13
REMARK SMILES IDX 40 14 38 15 43 16 41 18 39 20 37 22 35 24 10 26 11 27 12 28
REMARK SMILES IDX 30 29 21 30 29 31 31 32 22 33 27 34 23 35 26 36 24 37 13 38
REMARK SMILES IDX 20 39 14 40 18 41 15 42 16 43 19 44 17 46 28 48 25 50 33 52
REMARK H PARENT 43 17 41 19 39 21 37 23 35 25 19 45 17 47 28 49 25 51 33 53
REMARK Flexibility Score: inf
ROOT
ATOM      1  C   UNL     1       4.162  27.144  71.122  1.00  0.00     0.180 C 
ATOM      2  C   UNL     1       4.073  25.590  71.191  1.00  0.00     0.177 C 
ATOM      3  C   UNL     1       5.018  24.930  70.155  1.00  0.00     0.180 C 
ATOM      4  C   UNL     1       6.210  25.858  69.853  1.00  0.00     0.214 C 
ATOM      5  C   UNL     1       5.703  27.249  69.362  1.00  0.00     0.339 C 
ATOM      6  O   UNL     1       4.378  27.554  69.783  1.00  0.00    -0.332 OA
ENDROOT
BRANCH   1   7
ATOM      7  C   UNL     1       2.875  27.788  71.660  1.00  0.00     0.198 C 
BRANCH   7   8
ATOM      8  O   UNL     1       3.206  28.979  72.351  1.00  0.00    -0.347 OA
BRANCH   8   9
ATOM      9  C   UNL     1       3.641  28.745  73.681  1.00  0.00     0.281 C 
ATOM     10  C   UNL     1       3.238  25.916  75.960  1.00  0.00     0.041 C 
ATOM     11  C   UNL     1       3.107  27.396  75.590  1.00  0.00     0.150 C 
ATOM     12  C   UNL     1       4.196  28.233  76.308  1.00  0.00     0.174 C 
ATOM     13  O   UNL     1       3.118  27.511  74.169  1.00  0.00    -0.344 OA
ATOM     14  C   UNL     1       3.966  29.731  76.026  1.00  0.00     0.179 C 
ATOM     15  C   UNL     1       3.388  29.971  74.600  1.00  0.00     0.202 C 
BRANCH  12  16
ATOM     16  O   UNL     1       5.473  27.839  75.867  1.00  0.00    -0.388 OA
ATOM     17  H   UNL     1       6.125  28.111  76.566  1.00  0.00     0.211 HD
ENDBRANCH  12  16
BRANCH  14  18
ATOM     18  O   UNL     1       3.066  30.237  76.984  1.00  0.00    -0.387 OA
ATOM     19  H   UNL     1       3.615  30.646  77.706  1.00  0.00     0.211 HD
ENDBRANCH  14  18
BRANCH  15  20
ATOM     20  O   UNL     1       3.971  31.109  74.022  1.00  0.00    -0.385 OA
ATOM     21  H   UNL     1       4.949  30.954  73.996  1.00  0.00     0.211 HD
ENDBRANCH  15  20
ENDBRANCH   8   9
ENDBRANCH   7   8
ENDBRANCH   1   7
BRANCH   2  22
ATOM     22  O   UNL     1       4.328  25.130  72.502  1.00  0.00    -0.387 OA
ATOM     23  H   UNL     1       3.454  24.918  72.926  1.00  0.00     0.211 HD
ENDBRANCH   2  22
BRANCH   3  24
ATOM     24  O   UNL     1       5.466  23.684  70.633  1.00  0.00    -0.387 OA
ATOM     25  H   UNL     1       5.841  23.838  71.541  1.00  0.00     0.211 HD
ENDBRANCH   3  24
BRANCH   5  26
ATOM     26  O   UNL     1       5.733  27.253  67.936  1.00  0.00    -0.454 OA
BRANCH  26  27
ATOM     27  C   UNL     1       6.506  28.066  67.086  1.00  0.00     0.214 A 
ATOM     28  C   UNL     1       7.068  29.228  67.642  1.00  0.00     0.180 A 
ATOM     29  C   UNL     1       6.711  27.808  65.712  1.00  0.00     0.239 A 
ATOM     30  O   UNL     1       7.677  30.113  66.863  1.00  0.00    -0.452 OA
ATOM     31  C   UNL     1       7.430  28.741  64.924  1.00  0.00     0.111 A 
ATOM     32  O   UNL     1       6.242  26.761  65.198  1.00  0.00    -0.285 OA
ATOM     33  C   UNL     1       7.854  29.936  65.561  1.00  0.00     0.146 A 
ATOM     34  C   UNL     1       7.709  28.581  63.533  1.00  0.00     0.134 A 
ATOM     35  C   UNL     1       8.470  30.952  64.827  1.00  0.00     0.094 A 
ATOM     36  C   UNL     1       8.288  29.635  62.815  1.00  0.00     0.093 A 
ATOM     37  C   UNL     1       8.669  30.814  63.452  1.00  0.00     0.123 A 
BRANCH  28  38
ATOM     38  C   UNL     1       6.972  29.513  69.092  1.00  0.00     0.025 A 
ATOM     39  C   UNL     1       5.909  30.291  69.582  1.00  0.00     0.062 A 
ATOM     40  C   UNL     1       7.958  29.056  69.987  1.00  0.00     0.016 A 
ATOM     41  C   UNL     1       5.814  30.583  70.954  1.00  0.00     0.158 A 
ATOM     42  C   UNL     1       7.866  29.351  71.350  1.00  0.00     0.051 A 
ATOM     43  C   UNL     1       6.797  30.110  71.837  1.00  0.00     0.157 A 
BRANCH  41  44
ATOM     44  O   UNL     1       4.747  31.342  71.436  1.00  0.00    -0.504 OA
ATOM     45  H   UNL     1       4.872  32.015  72.182  1.00  0.00     0.293 HD
ENDBRANCH  41  44
BRANCH  43  46
ATOM     46  O   UNL     1       6.731  30.386  73.203  1.00  0.00    -0.504 OA
ATOM     47  H   UNL     1       6.540  29.664  73.891  1.00  0.00     0.293 HD
ENDBRANCH  43  46
ENDBRANCH  28  38
BRANCH  34  48
ATOM     48  O   UNL     1       7.466  27.404  62.822  1.00  0.00    -0.507 OA
ATOM     49  H   UNL     1       7.023  26.583  63.211  1.00  0.00     0.293 HD
ENDBRANCH  34  48
BRANCH  37  50
ATOM     50  O   UNL     1       9.258  31.838  62.713  1.00  0.00    -0.508 OA
ATOM     51  H   UNL     1       9.432  31.741  61.719  1.00  0.00     0.293 HD
ENDBRANCH  37  50
ENDBRANCH  26  27
ENDBRANCH   5  26
BRANCH   4  52
ATOM     52  O   UNL     1       7.053  25.277  68.887  1.00  0.00    -0.384 OA
ATOM     53  H   UNL     1       6.903  25.768  68.036  1.00  0.00     0.211 HD
ENDBRANCH   4  52
TORSDOF 16
ENDMDL
MODEL 7
REMARK VINA RESULT:    -6.213      3.109     10.469
REMARK INTER + INTRA:         -12.794
REMARK INTER:                 -11.349
REMARK INTRA:                  -1.445
REMARK UNBOUND:                -2.587
REMARK SMILES C[C@@H]1O[C@@H](OC[C@@H]2O[C@H](Oc3c(-c4ccc(O)c(O)c4)oc4cc(O)cc(O)c4c3=O)[C@H](O)[C@@H](O)[C@H]2O)[C@H](O)[C@@H](O)[C@@H]1O
REMARK SMILES IDX 7 1 36 2 34 3 32 4 9 5 8 6 6 7 5 8 4 9 1 10 2 11 42 12 3 13
REMARK SMILES IDX 40 14 38 15 43 16 41 18 39 20 37 22 35 24 10 26 11 27 12 28
REMARK SMILES IDX 30 29 21 30 29 31 31 32 22 33 27 34 23 35 26 36 24 37 13 38
REMARK SMILES IDX 20 39 14 40 18 41 15 42 16 43 19 44 17 46 28 48 25 50 33 52
REMARK H PARENT 43 17 41 19 39 21 37 23 35 25 19 45 17 47 28 49 25 51 33 53
REMARK Flexibility Score: inf
ROOT
ATOM      1  C   UNL     1       4.442  26.197  70.815  1.00  0.00     0.180 C 
ATOM      2  C   UNL     1       3.531  25.058  70.266  1.00  0.00     0.177 C 
ATOM      3  C   UNL     1       3.761  24.841  68.749  1.00  0.00     0.180 C 
ATOM      4  C   UNL     1       5.192  25.262  68.361  1.00  0.00     0.214 C 
ATOM      5  C   UNL     1       5.451  26.743  68.774  1.00  0.00     0.339 C 
ATOM      6  O   UNL     1       4.608  27.198  69.826  1.00  0.00    -0.332 OA
ENDROOT
BRANCH   1   7
ATOM      7  C   UNL     1       3.836  26.817  72.083  1.00  0.00     0.198 C 
BRANCH   7   8
ATOM      8  O   UNL     1       4.809  26.812  73.113  1.00  0.00    -0.347 OA
BRANCH   8   9
ATOM      9  C   UNL     1       4.348  27.409  74.313  1.00  0.00     0.281 C 
ATOM     10  C   UNL     1       5.718  30.028  76.465  1.00  0.00     0.041 C 
ATOM     11  C   UNL     1       5.175  28.618  76.213  1.00  0.00     0.150 C 
ATOM     12  C   UNL     1       3.724  28.492  76.745  1.00  0.00     0.174 C 
ATOM     13  O   UNL     1       5.321  28.317  74.827  1.00  0.00    -0.344 OA
ATOM     14  C   UNL     1       3.244  27.035  76.599  1.00  0.00     0.179 C 
ATOM     15  C   UNL     1       3.841  26.352  75.332  1.00  0.00     0.202 C 
BRANCH  12  16
ATOM     16  O   UNL     1       2.875  29.364  76.036  1.00  0.00    -0.388 OA
ATOM     17  H   UNL     1       3.128  30.291  76.287  1.00  0.00     0.211 HD
ENDBRANCH  12  16
BRANCH  14  18
ATOM     18  O   UNL     1       3.637  26.314  77.744  1.00  0.00    -0.387 OA
ATOM     19  H   UNL     1       4.535  25.932  77.548  1.00  0.00     0.211 HD
ENDBRANCH  14  18
BRANCH  15  20
ATOM     20  O   UNL     1       2.875  25.542  74.714  1.00  0.00    -0.385 OA
ATOM     21  H   UNL     1       2.662  25.958  73.841  1.00  0.00     0.211 HD
ENDBRANCH  15  20
ENDBRANCH   8   9
ENDBRANCH   7   8
ENDBRANCH   1   7
BRANCH   2  22
ATOM     22  O   UNL     1       3.719  23.867  71.002  1.00  0.00    -0.387 OA
ATOM     23  H   UNL     1       2.915  23.731  71.571  1.00  0.00     0.211 HD
ENDBRANCH   2  22
BRANCH   3  24
ATOM     24  O   UNL     1       3.530  23.495  68.412  1.00  0.00    -0.387 OA
ATOM     25  H   UNL     1       3.536  22.977  69.261  1.00  0.00     0.211 HD
ENDBRANCH   3  24
BRANCH   5  26
ATOM     26  O   UNL     1       5.227  27.568  67.631  1.00  0.00    -0.454 OA
BRANCH  26  27
ATOM     27  C   UNL     1       6.178  28.272  66.869  1.00  0.00     0.214 A 
ATOM     28  C   UNL     1       6.889  29.298  67.515  1.00  0.00     0.180 A 
ATOM     29  C   UNL     1       6.426  28.040  65.498  1.00  0.00     0.239 A 
ATOM     30  O   UNL     1       7.686  30.099  66.819  1.00  0.00    -0.452 OA
ATOM     31  C   UNL     1       7.339  28.870  64.800  1.00  0.00     0.111 A 
ATOM     32  O   UNL     1       5.823  27.110  64.905  1.00  0.00    -0.285 OA
ATOM     33  C   UNL     1       7.915  29.948  65.521  1.00  0.00     0.146 A 
ATOM     34  C   UNL     1       7.677  28.721  63.421  1.00  0.00     0.134 A 
ATOM     35  C   UNL     1       8.738  30.874  64.876  1.00  0.00     0.094 A 
ATOM     36  C   UNL     1       8.468  29.691  62.793  1.00  0.00     0.093 A 
ATOM     37  C   UNL     1       8.999  30.761  63.509  1.00  0.00     0.123 A 
BRANCH  28  38
ATOM     38  C   UNL     1       6.749  29.536  68.970  1.00  0.00     0.025 A 
ATOM     39  C   UNL     1       7.658  28.944  69.865  1.00  0.00     0.062 A 
ATOM     40  C   UNL     1       5.689  30.310  69.479  1.00  0.00     0.016 A 
ATOM     41  C   UNL     1       7.529  29.149  71.249  1.00  0.00     0.158 A 
ATOM     42  C   UNL     1       5.558  30.509  70.857  1.00  0.00     0.051 A 
ATOM     43  C   UNL     1       6.475  29.934  71.742  1.00  0.00     0.157 A 
BRANCH  41  44
ATOM     44  O   UNL     1       8.443  28.571  72.131  1.00  0.00    -0.504 OA
ATOM     45  H   UNL     1       8.462  27.572  72.295  1.00  0.00     0.293 HD
ENDBRANCH  41  44
BRANCH  43  46
ATOM     46  O   UNL     1       6.319  30.152  73.112  1.00  0.00    -0.504 OA
ATOM     47  H   UNL     1       5.789  29.518  73.703  1.00  0.00     0.293 HD
ENDBRANCH  43  46
ENDBRANCH  28  38
BRANCH  34  48
ATOM     48  O   UNL     1       7.288  27.632  62.638  1.00  0.00    -0.507 OA
ATOM     49  H   UNL     1       6.469  27.066  62.814  1.00  0.00     0.293 HD
ENDBRANCH  34  48
BRANCH  37  50
ATOM     50  O   UNL     1       9.797  31.699  62.859  1.00  0.00    -0.508 OA
ATOM     51  H   UNL     1      10.504  31.420  62.188  1.00  0.00     0.293 HD
ENDBRANCH  37  50
ENDBRANCH  26  27
ENDBRANCH   5  26
BRANCH   4  52
ATOM     52  O   UNL     1       5.393  25.099  66.978  1.00  0.00    -0.384 OA
ATOM     53  H   UNL     1       4.522  24.823  66.585  1.00  0.00     0.211 HD
ENDBRANCH   4  52
TORSDOF 16
ENDMDL
MODEL 8
REMARK VINA RESULT:    -6.170      1.549      2.096
REMARK INTER + INTRA:         -12.724
REMARK INTER:                 -10.797
REMARK INTRA:                  -1.927
REMARK UNBOUND:                -2.587
REMARK SMILES C[C@@H]1O[C@@H](OC[C@@H]2O[C@H](Oc3c(-c4ccc(O)c(O)c4)oc4cc(O)cc(O)c4c3=O)[C@H](O)[C@@H](O)[C@H]2O)[C@H](O)[C@@H](O)[C@@H]1O
REMARK SMILES IDX 7 1 36 2 34 3 32 4 9 5 8 6 6 7 5 8 4 9 1 10 2 11 42 12 3 13
REMARK SMILES IDX 40 14 38 15 43 16 41 18 39 20 37 22 35 24 10 26 11 27 12 28
REMARK SMILES IDX 30 29 21 30 29 31 31 32 22 33 27 34 23 35 26 36 24 37 13 38
REMARK SMILES IDX 20 39 14 40 18 41 15 42 16 43 19 44 17 46 28 48 25 50 33 52
REMARK H PARENT 43 17 41 19 39 21 37 23 35 25 19 45 17 47 28 49 25 51 33 53
REMARK Flexibility Score: inf
ROOT
ATOM      1  C   UNL     1       7.734  27.758  64.346  1.00  0.00     0.180 C 
ATOM      2  C   UNL     1       7.818  29.175  63.703  1.00  0.00     0.177 C 
ATOM      3  C   UNL     1       7.573  30.282  64.759  1.00  0.00     0.180 C 
ATOM      4  C   UNL     1       7.983  29.786  66.159  1.00  0.00     0.214 C 
ATOM      5  C   UNL     1       7.215  28.475  66.514  1.00  0.00     0.339 C 
ATOM      6  O   UNL     1       6.759  27.754  65.375  1.00  0.00    -0.332 OA
ENDROOT
BRANCH   1   7
ATOM      7  C   UNL     1       7.377  26.701  63.291  1.00  0.00     0.198 C 
BRANCH   7   8
ATOM      8  O   UNL     1       7.615  25.411  63.826  1.00  0.00    -0.347 OA
BRANCH   8   9
ATOM      9  C   UNL     1       8.890  24.895  63.481  1.00  0.00     0.281 C 
ATOM     10  C   UNL     1      12.105  24.862  65.219  1.00  0.00     0.041 C 
ATOM     11  C   UNL     1      11.209  25.184  64.020  1.00  0.00     0.150 C 
ATOM     12  C   UNL     1      11.455  24.172  62.872  1.00  0.00     0.174 C 
ATOM     13  O   UNL     1       9.857  25.248  64.468  1.00  0.00    -0.344 OA
ATOM     14  C   UNL     1      10.641  24.589  61.631  1.00  0.00     0.179 C 
ATOM     15  C   UNL     1       9.286  25.253  62.023  1.00  0.00     0.202 C 
BRANCH  12  16
ATOM     16  O   UNL     1      11.091  22.877  63.287  1.00  0.00    -0.388 OA
ATOM     17  H   UNL     1      10.200  22.945  63.721  1.00  0.00     0.211 HD
ENDBRANCH  12  16
BRANCH  14  18
ATOM     18  O   UNL     1      11.405  25.502  60.877  1.00  0.00    -0.387 OA
ATOM     19  H   UNL     1      11.221  26.406  61.249  1.00  0.00     0.211 HD
ENDBRANCH  14  18
BRANCH  15  20
ATOM     20  O   UNL     1       8.269  24.834  61.151  1.00  0.00    -0.385 OA
ATOM     21  H   UNL     1       7.422  25.223  61.485  1.00  0.00     0.211 HD
ENDBRANCH  15  20
ENDBRANCH   8   9
ENDBRANCH   7   8
ENDBRANCH   1   7
BRANCH   2  22
ATOM     22  O   UNL     1       9.050  29.350  63.035  1.00  0.00    -0.387 OA
ATOM     23  H   UNL     1       9.078  30.281  62.687  1.00  0.00     0.211 HD
ENDBRANCH   2  22
BRANCH   3  24
ATOM     24  O   UNL     1       8.287  31.445  64.416  1.00  0.00    -0.387 OA
ATOM     25  H   UNL     1       9.252  31.204  64.408  1.00  0.00     0.211 HD
ENDBRANCH   3  24
BRANCH   5  26
ATOM     26  O   UNL     1       6.082  28.827  67.306  1.00  0.00    -0.454 OA
BRANCH  26  27
ATOM     27  C   UNL     1       5.783  28.423  68.621  1.00  0.00     0.214 A 
ATOM     28  C   UNL     1       4.984  27.277  68.777  1.00  0.00     0.180 A 
ATOM     29  C   UNL     1       6.197  29.120  69.778  1.00  0.00     0.239 A 
ATOM     30  O   UNL     1       4.541  26.932  69.979  1.00  0.00    -0.452 OA
ATOM     31  C   UNL     1       5.762  28.680  71.054  1.00  0.00     0.111 A 
ATOM     32  O   UNL     1       6.934  30.132  69.666  1.00  0.00    -0.285 OA
ATOM     33  C   UNL     1       4.866  27.581  71.089  1.00  0.00     0.146 A 
ATOM     34  C   UNL     1       6.127  29.296  72.289  1.00  0.00     0.134 A 
ATOM     35  C   UNL     1       4.307  27.159  72.297  1.00  0.00     0.094 A 
ATOM     36  C   UNL     1       5.516  28.879  73.478  1.00  0.00     0.093 A 
ATOM     37  C   UNL     1       4.613  27.818  73.490  1.00  0.00     0.123 A 
BRANCH  28  38
ATOM     38  C   UNL     1       4.592  26.445  67.616  1.00  0.00     0.025 A 
ATOM     39  C   UNL     1       5.420  25.387  67.204  1.00  0.00     0.062 A 
ATOM     40  C   UNL     1       3.422  26.727  66.886  1.00  0.00     0.016 A 
ATOM     41  C   UNL     1       5.068  24.599  66.095  1.00  0.00     0.158 A 
ATOM     42  C   UNL     1       3.075  25.946  65.780  1.00  0.00     0.051 A 
ATOM     43  C   UNL     1       3.892  24.883  65.383  1.00  0.00     0.157 A 
BRANCH  41  44
ATOM     44  O   UNL     1       5.887  23.540  65.700  1.00  0.00    -0.504 OA
ATOM     45  H   UNL     1       6.514  23.084  66.352  1.00  0.00     0.293 HD
ENDBRANCH  41  44
BRANCH  43  46
ATOM     46  O   UNL     1       3.519  24.120  64.276  1.00  0.00    -0.504 OA
ATOM     47  H   UNL     1       4.040  23.299  63.985  1.00  0.00     0.293 HD
ENDBRANCH  43  46
ENDBRANCH  28  38
BRANCH  34  48
ATOM     48  O   UNL     1       7.098  30.293  72.405  1.00  0.00    -0.507 OA
ATOM     49  H   UNL     1       6.939  31.199  72.823  1.00  0.00     0.293 HD
ENDBRANCH  34  48
BRANCH  37  50
ATOM     50  O   UNL     1       4.035  27.417  74.692  1.00  0.00    -0.508 OA
ATOM     51  H   UNL     1       4.595  27.255  75.521  1.00  0.00     0.293 HD
ENDBRANCH  37  50
ENDBRANCH  26  27
ENDBRANCH   5  26
BRANCH   4  52
ATOM     52  O   UNL     1       7.729  30.777  67.125  1.00  0.00    -0.384 OA
ATOM     53  H   UNL     1       8.004  30.404  68.005  1.00  0.00     0.211 HD
ENDBRANCH   4  52
TORSDOF 16
ENDMDL
MODEL 9
REMARK VINA RESULT:    -6.060      2.714      7.631
REMARK INTER + INTRA:         -12.544
REMARK INTER:                 -11.098
REMARK INTRA:                  -1.445
REMARK UNBOUND:                -2.587
REMARK SMILES C[C@@H]1O[C@@H](OC[C@@H]2O[C@H](Oc3c(-c4ccc(O)c(O)c4)oc4cc(O)cc(O)c4c3=O)[C@H](O)[C@@H](O)[C@H]2O)[C@H](O)[C@@H](O)[C@@H]1O
REMARK SMILES IDX 7 1 36 2 34 3 32 4 9 5 8 6 6 7 5 8 4 9 1 10 2 11 42 12 3 13
REMARK SMILES IDX 40 14 38 15 43 16 41 18 39 20 37 22 35 24 10 26 11 27 12 28
REMARK SMILES IDX 30 29 21 30 29 31 31 32 22 33 27 34 23 35 26 36 24 37 13 38
REMARK SMILES IDX 20 39 14 40 18 41 15 42 16 43 19 44 17 46 28 48 25 50 33 52
REMARK H PARENT 43 17 41 19 39 21 37 23 35 25 19 45 17 47 28 49 25 51 33 53
REMARK Flexibility Score: inf
ROOT
ATOM      1  C   UNL     1       3.946  25.192  66.549  1.00  0.00     0.180 C 
ATOM      2  C   UNL     1       4.470  23.877  67.199  1.00  0.00     0.177 C 
ATOM      3  C   UNL     1       5.662  24.160  68.149  1.00  0.00     0.180 C 
ATOM      4  C   UNL     1       5.570  25.592  68.708  1.00  0.00     0.214 C 
ATOM      5  C   UNL     1       5.509  26.625  67.541  1.00  0.00     0.339 C 
ATOM      6  O   UNL     1       5.027  26.079  66.319  1.00  0.00    -0.332 OA
ENDROOT
BRANCH   1   7
ATOM      7  C   UNL     1       3.228  24.896  65.224  1.00  0.00     0.198 C 
BRANCH   7   8
ATOM      8  O   UNL     1       3.690  23.659  64.711  1.00  0.00    -0.347 OA
BRANCH   8   9
ATOM      9  C   UNL     1       4.548  23.810  63.592  1.00  0.00     0.281 C 
ATOM     10  C   UNL     1       8.158  23.433  63.166  1.00  0.00     0.041 C 
ATOM     11  C   UNL     1       6.852  24.225  63.070  1.00  0.00     0.150 C 
ATOM     12  C   UNL     1       6.360  24.286  61.602  1.00  0.00     0.174 C 
ATOM     13  O   UNL     1       5.911  23.661  63.982  1.00  0.00    -0.344 OA
ATOM     14  C   UNL     1       5.119  25.194  61.509  1.00  0.00     0.179 C 
ATOM     15  C   UNL     1       4.236  25.103  62.790  1.00  0.00     0.202 C 
BRANCH  12  16
ATOM     16  O   UNL     1       6.059  22.990  61.142  1.00  0.00    -0.388 OA
ATOM     17  H   UNL     1       6.604  22.353  61.674  1.00  0.00     0.211 HD
ENDBRANCH  12  16
BRANCH  14  18
ATOM     18  O   UNL     1       5.546  26.525  61.333  1.00  0.00    -0.387 OA
ATOM     19  H   UNL     1       6.540  26.516  61.379  1.00  0.00     0.211 HD
ENDBRANCH  14  18
BRANCH  15  20
ATOM     20  O   UNL     1       2.875  25.116  62.446  1.00  0.00    -0.385 OA
ATOM     21  H   UNL     1       2.751  24.451  61.723  1.00  0.00     0.211 HD
ENDBRANCH  15  20
ENDBRANCH   8   9
ENDBRANCH   7   8
ENDBRANCH   1   7
BRANCH   2  22
ATOM     22  O   UNL     1       3.425  23.191  67.858  1.00  0.00    -0.387 OA
ATOM     23  H   UNL     1       2.563  23.528  67.495  1.00  0.00     0.211 HD
ENDBRANCH   2  22
BRANCH   3  24
ATOM     24  O   UNL     1       5.682  23.218  69.195  1.00  0.00    -0.387 OA
ATOM     25  H   UNL     1       4.777  23.222  69.608  1.00  0.00     0.211 HD
ENDBRANCH   3  24
BRANCH   5  26
ATOM     26  O   UNL     1       6.827  27.124  67.321  1.00  0.00    -0.454 OA
BRANCH  26  27
ATOM     27  C   UNL     1       7.234  28.145  66.442  1.00  0.00     0.214 A 
ATOM     28  C   UNL     1       7.441  29.422  66.991  1.00  0.00     0.180 A 
ATOM     29  C   UNL     1       7.403  27.973  65.050  1.00  0.00     0.239 A 
ATOM     30  O   UNL     1       7.676  30.460  66.196  1.00  0.00    -0.452 OA
ATOM     31  C   UNL     1       7.725  29.090  64.240  1.00  0.00     0.111 A 
ATOM     32  O   UNL     1       7.251  26.834  64.540  1.00  0.00    -0.285 OA
ATOM     33  C   UNL     1       7.798  30.355  64.879  1.00  0.00     0.146 A 
ATOM     34  C   UNL     1       7.932  29.034  62.828  1.00  0.00     0.134 A 
ATOM     35  C   UNL     1       8.002  31.518  64.134  1.00  0.00     0.094 A 
ATOM     36  C   UNL     1       8.089  30.221  62.102  1.00  0.00     0.093 A 
ATOM     37  C   UNL     1       8.126  31.457  62.744  1.00  0.00     0.123 A 
BRANCH  28  38
ATOM     38  C   UNL     1       7.374  29.655  68.452  1.00  0.00     0.025 A 
ATOM     39  C   UNL     1       6.162  29.455  69.135  1.00  0.00     0.062 A 
ATOM     40  C   UNL     1       8.495  30.121  69.163  1.00  0.00     0.016 A 
ATOM     41  C   UNL     1       6.079  29.686  70.519  1.00  0.00     0.158 A 
ATOM     42  C   UNL     1       8.411  30.356  70.539  1.00  0.00     0.051 A 
ATOM     43  C   UNL     1       7.209  30.138  71.219  1.00  0.00     0.157 A 
BRANCH  41  44
ATOM     44  O   UNL     1       4.877  29.470  71.195  1.00  0.00    -0.504 OA
ATOM     45  H   UNL     1       3.999  29.386  70.698  1.00  0.00     0.293 HD
ENDBRANCH  41  44
BRANCH  43  46
ATOM     46  O   UNL     1       7.156  30.380  72.592  1.00  0.00    -0.504 OA
ATOM     47  H   UNL     1       7.992  30.550  73.143  1.00  0.00     0.293 HD
ENDBRANCH  43  46
ENDBRANCH  28  38
BRANCH  34  48
ATOM     48  O   UNL     1       8.019  27.845  62.102  1.00  0.00    -0.507 OA
ATOM     49  H   UNL     1       8.804  27.208  62.140  1.00  0.00     0.293 HD
ENDBRANCH  34  48
BRANCH  37  50
ATOM     50  O   UNL     1       8.301  32.619  61.996  1.00  0.00    -0.508 OA
ATOM     51  H   UNL     1       9.210  32.882  61.630  1.00  0.00     0.293 HD
ENDBRANCH  37  50
ENDBRANCH  26  27
ENDBRANCH   5  26
BRANCH   4  52
ATOM     52  O   UNL     1       6.669  25.865  69.544  1.00  0.00    -0.384 OA
ATOM     53  H   UNL     1       7.037  26.746  69.266  1.00  0.00     0.211 HD
ENDBRANCH   4  52
TORSDOF 16
ENDMDL
