MODEL 1
REMARK VINA RESULT:    -4.954      0.000      0.000
REMARK INTER + INTRA:          -8.891
REMARK INTER:                  -7.271
REMARK INTRA:                  -1.620
REMARK UNBOUND:                -1.620
REMARK SMILES O=c1c(O[C@@H]2O[C@@H](CO)[C@H](O)[C@@H](O)[C@H]2O)c(-c2ccc(O)c(O)c2)oc2cc(O)cc(O)c12
REMARK SMILES IDX 4 1 3 2 16 3 25 4 2 5 26 6 1 7 33 8 27 9 31 10 28 11 30 12
REMARK SMILES IDX 17 13 18 14 19 15 20 16 24 17 22 18 21 19 23 21 32 23 29 25
REMARK SMILES IDX 5 27 14 28 6 29 12 30 7 31 10 32 15 33 13 35 8 37 9 38 11 40
REMARK H PARENT 21 20 23 22 32 24 29 26 15 34 13 36 9 39 11 41
REMARK Flexibility Score: inf
ROOT
ATOM      1  O   UNL     1       4.401   7.832   4.253  1.00  0.00    -0.454 OA
ENDROOT
BRANCH   1   2
ATOM      2  C   UNL     1       5.130   6.909   5.015  1.00  0.00     0.214 A 
ATOM      3  C   UNL     1       6.050   6.046   4.389  1.00  0.00     0.180 A 
ATOM      4  O   UNL     1       6.778   5.211   5.124  1.00  0.00    -0.452 OA
ATOM      5  C   UNL     1       4.963   6.830   6.405  1.00  0.00     0.239 A 
ATOM      6  C   UNL     1       6.668   5.117   6.444  1.00  0.00     0.146 A 
ATOM      7  O   UNL     1       4.103   7.561   6.968  1.00  0.00    -0.285 OA
ATOM      8  C   UNL     1       5.746   5.926   7.151  1.00  0.00     0.111 A 
ATOM      9  C   UNL     1       7.477   4.207   7.131  1.00  0.00     0.094 A 
ATOM     10  C   UNL     1       5.652   5.796   8.557  1.00  0.00     0.134 A 
ATOM     11  C   UNL     1       7.379   4.085   8.521  1.00  0.00     0.123 A 
ATOM     12  C   UNL     1       6.471   4.876   9.227  1.00  0.00     0.093 A 
BRANCH   3  13
ATOM     13  C   UNL     1       6.272   6.070   2.926  1.00  0.00     0.025 A 
ATOM     14  C   UNL     1       5.771   5.054   2.094  1.00  0.00     0.016 A 
ATOM     15  C   UNL     1       5.990   5.101   0.715  1.00  0.00     0.051 A 
ATOM     16  C   UNL     1       6.723   6.154   0.149  1.00  0.00     0.157 A 
ATOM     17  C   UNL     1       7.021   7.113   2.359  1.00  0.00     0.062 A 
ATOM     18  C   UNL     1       7.243   7.162   0.977  1.00  0.00     0.158 A 
BRANCH  16  19
ATOM     19  O   UNL     1       6.938   6.199  -1.227  1.00  0.00    -0.504 OA
ATOM     20  H   UNL     1       6.987   5.354  -1.785  1.00  0.00     0.293 HD
ENDBRANCH  16  19
BRANCH  18  21
ATOM     21  O   UNL     1       7.981   8.220   0.446  1.00  0.00    -0.504 OA
ATOM     22  H   UNL     1       8.585   8.106  -0.360  1.00  0.00     0.293 HD
ENDBRANCH  18  21
ENDBRANCH   3  13
BRANCH  10  23
ATOM     23  O   UNL     1       4.757   6.575   9.291  1.00  0.00    -0.507 OA
ATOM     24  H   UNL     1       3.976   6.162   9.790  1.00  0.00     0.293 HD
ENDBRANCH  10  23
BRANCH  11  25
ATOM     25  O   UNL     1       8.185   3.180   9.212  1.00  0.00    -0.508 OA
ATOM     26  H   UNL     1       9.191   3.292   9.255  1.00  0.00     0.293 HD
ENDBRANCH  11  25
ENDBRANCH   1   2
BRANCH   1  27
ATOM     27  C   UNL     1       3.284   7.479   3.438  1.00  0.00     0.339 C 
ATOM     28  C   UNL     1       1.992   8.014   4.086  1.00  0.00     0.214 C 
ATOM     29  O   UNL     1       3.489   8.065   2.162  1.00  0.00    -0.332 OA
ATOM     30  C   UNL     1       0.771   7.735   3.172  1.00  0.00     0.180 C 
ATOM     31  C   UNL     1       2.448   7.768   1.240  1.00  0.00     0.179 C 
ATOM     32  C   UNL     1       1.058   8.241   1.751  1.00  0.00     0.177 C 
BRANCH  28  33
ATOM     33  O   UNL     1       1.801   7.433   5.350  1.00  0.00    -0.384 OA
ATOM     34  H   UNL     1       1.816   8.172   6.014  1.00  0.00     0.211 HD
ENDBRANCH  28  33
BRANCH  30  35
ATOM     35  O   UNL     1       0.380   6.378   3.121  1.00  0.00    -0.387 OA
ATOM     36  H   UNL     1       0.817   5.919   2.358  1.00  0.00     0.211 HD
ENDBRANCH  30  35
BRANCH  31  37
ATOM     37  C   UNL     1       2.494   6.300   0.760  1.00  0.00     0.191 C 
BRANCH  37  38
ATOM     38  O   UNL     1       1.273   5.936   0.170  1.00  0.00    -0.394 OA
ATOM     39  H   UNL     1       1.349   4.980  -0.085  1.00  0.00     0.210 HD
ENDBRANCH  37  38
ENDBRANCH  31  37
BRANCH  32  40
ATOM     40  O   UNL     1       1.018   9.647   1.754  1.00  0.00    -0.387 OA
ATOM     41  H   UNL     1       1.014   9.934   2.705  1.00  0.00     0.211 HD
ENDBRANCH  32  40
ENDBRANCH   1  27
TORSDOF 12
ENDMDL
MODEL 2
REMARK VINA RESULT:    -4.913      2.050      5.743
REMARK INTER + INTRA:          -8.830
REMARK INTER:                  -7.121
REMARK INTRA:                  -1.709
REMARK UNBOUND:                -1.620
REMARK SMILES O=c1c(O[C@@H]2O[C@@H](CO)[C@H](O)[C@@H](O)[C@H]2O)c(-c2ccc(O)c(O)c2)oc2cc(O)cc(O)c12
REMARK SMILES IDX 4 1 3 2 16 3 25 4 2 5 26 6 1 7 33 8 27 9 31 10 28 11 30 12
REMARK SMILES IDX 17 13 18 14 19 15 20 16 24 17 22 18 21 19 23 21 32 23 29 25
REMARK SMILES IDX 5 27 14 28 6 29 12 30 7 31 10 32 15 33 13 35 8 37 9 38 11 40
REMARK H PARENT 21 20 23 22 32 24 29 26 15 34 13 36 9 39 11 41
REMARK Flexibility Score: inf
ROOT
ATOM      1  O   UNL     1       6.732   5.392   0.938  1.00  0.00    -0.454 OA
ENDROOT
BRANCH   1   2
ATOM      2  C   UNL     1       6.662   5.414   2.337  1.00  0.00     0.214 A 
ATOM      3  C   UNL     1       5.680   6.188   2.984  1.00  0.00     0.180 A 
ATOM      4  O   UNL     1       5.585   6.161   4.310  1.00  0.00    -0.452 OA
ATOM      5  C   UNL     1       7.559   4.668   3.115  1.00  0.00     0.239 A 
ATOM      6  C   UNL     1       6.398   5.452   5.085  1.00  0.00     0.146 A 
ATOM      7  O   UNL     1       8.475   4.013   2.547  1.00  0.00    -0.285 OA
ATOM      8  C   UNL     1       7.432   4.670   4.519  1.00  0.00     0.111 A 
ATOM      9  C   UNL     1       6.220   5.488   6.471  1.00  0.00     0.094 A 
ATOM     10  C   UNL     1       8.284   3.930   5.375  1.00  0.00     0.134 A 
ATOM     11  C   UNL     1       7.065   4.754   7.310  1.00  0.00     0.123 A 
ATOM     12  C   UNL     1       8.091   3.982   6.763  1.00  0.00     0.093 A 
BRANCH   3  13
ATOM     13  C   UNL     1       4.706   7.006   2.227  1.00  0.00     0.025 A 
ATOM     14  C   UNL     1       4.761   8.410   2.242  1.00  0.00     0.016 A 
ATOM     15  C   UNL     1       3.833   9.160   1.516  1.00  0.00     0.051 A 
ATOM     16  C   UNL     1       2.830   8.520   0.775  1.00  0.00     0.157 A 
ATOM     17  C   UNL     1       3.689   6.369   1.499  1.00  0.00     0.062 A 
ATOM     18  C   UNL     1       2.757   7.118   0.771  1.00  0.00     0.158 A 
BRANCH  16  19
ATOM     19  O   UNL     1       1.907   9.271   0.050  1.00  0.00    -0.504 OA
ATOM     20  H   UNL     1       1.517   8.937  -0.824  1.00  0.00     0.293 HD
ENDBRANCH  16  19
BRANCH  18  21
ATOM     21  O   UNL     1       1.767   6.451   0.048  1.00  0.00    -0.504 OA
ATOM     22  H   UNL     1       1.136   5.787   0.482  1.00  0.00     0.293 HD
ENDBRANCH  18  21
ENDBRANCH   3  13
BRANCH  10  23
ATOM     23  O   UNL     1       9.315   3.146   4.857  1.00  0.00    -0.507 OA
ATOM     24  H   UNL     1       9.966   3.508   4.169  1.00  0.00     0.293 HD
ENDBRANCH  10  23
BRANCH  11  25
ATOM     25  O   UNL     1       6.891   4.785   8.693  1.00  0.00    -0.508 OA
ATOM     26  H   UNL     1       6.166   4.244   9.149  1.00  0.00     0.293 HD
ENDBRANCH  11  25
ENDBRANCH   1   2
BRANCH   1  27
ATOM     27  C   UNL     1       7.455   6.351   0.167  1.00  0.00     0.339 C 
ATOM     28  C   UNL     1       8.420   5.615  -0.785  1.00  0.00     0.214 C 
ATOM     29  O   UNL     1       6.507   7.109  -0.566  1.00  0.00    -0.332 OA
ATOM     30  C   UNL     1       9.147   6.624  -1.708  1.00  0.00     0.180 C 
ATOM     31  C   UNL     1       7.102   8.122  -1.366  1.00  0.00     0.179 C 
ATOM     32  C   UNL     1       8.120   7.542  -2.387  1.00  0.00     0.177 C 
BRANCH  28  33
ATOM     33  O   UNL     1       9.352   4.862  -0.050  1.00  0.00    -0.384 OA
ATOM     34  H   UNL     1       8.852   4.426   0.690  1.00  0.00     0.211 HD
ENDBRANCH  28  33
BRANCH  30  35
ATOM     35  O   UNL     1      10.125   7.410  -1.057  1.00  0.00    -0.387 OA
ATOM     36  H   UNL     1      10.236   8.280  -1.519  1.00  0.00     0.211 HD
ENDBRANCH  30  35
BRANCH  31  37
ATOM     37  C   UNL     1       7.637   9.297  -0.517  1.00  0.00     0.191 C 
BRANCH  37  38
ATOM     38  O   UNL     1       8.612  10.015  -1.229  1.00  0.00    -0.394 OA
ATOM     39  H   UNL     1       8.152  10.446  -1.995  1.00  0.00     0.210 HD
ENDBRANCH  37  38
ENDBRANCH  31  37
BRANCH  32  40
ATOM     40  O   UNL     1       7.430   6.803  -3.364  1.00  0.00    -0.387 OA
ATOM     41  H   UNL     1       7.072   7.455  -4.022  1.00  0.00     0.211 HD
ENDBRANCH  32  40
ENDBRANCH   1  27
TORSDOF 12
ENDMDL
MODEL 3
REMARK VINA RESULT:    -4.788      2.624      6.674
REMARK INTER + INTRA:          -8.647
REMARK INTER:                  -7.348
REMARK INTRA:                  -1.300
REMARK UNBOUND:                -1.620
REMARK SMILES O=c1c(O[C@@H]2O[C@@H](CO)[C@H](O)[C@@H](O)[C@H]2O)c(-c2ccc(O)c(O)c2)oc2cc(O)cc(O)c12
REMARK SMILES IDX 4 1 3 2 16 3 25 4 2 5 26 6 1 7 33 8 27 9 31 10 28 11 30 12
REMARK SMILES IDX 17 13 18 14 19 15 20 16 24 17 22 18 21 19 23 21 32 23 29 25
REMARK SMILES IDX 5 27 14 28 6 29 12 30 7 31 10 32 15 33 13 35 8 37 9 38 11 40
REMARK H PARENT 21 20 23 22 32 24 29 26 15 34 13 36 9 39 11 41
REMARK Flexibility Score: inf
ROOT
ATOM      1  O   UNL     1       5.438   6.058   0.869  1.00  0.00    -0.454 OA
ENDROOT
BRANCH   1   2
ATOM      2  C   UNL     1       4.495   6.529   1.793  1.00  0.00     0.214 A 
ATOM      3  C   UNL     1       4.855   6.706   3.142  1.00  0.00     0.180 A 
ATOM      4  O   UNL     1       3.972   7.204   4.002  1.00  0.00    -0.452 OA
ATOM      5  C   UNL     1       3.187   6.837   1.394  1.00  0.00     0.239 A 
ATOM      6  C   UNL     1       2.730   7.530   3.664  1.00  0.00     0.146 A 
ATOM      7  O   UNL     1       2.840   6.632   0.199  1.00  0.00    -0.285 OA
ATOM      8  C   UNL     1       2.276   7.357   2.335  1.00  0.00     0.111 A 
ATOM      9  C   UNL     1       1.873   8.047   4.640  1.00  0.00     0.094 A 
ATOM     10  C   UNL     1       0.943   7.709   2.011  1.00  0.00     0.134 A 
ATOM     11  C   UNL     1       0.558   8.394   4.312  1.00  0.00     0.123 A 
ATOM     12  C   UNL     1       0.098   8.224   3.004  1.00  0.00     0.093 A 
BRANCH   3  13
ATOM     13  C   UNL     1       6.216   6.394   3.635  1.00  0.00     0.025 A 
ATOM     14  C   UNL     1       7.150   7.411   3.896  1.00  0.00     0.016 A 
ATOM     15  C   UNL     1       8.427   7.092   4.366  1.00  0.00     0.051 A 
ATOM     16  C   UNL     1       8.793   5.754   4.569  1.00  0.00     0.157 A 
ATOM     17  C   UNL     1       6.592   5.055   3.823  1.00  0.00     0.062 A 
ATOM     18  C   UNL     1       7.871   4.732   4.292  1.00  0.00     0.158 A 
BRANCH  16  19
ATOM     19  O   UNL     1      10.067   5.440   5.039  1.00  0.00    -0.504 OA
ATOM     20  H   UNL     1      10.455   4.509   4.941  1.00  0.00     0.293 HD
ENDBRANCH  16  19
BRANCH  18  21
ATOM     21  O   UNL     1       8.207   3.391   4.478  1.00  0.00    -0.504 OA
ATOM     22  H   UNL     1       8.866   2.910   3.876  1.00  0.00     0.293 HD
ENDBRANCH  18  21
ENDBRANCH   3  13
BRANCH  10  23
ATOM     23  O   UNL     1       0.456   7.555   0.712  1.00  0.00    -0.507 OA
ATOM     24  H   UNL     1      -0.490   7.237   0.533  1.00  0.00     0.293 HD
ENDBRANCH  10  23
BRANCH  11  25
ATOM     25  O   UNL     1      -0.301   8.912   5.281  1.00  0.00    -0.508 OA
ATOM     26  H   UNL     1      -1.307   8.828   5.197  1.00  0.00     0.293 HD
ENDBRANCH  11  25
ENDBRANCH   1   2
BRANCH   1  27
ATOM     27  C   UNL     1       6.541   6.833   0.399  1.00  0.00     0.339 C 
ATOM     28  C   UNL     1       7.504   5.922  -0.388  1.00  0.00     0.214 C 
ATOM     29  O   UNL     1       6.017   7.853  -0.436  1.00  0.00    -0.332 OA
ATOM     30  C   UNL     1       8.661   6.754  -0.999  1.00  0.00     0.180 C 
ATOM     31  C   UNL     1       7.020   8.716  -0.957  1.00  0.00     0.179 C 
ATOM     32  C   UNL     1       8.089   7.944  -1.781  1.00  0.00     0.177 C 
BRANCH  28  33
ATOM     33  O   UNL     1       8.013   4.912   0.447  1.00  0.00    -0.384 OA
ATOM     34  H   UNL     1       8.925   5.195   0.721  1.00  0.00     0.211 HD
ENDBRANCH  28  33
BRANCH  30  35
ATOM     35  O   UNL     1       9.606   7.217  -0.055  1.00  0.00    -0.387 OA
ATOM     36  H   UNL     1       9.160   7.758   0.646  1.00  0.00     0.211 HD
ENDBRANCH  30  35
BRANCH  31  37
ATOM     37  C   UNL     1       7.595   9.661   0.122  1.00  0.00     0.191 C 
BRANCH  37  38
ATOM     38  O   UNL     1       8.866  10.123  -0.255  1.00  0.00    -0.394 OA
ATOM     39  H   UNL     1       8.744  11.039  -0.616  1.00  0.00     0.210 HD
ENDBRANCH  37  38
ENDBRANCH  31  37
BRANCH  32  40
ATOM     40  O   UNL     1       7.506   7.467  -2.968  1.00  0.00    -0.387 OA
ATOM     41  H   UNL     1       8.247   7.151  -3.548  1.00  0.00     0.211 HD
ENDBRANCH  32  40
ENDBRANCH   1  27
TORSDOF 12
ENDMDL
MODEL 4
REMARK VINA RESULT:    -4.770      2.055      7.035
REMARK INTER + INTRA:          -8.621
REMARK INTER:                  -7.093
REMARK INTRA:                  -1.529
REMARK UNBOUND:                -1.620
REMARK SMILES O=c1c(O[C@@H]2O[C@@H](CO)[C@H](O)[C@@H](O)[C@H]2O)c(-c2ccc(O)c(O)c2)oc2cc(O)cc(O)c12
REMARK SMILES IDX 4 1 3 2 16 3 25 4 2 5 26 6 1 7 33 8 27 9 31 10 28 11 30 12
REMARK SMILES IDX 17 13 18 14 19 15 20 16 24 17 22 18 21 19 23 21 32 23 29 25
REMARK SMILES IDX 5 27 14 28 6 29 12 30 7 31 10 32 15 33 13 35 8 37 9 38 11 40
REMARK H PARENT 21 20 23 22 32 24 29 26 15 34 13 36 9 39 11 41
REMARK Flexibility Score: inf
ROOT
ATOM      1  O   UNL     1       5.939   5.525   1.827  1.00  0.00    -0.454 OA
ENDROOT
BRANCH   1   2
ATOM      2  C   UNL     1       4.864   6.264   2.339  1.00  0.00     0.214 A 
ATOM      3  C   UNL     1       4.985   6.921   3.579  1.00  0.00     0.180 A 
ATOM      4  O   UNL     1       3.982   7.665   4.033  1.00  0.00    -0.452 OA
ATOM      5  C   UNL     1       3.659   6.368   1.631  1.00  0.00     0.239 A 
ATOM      6  C   UNL     1       2.831   7.810   3.386  1.00  0.00     0.146 A 
ATOM      7  O   UNL     1       3.522   5.740   0.546  1.00  0.00    -0.285 OA
ATOM      8  C   UNL     1       2.613   7.160   2.148  1.00  0.00     0.111 A 
ATOM      9  C   UNL     1       1.833   8.613   3.945  1.00  0.00     0.094 A 
ATOM     10  C   UNL     1       1.373   7.332   1.488  1.00  0.00     0.134 A 
ATOM     11  C   UNL     1       0.610   8.780   3.286  1.00  0.00     0.123 A 
ATOM     12  C   UNL     1       0.383   8.140   2.066  1.00  0.00     0.093 A 
BRANCH   3  13
ATOM     13  C   UNL     1       6.225   6.849   4.383  1.00  0.00     0.025 A 
ATOM     14  C   UNL     1       7.187   7.873   4.339  1.00  0.00     0.016 A 
ATOM     15  C   UNL     1       8.348   7.784   5.112  1.00  0.00     0.051 A 
ATOM     16  C   UNL     1       8.571   6.667   5.930  1.00  0.00     0.157 A 
ATOM     17  C   UNL     1       6.461   5.724   5.189  1.00  0.00     0.062 A 
ATOM     18  C   UNL     1       7.623   5.631   5.964  1.00  0.00     0.158 A 
BRANCH  16  19
ATOM     19  O   UNL     1       9.728   6.583   6.700  1.00  0.00    -0.504 OA
ATOM     20  H   UNL     1      10.635   6.843   6.329  1.00  0.00     0.293 HD
ENDBRANCH  16  19
BRANCH  18  21
ATOM     21  O   UNL     1       7.818   4.504   6.763  1.00  0.00    -0.504 OA
ATOM     22  H   UNL     1       7.908   3.574   6.371  1.00  0.00     0.293 HD
ENDBRANCH  18  21
ENDBRANCH   3  13
BRANCH  10  23
ATOM     23  O   UNL     1       1.118   6.710   0.265  1.00  0.00    -0.507 OA
ATOM     24  H   UNL     1       1.848   6.577  -0.427  1.00  0.00     0.293 HD
ENDBRANCH  10  23
BRANCH  11  25
ATOM     25  O   UNL     1      -0.389   9.582   3.838  1.00  0.00    -0.508 OA
ATOM     26  H   UNL     1      -0.452   9.738   4.836  1.00  0.00     0.293 HD
ENDBRANCH  11  25
ENDBRANCH   1   2
BRANCH   1  27
ATOM     27  C   UNL     1       6.977   6.088   1.025  1.00  0.00     0.339 C 
ATOM     28  C   UNL     1       8.263   5.256   1.200  1.00  0.00     0.214 C 
ATOM     29  O   UNL     1       6.536   6.056  -0.322  1.00  0.00    -0.332 OA
ATOM     30  C   UNL     1       9.380   5.782   0.264  1.00  0.00     0.180 C 
ATOM     31  C   UNL     1       7.477   6.614  -1.229  1.00  0.00     0.179 C 
ATOM     32  C   UNL     1       8.849   5.885  -1.173  1.00  0.00     0.177 C 
BRANCH  28  33
ATOM     33  O   UNL     1       8.689   5.289   2.539  1.00  0.00    -0.384 OA
ATOM     34  H   UNL     1       8.557   4.376   2.907  1.00  0.00     0.211 HD
ENDBRANCH  28  33
BRANCH  30  35
ATOM     35  O   UNL     1       9.932   7.023   0.655  1.00  0.00    -0.387 OA
ATOM     36  H   UNL     1      10.415   7.443  -0.103  1.00  0.00     0.211 HD
ENDBRANCH  30  35
BRANCH  31  37
ATOM     37  C   UNL     1       7.558   8.153  -1.115  1.00  0.00     0.191 C 
BRANCH  37  38
ATOM     38  O   UNL     1       8.778   8.622  -1.627  1.00  0.00    -0.394 OA
ATOM     39  H   UNL     1       8.674   9.597  -1.774  1.00  0.00     0.210 HD
ENDBRANCH  37  38
ENDBRANCH  31  37
BRANCH  32  40
ATOM     40  O   UNL     1       8.710   4.589  -1.699  1.00  0.00    -0.387 OA
ATOM     41  H   UNL     1       9.185   4.577  -2.570  1.00  0.00     0.211 HD
ENDBRANCH  32  40
ENDBRANCH   1  27
TORSDOF 12
ENDMDL
MODEL 5
REMARK VINA RESULT:    -4.751      2.160      6.612
REMARK INTER + INTRA:          -8.593
REMARK INTER:                  -7.056
REMARK INTRA:                  -1.538
REMARK UNBOUND:                -1.620
REMARK SMILES O=c1c(O[C@@H]2O[C@@H](CO)[C@H](O)[C@@H](O)[C@H]2O)c(-c2ccc(O)c(O)c2)oc2cc(O)cc(O)c12
REMARK SMILES IDX 4 1 3 2 16 3 25 4 2 5 26 6 1 7 33 8 27 9 31 10 28 11 30 12
REMARK SMILES IDX 17 13 18 14 19 15 20 16 24 17 22 18 21 19 23 21 32 23 29 25
REMARK SMILES IDX 5 27 14 28 6 29 12 30 7 31 10 32 15 33 13 35 8 37 9 38 11 40
REMARK H PARENT 21 20 23 22 32 24 29 26 15 34 13 36 9 39 11 41
REMARK Flexibility Score: inf
ROOT
ATOM      1  O   UNL     1       4.967   7.930   5.345  1.00  0.00    -0.454 OA
ENDROOT
BRANCH   1   2
ATOM      2  C   UNL     1       4.380   7.452   4.166  1.00  0.00     0.214 A 
ATOM      3  C   UNL     1       5.047   6.489   3.385  1.00  0.00     0.180 A 
ATOM      4  O   UNL     1       4.461   6.000   2.296  1.00  0.00    -0.452 OA
ATOM      5  C   UNL     1       3.126   7.916   3.746  1.00  0.00     0.239 A 
ATOM      6  C   UNL     1       3.265   6.394   1.873  1.00  0.00     0.146 A 
ATOM      7  O   UNL     1       2.544   8.817   4.409  1.00  0.00    -0.285 OA
ATOM      8  C   UNL     1       2.539   7.380   2.581  1.00  0.00     0.111 A 
ATOM      9  C   UNL     1       2.731   5.821   0.715  1.00  0.00     0.094 A 
ATOM     10  C   UNL     1       1.269   7.780   2.099  1.00  0.00     0.134 A 
ATOM     11  C   UNL     1       1.476   6.220   0.245  1.00  0.00     0.123 A 
ATOM     12  C   UNL     1       0.752   7.195   0.934  1.00  0.00     0.093 A 
BRANCH   3  13
ATOM     13  C   UNL     1       6.376   5.961   3.763  1.00  0.00     0.025 A 
ATOM     14  C   UNL     1       7.556   6.662   3.461  1.00  0.00     0.016 A 
ATOM     15  C   UNL     1       8.799   6.145   3.834  1.00  0.00     0.051 A 
ATOM     16  C   UNL     1       8.883   4.915   4.501  1.00  0.00     0.157 A 
ATOM     17  C   UNL     1       6.466   4.720   4.416  1.00  0.00     0.062 A 
ATOM     18  C   UNL     1       7.710   4.199   4.789  1.00  0.00     0.158 A 
BRANCH  16  19
ATOM     19  O   UNL     1      10.125   4.402   4.872  1.00  0.00    -0.504 OA
ATOM     20  H   UNL     1      10.217   3.713   5.610  1.00  0.00     0.293 HD
ENDBRANCH  16  19
BRANCH  18  21
ATOM     21  O   UNL     1       7.761   2.969   5.446  1.00  0.00    -0.504 OA
ATOM     22  H   UNL     1       8.620   2.438   5.533  1.00  0.00     0.293 HD
ENDBRANCH  18  21
ENDBRANCH   3  13
BRANCH  10  23
ATOM     23  O   UNL     1       0.520   8.748   2.768  1.00  0.00    -0.507 OA
ATOM     24  H   UNL     1       0.938   9.611   3.100  1.00  0.00     0.293 HD
ENDBRANCH  10  23
BRANCH  11  25
ATOM     25  O   UNL     1       0.937   5.651  -0.909  1.00  0.00    -0.508 OA
ATOM     26  H   UNL     1       1.527   5.322  -1.663  1.00  0.00     0.293 HD
ENDBRANCH  11  25
ENDBRANCH   1   2
BRANCH   1  27
ATOM     27  C   UNL     1       4.756   7.342   6.628  1.00  0.00     0.339 C 
ATOM     28  C   UNL     1       5.986   7.609   7.519  1.00  0.00     0.214 C 
ATOM     29  O   UNL     1       3.594   7.938   7.182  1.00  0.00    -0.332 OA
ATOM     30  C   UNL     1       5.745   7.071   8.952  1.00  0.00     0.180 C 
ATOM     31  C   UNL     1       3.259   7.419   8.463  1.00  0.00     0.179 C 
ATOM     32  C   UNL     1       4.410   7.604   9.491  1.00  0.00     0.177 C 
BRANCH  28  33
ATOM     33  O   UNL     1       7.132   7.020   6.959  1.00  0.00    -0.384 OA
ATOM     34  H   UNL     1       7.847   7.065   7.649  1.00  0.00     0.211 HD
ENDBRANCH  28  33
BRANCH  30  35
ATOM     35  O   UNL     1       5.769   5.662   9.057  1.00  0.00    -0.387 OA
ATOM     36  H   UNL     1       5.714   5.246   8.158  1.00  0.00     0.211 HD
ENDBRANCH  30  35
BRANCH  31  37
ATOM     37  C   UNL     1       2.690   5.985   8.381  1.00  0.00     0.191 C 
BRANCH  37  38
ATOM     38  O   UNL     1       2.820   5.332   9.618  1.00  0.00    -0.394 OA
ATOM     39  H   UNL     1       3.012   4.379   9.422  1.00  0.00     0.210 HD
ENDBRANCH  37  38
ENDBRANCH  31  37
BRANCH  32  40
ATOM     40  O   UNL     1       4.555   8.971   9.787  1.00  0.00    -0.387 OA
ATOM     41  H   UNL     1       5.500   9.209   9.601  1.00  0.00     0.211 HD
ENDBRANCH  32  40
ENDBRANCH   1  27
TORSDOF 12
ENDMDL
MODEL 6
REMARK VINA RESULT:    -4.689      2.584      6.182
REMARK INTER + INTRA:          -8.502
REMARK INTER:                  -7.416
REMARK INTRA:                  -1.086
REMARK UNBOUND:                -1.620
REMARK SMILES O=c1c(O[C@@H]2O[C@@H](CO)[C@H](O)[C@@H](O)[C@H]2O)c(-c2ccc(O)c(O)c2)oc2cc(O)cc(O)c12
REMARK SMILES IDX 4 1 3 2 16 3 25 4 2 5 26 6 1 7 33 8 27 9 31 10 28 11 30 12
REMARK SMILES IDX 17 13 18 14 19 15 20 16 24 17 22 18 21 19 23 21 32 23 29 25
REMARK SMILES IDX 5 27 14 28 6 29 12 30 7 31 10 32 15 33 13 35 8 37 9 38 11 40
REMARK H PARENT 21 20 23 22 32 24 29 26 15 34 13 36 9 39 11 41
REMARK Flexibility Score: inf
ROOT
ATOM      1  O   UNL     1       4.177   8.065   4.463  1.00  0.00    -0.454 OA
ENDROOT
BRANCH   1   2
ATOM      2  C   UNL     1       2.980   8.352   5.134  1.00  0.00     0.214 A 
ATOM      3  C   UNL     1       1.743   8.065   4.526  1.00  0.00     0.180 A 
ATOM      4  O   UNL     1       0.613   8.289   5.190  1.00  0.00    -0.452 OA
ATOM      5  C   UNL     1       2.991   8.921   6.415  1.00  0.00     0.239 A 
ATOM      6  C   UNL     1       0.577   8.806   6.413  1.00  0.00     0.146 A 
ATOM      7  O   UNL     1       4.092   9.231   6.946  1.00  0.00    -0.285 OA
ATOM      8  C   UNL     1       1.772   9.152   7.086  1.00  0.00     0.111 A 
ATOM      9  C   UNL     1      -0.662   9.007   7.030  1.00  0.00     0.094 A 
ATOM     10  C   UNL     1       1.696   9.706   8.386  1.00  0.00     0.134 A 
ATOM     11  C   UNL     1      -0.729   9.553   8.316  1.00  0.00     0.123 A 
ATOM     12  C   UNL     1       0.445   9.901   8.987  1.00  0.00     0.093 A 
BRANCH   3  13
ATOM     13  C   UNL     1       1.656   7.471   3.174  1.00  0.00     0.025 A 
ATOM     14  C   UNL     1       1.079   6.207   2.965  1.00  0.00     0.016 A 
ATOM     15  C   UNL     1       1.004   5.670   1.678  1.00  0.00     0.051 A 
ATOM     16  C   UNL     1       1.516   6.380   0.583  1.00  0.00     0.157 A 
ATOM     17  C   UNL     1       2.184   8.172   2.077  1.00  0.00     0.062 A 
ATOM     18  C   UNL     1       2.111   7.635   0.786  1.00  0.00     0.158 A 
BRANCH  16  19
ATOM     19  O   UNL     1       1.438   5.842  -0.700  1.00  0.00    -0.504 OA
ATOM     20  H   UNL     1       1.575   4.852  -0.871  1.00  0.00     0.293 HD
ENDBRANCH  16  19
BRANCH  18  21
ATOM     21  O   UNL     1       2.635   8.364  -0.282  1.00  0.00    -0.504 OA
ATOM     22  H   UNL     1       3.608   8.645  -0.319  1.00  0.00     0.293 HD
ENDBRANCH  18  21
ENDBRANCH   3  13
BRANCH  10  23
ATOM     23  O   UNL     1       2.852  10.059   9.084  1.00  0.00    -0.507 OA
ATOM     24  H   UNL     1       3.445   9.362   9.521  1.00  0.00     0.293 HD
ENDBRANCH  10  23
BRANCH  11  25
ATOM     25  O   UNL     1      -1.961   9.753   8.937  1.00  0.00    -0.508 OA
ATOM     26  H   UNL     1      -2.833   9.654   8.431  1.00  0.00     0.293 HD
ENDBRANCH  11  25
ENDBRANCH   1   2
BRANCH   1  27
ATOM     27  C   UNL     1       4.966   6.903   4.716  1.00  0.00     0.339 C 
ATOM     28  C   UNL     1       5.766   6.546   3.447  1.00  0.00     0.214 C 
ATOM     29  O   UNL     1       5.839   7.209   5.791  1.00  0.00    -0.332 OA
ATOM     30  C   UNL     1       6.711   5.349   3.720  1.00  0.00     0.180 C 
ATOM     31  C   UNL     1       6.672   6.118   6.159  1.00  0.00     0.179 C 
ATOM     32  C   UNL     1       7.551   5.625   4.976  1.00  0.00     0.177 C 
BRANCH  28  33
ATOM     33  O   UNL     1       4.893   6.250   2.386  1.00  0.00    -0.384 OA
ATOM     34  H   UNL     1       3.981   6.510   2.681  1.00  0.00     0.211 HD
ENDBRANCH  28  33
BRANCH  30  35
ATOM     35  O   UNL     1       6.053   4.106   3.855  1.00  0.00    -0.387 OA
ATOM     36  H   UNL     1       5.256   4.069   3.266  1.00  0.00     0.211 HD
ENDBRANCH  30  35
BRANCH  31  37
ATOM     37  C   UNL     1       5.889   5.005   6.890  1.00  0.00     0.191 C 
BRANCH  37  38
ATOM     38  O   UNL     1       6.540   3.769   6.747  1.00  0.00    -0.394 OA
ATOM     39  H   UNL     1       7.005   3.586   7.604  1.00  0.00     0.210 HD
ENDBRANCH  37  38
ENDBRANCH  31  37
BRANCH  32  40
ATOM     40  O   UNL     1       8.513   6.603   4.670  1.00  0.00    -0.387 OA
ATOM     41  H   UNL     1       8.742   6.495   3.710  1.00  0.00     0.211 HD
ENDBRANCH  32  40
ENDBRANCH   1  27
TORSDOF 12
ENDMDL
MODEL 7
REMARK VINA RESULT:    -4.667      2.325      5.927
REMARK INTER + INTRA:          -8.469
REMARK INTER:                  -7.334
REMARK INTRA:                  -1.135
REMARK UNBOUND:                -1.620
REMARK SMILES O=c1c(O[C@@H]2O[C@@H](CO)[C@H](O)[C@@H](O)[C@H]2O)c(-c2ccc(O)c(O)c2)oc2cc(O)cc(O)c12
REMARK SMILES IDX 4 1 3 2 16 3 25 4 2 5 26 6 1 7 33 8 27 9 31 10 28 11 30 12
REMARK SMILES IDX 17 13 18 14 19 15 20 16 24 17 22 18 21 19 23 21 32 23 29 25
REMARK SMILES IDX 5 27 14 28 6 29 12 30 7 31 10 32 15 33 13 35 8 37 9 38 11 40
REMARK H PARENT 21 20 23 22 32 24 29 26 15 34 13 36 9 39 11 41
REMARK Flexibility Score: inf
ROOT
ATOM      1  O   UNL     1       6.618   7.030   5.412  1.00  0.00    -0.454 OA
ENDROOT
BRANCH   1   2
ATOM      2  C   UNL     1       5.268   7.392   5.520  1.00  0.00     0.214 A 
ATOM      3  C   UNL     1       4.478   7.525   4.363  1.00  0.00     0.180 A 
ATOM      4  O   UNL     1       3.185   7.816   4.475  1.00  0.00    -0.452 OA
ATOM      5  C   UNL     1       4.682   7.623   6.772  1.00  0.00     0.239 A 
ATOM      6  C   UNL     1       2.583   8.021   5.640  1.00  0.00     0.146 A 
ATOM      7  O   UNL     1       5.394   7.558   7.811  1.00  0.00    -0.285 OA
ATOM      8  C   UNL     1       3.310   7.937   6.852  1.00  0.00     0.111 A 
ATOM      9  C   UNL     1       1.218   8.323   5.657  1.00  0.00     0.094 A 
ATOM     10  C   UNL     1       2.637   8.166   8.076  1.00  0.00     0.134 A 
ATOM     11  C   UNL     1       0.560   8.547   6.871  1.00  0.00     0.123 A 
ATOM     12  C   UNL     1       1.268   8.470   8.072  1.00  0.00     0.093 A 
BRANCH   3  13
ATOM     13  C   UNL     1       5.032   7.305   3.008  1.00  0.00     0.025 A 
ATOM     14  C   UNL     1       5.539   8.369   2.242  1.00  0.00     0.016 A 
ATOM     15  C   UNL     1       6.061   8.134   0.968  1.00  0.00     0.051 A 
ATOM     16  C   UNL     1       6.075   6.837   0.436  1.00  0.00     0.157 A 
ATOM     17  C   UNL     1       5.031   6.010   2.465  1.00  0.00     0.062 A 
ATOM     18  C   UNL     1       5.553   5.772   1.187  1.00  0.00     0.158 A 
BRANCH  16  19
ATOM     19  O   UNL     1       6.598   6.606  -0.835  1.00  0.00    -0.504 OA
ATOM     20  H   UNL     1       7.027   7.348  -1.376  1.00  0.00     0.293 HD
ENDBRANCH  16  19
BRANCH  18  21
ATOM     21  O   UNL     1       5.547   4.471   0.684  1.00  0.00    -0.504 OA
ATOM     22  H   UNL     1       4.716   4.052   0.282  1.00  0.00     0.293 HD
ENDBRANCH  18  21
ENDBRANCH   3  13
BRANCH  10  23
ATOM     23  O   UNL     1       3.316   8.092   9.293  1.00  0.00    -0.507 OA
ATOM     24  H   UNL     1       4.320   7.948   9.335  1.00  0.00     0.293 HD
ENDBRANCH  10  23
BRANCH  11  25
ATOM     25  O   UNL     1      -0.802   8.847   6.894  1.00  0.00    -0.508 OA
ATOM     26  H   UNL     1      -1.157   9.727   6.541  1.00  0.00     0.293 HD
ENDBRANCH  11  25
ENDBRANCH   1   2
BRANCH   1  27
ATOM     27  C   UNL     1       7.059   5.720   5.056  1.00  0.00     0.339 C 
ATOM     28  C   UNL     1       8.472   5.810   4.443  1.00  0.00     0.214 C 
ATOM     29  O   UNL     1       7.072   4.940   6.240  1.00  0.00    -0.332 OA
ATOM     30  C   UNL     1       9.021   4.393   4.139  1.00  0.00     0.180 C 
ATOM     31  C   UNL     1       7.477   3.596   6.016  1.00  0.00     0.179 C 
ATOM     32  C   UNL     1       8.895   3.507   5.387  1.00  0.00     0.177 C 
BRANCH  28  33
ATOM     33  O   UNL     1       8.450   6.589   3.275  1.00  0.00    -0.384 OA
ATOM     34  H   UNL     1       7.560   7.029   3.237  1.00  0.00     0.211 HD
ENDBRANCH  28  33
BRANCH  30  35
ATOM     35  O   UNL     1       8.405   3.753   3.040  1.00  0.00    -0.387 OA
ATOM     36  H   UNL     1       9.089   3.380   2.427  1.00  0.00     0.211 HD
ENDBRANCH  30  35
BRANCH  31  37
ATOM     37  C   UNL     1       6.392   2.773   5.284  1.00  0.00     0.191 C 
BRANCH  37  38
ATOM     38  O   UNL     1       6.444   1.427   5.681  1.00  0.00    -0.394 OA
ATOM     39  H   UNL     1       7.095   1.371   6.427  1.00  0.00     0.210 HD
ENDBRANCH  37  38
ENDBRANCH  31  37
BRANCH  32  40
ATOM     40  O   UNL     1       9.851   3.918   6.332  1.00  0.00    -0.387 OA
ATOM     41  H   UNL     1      10.217   4.785   6.016  1.00  0.00     0.211 HD
ENDBRANCH  32  40
ENDBRANCH   1  27
TORSDOF 12
ENDMDL
MODEL 8
REMARK VINA RESULT:    -4.577      1.429      2.551
REMARK INTER + INTRA:          -8.337
REMARK INTER:                  -6.918
REMARK INTRA:                  -1.419
REMARK UNBOUND:                -1.620
REMARK SMILES O=c1c(O[C@@H]2O[C@@H](CO)[C@H](O)[C@@H](O)[C@H]2O)c(-c2ccc(O)c(O)c2)oc2cc(O)cc(O)c12
REMARK SMILES IDX 4 1 3 2 16 3 25 4 2 5 26 6 1 7 33 8 27 9 31 10 28 11 30 12
REMARK SMILES IDX 17 13 18 14 19 15 20 16 24 17 22 18 21 19 23 21 32 23 29 25
REMARK SMILES IDX 5 27 14 28 6 29 12 30 7 31 10 32 15 33 13 35 8 37 9 38 11 40
REMARK H PARENT 21 20 23 22 32 24 29 26 15 34 13 36 9 39 11 41
REMARK Flexibility Score: inf
ROOT
ATOM      1  O   UNL     1       4.393   8.614   3.986  1.00  0.00    -0.454 OA
ENDROOT
BRANCH   1   2
ATOM      2  C   UNL     1       4.718   7.683   4.981  1.00  0.00     0.214 A 
ATOM      3  C   UNL     1       5.739   6.739   4.759  1.00  0.00     0.180 A 
ATOM      4  O   UNL     1       6.079   5.894   5.727  1.00  0.00    -0.452 OA
ATOM      5  C   UNL     1       4.042   7.675   6.209  1.00  0.00     0.239 A 
ATOM      6  C   UNL     1       5.482   5.865   6.913  1.00  0.00     0.146 A 
ATOM      7  O   UNL     1       3.091   8.481   6.398  1.00  0.00    -0.285 OA
ATOM      8  C   UNL     1       4.425   6.759   7.210  1.00  0.00     0.111 A 
ATOM      9  C   UNL     1       5.909   4.938   7.868  1.00  0.00     0.094 A 
ATOM     10  C   UNL     1       3.807   6.697   8.482  1.00  0.00     0.134 A 
ATOM     11  C   UNL     1       5.295   4.884   9.123  1.00  0.00     0.123 A 
ATOM     12  C   UNL     1       4.249   5.759   9.425  1.00  0.00     0.093 A 
BRANCH   3  13
ATOM     13  C   UNL     1       6.489   6.684   3.484  1.00  0.00     0.025 A 
ATOM     14  C   UNL     1       7.648   7.453   3.284  1.00  0.00     0.016 A 
ATOM     15  C   UNL     1       8.341   7.381   2.073  1.00  0.00     0.051 A 
ATOM     16  C   UNL     1       7.881   6.550   1.041  1.00  0.00     0.157 A 
ATOM     17  C   UNL     1       6.020   5.867   2.442  1.00  0.00     0.062 A 
ATOM     18  C   UNL     1       6.713   5.794   1.228  1.00  0.00     0.158 A 
BRANCH  16  19
ATOM     19  O   UNL     1       8.576   6.479  -0.164  1.00  0.00    -0.504 OA
ATOM     20  H   UNL     1       9.203   5.711  -0.372  1.00  0.00     0.293 HD
ENDBRANCH  16  19
BRANCH  18  21
ATOM     21  O   UNL     1       6.226   4.962   0.219  1.00  0.00    -0.504 OA
ATOM     22  H   UNL     1       5.828   5.329  -0.639  1.00  0.00     0.293 HD
ENDBRANCH  18  21
ENDBRANCH   3  13
BRANCH  10  23
ATOM     23  O   UNL     1       2.763   7.561   8.815  1.00  0.00    -0.507 OA
ATOM     24  H   UNL     1       2.898   8.339   9.451  1.00  0.00     0.293 HD
ENDBRANCH  10  23
BRANCH  11  25
ATOM     25  O   UNL     1       5.718   3.963  10.080  1.00  0.00    -0.508 OA
ATOM     26  H   UNL     1       5.302   3.042  10.152  1.00  0.00     0.293 HD
ENDBRANCH  11  25
ENDBRANCH   1   2
BRANCH   1  27
ATOM     27  C   UNL     1       3.357   8.416   3.023  1.00  0.00     0.339 C 
ATOM     28  C   UNL     1       3.930   8.635   1.608  1.00  0.00     0.214 C 
ATOM     29  O   UNL     1       2.886   7.087   3.176  1.00  0.00    -0.332 OA
ATOM     30  C   UNL     1       2.855   8.326   0.535  1.00  0.00     0.180 C 
ATOM     31  C   UNL     1       1.828   6.766   2.282  1.00  0.00     0.179 C 
ATOM     32  C   UNL     1       2.242   6.942   0.795  1.00  0.00     0.177 C 
BRANCH  28  33
ATOM     33  O   UNL     1       4.399   9.951   1.469  1.00  0.00    -0.384 OA
ATOM     34  H   UNL     1       4.909   9.988   0.617  1.00  0.00     0.211 HD
ENDBRANCH  28  33
BRANCH  30  35
ATOM     35  O   UNL     1       1.826   9.291   0.448  1.00  0.00    -0.387 OA
ATOM     36  H   UNL     1       1.999   9.917  -0.301  1.00  0.00     0.211 HD
ENDBRANCH  30  35
BRANCH  31  37
ATOM     37  C   UNL     1       0.504   7.459   2.672  1.00  0.00     0.191 C 
BRANCH  37  38
ATOM     38  O   UNL     1      -0.023   6.893   3.844  1.00  0.00    -0.394 OA
ATOM     39  H   UNL     1       0.727   6.814   4.488  1.00  0.00     0.210 HD
ENDBRANCH  37  38
ENDBRANCH  31  37
BRANCH  32  40
ATOM     40  O   UNL     1       3.187   5.958   0.454  1.00  0.00    -0.387 OA
ATOM     41  H   UNL     1       2.688   5.108   0.333  1.00  0.00     0.211 HD
ENDBRANCH  32  40
ENDBRANCH   1  27
TORSDOF 12
ENDMDL
MODEL 9
REMARK VINA RESULT:    -4.550      2.442      6.619
REMARK INTER + INTRA:          -8.298
REMARK INTER:                  -8.231
REMARK INTRA:                  -0.066
REMARK UNBOUND:                -1.620
REMARK SMILES O=c1c(O[C@@H]2O[C@@H](CO)[C@H](O)[C@@H](O)[C@H]2O)c(-c2ccc(O)c(O)c2)oc2cc(O)cc(O)c12
REMARK SMILES IDX 4 1 3 2 16 3 25 4 2 5 26 6 1 7 33 8 27 9 31 10 28 11 30 12
REMARK SMILES IDX 17 13 18 14 19 15 20 16 24 17 22 18 21 19 23 21 32 23 29 25
REMARK SMILES IDX 5 27 14 28 6 29 12 30 7 31 10 32 15 33 13 35 8 37 9 38 11 40
REMARK H PARENT 21 20 23 22 32 24 29 26 15 34 13 36 9 39 11 41
REMARK Flexibility Score: inf
ROOT
ATOM      1  O   UNL     1       5.532   5.276   1.188  1.00  0.00    -0.454 OA
ENDROOT
BRANCH   1   2
ATOM      2  C   UNL     1       4.668   6.026   1.997  1.00  0.00     0.214 A 
ATOM      3  C   UNL     1       5.066   6.408   3.292  1.00  0.00     0.180 A 
ATOM      4  O   UNL     1       4.263   7.166   4.033  1.00  0.00    -0.452 OA
ATOM      5  C   UNL     1       3.403   6.413   1.534  1.00  0.00     0.239 A 
ATOM      6  C   UNL     1       3.066   7.574   3.627  1.00  0.00     0.146 A 
ATOM      7  O   UNL     1       3.016   6.032   0.396  1.00  0.00    -0.285 OA
ATOM      8  C   UNL     1       2.576   7.211   2.351  1.00  0.00     0.111 A 
ATOM      9  C   UNL     1       2.293   8.368   4.479  1.00  0.00     0.094 A 
ATOM     10  C   UNL     1       1.293   7.659   1.953  1.00  0.00     0.134 A 
ATOM     11  C   UNL     1       1.028   8.808   4.079  1.00  0.00     0.123 A 
ATOM     12  C   UNL     1       0.533   8.453   2.822  1.00  0.00     0.093 A 
BRANCH   3  13
ATOM     13  C   UNL     1       6.383   6.028   3.849  1.00  0.00     0.025 A 
ATOM     14  C   UNL     1       7.432   6.959   3.947  1.00  0.00     0.016 A 
ATOM     15  C   UNL     1       8.666   6.578   4.480  1.00  0.00     0.051 A 
ATOM     16  C   UNL     1       8.874   5.260   4.911  1.00  0.00     0.157 A 
ATOM     17  C   UNL     1       6.602   4.705   4.265  1.00  0.00     0.062 A 
ATOM     18  C   UNL     1       7.838   4.320   4.799  1.00  0.00     0.158 A 
BRANCH  16  19
ATOM     19  O   UNL     1      10.106   4.884   5.444  1.00  0.00    -0.504 OA
ATOM     20  H   UNL     1      10.217   4.025   5.971  1.00  0.00     0.293 HD
ENDBRANCH  16  19
BRANCH  18  21
ATOM     21  O   UNL     1       8.015   3.000   5.213  1.00  0.00    -0.504 OA
ATOM     22  H   UNL     1       7.250   2.437   5.567  1.00  0.00     0.293 HD
ENDBRANCH  18  21
ENDBRANCH   3  13
BRANCH  10  23
ATOM     23  O   UNL     1       0.773   7.324   0.702  1.00  0.00    -0.507 OA
ATOM     24  H   UNL     1      -0.212   7.440   0.486  1.00  0.00     0.293 HD
ENDBRANCH  10  23
BRANCH  11  25
ATOM     25  O   UNL     1       0.253   9.603   4.923  1.00  0.00    -0.508 OA
ATOM     26  H   UNL     1      -0.136   9.239   5.784  1.00  0.00     0.293 HD
ENDBRANCH  11  25
ENDBRANCH   1   2
BRANCH   1  27
ATOM     27  C   UNL     1       6.524   5.854   0.340  1.00  0.00     0.339 C 
ATOM     28  C   UNL     1       6.441   7.391   0.435  1.00  0.00     0.214 C 
ATOM     29  O   UNL     1       7.787   5.389   0.786  1.00  0.00    -0.332 OA
ATOM     30  C   UNL     1       7.572   8.048  -0.396  1.00  0.00     0.180 C 
ATOM     31  C   UNL     1       8.868   5.879   0.004  1.00  0.00     0.179 C 
ATOM     32  C   UNL     1       8.925   7.433  -0.011  1.00  0.00     0.177 C 
BRANCH  28  33
ATOM     33  O   UNL     1       5.184   7.841  -0.003  1.00  0.00    -0.384 OA
ATOM     34  H   UNL     1       4.763   7.088  -0.496  1.00  0.00     0.211 HD
ENDBRANCH  28  33
BRANCH  30  35
ATOM     35  O   UNL     1       7.393   7.959  -1.795  1.00  0.00    -0.387 OA
ATOM     36  H   UNL     1       6.442   8.110  -2.034  1.00  0.00     0.211 HD
ENDBRANCH  30  35
BRANCH  31  37
ATOM     37  C   UNL     1       8.929   5.216  -1.390  1.00  0.00     0.191 C 
BRANCH  37  38
ATOM     38  O   UNL     1       9.731   4.065  -1.354  1.00  0.00    -0.394 OA
ATOM     39  H   UNL     1      10.674   4.370  -1.348  1.00  0.00     0.210 HD
ENDBRANCH  37  38
ENDBRANCH  31  37
BRANCH  32  40
ATOM     40  O   UNL     1       9.287   7.898   1.265  1.00  0.00    -0.387 OA
ATOM     41  H   UNL     1       8.483   7.819   1.841  1.00  0.00     0.211 HD
ENDBRANCH  32  40
ENDBRANCH   1  27
TORSDOF 12
ENDMDL
