MODEL 1
REMARK VINA RESULT:    -4.139      0.000      0.000
REMARK INTER + INTRA:          -7.352
REMARK INTER:                  -6.558
REMARK INTRA:                  -0.794
REMARK UNBOUND:                -0.794
REMARK SMILES CCCCCCCCCCCC(=O)[O-]
REMARK SMILES IDX 7 1 8 2 9 3 10 4 11 5 12 6 13 7 14 8 6 9 5 10 4 11 3 12 2 13
REMARK SMILES IDX 1 14
REMARK H PARENT
REMARK Flexibility Score: inf
ROOT
ATOM      1  C   UNL     1       8.450 -27.002 -27.647  1.00  0.00     0.000 C 
ENDROOT
BRANCH   1   2
ATOM      2  C   UNL     1       9.128 -26.712 -26.297  1.00  0.00     0.000 C 
BRANCH   2   3
ATOM      3  C   UNL     1      10.334 -25.759 -26.445  1.00  0.00     0.000 C 
BRANCH   3   4
ATOM      4  C   UNL     1      10.609 -24.914 -25.190  1.00  0.00     0.006 C 
BRANCH   4   5
ATOM      5  C   UNL     1       9.404 -24.838 -24.246  1.00  0.00     0.053 C 
BRANCH   5   6
ATOM      6  C   UNL     1       9.484 -23.610 -23.395  1.00  0.00     0.041 C 
ATOM      7  O   UNL     1       9.925 -22.533 -23.876  1.00  0.00    -0.550 OA
ATOM      8  O   UNL     1       9.025 -23.641 -22.084  1.00  0.00    -0.550 OA
ENDBRANCH   5   6
ENDBRANCH   4   5
ENDBRANCH   3   4
ENDBRANCH   2   3
ENDBRANCH   1   2
BRANCH   1   9
ATOM      9  C   UNL     1       8.806 -28.390 -28.201  1.00  0.00     0.000 C 
BRANCH   9  10
ATOM     10  C   UNL     1       9.287 -28.336 -29.659  1.00  0.00    -0.000 C 
BRANCH  10  11
ATOM     11  C   UNL     1      10.543 -27.466 -29.791  1.00  0.00    -0.000 C 
BRANCH  11  12
ATOM     12  C   UNL     1      10.736 -26.994 -31.237  1.00  0.00    -0.000 C 
BRANCH  12  13
ATOM     13  C   UNL     1      10.891 -25.470 -31.302  1.00  0.00    -0.003 C 
ATOM     14  C   UNL     1       9.811 -24.771 -30.482  1.00  0.00     0.004 C 
ENDBRANCH  12  13
ENDBRANCH  11  12
ENDBRANCH  10  11
ENDBRANCH   9  10
ENDBRANCH   1   9
TORSDOF 10
ENDMDL
MODEL 2
REMARK VINA RESULT:    -4.118      3.468      5.692
REMARK INTER + INTRA:          -7.319
REMARK INTER:                  -6.205
REMARK INTRA:                  -1.114
REMARK UNBOUND:                -0.794
REMARK SMILES CCCCCCCCCCCC(=O)[O-]
REMARK SMILES IDX 7 1 8 2 9 3 10 4 11 5 12 6 13 7 14 8 6 9 5 10 4 11 3 12 2 13
REMARK SMILES IDX 1 14
REMARK H PARENT
REMARK Flexibility Score: inf
ROOT
ATOM      1  C   UNL     1      11.146 -25.426 -27.087  1.00  0.00     0.000 C 
ENDROOT
BRANCH   1   2
ATOM      2  C   UNL     1      10.657 -25.048 -28.495  1.00  0.00     0.000 C 
BRANCH   2   3
ATOM      3  C   UNL     1      11.391 -25.841 -29.597  1.00  0.00     0.000 C 
BRANCH   3   4
ATOM      4  C   UNL     1      10.548 -26.058 -30.865  1.00  0.00     0.006 C 
BRANCH   4   5
ATOM      5  C   UNL     1       9.777 -24.805 -31.292  1.00  0.00     0.053 C 
BRANCH   5   6
ATOM      6  C   UNL     1      10.722 -23.743 -31.757  1.00  0.00     0.041 C 
ATOM      7  O   UNL     1      11.374 -23.897 -32.825  1.00  0.00    -0.550 OA
ATOM      8  O   UNL     1      10.848 -22.560 -31.040  1.00  0.00    -0.550 OA
ENDBRANCH   5   6
ENDBRANCH   4   5
ENDBRANCH   3   4
ENDBRANCH   2   3
ENDBRANCH   1   2
BRANCH   1   9
ATOM      9  C   UNL     1      10.033 -26.031 -26.218  1.00  0.00     0.000 C 
BRANCH   9  10
ATOM     10  C   UNL     1       9.583 -27.412 -26.718  1.00  0.00    -0.000 C 
BRANCH  10  11
ATOM     11  C   UNL     1       8.149 -27.359 -27.261  1.00  0.00    -0.000 C 
BRANCH  11  12
ATOM     12  C   UNL     1       8.111 -27.722 -28.750  1.00  0.00    -0.000 C 
BRANCH  12  13
ATOM     13  C   UNL     1       8.896 -29.010 -29.023  1.00  0.00    -0.003 C 
ATOM     14  C   UNL     1       8.060 -30.006 -29.822  1.00  0.00     0.004 C 
ENDBRANCH  12  13
ENDBRANCH  11  12
ENDBRANCH  10  11
ENDBRANCH   9  10
ENDBRANCH   1   9
TORSDOF 10
ENDMDL
MODEL 3
REMARK VINA RESULT:    -4.088      3.356      5.461
REMARK INTER + INTRA:          -7.271
REMARK INTER:                  -5.789
REMARK INTRA:                  -1.482
REMARK UNBOUND:                -0.794
REMARK SMILES CCCCCCCCCCCC(=O)[O-]
REMARK SMILES IDX 7 1 8 2 9 3 10 4 11 5 12 6 13 7 14 8 6 9 5 10 4 11 3 12 2 13
REMARK SMILES IDX 1 14
REMARK H PARENT
REMARK Flexibility Score: inf
ROOT
ATOM      1  C   UNL     1      10.126 -28.024 -29.347  1.00  0.00     0.000 C 
ENDROOT
BRANCH   1   2
ATOM      2  C   UNL     1      10.615 -27.082 -30.460  1.00  0.00     0.000 C 
BRANCH   2   3
ATOM      3  C   UNL     1       9.837 -25.748 -30.475  1.00  0.00     0.000 C 
BRANCH   3   4
ATOM      4  C   UNL     1      10.412 -24.690 -29.518  1.00  0.00     0.006 C 
BRANCH   4   5
ATOM      5  C   UNL     1      11.843 -24.274 -29.878  1.00  0.00     0.053 C 
BRANCH   5   6
ATOM      6  C   UNL     1      11.830 -23.246 -30.965  1.00  0.00     0.041 C 
ATOM      7  O   UNL     1      12.293 -23.522 -32.104  1.00  0.00    -0.550 OA
ATOM      8  O   UNL     1      11.261 -22.000 -30.738  1.00  0.00    -0.550 OA
ENDBRANCH   5   6
ENDBRANCH   4   5
ENDBRANCH   3   4
ENDBRANCH   2   3
ENDBRANCH   1   2
BRANCH   1   9
ATOM      9  C   UNL     1       8.616 -27.906 -29.092  1.00  0.00     0.000 C 
BRANCH   9  10
ATOM     10  C   UNL     1       8.296 -27.430 -27.667  1.00  0.00    -0.000 C 
BRANCH  10  11
ATOM     11  C   UNL     1       9.572 -27.328 -26.822  1.00  0.00    -0.000 C 
BRANCH  11  12
ATOM     12  C   UNL     1       9.665 -25.965 -26.126  1.00  0.00    -0.000 C 
BRANCH  12  13
ATOM     13  C   UNL     1      11.114 -25.639 -25.747  1.00  0.00    -0.003 C 
ATOM     14  C   UNL     1      12.099 -26.330 -26.686  1.00  0.00     0.004 C 
ENDBRANCH  12  13
ENDBRANCH  11  12
ENDBRANCH  10  11
ENDBRANCH   9  10
ENDBRANCH   1   9
TORSDOF 10
ENDMDL
MODEL 4
REMARK VINA RESULT:    -4.074      4.073      6.042
REMARK INTER + INTRA:          -7.250
REMARK INTER:                  -6.026
REMARK INTRA:                  -1.224
REMARK UNBOUND:                -0.794
REMARK SMILES CCCCCCCCCCCC(=O)[O-]
REMARK SMILES IDX 7 1 8 2 9 3 10 4 11 5 12 6 13 7 14 8 6 9 5 10 4 11 3 12 2 13
REMARK SMILES IDX 1 14
REMARK H PARENT
REMARK Flexibility Score: inf
ROOT
ATOM      1  C   UNL     1      10.864 -26.465 -30.760  1.00  0.00     0.000 C 
ENDROOT
BRANCH   1   2
ATOM      2  C   UNL     1       9.763 -25.415 -30.538  1.00  0.00     0.000 C 
BRANCH   2   3
ATOM      3  C   UNL     1      10.345 -24.004 -30.304  1.00  0.00     0.000 C 
BRANCH   3   4
ATOM      4  C   UNL     1      11.872 -23.990 -30.125  1.00  0.00     0.006 C 
BRANCH   4   5
ATOM      5  C   UNL     1      12.539 -22.778 -30.786  1.00  0.00     0.053 C 
BRANCH   5   6
ATOM      6  C   UNL     1      12.133 -22.676 -32.222  1.00  0.00     0.041 C 
ATOM      7  O   UNL     1      12.447 -23.586 -33.035  1.00  0.00    -0.550 OA
ATOM      8  O   UNL     1      11.367 -21.601 -32.654  1.00  0.00    -0.550 OA
ENDBRANCH   5   6
ENDBRANCH   4   5
ENDBRANCH   3   4
ENDBRANCH   2   3
ENDBRANCH   1   2
BRANCH   1   9
ATOM      9  C   UNL     1      10.675 -27.713 -29.884  1.00  0.00     0.000 C 
BRANCH   9  10
ATOM     10  C   UNL     1       9.196 -28.097 -29.720  1.00  0.00    -0.000 C 
BRANCH  10  11
ATOM     11  C   UNL     1       8.876 -28.437 -28.259  1.00  0.00    -0.000 C 
BRANCH  11  12
ATOM     12  C   UNL     1       8.417 -27.191 -27.491  1.00  0.00    -0.000 C 
BRANCH  12  13
ATOM     13  C   UNL     1       9.416 -26.828 -26.386  1.00  0.00    -0.003 C 
ATOM     14  C   UNL     1      10.323 -25.679 -26.818  1.00  0.00     0.004 C 
ENDBRANCH  12  13
ENDBRANCH  11  12
ENDBRANCH  10  11
ENDBRANCH   9  10
ENDBRANCH   1   9
TORSDOF 10
ENDMDL
MODEL 5
REMARK VINA RESULT:    -4.071      1.178      2.105
REMARK INTER + INTRA:          -7.245
REMARK INTER:                  -6.165
REMARK INTRA:                  -1.080
REMARK UNBOUND:                -0.794
REMARK SMILES CCCCCCCCCCCC(=O)[O-]
REMARK SMILES IDX 7 1 8 2 9 3 10 4 11 5 12 6 13 7 14 8 6 9 5 10 4 11 3 12 2 13
REMARK SMILES IDX 1 14
REMARK H PARENT
REMARK Flexibility Score: inf
ROOT
ATOM      1  C   UNL     1       8.783 -28.334 -28.664  1.00  0.00     0.000 C 
ENDROOT
BRANCH   1   2
ATOM      2  C   UNL     1       8.212 -27.202 -27.793  1.00  0.00     0.000 C 
BRANCH   2   3
ATOM      3  C   UNL     1       8.950 -27.080 -26.442  1.00  0.00     0.000 C 
BRANCH   3   4
ATOM      4  C   UNL     1       9.845 -25.833 -26.340  1.00  0.00     0.006 C 
BRANCH   4   5
ATOM      5  C   UNL     1      10.710 -25.822 -25.074  1.00  0.00     0.053 C 
BRANCH   5   6
ATOM      6  C   UNL     1       9.890 -25.433 -23.885  1.00  0.00     0.041 C 
ATOM      7  O   UNL     1       9.943 -26.116 -22.828  1.00  0.00    -0.550 OA
ATOM      8  O   UNL     1       9.105 -24.288 -23.926  1.00  0.00    -0.550 OA
ENDBRANCH   5   6
ENDBRANCH   4   5
ENDBRANCH   3   4
ENDBRANCH   2   3
ENDBRANCH   1   2
BRANCH   1   9
ATOM      9  C   UNL     1       9.501 -27.811 -29.917  1.00  0.00     0.000 C 
BRANCH   9  10
ATOM     10  C   UNL     1      10.914 -27.292 -29.611  1.00  0.00    -0.000 C 
BRANCH  10  11
ATOM     11  C   UNL     1      11.170 -25.950 -30.309  1.00  0.00    -0.000 C 
BRANCH  11  12
ATOM     12  C   UNL     1      10.266 -24.851 -29.738  1.00  0.00    -0.000 C 
BRANCH  12  13
ATOM     13  C   UNL     1       9.396 -24.229 -30.837  1.00  0.00    -0.003 C 
ATOM     14  C   UNL     1       9.829 -24.707 -32.220  1.00  0.00     0.004 C 
ENDBRANCH  12  13
ENDBRANCH  11  12
ENDBRANCH  10  11
ENDBRANCH   9  10
ENDBRANCH   1   9
TORSDOF 10
ENDMDL
MODEL 6
REMARK VINA RESULT:    -4.012      4.369      6.127
REMARK INTER + INTRA:          -7.152
REMARK INTER:                  -5.927
REMARK INTRA:                  -1.225
REMARK UNBOUND:                -0.794
REMARK SMILES CCCCCCCCCCCC(=O)[O-]
REMARK SMILES IDX 7 1 8 2 9 3 10 4 11 5 12 6 13 7 14 8 6 9 5 10 4 11 3 12 2 13
REMARK SMILES IDX 1 14
REMARK H PARENT
REMARK Flexibility Score: inf
ROOT
ATOM      1  C   UNL     1      12.036 -25.534 -28.238  1.00  0.00     0.000 C 
ENDROOT
BRANCH   1   2
ATOM      2  C   UNL     1      11.407 -25.548 -29.641  1.00  0.00     0.000 C 
BRANCH   2   3
ATOM      3  C   UNL     1       9.999 -24.916 -29.653  1.00  0.00     0.000 C 
BRANCH   3   4
ATOM      4  C   UNL     1       9.538 -24.462 -31.049  1.00  0.00     0.006 C 
BRANCH   4   5
ATOM      5  C   UNL     1      10.491 -24.906 -32.165  1.00  0.00     0.053 C 
BRANCH   5   6
ATOM      6  C   UNL     1      11.165 -23.720 -32.779  1.00  0.00     0.041 C 
ATOM      7  O   UNL     1      12.155 -23.187 -32.209  1.00  0.00    -0.550 OA
ATOM      8  O   UNL     1      10.731 -23.231 -34.004  1.00  0.00    -0.550 OA
ENDBRANCH   5   6
ENDBRANCH   4   5
ENDBRANCH   3   4
ENDBRANCH   2   3
ENDBRANCH   1   2
BRANCH   1   9
ATOM      9  C   UNL     1      11.870 -26.872 -27.502  1.00  0.00     0.000 C 
BRANCH   9  10
ATOM     10  C   UNL     1      11.738 -28.060 -28.467  1.00  0.00    -0.000 C 
BRANCH  10  11
ATOM     11  C   UNL     1      10.422 -28.813 -28.234  1.00  0.00    -0.000 C 
BRANCH  11  12
ATOM     12  C   UNL     1       9.427 -28.548 -29.370  1.00  0.00    -0.000 C 
BRANCH  12  13
ATOM     13  C   UNL     1       8.064 -28.115 -28.818  1.00  0.00    -0.003 C 
ATOM     14  C   UNL     1       8.217 -27.372 -27.494  1.00  0.00     0.004 C 
ENDBRANCH  12  13
ENDBRANCH  11  12
ENDBRANCH  10  11
ENDBRANCH   9  10
ENDBRANCH   1   9
TORSDOF 10
ENDMDL
MODEL 7
REMARK VINA RESULT:    -3.929      3.114      3.867
REMARK INTER + INTRA:          -7.020
REMARK INTER:                  -5.880
REMARK INTRA:                  -1.140
REMARK UNBOUND:                -0.794
REMARK SMILES CCCCCCCCCCCC(=O)[O-]
REMARK SMILES IDX 7 1 8 2 9 3 10 4 11 5 12 6 13 7 14 8 6 9 5 10 4 11 3 12 2 13
REMARK SMILES IDX 1 14
REMARK H PARENT
REMARK Flexibility Score: inf
ROOT
ATOM      1  C   UNL     1       9.429 -28.208 -29.779  1.00  0.00     0.000 C 
ENDROOT
BRANCH   1   2
ATOM      2  C   UNL     1       8.514 -27.841 -28.598  1.00  0.00     0.000 C 
BRANCH   2   3
ATOM      3  C   UNL     1       9.006 -26.582 -27.852  1.00  0.00     0.000 C 
BRANCH   3   4
ATOM      4  C   UNL     1       9.412 -26.848 -26.393  1.00  0.00     0.006 C 
BRANCH   4   5
ATOM      5  C   UNL     1      10.914 -26.669 -26.149  1.00  0.00     0.053 C 
BRANCH   5   6
ATOM      6  C   UNL     1      11.677 -27.826 -26.713  1.00  0.00     0.041 C 
ATOM      7  O   UNL     1      12.715 -27.628 -27.398  1.00  0.00    -0.550 OA
ATOM      8  O   UNL     1      11.269 -29.126 -26.443  1.00  0.00    -0.550 OA
ENDBRANCH   5   6
ENDBRANCH   4   5
ENDBRANCH   3   4
ENDBRANCH   2   3
ENDBRANCH   1   2
BRANCH   1   9
ATOM      9  C   UNL     1      10.471 -27.121 -30.079  1.00  0.00     0.000 C 
BRANCH   9  10
ATOM     10  C   UNL     1      10.783 -27.004 -31.579  1.00  0.00    -0.000 C 
BRANCH  10  11
ATOM     11  C   UNL     1      10.614 -25.559 -32.064  1.00  0.00    -0.000 C 
BRANCH  11  12
ATOM     12  C   UNL     1       9.908 -24.702 -31.006  1.00  0.00    -0.000 C 
BRANCH  12  13
ATOM     13  C   UNL     1      10.682 -23.405 -30.744  1.00  0.00    -0.003 C 
ATOM     14  C   UNL     1      12.037 -23.691 -30.104  1.00  0.00     0.004 C 
ENDBRANCH  12  13
ENDBRANCH  11  12
ENDBRANCH  10  11
ENDBRANCH   9  10
ENDBRANCH   1   9
TORSDOF 10
ENDMDL
MODEL 8
REMARK VINA RESULT:    -3.887      3.221      3.698
REMARK INTER + INTRA:          -6.953
REMARK INTER:                  -5.710
REMARK INTRA:                  -1.243
REMARK UNBOUND:                -0.794
REMARK SMILES CCCCCCCCCCCC(=O)[O-]
REMARK SMILES IDX 7 1 8 2 9 3 10 4 11 5 12 6 13 7 14 8 6 9 5 10 4 11 3 12 2 13
REMARK SMILES IDX 1 14
REMARK H PARENT
REMARK Flexibility Score: inf
ROOT
ATOM      1  C   UNL     1       8.375 -26.994 -28.349  1.00  0.00     0.000 C 
ENDROOT
BRANCH   1   2
ATOM      2  C   UNL     1       8.642 -27.363 -26.879  1.00  0.00     0.000 C 
BRANCH   2   3
ATOM      3  C   UNL     1       9.441 -26.267 -26.142  1.00  0.00     0.000 C 
BRANCH   3   4
ATOM      4  C   UNL     1      10.962 -26.368 -26.349  1.00  0.00     0.006 C 
BRANCH   4   5
ATOM      5  C   UNL     1      11.560 -27.649 -25.756  1.00  0.00     0.053 C 
BRANCH   5   6
ATOM      6  C   UNL     1      12.309 -28.409 -26.805  1.00  0.00     0.041 C 
ATOM      7  O   UNL     1      13.159 -27.824 -27.527  1.00  0.00    -0.550 OA
ATOM      8  O   UNL     1      12.103 -29.775 -26.953  1.00  0.00    -0.550 OA
ENDBRANCH   5   6
ENDBRANCH   4   5
ENDBRANCH   3   4
ENDBRANCH   2   3
ENDBRANCH   1   2
BRANCH   1   9
ATOM      9  C   UNL     1       8.789 -28.109 -29.322  1.00  0.00     0.000 C 
BRANCH   9  10
ATOM     10  C   UNL     1      10.276 -28.035 -29.701  1.00  0.00    -0.000 C 
BRANCH  10  11
ATOM     11  C   UNL     1      10.697 -26.589 -29.993  1.00  0.00    -0.000 C 
BRANCH  11  12
ATOM     12  C   UNL     1      10.913 -26.371 -31.496  1.00  0.00    -0.000 C 
BRANCH  12  13
ATOM     13  C   UNL     1      10.173 -25.118 -31.980  1.00  0.00    -0.003 C 
ATOM     14  C   UNL     1       9.491 -24.397 -30.821  1.00  0.00     0.004 C 
ENDBRANCH  12  13
ENDBRANCH  11  12
ENDBRANCH  10  11
ENDBRANCH   9  10
ENDBRANCH   1   9
TORSDOF 10
ENDMDL
MODEL 9
REMARK VINA RESULT:    -3.877      4.260      6.048
REMARK INTER + INTRA:          -6.937
REMARK INTER:                  -6.153
REMARK INTRA:                  -0.784
REMARK UNBOUND:                -0.794
REMARK SMILES CCCCCCCCCCCC(=O)[O-]
REMARK SMILES IDX 7 1 8 2 9 3 10 4 11 5 12 6 13 7 14 8 6 9 5 10 4 11 3 12 2 13
REMARK SMILES IDX 1 14
REMARK H PARENT
REMARK Flexibility Score: inf
ROOT
ATOM      1  C   UNL     1      10.039 -25.185 -29.996  1.00  0.00     0.000 C 
ENDROOT
BRANCH   1   2
ATOM      2  C   UNL     1       9.495 -24.289 -31.122  1.00  0.00     0.000 C 
BRANCH   2   3
ATOM      3  C   UNL     1      10.202 -24.555 -32.469  1.00  0.00     0.000 C 
BRANCH   3   4
ATOM      4  C   UNL     1      11.443 -23.675 -32.698  1.00  0.00     0.006 C 
BRANCH   4   5
ATOM      5  C   UNL     1      11.312 -22.284 -32.068  1.00  0.00     0.053 C 
BRANCH   5   6
ATOM      6  C   UNL     1      12.288 -22.126 -30.945  1.00  0.00     0.041 C 
ATOM      7  O   UNL     1      12.411 -21.015 -30.363  1.00  0.00    -0.550 OA
ATOM      8  O   UNL     1      13.026 -23.218 -30.505  1.00  0.00    -0.550 OA
ENDBRANCH   5   6
ENDBRANCH   4   5
ENDBRANCH   3   4
ENDBRANCH   2   3
ENDBRANCH   1   2
BRANCH   1   9
ATOM      9  C   UNL     1      10.705 -26.463 -30.528  1.00  0.00     0.000 C 
BRANCH   9  10
ATOM     10  C   UNL     1      10.190 -27.729 -29.826  1.00  0.00    -0.000 C 
BRANCH  10  11
ATOM     11  C   UNL     1       9.091 -27.388 -28.813  1.00  0.00    -0.000 C 
BRANCH  11  12
ATOM     12  C   UNL     1       7.988 -28.453 -28.816  1.00  0.00    -0.000 C 
BRANCH  12  13
ATOM     13  C   UNL     1       8.229 -29.489 -29.919  1.00  0.00    -0.003 C 
ATOM     14  C   UNL     1       8.268 -30.904 -29.348  1.00  0.00     0.004 C 
ENDBRANCH  12  13
ENDBRANCH  11  12
ENDBRANCH  10  11
ENDBRANCH   9  10
ENDBRANCH   1   9
TORSDOF 10
ENDMDL
