MODEL 1
REMARK VINA RESULT:    -3.744      0.000      0.000
REMARK INTER + INTRA:          -7.637
REMARK INTER:                  -6.809
REMARK INTRA:                  -0.828
REMARK UNBOUND:                -0.828
REMARK SMILES CCCCCCCCCCCCCCCC(=O)[O-]
REMARK SMILES IDX 9 1 10 2 11 3 12 4 13 5 14 6 15 7 16 8 17 9 18 10 8 11 7 12
REMARK SMILES IDX 6 13 5 14 4 15 3 16 2 17 1 18
REMARK H PARENT
REMARK Flexibility Score: inf
ROOT
ATOM      1  C   UNL     1       9.223  -5.589   4.413  1.00  0.00     0.000 C 
ENDROOT
BRANCH   1   2
ATOM      2  C   UNL     1      10.599  -5.765   3.750  1.00  0.00     0.000 C 
BRANCH   2   3
ATOM      3  C   UNL     1      11.670  -6.264   4.736  1.00  0.00     0.000 C 
BRANCH   3   4
ATOM      4  C   UNL     1      13.034  -6.488   4.061  1.00  0.00     0.000 C 
BRANCH   4   5
ATOM      5  C   UNL     1      13.995  -5.304   4.266  1.00  0.00     0.000 C 
BRANCH   5   6
ATOM      6  C   UNL     1      15.115  -5.260   3.209  1.00  0.00     0.006 C 
BRANCH   6   7
ATOM      7  C   UNL     1      16.531  -5.109   3.790  1.00  0.00     0.053 C 
BRANCH   7   8
ATOM      8  C   UNL     1      16.752  -6.003   4.972  1.00  0.00     0.041 C 
ATOM      9  O   UNL     1      16.938  -7.236   4.807  1.00  0.00    -0.550 OA
ATOM     10  O   UNL     1      16.719  -5.476   6.257  1.00  0.00    -0.550 OA
ENDBRANCH   7   8
ENDBRANCH   6   7
ENDBRANCH   5   6
ENDBRANCH   4   5
ENDBRANCH   3   4
ENDBRANCH   2   3
ENDBRANCH   1   2
BRANCH   1  11
ATOM     11  C   UNL     1       8.081  -5.488   3.391  1.00  0.00     0.000 C 
BRANCH  11  12
ATOM     12  C   UNL     1       6.906  -6.388   3.792  1.00  0.00    -0.000 C 
BRANCH  12  13
ATOM     13  C   UNL     1       5.607  -5.581   3.906  1.00  0.00    -0.000 C 
BRANCH  13  14
ATOM     14  C   UNL     1       4.892  -5.877   5.233  1.00  0.00    -0.000 C 
BRANCH  14  15
ATOM     15  C   UNL     1       5.810  -6.543   6.271  1.00  0.00    -0.000 C 
BRANCH  15  16
ATOM     16  C   UNL     1       5.292  -7.880   6.832  1.00  0.00    -0.000 C 
BRANCH  16  17
ATOM     17  C   UNL     1       5.037  -8.952   5.751  1.00  0.00    -0.003 C 
ATOM     18  C   UNL     1       3.551  -9.255   5.565  1.00  0.00     0.004 C 
ENDBRANCH  16  17
ENDBRANCH  15  16
ENDBRANCH  14  15
ENDBRANCH  13  14
ENDBRANCH  12  13
ENDBRANCH  11  12
ENDBRANCH   1  11
TORSDOF 14
ENDMDL
MODEL 2
REMARK VINA RESULT:    -3.521      1.090      2.063
REMARK INTER + INTRA:          -7.231
REMARK INTER:                  -6.211
REMARK INTRA:                  -1.020
REMARK UNBOUND:                -0.828
REMARK SMILES CCCCCCCCCCCCCCCC(=O)[O-]
REMARK SMILES IDX 9 1 10 2 11 3 12 4 13 5 14 6 15 7 16 8 17 9 18 10 8 11 7 12
REMARK SMILES IDX 6 13 5 14 4 15 3 16 2 17 1 18
REMARK H PARENT
REMARK Flexibility Score: inf
ROOT
ATOM      1  C   UNL     1       8.399  -6.007   4.756  1.00  0.00     0.000 C 
ENDROOT
BRANCH   1   2
ATOM      2  C   UNL     1       9.209  -5.174   3.749  1.00  0.00     0.000 C 
BRANCH   2   3
ATOM      3  C   UNL     1      10.490  -5.891   3.287  1.00  0.00     0.000 C 
BRANCH   3   4
ATOM      4  C   UNL     1      11.525  -6.037   4.416  1.00  0.00     0.000 C 
BRANCH   4   5
ATOM      5  C   UNL     1      12.910  -6.458   3.896  1.00  0.00     0.000 C 
BRANCH   5   6
ATOM      6  C   UNL     1      13.956  -5.334   4.019  1.00  0.00     0.006 C 
BRANCH   6   7
ATOM      7  C   UNL     1      14.607  -5.220   5.408  1.00  0.00     0.053 C 
BRANCH   7   8
ATOM      8  C   UNL     1      16.083  -5.467   5.359  1.00  0.00     0.041 C 
ATOM      9  O   UNL     1      16.736  -5.614   6.425  1.00  0.00    -0.550 OA
ATOM     10  O   UNL     1      16.743  -5.501   4.137  1.00  0.00    -0.550 OA
ENDBRANCH   7   8
ENDBRANCH   6   7
ENDBRANCH   5   6
ENDBRANCH   4   5
ENDBRANCH   3   4
ENDBRANCH   2   3
ENDBRANCH   1   2
BRANCH   1  11
ATOM     11  C   UNL     1       7.205  -6.723   4.107  1.00  0.00     0.000 C 
BRANCH  11  12
ATOM     12  C   UNL     1       5.879  -6.214   4.686  1.00  0.00    -0.000 C 
BRANCH  12  13
ATOM     13  C   UNL     1       5.739  -6.600   6.164  1.00  0.00    -0.000 C 
BRANCH  13  14
ATOM     14  C   UNL     1       5.753  -8.126   6.337  1.00  0.00    -0.000 C 
BRANCH  14  15
ATOM     15  C   UNL     1       4.408  -8.781   5.976  1.00  0.00    -0.000 C 
BRANCH  15  16
ATOM     16  C   UNL     1       4.400  -9.553   4.644  1.00  0.00    -0.000 C 
BRANCH  16  17
ATOM     17  C   UNL     1       3.505  -8.917   3.560  1.00  0.00    -0.003 C 
ATOM     18  C   UNL     1       2.553  -7.866   4.130  1.00  0.00     0.004 C 
ENDBRANCH  16  17
ENDBRANCH  15  16
ENDBRANCH  14  15
ENDBRANCH  13  14
ENDBRANCH  12  13
ENDBRANCH  11  12
ENDBRANCH   1  11
TORSDOF 14
ENDMDL
MODEL 3
REMARK VINA RESULT:    -3.506      4.354      9.475
REMARK INTER + INTRA:          -7.203
REMARK INTER:                  -6.309
REMARK INTRA:                  -0.894
REMARK UNBOUND:                -0.828
REMARK SMILES CCCCCCCCCCCCCCCC(=O)[O-]
REMARK SMILES IDX 9 1 10 2 11 3 12 4 13 5 14 6 15 7 16 8 17 9 18 10 8 11 7 12
REMARK SMILES IDX 6 13 5 14 4 15 3 16 2 17 1 18
REMARK H PARENT
REMARK Flexibility Score: inf
ROOT
ATOM      1  C   UNL     1      10.671  -6.288   3.024  1.00  0.00     0.000 C 
ENDROOT
BRANCH   1   2
ATOM      2  C   UNL     1      10.016  -5.680   4.275  1.00  0.00     0.000 C 
BRANCH   2   3
ATOM      3  C   UNL     1       8.575  -5.206   4.015  1.00  0.00     0.000 C 
BRANCH   3   4
ATOM      4  C   UNL     1       7.749  -6.235   3.224  1.00  0.00     0.000 C 
BRANCH   4   5
ATOM      5  C   UNL     1       7.046  -7.254   4.138  1.00  0.00     0.000 C 
BRANCH   5   6
ATOM      6  C   UNL     1       5.812  -6.664   4.845  1.00  0.00     0.006 C 
BRANCH   6   7
ATOM      7  C   UNL     1       5.646  -7.105   6.309  1.00  0.00     0.053 C 
BRANCH   7   8
ATOM      8  C   UNL     1       4.821  -8.350   6.431  1.00  0.00     0.041 C 
ATOM      9  O   UNL     1       4.231  -8.819   5.423  1.00  0.00    -0.550 OA
ATOM     10  O   UNL     1       4.679  -8.972   7.664  1.00  0.00    -0.550 OA
ENDBRANCH   7   8
ENDBRANCH   6   7
ENDBRANCH   5   6
ENDBRANCH   4   5
ENDBRANCH   3   4
ENDBRANCH   2   3
ENDBRANCH   1   2
BRANCH   1  11
ATOM     11  C   UNL     1      12.163  -6.595   3.226  1.00  0.00     0.000 C 
BRANCH  11  12
ATOM     12  C   UNL     1      12.615  -6.211   4.640  1.00  0.00    -0.000 C 
BRANCH  12  13
ATOM     13  C   UNL     1      13.841  -5.291   4.596  1.00  0.00    -0.000 C 
BRANCH  13  14
ATOM     14  C   UNL     1      14.574  -5.416   3.251  1.00  0.00    -0.000 C 
BRANCH  14  15
ATOM     15  C   UNL     1      16.099  -5.271   3.387  1.00  0.00    -0.000 C 
BRANCH  15  16
ATOM     16  C   UNL     1      16.710  -5.972   4.615  1.00  0.00    -0.000 C 
BRANCH  16  17
ATOM     17  C   UNL     1      17.285  -7.371   4.312  1.00  0.00    -0.003 C 
ATOM     18  C   UNL     1      17.601  -8.162   5.581  1.00  0.00     0.004 C 
ENDBRANCH  16  17
ENDBRANCH  15  16
ENDBRANCH  14  15
ENDBRANCH  13  14
ENDBRANCH  12  13
ENDBRANCH  11  12
ENDBRANCH   1  11
TORSDOF 14
ENDMDL
MODEL 4
REMARK VINA RESULT:    -3.500      4.340      9.080
REMARK INTER + INTRA:          -7.193
REMARK INTER:                  -5.927
REMARK INTRA:                  -1.266
REMARK UNBOUND:                -0.828
REMARK SMILES CCCCCCCCCCCCCCCC(=O)[O-]
REMARK SMILES IDX 9 1 10 2 11 3 12 4 13 5 14 6 15 7 16 8 17 9 18 10 8 11 7 12
REMARK SMILES IDX 6 13 5 14 4 15 3 16 2 17 1 18
REMARK H PARENT
REMARK Flexibility Score: inf
ROOT
ATOM      1  C   UNL     1       7.019  -6.814   5.133  1.00  0.00     0.000 C 
ENDROOT
BRANCH   1   2
ATOM      2  C   UNL     1       6.408  -8.067   5.779  1.00  0.00     0.000 C 
BRANCH   2   3
ATOM      3  C   UNL     1       4.887  -7.945   5.983  1.00  0.00     0.000 C 
BRANCH   3   4
ATOM      4  C   UNL     1       4.087  -8.794   4.980  1.00  0.00     0.000 C 
BRANCH   4   5
ATOM      5  C   UNL     1       3.009  -7.979   4.246  1.00  0.00     0.000 C 
BRANCH   5   6
ATOM      6  C   UNL     1       3.576  -6.717   3.570  1.00  0.00     0.006 C 
BRANCH   6   7
ATOM      7  C   UNL     1       2.965  -5.398   4.071  1.00  0.00     0.053 C 
BRANCH   7   8
ATOM      8  C   UNL     1       4.014  -4.431   4.527  1.00  0.00     0.041 C 
ATOM      9  O   UNL     1       4.927  -4.069   3.741  1.00  0.00    -0.550 OA
ATOM     10  O   UNL     1       4.000  -3.955   5.832  1.00  0.00    -0.550 OA
ENDBRANCH   7   8
ENDBRANCH   6   7
ENDBRANCH   5   6
ENDBRANCH   4   5
ENDBRANCH   3   4
ENDBRANCH   2   3
ENDBRANCH   1   2
BRANCH   1  11
ATOM     11  C   UNL     1       7.221  -6.965   3.618  1.00  0.00     0.000 C 
BRANCH  11  12
ATOM     12  C   UNL     1       7.868  -5.709   3.023  1.00  0.00    -0.000 C 
BRANCH  12  13
ATOM     13  C   UNL     1       8.971  -5.169   3.940  1.00  0.00    -0.000 C 
BRANCH  13  14
ATOM     14  C   UNL     1      10.359  -5.388   3.318  1.00  0.00    -0.000 C 
BRANCH  14  15
ATOM     15  C   UNL     1      11.343  -6.074   4.281  1.00  0.00    -0.000 C 
BRANCH  15  16
ATOM     16  C   UNL     1      12.773  -6.242   3.735  1.00  0.00    -0.000 C 
BRANCH  16  17
ATOM     17  C   UNL     1      13.706  -5.055   4.058  1.00  0.00    -0.003 C 
ATOM     18  C   UNL     1      14.444  -5.234   5.384  1.00  0.00     0.004 C 
ENDBRANCH  16  17
ENDBRANCH  15  16
ENDBRANCH  14  15
ENDBRANCH  13  14
ENDBRANCH  12  13
ENDBRANCH  11  12
ENDBRANCH   1  11
TORSDOF 14
ENDMDL
MODEL 5
REMARK VINA RESULT:    -3.472      1.311      2.337
REMARK INTER + INTRA:          -7.141
REMARK INTER:                  -6.571
REMARK INTRA:                  -0.571
REMARK UNBOUND:                -0.828
REMARK SMILES CCCCCCCCCCCCCCCC(=O)[O-]
REMARK SMILES IDX 9 1 10 2 11 3 12 4 13 5 14 6 15 7 16 8 17 9 18 10 8 11 7 12
REMARK SMILES IDX 6 13 5 14 4 15 3 16 2 17 1 18
REMARK H PARENT
REMARK Flexibility Score: inf
ROOT
ATOM      1  C   UNL     1      11.480  -5.997   4.352  1.00  0.00     0.000 C 
ENDROOT
BRANCH   1   2
ATOM      2  C   UNL     1      12.840  -6.591   3.952  1.00  0.00     0.000 C 
BRANCH   2   3
ATOM      3  C   UNL     1      14.018  -5.677   4.336  1.00  0.00     0.000 C 
BRANCH   3   4
ATOM      4  C   UNL     1      14.738  -5.095   3.108  1.00  0.00     0.000 C 
BRANCH   4   5
ATOM      5  C   UNL     1      16.215  -5.520   3.033  1.00  0.00     0.000 C 
BRANCH   5   6
ATOM      6  C   UNL     1      16.697  -6.217   4.319  1.00  0.00     0.006 C 
BRANCH   6   7
ATOM      7  C   UNL     1      17.627  -7.419   4.081  1.00  0.00     0.053 C 
BRANCH   7   8
ATOM      8  C   UNL     1      17.540  -8.425   5.187  1.00  0.00     0.041 C 
ATOM      9  O   UNL     1      17.304  -9.633   4.927  1.00  0.00    -0.550 OA
ATOM     10  O   UNL     1      17.687  -8.021   6.508  1.00  0.00    -0.550 OA
ENDBRANCH   7   8
ENDBRANCH   6   7
ENDBRANCH   5   6
ENDBRANCH   4   5
ENDBRANCH   3   4
ENDBRANCH   2   3
ENDBRANCH   1   2
BRANCH   1  11
ATOM     11  C   UNL     1      10.685  -5.472   3.147  1.00  0.00     0.000 C 
BRANCH  11  12
ATOM     12  C   UNL     1       9.372  -6.246   2.977  1.00  0.00    -0.000 C 
BRANCH  12  13
ATOM     13  C   UNL     1       8.244  -5.604   3.794  1.00  0.00    -0.000 C 
BRANCH  13  14
ATOM     14  C   UNL     1       7.591  -6.631   4.731  1.00  0.00    -0.000 C 
BRANCH  14  15
ATOM     15  C   UNL     1       6.114  -6.318   5.024  1.00  0.00    -0.000 C 
BRANCH  15  16
ATOM     16  C   UNL     1       5.581  -6.890   6.350  1.00  0.00    -0.000 C 
BRANCH  16  17
ATOM     17  C   UNL     1       5.277  -8.403   6.299  1.00  0.00    -0.003 C 
ATOM     18  C   UNL     1       4.667  -8.922   7.600  1.00  0.00     0.004 C 
ENDBRANCH  16  17
ENDBRANCH  15  16
ENDBRANCH  14  15
ENDBRANCH  13  14
ENDBRANCH  12  13
ENDBRANCH  11  12
ENDBRANCH   1  11
TORSDOF 14
ENDMDL
MODEL 6
REMARK VINA RESULT:    -3.271      1.933      4.060
REMARK INTER + INTRA:          -6.775
REMARK INTER:                  -5.400
REMARK INTRA:                  -1.375
REMARK UNBOUND:                -0.828
REMARK SMILES CCCCCCCCCCCCCCCC(=O)[O-]
REMARK SMILES IDX 9 1 10 2 11 3 12 4 13 5 14 6 15 7 16 8 17 9 18 10 8 11 7 12
REMARK SMILES IDX 6 13 5 14 4 15 3 16 2 17 1 18
REMARK H PARENT
REMARK Flexibility Score: inf
ROOT
ATOM      1  C   UNL     1       4.740  -5.200   4.488  1.00  0.00     0.000 C 
ENDROOT
BRANCH   1   2
ATOM      2  C   UNL     1       5.658  -4.979   3.276  1.00  0.00     0.000 C 
BRANCH   2   3
ATOM      3  C   UNL     1       6.885  -5.908   3.287  1.00  0.00     0.000 C 
BRANCH   3   4
ATOM      4  C   UNL     1       8.209  -5.139   3.130  1.00  0.00     0.000 C 
BRANCH   4   5
ATOM      5  C   UNL     1       9.421  -6.075   2.987  1.00  0.00     0.000 C 
BRANCH   5   6
ATOM      6  C   UNL     1      10.756  -5.367   3.287  1.00  0.00     0.006 C 
BRANCH   6   7
ATOM      7  C   UNL     1      11.613  -6.055   4.363  1.00  0.00     0.053 C 
BRANCH   7   8
ATOM      8  C   UNL     1      13.077  -5.832   4.143  1.00  0.00     0.041 C 
ATOM      9  O   UNL     1      13.613  -6.169   3.055  1.00  0.00    -0.550 OA
ATOM     10  O   UNL     1      13.857  -5.282   5.152  1.00  0.00    -0.550 OA
ENDBRANCH   7   8
ENDBRANCH   6   7
ENDBRANCH   5   6
ENDBRANCH   4   5
ENDBRANCH   3   4
ENDBRANCH   2   3
ENDBRANCH   1   2
BRANCH   1  11
ATOM     11  C   UNL     1       3.255  -4.995   4.153  1.00  0.00     0.000 C 
BRANCH  11  12
ATOM     12  C   UNL     1       2.741  -6.113   3.238  1.00  0.00    -0.000 C 
BRANCH  12  13
ATOM     13  C   UNL     1       2.634  -7.441   3.997  1.00  0.00    -0.000 C 
BRANCH  13  14
ATOM     14  C   UNL     1       3.604  -8.483   3.420  1.00  0.00    -0.000 C 
BRANCH  14  15
ATOM     15  C   UNL     1       4.245  -9.367   4.503  1.00  0.00    -0.000 C 
BRANCH  15  16
ATOM     16  C   UNL     1       3.823  -9.032   5.946  1.00  0.00    -0.000 C 
BRANCH  16  17
ATOM     17  C   UNL     1       5.003  -8.668   6.871  1.00  0.00    -0.003 C 
ATOM     18  C   UNL     1       6.231  -8.192   6.095  1.00  0.00     0.004 C 
ENDBRANCH  16  17
ENDBRANCH  15  16
ENDBRANCH  14  15
ENDBRANCH  13  14
ENDBRANCH  12  13
ENDBRANCH  11  12
ENDBRANCH   1  11
TORSDOF 14
ENDMDL
MODEL 7
REMARK VINA RESULT:    -3.248      1.990      3.274
REMARK INTER + INTRA:          -6.735
REMARK INTER:                  -5.898
REMARK INTRA:                  -0.837
REMARK UNBOUND:                -0.828
REMARK SMILES CCCCCCCCCCCCCCCC(=O)[O-]
REMARK SMILES IDX 9 1 10 2 11 3 12 4 13 5 14 6 15 7 16 8 17 9 18 10 8 11 7 12
REMARK SMILES IDX 6 13 5 14 4 15 3 16 2 17 1 18
REMARK H PARENT
REMARK Flexibility Score: inf
ROOT
ATOM      1  C   UNL     1      12.934  -5.808   4.194  1.00  0.00     0.000 C 
ENDROOT
BRANCH   1   2
ATOM      2  C   UNL     1      13.700  -6.998   3.594  1.00  0.00     0.000 C 
BRANCH   2   3
ATOM      3  C   UNL     1      12.821  -8.252   3.446  1.00  0.00     0.000 C 
BRANCH   3   4
ATOM      4  C   UNL     1      13.604  -9.554   3.688  1.00  0.00     0.000 C 
BRANCH   4   5
ATOM      5  C   UNL     1      15.086  -9.432   3.296  1.00  0.00     0.000 C 
BRANCH   5   6
ATOM      6  C   UNL     1      16.037  -9.890   4.419  1.00  0.00     0.006 C 
BRANCH   6   7
ATOM      7  C   UNL     1      17.478  -9.371   4.283  1.00  0.00     0.053 C 
BRANCH   7   8
ATOM      8  C   UNL     1      17.555  -7.882   4.430  1.00  0.00     0.041 C 
ATOM      9  O   UNL     1      17.876  -7.165   3.447  1.00  0.00    -0.550 OA
ATOM     10  O   UNL     1      17.305  -7.290   5.661  1.00  0.00    -0.550 OA
ENDBRANCH   7   8
ENDBRANCH   6   7
ENDBRANCH   5   6
ENDBRANCH   4   5
ENDBRANCH   3   4
ENDBRANCH   2   3
ENDBRANCH   1   2
BRANCH   1  11
ATOM     11  C   UNL     1      11.414  -6.030   4.213  1.00  0.00     0.000 C 
BRANCH  11  12
ATOM     12  C   UNL     1      10.731  -5.246   3.086  1.00  0.00    -0.000 C 
BRANCH  12  13
ATOM     13  C   UNL     1       9.269  -4.943   3.433  1.00  0.00    -0.000 C 
BRANCH  13  14
ATOM     14  C   UNL     1       8.780  -5.836   4.583  1.00  0.00    -0.000 C 
BRANCH  14  15
ATOM     15  C   UNL     1       7.507  -6.624   4.228  1.00  0.00    -0.000 C 
BRANCH  15  16
ATOM     16  C   UNL     1       6.470  -6.724   5.362  1.00  0.00    -0.000 C 
BRANCH  16  17
ATOM     17  C   UNL     1       6.148  -8.172   5.785  1.00  0.00    -0.003 C 
ATOM     18  C   UNL     1       5.199  -8.236   6.981  1.00  0.00     0.004 C 
ENDBRANCH  16  17
ENDBRANCH  15  16
ENDBRANCH  14  15
ENDBRANCH  13  14
ENDBRANCH  12  13
ENDBRANCH  11  12
ENDBRANCH   1  11
TORSDOF 14
ENDMDL
MODEL 8
REMARK VINA RESULT:    -3.041      3.957      9.026
REMARK INTER + INTRA:          -6.358
REMARK INTER:                  -5.559
REMARK INTRA:                  -0.799
REMARK UNBOUND:                -0.828
REMARK SMILES CCCCCCCCCCCCCCCC(=O)[O-]
REMARK SMILES IDX 9 1 10 2 11 3 12 4 13 5 14 6 15 7 16 8 17 9 18 10 8 11 7 12
REMARK SMILES IDX 6 13 5 14 4 15 3 16 2 17 1 18
REMARK H PARENT
REMARK Flexibility Score: inf
ROOT
ATOM      1  C   UNL     1       8.857  -4.663   3.145  1.00  0.00     0.000 C 
ENDROOT
BRANCH   1   2
ATOM      2  C   UNL     1       7.375  -4.261   3.073  1.00  0.00     0.000 C 
BRANCH   2   3
ATOM      3  C   UNL     1       6.440  -5.476   2.935  1.00  0.00     0.000 C 
BRANCH   3   4
ATOM      4  C   UNL     1       4.955  -5.093   3.043  1.00  0.00     0.000 C 
BRANCH   4   5
ATOM      5  C   UNL     1       4.461  -5.050   4.499  1.00  0.00     0.000 C 
BRANCH   5   6
ATOM      6  C   UNL     1       5.212  -6.039   5.410  1.00  0.00     0.006 C 
BRANCH   6   7
ATOM      7  C   UNL     1       4.735  -7.496   5.296  1.00  0.00     0.053 C 
BRANCH   7   8
ATOM      8  C   UNL     1       5.438  -8.395   6.267  1.00  0.00     0.041 C 
ATOM      9  O   UNL     1       6.497  -8.986   5.930  1.00  0.00    -0.550 OA
ATOM     10  O   UNL     1       4.904  -8.606   7.531  1.00  0.00    -0.550 OA
ENDBRANCH   7   8
ENDBRANCH   6   7
ENDBRANCH   5   6
ENDBRANCH   4   5
ENDBRANCH   3   4
ENDBRANCH   2   3
ENDBRANCH   1   2
BRANCH   1  11
ATOM     11  C   UNL     1       9.175  -5.540   4.366  1.00  0.00     0.000 C 
BRANCH  11  12
ATOM     12  C   UNL     1      10.670  -5.875   4.425  1.00  0.00    -0.000 C 
BRANCH  12  13
ATOM     13  C   UNL     1      11.360  -5.558   3.093  1.00  0.00    -0.000 C 
BRANCH  13  14
ATOM     14  C   UNL     1      12.605  -6.437   2.897  1.00  0.00    -0.000 C 
BRANCH  14  15
ATOM     15  C   UNL     1      13.701  -6.161   3.940  1.00  0.00    -0.000 C 
BRANCH  15  16
ATOM     16  C   UNL     1      14.822  -5.217   3.468  1.00  0.00    -0.000 C 
BRANCH  16  17
ATOM     17  C   UNL     1      16.207  -5.549   4.062  1.00  0.00    -0.003 C 
ATOM     18  C   UNL     1      16.579  -7.022   3.894  1.00  0.00     0.004 C 
ENDBRANCH  16  17
ENDBRANCH  15  16
ENDBRANCH  14  15
ENDBRANCH  13  14
ENDBRANCH  12  13
ENDBRANCH  11  12
ENDBRANCH   1  11
TORSDOF 14
ENDMDL
MODEL 9
REMARK VINA RESULT:    -2.980      4.524      9.610
REMARK INTER + INTRA:          -6.248
REMARK INTER:                  -5.379
REMARK INTRA:                  -0.869
REMARK UNBOUND:                -0.828
REMARK SMILES CCCCCCCCCCCCCCCC(=O)[O-]
REMARK SMILES IDX 9 1 10 2 11 3 12 4 13 5 14 6 15 7 16 8 17 9 18 10 8 11 7 12
REMARK SMILES IDX 6 13 5 14 4 15 3 16 2 17 1 18
REMARK H PARENT
REMARK Flexibility Score: inf
ROOT
ATOM      1  C   UNL     1      10.861  -6.077   4.677  1.00  0.00     0.000 C 
ENDROOT
BRANCH   1   2
ATOM      2  C   UNL     1       9.450  -5.603   4.292  1.00  0.00     0.000 C 
BRANCH   2   3
ATOM      3  C   UNL     1       8.974  -6.196   2.953  1.00  0.00     0.000 C 
BRANCH   3   4
ATOM      4  C   UNL     1       7.564  -6.805   3.047  1.00  0.00     0.000 C 
BRANCH   4   5
ATOM      5  C   UNL     1       7.089  -6.972   4.500  1.00  0.00     0.000 C 
BRANCH   5   6
ATOM      6  C   UNL     1       5.554  -6.952   4.629  1.00  0.00     0.006 C 
BRANCH   6   7
ATOM      7  C   UNL     1       5.010  -5.882   5.590  1.00  0.00     0.053 C 
BRANCH   7   8
ATOM      8  C   UNL     1       4.314  -4.773   4.861  1.00  0.00     0.041 C 
ATOM      9  O   UNL     1       3.799  -3.820   5.501  1.00  0.00    -0.550 OA
ATOM     10  O   UNL     1       4.206  -4.811   3.477  1.00  0.00    -0.550 OA
ENDBRANCH   7   8
ENDBRANCH   6   7
ENDBRANCH   5   6
ENDBRANCH   4   5
ENDBRANCH   3   4
ENDBRANCH   2   3
ENDBRANCH   1   2
BRANCH   1  11
ATOM     11  C   UNL     1      11.858  -5.979   3.512  1.00  0.00     0.000 C 
BRANCH  11  12
ATOM     12  C   UNL     1      12.972  -7.023   3.656  1.00  0.00    -0.000 C 
BRANCH  12  13
ATOM     13  C   UNL     1      14.234  -6.589   2.900  1.00  0.00    -0.000 C 
BRANCH  13  14
ATOM     14  C   UNL     1      14.917  -5.407   3.605  1.00  0.00    -0.000 C 
BRANCH  14  15
ATOM     15  C   UNL     1      15.957  -5.853   4.647  1.00  0.00    -0.000 C 
BRANCH  15  16
ATOM     16  C   UNL     1      17.068  -6.771   4.102  1.00  0.00    -0.000 C 
BRANCH  16  17
ATOM     17  C   UNL     1      17.546  -7.836   5.111  1.00  0.00    -0.003 C 
ATOM     18  C   UNL     1      17.089  -9.246   4.736  1.00  0.00     0.004 C 
ENDBRANCH  16  17
ENDBRANCH  15  16
ENDBRANCH  14  15
ENDBRANCH  13  14
ENDBRANCH  12  13
ENDBRANCH  11  12
ENDBRANCH   1  11
TORSDOF 14
ENDMDL
