MODEL 1
REMARK VINA RESULT:    -7.407      0.000      0.000
REMARK INTER + INTRA:         -12.129
REMARK INTER:                 -10.222
REMARK INTRA:                  -1.908
REMARK UNBOUND:                -1.908
REMARK SMILES CC[C@@H](CC[C@H](C)[C@@H]1CC[C@H]2C3=CC[C@@H]4C[C@@H](O)CC[C@@]4(C)[C@@H]3CC[C@]21C)C(C)C
REMARK SMILES IDX 5 1 4 2 3 3 2 4 1 5 28 6 29 7 30 8 6 9 7 10 8 11 9 12 26 13
REMARK SMILES IDX 10 14 11 15 25 16 27 17 12 18 24 19 23 20 13 21 21 22 14 23
REMARK SMILES IDX 15 24 20 25 22 26 16 27 19 28 17 29 18 30
REMARK H PARENT 18 31
REMARK Flexibility Score: inf
ROOT
ATOM      1  C   UNL     1     181.419 174.920 179.793  1.00  0.00     0.004 C 
ENDROOT
BRANCH   1   2
ATOM      2  C   UNL     1     182.700 174.154 179.391  1.00  0.00     0.004 C 
BRANCH   2   3
ATOM      3  C   UNL     1     183.174 173.028 180.362  1.00  0.00    -0.009 C 
BRANCH   3   4
ATOM      4  C   UNL     1     182.008 172.411 181.179  1.00  0.00     0.000 C 
ATOM      5  C   UNL     1     181.369 171.198 180.505  1.00  0.00     0.004 C 
ENDBRANCH   3   4
BRANCH   3   6
ATOM      6  C   UNL     1     184.407 173.427 181.246  1.00  0.00    -0.014 C 
ATOM      7  C   UNL     1     184.098 173.522 182.746  1.00  0.00     0.007 C 
ATOM      8  C   UNL     1     185.071 174.734 180.771  1.00  0.00     0.007 C 
ENDBRANCH   3   6
ENDBRANCH   2   3
ENDBRANCH   1   2
BRANCH   1   9
ATOM      9  C   UNL     1     181.703 176.448 179.983  1.00  0.00    -0.011 C 
ATOM     10  C   UNL     1     182.774 176.890 178.957  1.00  0.00     0.008 C 
BRANCH   9  11
ATOM     11  C   UNL     1     182.091 176.795 181.473  1.00  0.00    -0.002 C 
ATOM     12  C   UNL     1     181.453 175.790 182.456  1.00  0.00     0.005 C 
ATOM     13  C   UNL     1     181.750 178.234 182.052  1.00  0.00    -0.023 C 
ATOM     14  C   UNL     1     181.216 176.509 183.765  1.00  0.00     0.009 C 
ATOM     15  C   UNL     1     180.999 177.969 183.398  1.00  0.00     0.021 C 
ATOM     16  C   UNL     1     183.073 179.051 182.270  1.00  0.00     0.008 C 
ATOM     17  C   UNL     1     180.820 179.099 181.161  1.00  0.00     0.012 C 
ATOM     18  C   UNL     1     181.447 178.886 184.526  1.00  0.00    -0.067 C 
ATOM     19  C   UNL     1     183.801 178.681 183.575  1.00  0.00     0.009 C 
ATOM     20  C   UNL     1     182.941 178.961 184.846  1.00  0.00     0.021 C 
ATOM     21  C   UNL     1     180.532 179.442 185.337  1.00  0.00    -0.027 C 
ATOM     22  C   UNL     1     183.339 180.255 185.637  1.00  0.00    -0.023 C 
ATOM     23  C   UNL     1     180.879 180.470 186.380  1.00  0.00     0.031 C 
ATOM     24  C   UNL     1     182.345 180.382 186.837  1.00  0.00     0.002 C 
ATOM     25  C   UNL     1     184.813 180.121 186.184  1.00  0.00     0.010 C 
ATOM     26  C   UNL     1     183.249 181.506 184.710  1.00  0.00     0.012 C 
ATOM     27  C   UNL     1     182.693 181.563 187.775  1.00  0.00     0.036 C 
ATOM     28  C   UNL     1     184.985 180.413 187.684  1.00  0.00     0.032 C 
ATOM     29  C   UNL     1     184.201 181.662 188.115  1.00  0.00     0.114 C 
BRANCH  29  30
ATOM     30  O   UNL     1     184.354 181.847 189.507  1.00  0.00    -0.393 OA
ATOM     31  H   UNL     1     184.030 181.025 189.962  1.00  0.00     0.210 HD
ENDBRANCH  29  30
ENDBRANCH   9  11
ENDBRANCH   1   9
TORSDOF 7
ENDMDL
MODEL 2
REMARK VINA RESULT:    -6.970      3.648      8.355
REMARK INTER + INTRA:         -11.526
REMARK INTER:                  -9.739
REMARK INTRA:                  -1.787
REMARK UNBOUND:                -1.908
REMARK SMILES CC[C@@H](CC[C@H](C)[C@@H]1CC[C@H]2C3=CC[C@@H]4C[C@@H](O)CC[C@@]4(C)[C@@H]3CC[C@]21C)C(C)C
REMARK SMILES IDX 5 1 4 2 3 3 2 4 1 5 28 6 29 7 30 8 6 9 7 10 8 11 9 12 26 13
REMARK SMILES IDX 10 14 11 15 25 16 27 17 12 18 24 19 23 20 13 21 21 22 14 23
REMARK SMILES IDX 15 24 20 25 22 26 16 27 19 28 17 29 18 30
REMARK H PARENT 18 31
REMARK Flexibility Score: inf
ROOT
ATOM      1  C   UNL     1     181.127 182.616 184.566  1.00  0.00     0.004 C 
ENDROOT
BRANCH   1   2
ATOM      2  C   UNL     1     181.213 183.755 183.524  1.00  0.00     0.004 C 
BRANCH   2   3
ATOM      3  C   UNL     1     180.360 183.580 182.228  1.00  0.00    -0.009 C 
BRANCH   3   4
ATOM      4  C   UNL     1     179.030 182.823 182.482  1.00  0.00     0.000 C 
ATOM      5  C   UNL     1     177.826 183.749 182.647  1.00  0.00     0.004 C 
ENDBRANCH   3   4
BRANCH   3   6
ATOM      6  C   UNL     1     181.168 183.019 181.005  1.00  0.00    -0.014 C 
ATOM      7  C   UNL     1     181.402 184.043 179.887  1.00  0.00     0.007 C 
ATOM      8  C   UNL     1     180.531 181.746 180.416  1.00  0.00     0.007 C 
ENDBRANCH   3   6
ENDBRANCH   2   3
ENDBRANCH   1   2
BRANCH   1   9
ATOM      9  C   UNL     1     182.225 181.529 184.316  1.00  0.00    -0.011 C 
ATOM     10  C   UNL     1     183.450 182.198 183.647  1.00  0.00     0.008 C 
BRANCH   9  11
ATOM     11  C   UNL     1     181.665 180.301 183.495  1.00  0.00    -0.002 C 
ATOM     12  C   UNL     1     180.312 179.829 184.068  1.00  0.00     0.005 C 
ATOM     13  C   UNL     1     182.549 178.990 183.353  1.00  0.00    -0.023 C 
ATOM     14  C   UNL     1     180.188 178.346 183.802  1.00  0.00     0.009 C 
ATOM     15  C   UNL     1     181.613 177.813 183.777  1.00  0.00     0.021 C 
ATOM     16  C   UNL     1     183.047 178.838 181.872  1.00  0.00     0.008 C 
ATOM     17  C   UNL     1     183.805 178.940 184.264  1.00  0.00     0.012 C 
ATOM     18  C   UNL     1     181.724 176.599 182.868  1.00  0.00    -0.067 C 
ATOM     19  C   UNL     1     181.981 178.240 180.937  1.00  0.00     0.009 C 
ATOM     20  C   UNL     1     181.542 176.804 181.363  1.00  0.00     0.021 C 
ATOM     21  C   UNL     1     181.773 175.368 183.401  1.00  0.00    -0.027 C 
ATOM     22  C   UNL     1     182.157 175.647 180.503  1.00  0.00    -0.023 C 
ATOM     23  C   UNL     1     182.027 174.130 182.584  1.00  0.00     0.031 C 
ATOM     24  C   UNL     1     181.636 174.302 181.106  1.00  0.00     0.002 C 
ATOM     25  C   UNL     1     181.676 175.774 179.005  1.00  0.00     0.010 C 
ATOM     26  C   UNL     1     183.714 175.706 180.547  1.00  0.00     0.012 C 
ATOM     27  C   UNL     1     182.076 173.069 180.281  1.00  0.00     0.036 C 
ATOM     28  C   UNL     1     181.073 174.496 178.399  1.00  0.00     0.032 C 
ATOM     29  C   UNL     1     181.902 173.251 178.753  1.00  0.00     0.114 C 
BRANCH  29  30
ATOM     30  O   UNL     1     181.273 172.107 178.215  1.00  0.00    -0.393 OA
ATOM     31  H   UNL     1     181.814 171.314 178.469  1.00  0.00     0.210 HD
ENDBRANCH  29  30
ENDBRANCH   9  11
ENDBRANCH   1   9
TORSDOF 7
ENDMDL
MODEL 3
REMARK VINA RESULT:    -6.965      3.442      8.349
REMARK INTER + INTRA:         -11.519
REMARK INTER:                  -9.266
REMARK INTRA:                  -2.252
REMARK UNBOUND:                -1.908
REMARK SMILES CC[C@@H](CC[C@H](C)[C@@H]1CC[C@H]2C3=CC[C@@H]4C[C@@H](O)CC[C@@]4(C)[C@@H]3CC[C@]21C)C(C)C
REMARK SMILES IDX 5 1 4 2 3 3 2 4 1 5 28 6 29 7 30 8 6 9 7 10 8 11 9 12 26 13
REMARK SMILES IDX 10 14 11 15 25 16 27 17 12 18 24 19 23 20 13 21 21 22 14 23
REMARK SMILES IDX 15 24 20 25 22 26 16 27 19 28 17 29 18 30
REMARK H PARENT 18 31
REMARK Flexibility Score: inf
ROOT
ATOM      1  C   UNL     1     181.711 181.389 185.060  1.00  0.00     0.004 C 
ENDROOT
BRANCH   1   2
ATOM      2  C   UNL     1     180.296 181.922 184.734  1.00  0.00     0.004 C 
BRANCH   2   3
ATOM      3  C   UNL     1     180.082 182.497 183.300  1.00  0.00    -0.009 C 
BRANCH   3   4
ATOM      4  C   UNL     1     178.606 182.402 182.829  1.00  0.00     0.000 C 
ATOM      5  C   UNL     1     177.925 183.762 182.688  1.00  0.00     0.004 C 
ENDBRANCH   3   4
BRANCH   3   6
ATOM      6  C   UNL     1     181.106 181.961 182.238  1.00  0.00    -0.014 C 
ATOM      7  C   UNL     1     182.188 182.975 181.845  1.00  0.00     0.007 C 
ATOM      8  C   UNL     1     180.411 181.428 180.970  1.00  0.00     0.007 C 
ENDBRANCH   3   6
ENDBRANCH   2   3
ENDBRANCH   1   2
BRANCH   1   9
ATOM      9  C   UNL     1     181.660 179.912 185.578  1.00  0.00    -0.011 C 
ATOM     10  C   UNL     1     182.319 179.847 186.976  1.00  0.00     0.008 C 
BRANCH   9  11
ATOM     11  C   UNL     1     182.297 178.902 184.545  1.00  0.00    -0.002 C 
ATOM     12  C   UNL     1     183.367 179.603 183.680  1.00  0.00     0.005 C 
ATOM     13  C   UNL     1     181.356 178.136 183.522  1.00  0.00    -0.023 C 
ATOM     14  C   UNL     1     183.401 178.912 182.336  1.00  0.00     0.009 C 
ATOM     15  C   UNL     1     181.995 178.373 182.115  1.00  0.00     0.021 C 
ATOM     16  C   UNL     1     181.295 176.610 183.889  1.00  0.00     0.008 C 
ATOM     17  C   UNL     1     179.892 178.649 183.461  1.00  0.00     0.012 C 
ATOM     18  C   UNL     1     182.022 177.122 181.249  1.00  0.00    -0.067 C 
ATOM     19  C   UNL     1     182.515 175.821 183.382  1.00  0.00     0.009 C 
ATOM     20  C   UNL     1     182.653 175.855 181.828  1.00  0.00     0.021 C 
ATOM     21  C   UNL     1     181.687 177.203 179.951  1.00  0.00    -0.027 C 
ATOM     22  C   UNL     1     182.192 174.547 181.098  1.00  0.00    -0.023 C 
ATOM     23  C   UNL     1     181.548 175.995 179.065  1.00  0.00     0.031 C 
ATOM     24  C   UNL     1     182.367 174.793 179.564  1.00  0.00     0.002 C 
ATOM     25  C   UNL     1     183.098 173.334 181.544  1.00  0.00     0.010 C 
ATOM     26  C   UNL     1     180.705 174.229 181.441  1.00  0.00     0.012 C 
ATOM     27  C   UNL     1     182.054 173.534 178.720  1.00  0.00     0.036 C 
ATOM     28  C   UNL     1     183.708 172.513 180.395  1.00  0.00     0.032 C 
ATOM     29  C   UNL     1     182.682 172.236 179.285  1.00  0.00     0.114 C 
BRANCH  29  30
ATOM     30  O   UNL     1     183.313 171.528 178.238  1.00  0.00    -0.393 OA
ATOM     31  H   UNL     1     183.465 170.597 178.549  1.00  0.00     0.210 HD
ENDBRANCH  29  30
ENDBRANCH   9  11
ENDBRANCH   1   9
TORSDOF 7
ENDMDL
MODEL 4
REMARK VINA RESULT:    -6.923      1.912      2.954
REMARK INTER + INTRA:         -11.461
REMARK INTER:                 -10.319
REMARK INTRA:                  -1.142
REMARK UNBOUND:                -1.908
REMARK SMILES CC[C@@H](CC[C@H](C)[C@@H]1CC[C@H]2C3=CC[C@@H]4C[C@@H](O)CC[C@@]4(C)[C@@H]3CC[C@]21C)C(C)C
REMARK SMILES IDX 5 1 4 2 3 3 2 4 1 5 28 6 29 7 30 8 6 9 7 10 8 11 9 12 26 13
REMARK SMILES IDX 10 14 11 15 25 16 27 17 12 18 24 19 23 20 13 21 21 22 14 23
REMARK SMILES IDX 15 24 20 25 22 26 16 27 19 28 17 29 18 30
REMARK H PARENT 18 31
REMARK Flexibility Score: inf
ROOT
ATOM      1  C   UNL     1     181.413 174.883 179.527  1.00  0.00     0.004 C 
ENDROOT
BRANCH   1   2
ATOM      2  C   UNL     1     181.466 174.488 178.033  1.00  0.00     0.004 C 
BRANCH   2   3
ATOM      3  C   UNL     1     180.114 174.520 177.255  1.00  0.00    -0.009 C 
BRANCH   3   4
ATOM      4  C   UNL     1     179.953 173.324 176.281  1.00  0.00     0.000 C 
ATOM      5  C   UNL     1     178.785 172.404 176.636  1.00  0.00     0.004 C 
ENDBRANCH   3   4
BRANCH   3   6
ATOM      6  C   UNL     1     179.795 175.907 176.592  1.00  0.00    -0.014 C 
ATOM      7  C   UNL     1     178.311 176.115 176.260  1.00  0.00     0.007 C 
ATOM      8  C   UNL     1     180.647 176.165 175.334  1.00  0.00     0.007 C 
ENDBRANCH   3   6
ENDBRANCH   2   3
ENDBRANCH   1   2
BRANCH   1   9
ATOM      9  C   UNL     1     181.718 176.406 179.726  1.00  0.00    -0.011 C 
ATOM     10  C   UNL     1     182.812 176.834 178.719  1.00  0.00     0.008 C 
BRANCH   9  11
ATOM     11  C   UNL     1     182.088 176.744 181.223  1.00  0.00    -0.002 C 
ATOM     12  C   UNL     1     181.539 175.666 182.182  1.00  0.00     0.005 C 
ATOM     13  C   UNL     1     181.638 178.135 181.842  1.00  0.00    -0.023 C 
ATOM     14  C   UNL     1     181.254 176.329 183.510  1.00  0.00     0.009 C 
ATOM     15  C   UNL     1     180.919 177.776 183.184  1.00  0.00     0.021 C 
ATOM     16  C   UNL     1     182.893 179.049 182.076  1.00  0.00     0.008 C 
ATOM     17  C   UNL     1     180.636 178.947 180.979  1.00  0.00     0.012 C 
ATOM     18  C   UNL     1     181.301 178.696 184.334  1.00  0.00    -0.067 C 
ATOM     19  C   UNL     1     183.657 178.703 183.366  1.00  0.00     0.009 C 
ATOM     20  C   UNL     1     182.786 178.881 184.649  1.00  0.00     0.021 C 
ATOM     21  C   UNL     1     180.350 179.155 185.164  1.00  0.00    -0.027 C 
ATOM     22  C   UNL     1     183.085 180.181 185.472  1.00  0.00    -0.023 C 
ATOM     23  C   UNL     1     180.622 180.180 186.233  1.00  0.00     0.031 C 
ATOM     24  C   UNL     1     182.093 180.197 186.680  1.00  0.00     0.002 C 
ATOM     25  C   UNL     1     184.569 180.150 186.008  1.00  0.00     0.010 C 
ATOM     26  C   UNL     1     182.890 181.445 184.580  1.00  0.00     0.012 C 
ATOM     27  C   UNL     1     182.352 181.376 187.648  1.00  0.00     0.036 C 
ATOM     28  C   UNL     1     184.728 180.415 187.515  1.00  0.00     0.032 C 
ATOM     29  C   UNL     1     183.850 181.585 187.984  1.00  0.00     0.114 C 
BRANCH  29  30
ATOM     30  O   UNL     1     183.998 181.746 189.379  1.00  0.00    -0.393 OA
ATOM     31  H   UNL     1     183.226 182.276 189.708  1.00  0.00     0.210 HD
ENDBRANCH  29  30
ENDBRANCH   9  11
ENDBRANCH   1   9
TORSDOF 7
ENDMDL
MODEL 5
REMARK VINA RESULT:    -6.919      1.137      1.676
REMARK INTER + INTRA:         -11.456
REMARK INTER:                  -9.909
REMARK INTRA:                  -1.547
REMARK UNBOUND:                -1.908
REMARK SMILES CC[C@@H](CC[C@H](C)[C@@H]1CC[C@H]2C3=CC[C@@H]4C[C@@H](O)CC[C@@]4(C)[C@@H]3CC[C@]21C)C(C)C
REMARK SMILES IDX 5 1 4 2 3 3 2 4 1 5 28 6 29 7 30 8 6 9 7 10 8 11 9 12 26 13
REMARK SMILES IDX 10 14 11 15 25 16 27 17 12 18 24 19 23 20 13 21 21 22 14 23
REMARK SMILES IDX 15 24 20 25 22 26 16 27 19 28 17 29 18 30
REMARK H PARENT 18 31
REMARK Flexibility Score: inf
ROOT
ATOM      1  C   UNL     1     181.099 175.105 179.387  1.00  0.00     0.004 C 
ENDROOT
BRANCH   1   2
ATOM      2  C   UNL     1     181.524 174.257 178.165  1.00  0.00     0.004 C 
BRANCH   2   3
ATOM      3  C   UNL     1     181.903 172.770 178.447  1.00  0.00    -0.009 C 
BRANCH   3   4
ATOM      4  C   UNL     1     180.957 171.765 177.738  1.00  0.00     0.000 C 
ATOM      5  C   UNL     1     179.755 172.430 177.069  1.00  0.00     0.004 C 
ENDBRANCH   3   4
BRANCH   3   6
ATOM      6  C   UNL     1     182.125 172.445 179.966  1.00  0.00    -0.014 C 
ATOM      7  C   UNL     1     183.584 172.562 180.424  1.00  0.00     0.007 C 
ATOM      8  C   UNL     1     181.568 171.062 180.358  1.00  0.00     0.007 C 
ENDBRANCH   3   6
ENDBRANCH   2   3
ENDBRANCH   1   2
BRANCH   1   9
ATOM      9  C   UNL     1     182.001 176.375 179.542  1.00  0.00    -0.011 C 
ATOM     10  C   UNL     1     183.265 176.202 178.667  1.00  0.00     0.008 C 
BRANCH   9  11
ATOM     11  C   UNL     1     182.331 176.684 181.055  1.00  0.00    -0.002 C 
ATOM     12  C   UNL     1     181.819 175.553 181.971  1.00  0.00     0.005 C 
ATOM     13  C   UNL     1     181.805 178.033 181.707  1.00  0.00    -0.023 C 
ATOM     14  C   UNL     1     181.483 176.160 183.314  1.00  0.00     0.009 C 
ATOM     15  C   UNL     1     181.084 177.600 183.025  1.00  0.00     0.021 C 
ATOM     16  C   UNL     1     183.012 178.998 181.989  1.00  0.00     0.008 C 
ATOM     17  C   UNL     1     180.779 178.823 180.852  1.00  0.00     0.012 C 
ATOM     18  C   UNL     1     181.404 178.501 184.208  1.00  0.00    -0.067 C 
ATOM     19  C   UNL     1     183.771 178.650 183.281  1.00  0.00     0.009 C 
ATOM     20  C   UNL     1     182.873 178.747 184.553  1.00  0.00     0.021 C 
ATOM     21  C   UNL     1     180.420 178.890 185.035  1.00  0.00    -0.027 C 
ATOM     22  C   UNL     1     183.097 180.034 185.420  1.00  0.00    -0.023 C 
ATOM     23  C   UNL     1     180.625 179.893 186.138  1.00  0.00     0.031 C 
ATOM     24  C   UNL     1     182.087 179.966 186.611  1.00  0.00     0.002 C 
ATOM     25  C   UNL     1     184.573 180.057 185.980  1.00  0.00     0.010 C 
ATOM     26  C   UNL     1     182.855 181.313 184.562  1.00  0.00     0.012 C 
ATOM     27  C   UNL     1     182.274 181.126 187.618  1.00  0.00     0.036 C 
ATOM     28  C   UNL     1     184.695 180.283 187.496  1.00  0.00     0.032 C 
ATOM     29  C   UNL     1     183.755 181.396 187.984  1.00  0.00     0.114 C 
BRANCH  29  30
ATOM     30  O   UNL     1     183.874 181.520 189.386  1.00  0.00    -0.393 OA
ATOM     31  H   UNL     1     184.765 181.169 189.649  1.00  0.00     0.210 HD
ENDBRANCH  29  30
ENDBRANCH   9  11
ENDBRANCH   1   9
TORSDOF 7
ENDMDL
MODEL 6
REMARK VINA RESULT:    -6.909      3.115      8.034
REMARK INTER + INTRA:         -11.441
REMARK INTER:                  -9.433
REMARK INTRA:                  -2.008
REMARK UNBOUND:                -1.908
REMARK SMILES CC[C@@H](CC[C@H](C)[C@@H]1CC[C@H]2C3=CC[C@@H]4C[C@@H](O)CC[C@@]4(C)[C@@H]3CC[C@]21C)C(C)C
REMARK SMILES IDX 5 1 4 2 3 3 2 4 1 5 28 6 29 7 30 8 6 9 7 10 8 11 9 12 26 13
REMARK SMILES IDX 10 14 11 15 25 16 27 17 12 18 24 19 23 20 13 21 21 22 14 23
REMARK SMILES IDX 15 24 20 25 22 26 16 27 19 28 17 29 18 30
REMARK H PARENT 18 31
REMARK Flexibility Score: inf
ROOT
ATOM      1  C   UNL     1     182.028 182.217 184.047  1.00  0.00     0.004 C 
ENDROOT
BRANCH   1   2
ATOM      2  C   UNL     1     182.661 181.965 185.436  1.00  0.00     0.004 C 
BRANCH   2   3
ATOM      3  C   UNL     1     182.197 180.680 186.190  1.00  0.00    -0.009 C 
BRANCH   3   4
ATOM      4  C   UNL     1     180.896 180.900 187.007  1.00  0.00     0.000 C 
ATOM      5  C   UNL     1     179.633 180.465 186.266  1.00  0.00     0.004 C 
ENDBRANCH   3   4
BRANCH   3   6
ATOM      6  C   UNL     1     183.335 179.980 187.014  1.00  0.00    -0.014 C 
ATOM      7  C   UNL     1     183.072 179.928 188.525  1.00  0.00     0.007 C 
ATOM      8  C   UNL     1     184.719 180.605 186.751  1.00  0.00     0.007 C 
ENDBRANCH   3   6
ENDBRANCH   2   3
ENDBRANCH   1   2
BRANCH   1   9
ATOM      9  C   UNL     1     182.873 181.557 182.906  1.00  0.00    -0.011 C 
ATOM     10  C   UNL     1     183.143 182.613 181.808  1.00  0.00     0.008 C 
BRANCH   9  11
ATOM     11  C   UNL     1     182.193 180.245 182.350  1.00  0.00    -0.002 C 
ATOM     12  C   UNL     1     180.786 180.056 182.957  1.00  0.00     0.005 C 
ATOM     13  C   UNL     1     182.927 178.849 182.533  1.00  0.00    -0.023 C 
ATOM     14  C   UNL     1     180.502 178.573 183.014  1.00  0.00     0.009 C 
ATOM     15  C   UNL     1     181.858 177.900 183.165  1.00  0.00     0.021 C 
ATOM     16  C   UNL     1     183.430 178.322 181.142  1.00  0.00     0.008 C 
ATOM     17  C   UNL     1     184.153 178.869 183.483  1.00  0.00     0.012 C 
ATOM     18  C   UNL     1     181.848 176.510 182.546  1.00  0.00    -0.067 C 
ATOM     19  C   UNL     1     182.319 177.649 180.317  1.00  0.00     0.009 C 
ATOM     20  C   UNL     1     181.715 176.397 181.027  1.00  0.00     0.021 C 
ATOM     21  C   UNL     1     181.750 175.429 183.337  1.00  0.00    -0.027 C 
ATOM     22  C   UNL     1     182.211 175.019 180.465  1.00  0.00    -0.023 C 
ATOM     23  C   UNL     1     181.878 174.022 182.819  1.00  0.00     0.031 C 
ATOM     24  C   UNL     1     181.532 173.903 181.325  1.00  0.00     0.002 C 
ATOM     25  C   UNL     1     181.772 174.863 178.957  1.00  0.00     0.010 C 
ATOM     26  C   UNL     1     183.764 174.923 180.559  1.00  0.00     0.012 C 
ATOM     27  C   UNL     1     181.846 172.480 180.807  1.00  0.00     0.036 C 
ATOM     28  C   UNL     1     181.040 173.553 178.619  1.00  0.00     0.032 C 
ATOM     29  C   UNL     1     181.719 172.337 179.269  1.00  0.00     0.114 C 
BRANCH  29  30
ATOM     30  O   UNL     1     180.975 171.176 178.968  1.00  0.00    -0.393 OA
ATOM     31  H   UNL     1     180.783 170.706 179.822  1.00  0.00     0.210 HD
ENDBRANCH  29  30
ENDBRANCH   9  11
ENDBRANCH   1   9
TORSDOF 7
ENDMDL
MODEL 7
REMARK VINA RESULT:    -6.898      5.029      7.328
REMARK INTER + INTRA:         -11.427
REMARK INTER:                  -9.420
REMARK INTRA:                  -2.007
REMARK UNBOUND:                -1.908
REMARK SMILES CC[C@@H](CC[C@H](C)[C@@H]1CC[C@H]2C3=CC[C@@H]4C[C@@H](O)CC[C@@]4(C)[C@@H]3CC[C@]21C)C(C)C
REMARK SMILES IDX 5 1 4 2 3 3 2 4 1 5 28 6 29 7 30 8 6 9 7 10 8 11 9 12 26 13
REMARK SMILES IDX 10 14 11 15 25 16 27 17 12 18 24 19 23 20 13 21 21 22 14 23
REMARK SMILES IDX 15 24 20 25 22 26 16 27 19 28 17 29 18 30
REMARK H PARENT 18 31
REMARK Flexibility Score: inf
ROOT
ATOM      1  C   UNL     1     179.761 179.126 184.536  1.00  0.00     0.004 C 
ENDROOT
BRANCH   1   2
ATOM      2  C   UNL     1     180.696 177.895 184.582  1.00  0.00     0.004 C 
BRANCH   2   3
ATOM      3  C   UNL     1     181.137 177.302 183.207  1.00  0.00    -0.009 C 
BRANCH   3   4
ATOM      4  C   UNL     1     181.688 175.857 183.325  1.00  0.00     0.000 C 
ATOM      5  C   UNL     1     181.249 174.943 182.182  1.00  0.00     0.004 C 
ENDBRANCH   3   4
BRANCH   3   6
ATOM      6  C   UNL     1     182.065 178.253 182.371  1.00  0.00    -0.014 C 
ATOM      7  C   UNL     1     181.601 178.469 180.925  1.00  0.00     0.007 C 
ATOM      8  C   UNL     1     183.536 177.792 182.380  1.00  0.00     0.007 C 
ENDBRANCH   3   6
ENDBRANCH   2   3
ENDBRANCH   1   2
BRANCH   1   9
ATOM      9  C   UNL     1     180.520 180.434 184.942  1.00  0.00    -0.011 C 
ATOM     10  C   UNL     1     180.092 180.838 186.373  1.00  0.00     0.008 C 
BRANCH   9  11
ATOM     11  C   UNL     1     180.313 181.589 183.885  1.00  0.00    -0.002 C 
ATOM     12  C   UNL     1     179.361 181.138 182.757  1.00  0.00     0.005 C 
ATOM     13  C   UNL     1     181.578 182.210 183.152  1.00  0.00    -0.023 C 
ATOM     14  C   UNL     1     179.748 181.880 181.499  1.00  0.00     0.009 C 
ATOM     15  C   UNL     1     181.238 182.157 181.627  1.00  0.00     0.021 C 
ATOM     16  C   UNL     1     181.817 183.680 183.649  1.00  0.00     0.008 C 
ATOM     17  C   UNL     1     182.907 181.436 183.361  1.00  0.00     0.012 C 
ATOM     18  C   UNL     1     181.622 183.427 180.883  1.00  0.00    -0.067 C 
ATOM     19  C   UNL     1     180.896 184.704 182.963  1.00  0.00     0.009 C 
ATOM     20  C   UNL     1     181.105 184.763 181.418  1.00  0.00     0.021 C 
ATOM     21  C   UNL     1     182.220 183.341 179.683  1.00  0.00    -0.027 C 
ATOM     22  C   UNL     1     181.936 185.993 180.913  1.00  0.00    -0.023 C 
ATOM     23  C   UNL     1     182.760 184.539 178.950  1.00  0.00     0.031 C 
ATOM     24  C   UNL     1     182.069 185.850 179.362  1.00  0.00     0.002 C 
ATOM     25  C   UNL     1     181.177 187.333 181.256  1.00  0.00     0.010 C 
ATOM     26  C   UNL     1     183.340 186.013 181.589  1.00  0.00     0.012 C 
ATOM     27  C   UNL     1     182.775 187.064 178.711  1.00  0.00     0.036 C 
ATOM     28  C   UNL     1     180.990 188.302 180.076  1.00  0.00     0.032 C 
ATOM     29  C   UNL     1     182.270 188.430 179.236  1.00  0.00     0.114 C 
BRANCH  29  30
ATOM     30  O   UNL     1     182.021 189.288 178.142  1.00  0.00    -0.393 OA
ATOM     31  H   UNL     1     181.671 190.146 178.501  1.00  0.00     0.210 HD
ENDBRANCH  29  30
ENDBRANCH   9  11
ENDBRANCH   1   9
TORSDOF 7
ENDMDL
MODEL 8
REMARK VINA RESULT:    -6.870      0.775      1.678
REMARK INTER + INTRA:         -11.388
REMARK INTER:                  -9.879
REMARK INTRA:                  -1.509
REMARK UNBOUND:                -1.908
REMARK SMILES CC[C@@H](CC[C@H](C)[C@@H]1CC[C@H]2C3=CC[C@@H]4C[C@@H](O)CC[C@@]4(C)[C@@H]3CC[C@]21C)C(C)C
REMARK SMILES IDX 5 1 4 2 3 3 2 4 1 5 28 6 29 7 30 8 6 9 7 10 8 11 9 12 26 13
REMARK SMILES IDX 10 14 11 15 25 16 27 17 12 18 24 19 23 20 13 21 21 22 14 23
REMARK SMILES IDX 15 24 20 25 22 26 16 27 19 28 17 29 18 30
REMARK H PARENT 18 31
REMARK Flexibility Score: inf
ROOT
ATOM      1  C   UNL     1     181.234 174.879 179.504  1.00  0.00     0.004 C 
ENDROOT
BRANCH   1   2
ATOM      2  C   UNL     1     182.332 173.890 179.047  1.00  0.00     0.004 C 
BRANCH   2   3
ATOM      3  C   UNL     1     182.858 172.888 180.122  1.00  0.00    -0.009 C 
BRANCH   3   4
ATOM      4  C   UNL     1     184.225 173.313 180.720  1.00  0.00     0.000 C 
ATOM      5  C   UNL     1     184.214 173.423 182.244  1.00  0.00     0.004 C 
ENDBRANCH   3   4
BRANCH   3   6
ATOM      6  C   UNL     1     182.822 171.387 179.665  1.00  0.00    -0.014 C 
ATOM      7  C   UNL     1     184.149 170.875 179.089  1.00  0.00     0.007 C 
ATOM      8  C   UNL     1     181.682 171.106 178.666  1.00  0.00     0.007 C 
ENDBRANCH   3   6
ENDBRANCH   2   3
ENDBRANCH   1   2
BRANCH   1   9
ATOM      9  C   UNL     1     181.806 176.327 179.673  1.00  0.00    -0.011 C 
ATOM     10  C   UNL     1     183.034 176.492 178.747  1.00  0.00     0.008 C 
BRANCH   9  11
ATOM     11  C   UNL     1     182.118 176.666 181.183  1.00  0.00    -0.002 C 
ATOM     12  C   UNL     1     181.453 175.640 182.126  1.00  0.00     0.005 C 
ATOM     13  C   UNL     1     181.724 178.093 181.759  1.00  0.00    -0.023 C 
ATOM     14  C   UNL     1     181.142 176.341 183.428  1.00  0.00     0.009 C 
ATOM     15  C   UNL     1     180.916 177.801 183.065  1.00  0.00     0.021 C 
ATOM     16  C   UNL     1     183.020 178.931 182.046  1.00  0.00     0.008 C 
ATOM     17  C   UNL     1     180.821 178.950 180.833  1.00  0.00     0.012 C 
ATOM     18  C   UNL     1     181.294 178.715 184.221  1.00  0.00    -0.067 C 
ATOM     19  C   UNL     1     183.693 178.561 183.379  1.00  0.00     0.009 C 
ATOM     20  C   UNL     1     182.769 178.813 184.612  1.00  0.00     0.021 C 
ATOM     21  C   UNL     1     180.332 179.246 184.993  1.00  0.00    -0.027 C 
ATOM     22  C   UNL     1     183.106 180.106 185.432  1.00  0.00    -0.023 C 
ATOM     23  C   UNL     1     180.611 180.269 186.061  1.00  0.00     0.031 C 
ATOM     24  C   UNL     1     182.055 180.203 186.586  1.00  0.00     0.002 C 
ATOM     25  C   UNL     1     184.555 179.993 186.046  1.00  0.00     0.010 C 
ATOM     26  C   UNL     1     183.036 181.364 184.514  1.00  0.00     0.012 C 
ATOM     27  C   UNL     1     182.337 181.380 187.550  1.00  0.00     0.036 C 
ATOM     28  C   UNL     1     184.652 180.272 187.555  1.00  0.00     0.032 C 
ATOM     29  C   UNL     1     183.825 181.503 187.961  1.00  0.00     0.114 C 
BRANCH  29  30
ATOM     30  O   UNL     1     183.910 181.677 189.360  1.00  0.00    -0.393 OA
ATOM     31  H   UNL     1     183.375 182.478 189.601  1.00  0.00     0.210 HD
ENDBRANCH  29  30
ENDBRANCH   9  11
ENDBRANCH   1   9
TORSDOF 7
ENDMDL
MODEL 9
REMARK VINA RESULT:    -6.753      1.953      3.810
REMARK INTER + INTRA:         -11.227
REMARK INTER:                  -9.020
REMARK INTRA:                  -2.208
REMARK UNBOUND:                -1.908
REMARK SMILES CC[C@@H](CC[C@H](C)[C@@H]1CC[C@H]2C3=CC[C@@H]4C[C@@H](O)CC[C@@]4(C)[C@@H]3CC[C@]21C)C(C)C
REMARK SMILES IDX 5 1 4 2 3 3 2 4 1 5 28 6 29 7 30 8 6 9 7 10 8 11 9 12 26 13
REMARK SMILES IDX 10 14 11 15 25 16 27 17 12 18 24 19 23 20 13 21 21 22 14 23
REMARK SMILES IDX 15 24 20 25 22 26 16 27 19 28 17 29 18 30
REMARK H PARENT 18 31
REMARK Flexibility Score: inf
ROOT
ATOM      1  C   UNL     1     185.136 171.914 179.417  1.00  0.00     0.004 C 
ENDROOT
BRANCH   1   2
ATOM      2  C   UNL     1     184.142 170.875 178.846  1.00  0.00     0.004 C 
BRANCH   2   3
ATOM      3  C   UNL     1     182.715 171.397 178.493  1.00  0.00    -0.009 C 
BRANCH   3   4
ATOM      4  C   UNL     1     181.627 170.875 179.469  1.00  0.00     0.000 C 
ATOM      5  C   UNL     1     181.510 171.703 180.748  1.00  0.00     0.004 C 
ENDBRANCH   3   4
BRANCH   3   6
ATOM      6  C   UNL     1     182.328 171.221 176.983  1.00  0.00    -0.014 C 
ATOM      7  C   UNL     1     182.694 172.420 176.099  1.00  0.00     0.007 C 
ATOM      8  C   UNL     1     180.837 170.876 176.796  1.00  0.00     0.007 C 
ENDBRANCH   3   6
ENDBRANCH   2   3
ENDBRANCH   1   2
BRANCH   1   9
ATOM      9  C   UNL     1     184.663 173.377 179.124  1.00  0.00    -0.011 C 
ATOM     10  C   UNL     1     185.596 174.002 178.060  1.00  0.00     0.008 C 
BRANCH   9  11
ATOM     11  C   UNL     1     184.562 174.240 180.443  1.00  0.00    -0.002 C 
ATOM     12  C   UNL     1     184.502 173.332 181.690  1.00  0.00     0.005 C 
ATOM     13  C   UNL     1     183.367 175.272 180.609  1.00  0.00    -0.023 C 
ATOM     14  C   UNL     1     183.709 174.057 182.753  1.00  0.00     0.009 C 
ATOM     15  C   UNL     1     182.733 174.949 182.001  1.00  0.00     0.021 C 
ATOM     16  C   UNL     1     183.915 176.742 180.541  1.00  0.00     0.008 C 
ATOM     17  C   UNL     1     182.242 175.155 179.546  1.00  0.00     0.012 C 
ATOM     18  C   UNL     1     182.397 176.193 182.810  1.00  0.00    -0.067 C 
ATOM     19  C   UNL     1     184.531 177.216 181.870  1.00  0.00     0.009 C 
ATOM     20  C   UNL     1     183.501 177.225 183.042  1.00  0.00     0.021 C 
ATOM     21  C   UNL     1     181.227 176.265 183.466  1.00  0.00    -0.027 C 
ATOM     22  C   UNL     1     182.951 178.642 183.424  1.00  0.00    -0.023 C 
ATOM     23  C   UNL     1     180.757 177.512 184.167  1.00  0.00     0.031 C 
ATOM     24  C   UNL     1     181.915 178.437 184.577  1.00  0.00     0.002 C 
ATOM     25  C   UNL     1     184.131 179.559 183.933  1.00  0.00     0.010 C 
ATOM     26  C   UNL     1     182.278 179.314 182.189  1.00  0.00     0.012 C 
ATOM     27  C   UNL     1     181.371 179.774 185.134  1.00  0.00     0.036 C 
ATOM     28  C   UNL     1     183.888 180.251 185.284  1.00  0.00     0.032 C 
ATOM     29  C   UNL     1     182.471 180.837 185.378  1.00  0.00     0.114 C 
BRANCH  29  30
ATOM     30  O   UNL     1     182.290 181.411 186.656  1.00  0.00    -0.393 OA
ATOM     31  H   UNL     1     181.317 181.562 186.787  1.00  0.00     0.210 HD
ENDBRANCH  29  30
ENDBRANCH   9  11
ENDBRANCH   1   9
TORSDOF 7
ENDMDL
