MODEL 1
REMARK VINA RESULT:    -8.171      0.000      0.000
REMARK INTER + INTRA:          -9.871
REMARK INTER:                  -9.604
REMARK INTRA:                  -0.267
REMARK UNBOUND:                -0.267
REMARK SMILES O=c1c(O)c(-c2ccc(O)cc2)oc2cc(O)cc(O)c12
REMARK SMILES IDX 5 1 3 2 2 3 1 4 21 5 19 6 18 7 16 8 15 9 14 10 13 11 6 12
REMARK SMILES IDX 7 13 8 14 9 15 12 16 11 17 10 18 4 20 20 22 17 24
REMARK H PARENT 10 19 4 21 20 23 17 25
REMARK Flexibility Score: inf
ROOT
ATOM      1  C   UNL     1     -31.360  16.966  57.175  1.00  0.00     0.180 A 
ATOM      2  C   UNL     1     -30.078  16.418  57.002  1.00  0.00     0.208 A 
ATOM      3  C   UNL     1     -28.961  17.267  57.049  1.00  0.00     0.238 A 
ATOM      4  O   UNL     1     -27.812  16.763  56.949  1.00  0.00    -0.285 OA
ATOM      5  C   UNL     1     -29.141  18.658  57.252  1.00  0.00     0.111 A 
ATOM      6  C   UNL     1     -28.085  19.616  57.278  1.00  0.00     0.134 A 
ATOM      7  C   UNL     1     -28.366  20.945  57.616  1.00  0.00     0.093 A 
ATOM      8  C   UNL     1     -29.672  21.363  57.865  1.00  0.00     0.123 A 
ATOM      9  C   UNL     1     -30.721  20.447  57.785  1.00  0.00     0.094 A 
ATOM     10  C   UNL     1     -30.468  19.106  57.485  1.00  0.00     0.146 A 
ATOM     11  O   UNL     1     -31.492  18.264  57.428  1.00  0.00    -0.452 OA
ENDROOT
BRANCH   1  12
ATOM     12  C   UNL     1     -32.587  16.140  57.113  1.00  0.00     0.021 A 
ATOM     13  C   UNL     1     -33.302  16.051  55.908  1.00  0.00     0.016 A 
ATOM     14  C   UNL     1     -34.450  15.260  55.822  1.00  0.00     0.047 A 
ATOM     15  C   UNL     1     -34.890  14.533  56.935  1.00  0.00     0.115 A 
ATOM     16  C   UNL     1     -33.023  15.391  58.223  1.00  0.00     0.016 A 
ATOM     17  C   UNL     1     -34.172  14.599  58.133  1.00  0.00     0.047 A 
BRANCH  15  18
ATOM     18  O   UNL     1     -36.033  13.740  56.861  1.00  0.00    -0.508 OA
ATOM     19  H   UNL     1     -36.528  13.605  55.987  1.00  0.00     0.293 HD
ENDBRANCH  15  18
ENDBRANCH   1  12
BRANCH   2  20
ATOM     20  O   UNL     1     -29.921  15.040  56.826  1.00  0.00    -0.502 OA
ATOM     21  H   UNL     1     -30.698  14.427  56.609  1.00  0.00     0.293 HD
ENDBRANCH   2  20
BRANCH   6  22
ATOM     22  O   UNL     1     -26.756  19.322  56.954  1.00  0.00    -0.507 OA
ATOM     23  H   UNL     1     -25.969  19.916  57.167  1.00  0.00     0.293 HD
ENDBRANCH   6  22
BRANCH   8  24
ATOM     24  O   UNL     1     -29.918  22.698  58.183  1.00  0.00    -0.508 OA
ATOM     25  H   UNL     1     -29.573  23.453  57.602  1.00  0.00     0.293 HD
ENDBRANCH   8  24
TORSDOF 5
ENDMDL
MODEL 2
REMARK VINA RESULT:    -8.137      1.946      2.797
REMARK INTER + INTRA:          -9.831
REMARK INTER:                  -9.554
REMARK INTRA:                  -0.277
REMARK UNBOUND:                -0.267
REMARK SMILES O=c1c(O)c(-c2ccc(O)cc2)oc2cc(O)cc(O)c12
REMARK SMILES IDX 5 1 3 2 2 3 1 4 21 5 19 6 18 7 16 8 15 9 14 10 13 11 6 12
REMARK SMILES IDX 7 13 8 14 9 15 12 16 11 17 10 18 4 20 20 22 17 24
REMARK H PARENT 10 19 4 21 20 23 17 25
REMARK Flexibility Score: inf
ROOT
ATOM      1  C   UNL     1     -31.237  16.803  56.518  1.00  0.00     0.180 A 
ATOM      2  C   UNL     1     -31.237  17.467  57.757  1.00  0.00     0.208 A 
ATOM      3  C   UNL     1     -30.374  18.558  57.946  1.00  0.00     0.238 A 
ATOM      4  O   UNL     1     -30.419  19.183  59.038  1.00  0.00    -0.285 OA
ATOM      5  C   UNL     1     -29.508  18.961  56.900  1.00  0.00     0.111 A 
ATOM      6  C   UNL     1     -28.565  20.027  56.995  1.00  0.00     0.134 A 
ATOM      7  C   UNL     1     -27.853  20.423  55.856  1.00  0.00     0.093 A 
ATOM      8  C   UNL     1     -28.002  19.750  54.644  1.00  0.00     0.123 A 
ATOM      9  C   UNL     1     -28.879  18.669  54.555  1.00  0.00     0.094 A 
ATOM     10  C   UNL     1     -29.630  18.273  55.664  1.00  0.00     0.146 A 
ATOM     11  O   UNL     1     -30.460  17.246  55.535  1.00  0.00    -0.452 OA
ENDROOT
BRANCH   1  12
ATOM     12  C   UNL     1     -32.099  15.630  56.252  1.00  0.00     0.021 A 
ATOM     13  C   UNL     1     -31.593  14.336  56.459  1.00  0.00     0.016 A 
ATOM     14  C   UNL     1     -32.397  13.216  56.234  1.00  0.00     0.047 A 
ATOM     15  C   UNL     1     -33.724  13.374  55.814  1.00  0.00     0.115 A 
ATOM     16  C   UNL     1     -33.440  15.782  55.848  1.00  0.00     0.016 A 
ATOM     17  C   UNL     1     -34.242  14.659  55.625  1.00  0.00     0.047 A 
BRANCH  15  18
ATOM     18  O   UNL     1     -34.535  12.264  55.586  1.00  0.00    -0.508 OA
ATOM     19  H   UNL     1     -34.275  11.342  55.916  1.00  0.00     0.293 HD
ENDBRANCH  15  18
ENDBRANCH   1  12
BRANCH   2  20
ATOM     20  O   UNL     1     -32.116  17.067  58.768  1.00  0.00    -0.502 OA
ATOM     21  H   UNL     1     -33.067  17.409  58.829  1.00  0.00     0.293 HD
ENDBRANCH   2  20
BRANCH   6  22
ATOM     22  O   UNL     1     -28.271  20.707  58.182  1.00  0.00    -0.507 OA
ATOM     23  H   UNL     1     -28.169  20.268  59.084  1.00  0.00     0.293 HD
ENDBRANCH   6  22
BRANCH   8  24
ATOM     24  O   UNL     1     -27.265  20.161  53.534  1.00  0.00    -0.508 OA
ATOM     25  H   UNL     1     -26.390  19.715  53.286  1.00  0.00     0.293 HD
ENDBRANCH   8  24
TORSDOF 5
ENDMDL
MODEL 3
REMARK VINA RESULT:    -7.930      1.943      2.761
REMARK INTER + INTRA:          -9.588
REMARK INTER:                  -9.298
REMARK INTRA:                  -0.290
REMARK UNBOUND:                -0.267
REMARK SMILES O=c1c(O)c(-c2ccc(O)cc2)oc2cc(O)cc(O)c12
REMARK SMILES IDX 5 1 3 2 2 3 1 4 21 5 19 6 18 7 16 8 15 9 14 10 13 11 6 12
REMARK SMILES IDX 7 13 8 14 9 15 12 16 11 17 10 18 4 20 20 22 17 24
REMARK H PARENT 10 19 4 21 20 23 17 25
REMARK Flexibility Score: inf
ROOT
ATOM      1  C   UNL     1     -30.835  16.504  57.021  1.00  0.00     0.180 A 
ATOM      2  C   UNL     1     -31.090  17.444  56.008  1.00  0.00     0.208 A 
ATOM      3  C   UNL     1     -30.206  18.522  55.840  1.00  0.00     0.238 A 
ATOM      4  O   UNL     1     -30.409  19.329  54.897  1.00  0.00    -0.285 OA
ATOM      5  C   UNL     1     -29.087  18.656  56.699  1.00  0.00     0.111 A 
ATOM      6  C   UNL     1     -28.149  19.729  56.646  1.00  0.00     0.134 A 
ATOM      7  C   UNL     1     -27.009  19.691  57.457  1.00  0.00     0.093 A 
ATOM      8  C   UNL     1     -26.806  18.653  58.365  1.00  0.00     0.123 A 
ATOM      9  C   UNL     1     -27.746  17.628  58.468  1.00  0.00     0.094 A 
ATOM     10  C   UNL     1     -28.876  17.619  57.646  1.00  0.00     0.146 A 
ATOM     11  O   UNL     1     -29.742  16.621  57.767  1.00  0.00    -0.452 OA
ENDROOT
BRANCH   1  12
ATOM     12  C   UNL     1     -31.734  15.355  57.275  1.00  0.00     0.021 A 
ATOM     13  C   UNL     1     -31.522  14.146  56.594  1.00  0.00     0.016 A 
ATOM     14  C   UNL     1     -32.345  13.043  56.835  1.00  0.00     0.047 A 
ATOM     15  C   UNL     1     -33.382  13.129  57.773  1.00  0.00     0.115 A 
ATOM     16  C   UNL     1     -32.765  15.429  58.230  1.00  0.00     0.016 A 
ATOM     17  C   UNL     1     -33.587  14.324  58.470  1.00  0.00     0.047 A 
BRANCH  15  18
ATOM     18  O   UNL     1     -34.209  12.037  58.022  1.00  0.00    -0.508 OA
ATOM     19  H   UNL     1     -34.063  11.146  57.562  1.00  0.00     0.293 HD
ENDBRANCH  15  18
ENDBRANCH   1  12
BRANCH   2  20
ATOM     20  O   UNL     1     -32.187  17.280  55.158  1.00  0.00    -0.502 OA
ATOM     21  H   UNL     1     -33.021  17.850  55.230  1.00  0.00     0.293 HD
ENDBRANCH   2  20
BRANCH   6  22
ATOM     22  O   UNL     1     -28.303  20.862  55.839  1.00  0.00    -0.507 OA
ATOM     23  H   UNL     1     -27.884  20.980  54.930  1.00  0.00     0.293 HD
ENDBRANCH   6  22
BRANCH   8  24
ATOM     24  O   UNL     1     -25.667  18.655  59.169  1.00  0.00    -0.508 OA
ATOM     25  H   UNL     1     -25.304  17.801  59.574  1.00  0.00     0.293 HD
ENDBRANCH   8  24
TORSDOF 5
ENDMDL
MODEL 4
REMARK VINA RESULT:    -7.695      1.904      7.438
REMARK INTER + INTRA:          -9.311
REMARK INTER:                  -9.023
REMARK INTRA:                  -0.288
REMARK UNBOUND:                -0.267
REMARK SMILES O=c1c(O)c(-c2ccc(O)cc2)oc2cc(O)cc(O)c12
REMARK SMILES IDX 5 1 3 2 2 3 1 4 21 5 19 6 18 7 16 8 15 9 14 10 13 11 6 12
REMARK SMILES IDX 7 13 8 14 9 15 12 16 11 17 10 18 4 20 20 22 17 24
REMARK H PARENT 10 19 4 21 20 23 17 25
REMARK Flexibility Score: inf
ROOT
ATOM      1  C   UNL     1     -32.795  16.002  57.227  1.00  0.00     0.180 A 
ATOM      2  C   UNL     1     -33.517  15.995  56.021  1.00  0.00     0.208 A 
ATOM      3  C   UNL     1     -34.690  15.228  55.932  1.00  0.00     0.238 A 
ATOM      4  O   UNL     1     -35.361  15.270  54.869  1.00  0.00    -0.285 OA
ATOM      5  C   UNL     1     -35.117  14.464  57.046  1.00  0.00     0.111 A 
ATOM      6  C   UNL     1     -36.268  13.620  57.056  1.00  0.00     0.134 A 
ATOM      7  C   UNL     1     -36.670  13.014  58.251  1.00  0.00     0.093 A 
ATOM      8  C   UNL     1     -35.927  13.168  59.421  1.00  0.00     0.123 A 
ATOM      9  C   UNL     1     -34.768  13.943  59.410  1.00  0.00     0.094 A 
ATOM     10  C   UNL     1     -34.361  14.590  58.241  1.00  0.00     0.146 A 
ATOM     11  O   UNL     1     -33.257  15.327  58.274  1.00  0.00    -0.452 OA
ENDROOT
BRANCH   1  12
ATOM     12  C   UNL     1     -31.537  16.765  57.389  1.00  0.00     0.021 A 
ATOM     13  C   UNL     1     -30.312  16.155  57.075  1.00  0.00     0.016 A 
ATOM     14  C   UNL     1     -29.114  16.863  57.200  1.00  0.00     0.047 A 
ATOM     15  C   UNL     1     -29.126  18.198  57.626  1.00  0.00     0.115 A 
ATOM     16  C   UNL     1     -31.543  18.112  57.797  1.00  0.00     0.016 A 
ATOM     17  C   UNL     1     -30.344  18.819  57.920  1.00  0.00     0.047 A 
BRANCH  15  18
ATOM     18  O   UNL     1     -27.939  18.914  57.754  1.00  0.00    -0.508 OA
ATOM     19  H   UNL     1     -27.214  18.627  58.401  1.00  0.00     0.293 HD
ENDBRANCH  15  18
ENDBRANCH   1  12
BRANCH   2  20
ATOM     20  O   UNL     1     -33.089  16.774  54.942  1.00  0.00    -0.502 OA
ATOM     21  H   UNL     1     -32.900  17.765  55.028  1.00  0.00     0.293 HD
ENDBRANCH   2  20
BRANCH   6  22
ATOM     22  O   UNL     1     -37.029  13.325  55.920  1.00  0.00    -0.507 OA
ATOM     23  H   UNL     1     -37.613  12.510  55.817  1.00  0.00     0.293 HD
ENDBRANCH   6  22
BRANCH   8  24
ATOM     24  O   UNL     1     -36.347  12.536  60.591  1.00  0.00    -0.508 OA
ATOM     25  H   UNL     1     -36.826  11.644  60.568  1.00  0.00     0.293 HD
ENDBRANCH   8  24
TORSDOF 5
ENDMDL
MODEL 5
REMARK VINA RESULT:    -7.544      1.827      6.955
REMARK INTER + INTRA:          -9.135
REMARK INTER:                  -8.913
REMARK INTRA:                  -0.221
REMARK UNBOUND:                -0.267
REMARK SMILES O=c1c(O)c(-c2ccc(O)cc2)oc2cc(O)cc(O)c12
REMARK SMILES IDX 5 1 3 2 2 3 1 4 21 5 19 6 18 7 16 8 15 9 14 10 13 11 6 12
REMARK SMILES IDX 7 13 8 14 9 15 12 16 11 17 10 18 4 20 20 22 17 24
REMARK H PARENT 10 19 4 21 20 23 17 25
REMARK Flexibility Score: inf
ROOT
ATOM      1  C   UNL     1     -31.603  16.537  57.599  1.00  0.00     0.180 A 
ATOM      2  C   UNL     1     -31.786  16.032  56.301  1.00  0.00     0.208 A 
ATOM      3  C   UNL     1     -32.753  15.036  56.086  1.00  0.00     0.238 A 
ATOM      4  O   UNL     1     -32.950  14.627  54.913  1.00  0.00    -0.285 OA
ATOM      5  C   UNL     1     -33.513  14.547  57.177  1.00  0.00     0.111 A 
ATOM      6  C   UNL     1     -34.491  13.512  57.083  1.00  0.00     0.134 A 
ATOM      7  C   UNL     1     -35.275  13.198  58.199  1.00  0.00     0.093 A 
ATOM      8  C   UNL     1     -35.072  13.835  59.422  1.00  0.00     0.123 A 
ATOM      9  C   UNL     1     -34.079  14.807  59.542  1.00  0.00     0.094 A 
ATOM     10  C   UNL     1     -33.305  15.168  58.436  1.00  0.00     0.146 A 
ATOM     11  O   UNL     1     -32.377  16.104  58.589  1.00  0.00    -0.452 OA
ENDROOT
BRANCH   1  12
ATOM     12  C   UNL     1     -30.586  17.568  57.908  1.00  0.00     0.021 A 
ATOM     13  C   UNL     1     -29.227  17.216  57.929  1.00  0.00     0.016 A 
ATOM     14  C   UNL     1     -28.250  18.178  58.198  1.00  0.00     0.047 A 
ATOM     15  C   UNL     1     -28.617  19.509  58.433  1.00  0.00     0.115 A 
ATOM     16  C   UNL     1     -30.947  18.911  58.127  1.00  0.00     0.016 A 
ATOM     17  C   UNL     1     -29.967  19.872  58.394  1.00  0.00     0.047 A 
BRANCH  15  18
ATOM     18  O   UNL     1     -27.652  20.477  58.702  1.00  0.00    -0.508 OA
ATOM     19  H   UNL     1     -27.757  21.432  58.382  1.00  0.00     0.293 HD
ENDBRANCH  15  18
ENDBRANCH   1  12
BRANCH   2  20
ATOM     20  O   UNL     1     -31.041  16.545  55.236  1.00  0.00    -0.502 OA
ATOM     21  H   UNL     1     -30.681  15.960  54.491  1.00  0.00     0.293 HD
ENDBRANCH   2  20
BRANCH   6  22
ATOM     22  O   UNL     1     -34.712  12.749  55.931  1.00  0.00    -0.507 OA
ATOM     23  H   UNL     1     -34.206  12.856  55.066  1.00  0.00     0.293 HD
ENDBRANCH   6  22
BRANCH   8  24
ATOM     24  O   UNL     1     -35.860  13.486  60.518  1.00  0.00    -0.508 OA
ATOM     25  H   UNL     1     -36.860  13.648  60.525  1.00  0.00     0.293 HD
ENDBRANCH   8  24
TORSDOF 5
ENDMDL
MODEL 6
REMARK VINA RESULT:    -7.370      2.183      7.379
REMARK INTER + INTRA:          -8.929
REMARK INTER:                  -8.652
REMARK INTRA:                  -0.277
REMARK UNBOUND:                -0.267
REMARK SMILES O=c1c(O)c(-c2ccc(O)cc2)oc2cc(O)cc(O)c12
REMARK SMILES IDX 5 1 3 2 2 3 1 4 21 5 19 6 18 7 16 8 15 9 14 10 13 11 6 12
REMARK SMILES IDX 7 13 8 14 9 15 12 16 11 17 10 18 4 20 20 22 17 24
REMARK H PARENT 10 19 4 21 20 23 17 25
REMARK Flexibility Score: inf
ROOT
ATOM      1  C   UNL     1     -31.607  15.863  57.024  1.00  0.00     0.180 A 
ATOM      2  C   UNL     1     -32.415  16.078  58.154  1.00  0.00     0.208 A 
ATOM      3  C   UNL     1     -33.495  15.213  58.393  1.00  0.00     0.238 A 
ATOM      4  O   UNL     1     -34.181  15.376  59.436  1.00  0.00    -0.285 OA
ATOM      5  C   UNL     1     -33.764  14.155  57.491  1.00  0.00     0.111 A 
ATOM      6  C   UNL     1     -34.855  13.243  57.613  1.00  0.00     0.134 A 
ATOM      7  C   UNL     1     -34.949  12.156  56.736  1.00  0.00     0.093 A 
ATOM      8  C   UNL     1     -34.030  11.985  55.702  1.00  0.00     0.123 A 
ATOM      9  C   UNL     1     -32.993  12.904  55.536  1.00  0.00     0.094 A 
ATOM     10  C   UNL     1     -32.852  13.978  56.417  1.00  0.00     0.146 A 
ATOM     11  O   UNL     1     -31.846  14.824  56.232  1.00  0.00    -0.452 OA
ENDROOT
BRANCH   1  12
ATOM     12  C   UNL     1     -30.467  16.747  56.691  1.00  0.00     0.021 A 
ATOM     13  C   UNL     1     -30.660  17.826  55.812  1.00  0.00     0.016 A 
ATOM     14  C   UNL     1     -29.603  18.684  55.501  1.00  0.00     0.047 A 
ATOM     15  C   UNL     1     -28.341  18.486  56.076  1.00  0.00     0.115 A 
ATOM     16  C   UNL     1     -29.202  16.565  57.280  1.00  0.00     0.016 A 
ATOM     17  C   UNL     1     -28.146  17.427  56.968  1.00  0.00     0.047 A 
BRANCH  15  18
ATOM     18  O   UNL     1     -27.280  19.335  55.774  1.00  0.00    -0.508 OA
ATOM     19  H   UNL     1     -26.329  18.992  55.707  1.00  0.00     0.293 HD
ENDBRANCH  15  18
ENDBRANCH   1  12
BRANCH   2  20
ATOM     20  O   UNL     1     -32.118  17.113  59.044  1.00  0.00    -0.502 OA
ATOM     21  H   UNL     1     -32.837  17.673  59.487  1.00  0.00     0.293 HD
ENDBRANCH   2  20
BRANCH   6  22
ATOM     22  O   UNL     1     -35.881  13.375  58.555  1.00  0.00    -0.507 OA
ATOM     23  H   UNL     1     -36.864  13.389  58.334  1.00  0.00     0.293 HD
ENDBRANCH   6  22
BRANCH   8  24
ATOM     24  O   UNL     1     -34.163  10.900  54.836  1.00  0.00    -0.508 OA
ATOM     25  H   UNL     1     -34.775  10.939  54.030  1.00  0.00     0.293 HD
ENDBRANCH   8  24
TORSDOF 5
ENDMDL
MODEL 7
REMARK VINA RESULT:    -7.184      1.944      6.962
REMARK INTER + INTRA:          -8.711
REMARK INTER:                  -8.422
REMARK INTRA:                  -0.289
REMARK UNBOUND:                -0.267
REMARK SMILES O=c1c(O)c(-c2ccc(O)cc2)oc2cc(O)cc(O)c12
REMARK SMILES IDX 5 1 3 2 2 3 1 4 21 5 19 6 18 7 16 8 15 9 14 10 13 11 6 12
REMARK SMILES IDX 7 13 8 14 9 15 12 16 11 17 10 18 4 20 20 22 17 24
REMARK H PARENT 10 19 4 21 20 23 17 25
REMARK Flexibility Score: inf
ROOT
ATOM      1  C   UNL     1     -31.790  16.294  56.345  1.00  0.00     0.180 A 
ATOM      2  C   UNL     1     -31.153  15.073  56.625  1.00  0.00     0.208 A 
ATOM      3  C   UNL     1     -31.871  13.877  56.467  1.00  0.00     0.238 A 
ATOM      4  O   UNL     1     -31.279  12.784  56.666  1.00  0.00    -0.285 OA
ATOM      5  C   UNL     1     -33.223  13.917  56.046  1.00  0.00     0.111 A 
ATOM      6  C   UNL     1     -34.058  12.771  55.890  1.00  0.00     0.134 A 
ATOM      7  C   UNL     1     -35.338  12.918  55.344  1.00  0.00     0.093 A 
ATOM      8  C   UNL     1     -35.838  14.175  55.009  1.00  0.00     0.123 A 
ATOM      9  C   UNL     1     -35.052  15.310  55.211  1.00  0.00     0.094 A 
ATOM     10  C   UNL     1     -33.757  15.192  55.721  1.00  0.00     0.146 A 
ATOM     11  O   UNL     1     -33.038  16.295  55.890  1.00  0.00    -0.452 OA
ENDROOT
BRANCH   1  12
ATOM     12  C   UNL     1     -31.107  17.596  56.513  1.00  0.00     0.021 A 
ATOM     13  C   UNL     1     -31.133  18.236  57.763  1.00  0.00     0.016 A 
ATOM     14  C   UNL     1     -30.477  19.456  57.949  1.00  0.00     0.047 A 
ATOM     15  C   UNL     1     -29.772  20.045  56.891  1.00  0.00     0.115 A 
ATOM     16  C   UNL     1     -30.380  18.184  55.460  1.00  0.00     0.016 A 
ATOM     17  C   UNL     1     -29.724  19.404  55.650  1.00  0.00     0.047 A 
BRANCH  15  18
ATOM     18  O   UNL     1     -29.114  21.260  57.064  1.00  0.00    -0.508 OA
ATOM     19  H   UNL     1     -28.584  21.460  57.904  1.00  0.00     0.293 HD
ENDBRANCH  15  18
ENDBRANCH   1  12
BRANCH   2  20
ATOM     20  O   UNL     1     -29.811  15.054  57.017  1.00  0.00    -0.502 OA
ATOM     21  H   UNL     1     -29.519  14.761  57.942  1.00  0.00     0.293 HD
ENDBRANCH   2  20
BRANCH   6  22
ATOM     22  O   UNL     1     -33.690  11.479  56.280  1.00  0.00    -0.507 OA
ATOM     23  H   UNL     1     -34.339  10.748  56.530  1.00  0.00     0.293 HD
ENDBRANCH   6  22
BRANCH   8  24
ATOM     24  O   UNL     1     -37.124  14.287  54.482  1.00  0.00    -0.508 OA
ATOM     25  H   UNL     1     -37.453  13.665  53.753  1.00  0.00     0.293 HD
ENDBRANCH   8  24
TORSDOF 5
ENDMDL
MODEL 8
REMARK VINA RESULT:    -6.356      2.022      7.208
REMARK INTER + INTRA:          -7.737
REMARK INTER:                  -7.711
REMARK INTRA:                  -0.026
REMARK UNBOUND:                -0.267
REMARK SMILES O=c1c(O)c(-c2ccc(O)cc2)oc2cc(O)cc(O)c12
REMARK SMILES IDX 5 1 3 2 2 3 1 4 21 5 19 6 18 7 16 8 15 9 14 10 13 11 6 12
REMARK SMILES IDX 7 13 8 14 9 15 12 16 11 17 10 18 4 20 20 22 17 24
REMARK H PARENT 10 19 4 21 20 23 17 25
REMARK Flexibility Score: inf
ROOT
ATOM      1  C   UNL     1     -30.688  16.671  56.950  1.00  0.00     0.180 A 
ATOM      2  C   UNL     1     -32.006  17.150  57.039  1.00  0.00     0.208 A 
ATOM      3  C   UNL     1     -33.071  16.262  56.815  1.00  0.00     0.238 A 
ATOM      4  O   UNL     1     -34.249  16.683  56.952  1.00  0.00    -0.285 OA
ATOM      5  C   UNL     1     -32.804  14.910  56.487  1.00  0.00     0.111 A 
ATOM      6  C   UNL     1     -33.803  13.932  56.201  1.00  0.00     0.134 A 
ATOM      7  C   UNL     1     -33.430  12.596  56.017  1.00  0.00     0.093 A 
ATOM      8  C   UNL     1     -32.090  12.212  56.045  1.00  0.00     0.123 A 
ATOM      9  C   UNL     1     -31.100  13.170  56.266  1.00  0.00     0.094 A 
ATOM     10  C   UNL     1     -31.443  14.505  56.488  1.00  0.00     0.146 A 
ATOM     11  O   UNL     1     -30.471  15.383  56.704  1.00  0.00    -0.452 OA
ENDROOT
BRANCH   1  12
ATOM     12  C   UNL     1     -29.514  17.551  57.147  1.00  0.00     0.021 A 
ATOM     13  C   UNL     1     -29.383  18.715  56.372  1.00  0.00     0.016 A 
ATOM     14  C   UNL     1     -28.294  19.570  56.558  1.00  0.00     0.047 A 
ATOM     15  C   UNL     1     -27.329  19.282  57.531  1.00  0.00     0.115 A 
ATOM     16  C   UNL     1     -28.551  17.278  58.137  1.00  0.00     0.016 A 
ATOM     17  C   UNL     1     -27.464  18.136  58.321  1.00  0.00     0.047 A 
BRANCH  15  18
ATOM     18  O   UNL     1     -26.240  20.128  57.725  1.00  0.00    -0.508 OA
ATOM     19  H   UNL     1     -25.632  20.032  58.530  1.00  0.00     0.293 HD
ENDBRANCH  15  18
ENDBRANCH   1  12
BRANCH   2  20
ATOM     20  O   UNL     1     -32.248  18.481  57.387  1.00  0.00    -0.502 OA
ATOM     21  H   UNL     1     -32.951  18.748  58.066  1.00  0.00     0.293 HD
ENDBRANCH   2  20
BRANCH   6  22
ATOM     22  O   UNL     1     -35.164  14.226  56.060  1.00  0.00    -0.507 OA
ATOM     23  H   UNL     1     -35.786  13.765  55.414  1.00  0.00     0.293 HD
ENDBRANCH   6  22
BRANCH   8  24
ATOM     24  O   UNL     1     -31.753  10.875  55.842  1.00  0.00    -0.508 OA
ATOM     25  H   UNL     1     -32.048  10.151  56.486  1.00  0.00     0.293 HD
ENDBRANCH   8  24
TORSDOF 5
ENDMDL
