MODEL 1
REMARK VINA RESULT:    -3.908      0.000      0.000
REMARK INTER + INTRA:         -14.232
REMARK INTER:                  -9.847
REMARK INTRA:                  -4.386
REMARK UNBOUND:                -4.386
REMARK SMILES CCCCCCCCCCCCCCCCCCCCCCCCCCCC(=O)[O-]
REMARK SMILES IDX 15 1 16 2 17 3 18 4 19 5 20 6 21 7 22 8 23 9 24 10 25 11
REMARK SMILES IDX 26 12 27 13 28 14 29 15 30 16 14 17 13 18 12 19 11 20 10 21
REMARK SMILES IDX 9 22 8 23 7 24 6 25 5 26 4 27 3 28 2 29 1 30
REMARK H PARENT
REMARK Flexibility Score: inf
ROOT
ATOM      1  C   UNL     1      83.559 125.676 130.225  1.00  0.00     0.000 C 
ENDROOT
BRANCH   1   2
ATOM      2  C   UNL     1      83.690 125.932 131.734  1.00  0.00     0.000 C 
BRANCH   2   3
ATOM      3  C   UNL     1      82.755 125.010 132.528  1.00  0.00     0.000 C 
BRANCH   3   4
ATOM      4  C   UNL     1      83.507 123.773 133.040  1.00  0.00     0.000 C 
BRANCH   4   5
ATOM      5  C   UNL     1      83.285 122.527 132.164  1.00  0.00     0.000 C 
BRANCH   5   6
ATOM      6  C   UNL     1      84.563 121.895 131.582  1.00  0.00     0.000 C 
BRANCH   6   7
ATOM      7  C   UNL     1      84.341 121.245 130.205  1.00  0.00     0.000 C 
BRANCH   7   8
ATOM      8  C   UNL     1      85.613 120.581 129.653  1.00  0.00     0.000 C 
BRANCH   8   9
ATOM      9  C   UNL     1      86.694 120.387 130.728  1.00  0.00     0.000 C 
BRANCH   9  10
ATOM     10  C   UNL     1      87.993 121.107 130.335  1.00  0.00     0.000 C 
BRANCH  10  11
ATOM     11  C   UNL     1      88.431 122.163 131.368  1.00  0.00     0.000 C 
BRANCH  11  12
ATOM     12  C   UNL     1      88.455 123.612 130.847  1.00  0.00     0.006 C 
BRANCH  12  13
ATOM     13  C   UNL     1      87.052 124.188 130.619  1.00  0.00     0.053 C 
BRANCH  13  14
ATOM     14  C   UNL     1      86.874 124.578 129.186  1.00  0.00     0.041 C 
ATOM     15  O   UNL     1      86.520 125.748 128.887  1.00  0.00    -0.550 OA
ATOM     16  O   UNL     1      87.146 123.663 128.177  1.00  0.00    -0.550 OA
ENDBRANCH  13  14
ENDBRANCH  12  13
ENDBRANCH  11  12
ENDBRANCH  10  11
ENDBRANCH   9  10
ENDBRANCH   8   9
ENDBRANCH   7   8
ENDBRANCH   6   7
ENDBRANCH   5   6
ENDBRANCH   4   5
ENDBRANCH   3   4
ENDBRANCH   2   3
ENDBRANCH   1   2
BRANCH   1  17
ATOM     17  C   UNL     1      82.125 125.326 129.801  1.00  0.00     0.000 C 
BRANCH  17  18
ATOM     18  C   UNL     1      82.056 124.059 128.928  1.00  0.00     0.000 C 
BRANCH  18  19
ATOM     19  C   UNL     1      83.267 123.924 127.979  1.00  0.00     0.000 C 
BRANCH  19  20
ATOM     20  C   UNL     1      82.949 124.248 126.510  1.00  0.00     0.000 C 
BRANCH  20  21
ATOM     21  C   UNL     1      83.340 123.118 125.547  1.00  0.00     0.000 C 
BRANCH  21  22
ATOM     22  C   UNL     1      84.774 122.641 125.813  1.00  0.00    -0.000 C 
BRANCH  22  23
ATOM     23  C   UNL     1      84.818 121.122 126.042  1.00  0.00    -0.000 C 
BRANCH  23  24
ATOM     24  C   UNL     1      83.471 120.546 126.516  1.00  0.00    -0.000 C 
BRANCH  24  25
ATOM     25  C   UNL     1      83.210 119.083 126.115  1.00  0.00    -0.000 C 
BRANCH  25  26
ATOM     26  C   UNL     1      81.954 118.912 125.247  1.00  0.00    -0.000 C 
BRANCH  26  27
ATOM     27  C   UNL     1      82.267 119.193 123.770  1.00  0.00    -0.000 C 
BRANCH  27  28
ATOM     28  C   UNL     1      81.901 120.625 123.340  1.00  0.00    -0.000 C 
BRANCH  28  29
ATOM     29  C   UNL     1      82.726 121.178 122.163  1.00  0.00    -0.003 C 
ATOM     30  C   UNL     1      83.038 120.123 121.102  1.00  0.00     0.004 C 
ENDBRANCH  28  29
ENDBRANCH  27  28
ENDBRANCH  26  27
ENDBRANCH  25  26
ENDBRANCH  24  25
ENDBRANCH  23  24
ENDBRANCH  22  23
ENDBRANCH  21  22
ENDBRANCH  20  21
ENDBRANCH  19  20
ENDBRANCH  18  19
ENDBRANCH  17  18
ENDBRANCH   1  17
TORSDOF 26
ENDMDL
MODEL 2
REMARK VINA RESULT:    -3.701      2.846      5.976
REMARK INTER + INTRA:         -13.712
REMARK INTER:                 -10.999
REMARK INTRA:                  -2.713
REMARK UNBOUND:                -4.386
REMARK SMILES CCCCCCCCCCCCCCCCCCCCCCCCCCCC(=O)[O-]
REMARK SMILES IDX 15 1 16 2 17 3 18 4 19 5 20 6 21 7 22 8 23 9 24 10 25 11
REMARK SMILES IDX 26 12 27 13 28 14 29 15 30 16 14 17 13 18 12 19 11 20 10 21
REMARK SMILES IDX 9 22 8 23 7 24 6 25 5 26 4 27 3 28 2 29 1 30
REMARK H PARENT
REMARK Flexibility Score: inf
ROOT
ATOM      1  C   UNL     1      87.682 124.031 130.234  1.00  0.00     0.000 C 
ENDROOT
BRANCH   1   2
ATOM      2  C   UNL     1      87.505 123.844 128.720  1.00  0.00     0.000 C 
BRANCH   2   3
ATOM      3  C   UNL     1      86.041 123.545 128.374  1.00  0.00     0.000 C 
BRANCH   3   4
ATOM      4  C   UNL     1      85.366 124.768 127.736  1.00  0.00     0.000 C 
BRANCH   4   5
ATOM      5  C   UNL     1      85.411 126.018 128.633  1.00  0.00     0.000 C 
BRANCH   5   6
ATOM      6  C   UNL     1      84.226 126.176 129.603  1.00  0.00     0.000 C 
BRANCH   6   7
ATOM      7  C   UNL     1      84.219 125.120 130.723  1.00  0.00     0.000 C 
BRANCH   7   8
ATOM      8  C   UNL     1      84.360 125.742 132.121  1.00  0.00     0.000 C 
BRANCH   8   9
ATOM      9  C   UNL     1      83.010 126.160 132.724  1.00  0.00     0.000 C 
BRANCH   9  10
ATOM     10  C   UNL     1      82.876 127.689 132.760  1.00  0.00     0.000 C 
BRANCH  10  11
ATOM     11  C   UNL     1      81.921 128.235 131.682  1.00  0.00     0.000 C 
BRANCH  11  12
ATOM     12  C   UNL     1      82.306 129.611 131.108  1.00  0.00     0.006 C 
BRANCH  12  13
ATOM     13  C   UNL     1      82.386 130.705 132.181  1.00  0.00     0.053 C 
BRANCH  13  14
ATOM     14  C   UNL     1      83.399 131.736 131.800  1.00  0.00     0.041 C 
ATOM     15  O   UNL     1      83.038 132.797 131.227  1.00  0.00    -0.550 OA
ATOM     16  O   UNL     1      84.738 131.549 132.120  1.00  0.00    -0.550 OA
ENDBRANCH  13  14
ENDBRANCH  12  13
ENDBRANCH  11  12
ENDBRANCH  10  11
ENDBRANCH   9  10
ENDBRANCH   8   9
ENDBRANCH   7   8
ENDBRANCH   6   7
ENDBRANCH   5   6
ENDBRANCH   4   5
ENDBRANCH   3   4
ENDBRANCH   2   3
ENDBRANCH   1   2
BRANCH   1  17
ATOM     17  C   UNL     1      88.235 122.778 130.931  1.00  0.00     0.000 C 
BRANCH  17  18
ATOM     18  C   UNL     1      88.022 121.496 130.104  1.00  0.00     0.000 C 
BRANCH  18  19
ATOM     19  C   UNL     1      87.086 120.486 130.801  1.00  0.00     0.000 C 
BRANCH  19  20
ATOM     20  C   UNL     1      86.811 119.216 129.978  1.00  0.00     0.000 C 
BRANCH  20  21
ATOM     21  C   UNL     1      85.422 119.213 129.325  1.00  0.00     0.000 C 
BRANCH  21  22
ATOM     22  C   UNL     1      84.568 120.377 129.843  1.00  0.00    -0.000 C 
BRANCH  22  23
ATOM     23  C   UNL     1      83.858 121.100 128.688  1.00  0.00    -0.000 C 
BRANCH  23  24
ATOM     24  C   UNL     1      82.400 120.645 128.499  1.00  0.00    -0.000 C 
BRANCH  24  25
ATOM     25  C   UNL     1      82.157 119.715 127.296  1.00  0.00    -0.000 C 
BRANCH  25  26
ATOM     26  C   UNL     1      83.357 119.643 126.339  1.00  0.00    -0.000 C 
BRANCH  26  27
ATOM     27  C   UNL     1      83.062 120.397 125.035  1.00  0.00    -0.000 C 
BRANCH  27  28
ATOM     28  C   UNL     1      82.758 121.889 125.258  1.00  0.00    -0.000 C 
BRANCH  28  29
ATOM     29  C   UNL     1      83.741 122.859 124.577  1.00  0.00    -0.003 C 
ATOM     30  C   UNL     1      85.201 122.434 124.725  1.00  0.00     0.004 C 
ENDBRANCH  28  29
ENDBRANCH  27  28
ENDBRANCH  26  27
ENDBRANCH  25  26
ENDBRANCH  24  25
ENDBRANCH  23  24
ENDBRANCH  22  23
ENDBRANCH  21  22
ENDBRANCH  20  21
ENDBRANCH  19  20
ENDBRANCH  18  19
ENDBRANCH  17  18
ENDBRANCH   1  17
TORSDOF 26
ENDMDL
MODEL 3
REMARK VINA RESULT:    -3.513      1.769      6.121
REMARK INTER + INTRA:         -13.238
REMARK INTER:                  -8.938
REMARK INTRA:                  -4.300
REMARK UNBOUND:                -4.386
REMARK SMILES CCCCCCCCCCCCCCCCCCCCCCCCCCCC(=O)[O-]
REMARK SMILES IDX 15 1 16 2 17 3 18 4 19 5 20 6 21 7 22 8 23 9 24 10 25 11
REMARK SMILES IDX 26 12 27 13 28 14 29 15 30 16 14 17 13 18 12 19 11 20 10 21
REMARK SMILES IDX 9 22 8 23 7 24 6 25 5 26 4 27 3 28 2 29 1 30
REMARK H PARENT
REMARK Flexibility Score: inf
ROOT
ATOM      1  C   UNL     1      84.263 123.657 125.977  1.00  0.00     0.000 C 
ENDROOT
BRANCH   1   2
ATOM      2  C   UNL     1      84.544 122.316 125.283  1.00  0.00     0.000 C 
BRANCH   2   3
ATOM      3  C   UNL     1      83.557 122.079 124.133  1.00  0.00     0.000 C 
BRANCH   3   4
ATOM      4  C   UNL     1      82.637 120.887 124.434  1.00  0.00     0.000 C 
BRANCH   4   5
ATOM      5  C   UNL     1      83.298 119.828 125.336  1.00  0.00     0.000 C 
BRANCH   5   6
ATOM      6  C   UNL     1      82.519 119.478 126.618  1.00  0.00     0.000 C 
BRANCH   6   7
ATOM      7  C   UNL     1      83.422 118.953 127.747  1.00  0.00     0.000 C 
BRANCH   7   8
ATOM      8  C   UNL     1      84.884 119.403 127.593  1.00  0.00     0.000 C 
BRANCH   8   9
ATOM      9  C   UNL     1      85.729 119.110 128.843  1.00  0.00     0.000 C 
BRANCH   9  10
ATOM     10  C   UNL     1      86.295 120.408 129.438  1.00  0.00     0.000 C 
BRANCH  10  11
ATOM     11  C   UNL     1      86.591 120.299 130.945  1.00  0.00     0.000 C 
BRANCH  11  12
ATOM     12  C   UNL     1      87.880 121.003 131.409  1.00  0.00     0.006 C 
BRANCH  12  13
ATOM     13  C   UNL     1      87.792 122.532 131.313  1.00  0.00     0.053 C 
BRANCH  13  14
ATOM     14  C   UNL     1      86.896 123.072 132.382  1.00  0.00     0.041 C 
ATOM     15  O   UNL     1      86.834 124.311 132.590  1.00  0.00    -0.550 OA
ATOM     16  O   UNL     1      86.092 122.209 133.117  1.00  0.00    -0.550 OA
ENDBRANCH  13  14
ENDBRANCH  12  13
ENDBRANCH  11  12
ENDBRANCH  10  11
ENDBRANCH   9  10
ENDBRANCH   8   9
ENDBRANCH   7   8
ENDBRANCH   6   7
ENDBRANCH   5   6
ENDBRANCH   4   5
ENDBRANCH   3   4
ENDBRANCH   2   3
ENDBRANCH   1   2
BRANCH   1  17
ATOM     17  C   UNL     1      82.762 123.937 126.152  1.00  0.00     0.000 C 
BRANCH  17  18
ATOM     18  C   UNL     1      82.380 124.241 127.612  1.00  0.00     0.000 C 
BRANCH  18  19
ATOM     19  C   UNL     1      82.029 122.969 128.413  1.00  0.00     0.000 C 
BRANCH  19  20
ATOM     20  C   UNL     1      83.255 122.199 128.933  1.00  0.00     0.000 C 
BRANCH  20  21
ATOM     21  C   UNL     1      83.505 122.410 130.433  1.00  0.00     0.000 C 
BRANCH  21  22
ATOM     22  C   UNL     1      82.246 122.938 131.131  1.00  0.00    -0.000 C 
BRANCH  22  23
ATOM     23  C   UNL     1      82.610 123.849 132.314  1.00  0.00    -0.000 C 
BRANCH  23  24
ATOM     24  C   UNL     1      81.938 125.232 132.236  1.00  0.00    -0.000 C 
BRANCH  24  25
ATOM     25  C   UNL     1      82.847 126.372 131.740  1.00  0.00    -0.000 C 
BRANCH  25  26
ATOM     26  C   UNL     1      84.051 125.871 130.928  1.00  0.00    -0.000 C 
BRANCH  26  27
ATOM     27  C   UNL     1      84.038 126.460 129.510  1.00  0.00    -0.000 C 
BRANCH  27  28
ATOM     28  C   UNL     1      85.329 126.167 128.724  1.00  0.00    -0.000 C 
BRANCH  28  29
ATOM     29  C   UNL     1      86.238 125.095 129.352  1.00  0.00    -0.003 C 
ATOM     30  C   UNL     1      86.917 124.201 128.314  1.00  0.00     0.004 C 
ENDBRANCH  28  29
ENDBRANCH  27  28
ENDBRANCH  26  27
ENDBRANCH  25  26
ENDBRANCH  24  25
ENDBRANCH  23  24
ENDBRANCH  22  23
ENDBRANCH  21  22
ENDBRANCH  20  21
ENDBRANCH  19  20
ENDBRANCH  18  19
ENDBRANCH  17  18
ENDBRANCH   1  17
TORSDOF 26
ENDMDL
MODEL 4
REMARK VINA RESULT:    -3.481      2.984      6.504
REMARK INTER + INTRA:         -13.157
REMARK INTER:                  -9.225
REMARK INTRA:                  -3.932
REMARK UNBOUND:                -4.386
REMARK SMILES CCCCCCCCCCCCCCCCCCCCCCCCCCCC(=O)[O-]
REMARK SMILES IDX 15 1 16 2 17 3 18 4 19 5 20 6 21 7 22 8 23 9 24 10 25 11
REMARK SMILES IDX 26 12 27 13 28 14 29 15 30 16 14 17 13 18 12 19 11 20 10 21
REMARK SMILES IDX 9 22 8 23 7 24 6 25 5 26 4 27 3 28 2 29 1 30
REMARK H PARENT
REMARK Flexibility Score: inf
ROOT
ATOM      1  C   UNL     1      85.556 124.525 127.896  1.00  0.00     0.000 C 
ENDROOT
BRANCH   1   2
ATOM      2  C   UNL     1      85.523 123.963 129.325  1.00  0.00     0.000 C 
BRANCH   2   3
ATOM      3  C   UNL     1      86.340 124.845 130.278  1.00  0.00     0.000 C 
BRANCH   3   4
ATOM      4  C   UNL     1      86.146 124.405 131.736  1.00  0.00     0.000 C 
BRANCH   4   5
ATOM      5  C   UNL     1      85.867 125.583 132.689  1.00  0.00     0.000 C 
BRANCH   5   6
ATOM      6  C   UNL     1      84.379 125.876 132.955  1.00  0.00     0.000 C 
BRANCH   6   7
ATOM      7  C   UNL     1      83.439 124.821 132.346  1.00  0.00     0.000 C 
BRANCH   7   8
ATOM      8  C   UNL     1      82.582 125.385 131.201  1.00  0.00     0.000 C 
BRANCH   8   9
ATOM      9  C   UNL     1      83.035 126.783 130.754  1.00  0.00     0.000 C 
BRANCH   9  10
ATOM     10  C   UNL     1      81.958 127.834 131.063  1.00  0.00     0.000 C 
BRANCH  10  11
ATOM     11  C   UNL     1      81.875 128.187 132.560  1.00  0.00     0.000 C 
BRANCH  11  12
ATOM     12  C   UNL     1      82.298 129.625 132.914  1.00  0.00     0.006 C 
BRANCH  12  13
ATOM     13  C   UNL     1      82.953 130.362 131.738  1.00  0.00     0.053 C 
BRANCH  13  14
ATOM     14  C   UNL     1      82.735 131.836 131.860  1.00  0.00     0.041 C 
ATOM     15  O   UNL     1      82.335 132.330 132.947  1.00  0.00    -0.550 OA
ATOM     16  O   UNL     1      83.019 132.673 130.788  1.00  0.00    -0.550 OA
ENDBRANCH  13  14
ENDBRANCH  12  13
ENDBRANCH  11  12
ENDBRANCH  10  11
ENDBRANCH   9  10
ENDBRANCH   8   9
ENDBRANCH   7   8
ENDBRANCH   6   7
ENDBRANCH   5   6
ENDBRANCH   4   5
ENDBRANCH   3   4
ENDBRANCH   2   3
ENDBRANCH   1   2
BRANCH   1  17
ATOM     17  C   UNL     1      84.155 124.731 127.302  1.00  0.00     0.000 C 
BRANCH  17  18
ATOM     18  C   UNL     1      84.111 124.484 125.782  1.00  0.00     0.000 C 
BRANCH  18  19
ATOM     19  C   UNL     1      83.341 123.198 125.411  1.00  0.00     0.000 C 
BRANCH  19  20
ATOM     20  C   UNL     1      84.247 122.008 125.053  1.00  0.00     0.000 C 
BRANCH  20  21
ATOM     21  C   UNL     1      83.728 120.672 125.604  1.00  0.00     0.000 C 
BRANCH  21  22
ATOM     22  C   UNL     1      82.811 120.894 126.814  1.00  0.00    -0.000 C 
BRANCH  22  23
ATOM     23  C   UNL     1      83.554 120.615 128.130  1.00  0.00    -0.000 C 
BRANCH  23  24
ATOM     24  C   UNL     1      82.953 121.368 129.330  1.00  0.00    -0.000 C 
BRANCH  24  25
ATOM     25  C   UNL     1      83.924 121.612 130.500  1.00  0.00    -0.000 C 
BRANCH  25  26
ATOM     26  C   UNL     1      84.764 120.375 130.853  1.00  0.00    -0.000 C 
BRANCH  26  27
ATOM     27  C   UNL     1      86.195 120.777 131.239  1.00  0.00    -0.000 C 
BRANCH  27  28
ATOM     28  C   UNL     1      87.202 120.595 130.089  1.00  0.00    -0.000 C 
BRANCH  28  29
ATOM     29  C   UNL     1      88.277 121.692 129.991  1.00  0.00    -0.003 C 
ATOM     30  C   UNL     1      89.136 121.803 131.250  1.00  0.00     0.004 C 
ENDBRANCH  28  29
ENDBRANCH  27  28
ENDBRANCH  26  27
ENDBRANCH  25  26
ENDBRANCH  24  25
ENDBRANCH  23  24
ENDBRANCH  22  23
ENDBRANCH  21  22
ENDBRANCH  20  21
ENDBRANCH  19  20
ENDBRANCH  18  19
ENDBRANCH  17  18
ENDBRANCH   1  17
TORSDOF 26
ENDMDL
MODEL 5
REMARK VINA RESULT:    -3.419      1.896      4.370
REMARK INTER + INTRA:         -13.001
REMARK INTER:                  -9.586
REMARK INTRA:                  -3.415
REMARK UNBOUND:                -4.386
REMARK SMILES CCCCCCCCCCCCCCCCCCCCCCCCCCCC(=O)[O-]
REMARK SMILES IDX 15 1 16 2 17 3 18 4 19 5 20 6 21 7 22 8 23 9 24 10 25 11
REMARK SMILES IDX 26 12 27 13 28 14 29 15 30 16 14 17 13 18 12 19 11 20 10 21
REMARK SMILES IDX 9 22 8 23 7 24 6 25 5 26 4 27 3 28 2 29 1 30
REMARK H PARENT
REMARK Flexibility Score: inf
ROOT
ATOM      1  C   UNL     1      82.841 124.078 129.402  1.00  0.00     0.000 C 
ENDROOT
BRANCH   1   2
ATOM      2  C   UNL     1      81.875 125.252 129.626  1.00  0.00     0.000 C 
BRANCH   2   3
ATOM      3  C   UNL     1      81.937 125.741 131.079  1.00  0.00     0.000 C 
BRANCH   3   4
ATOM      4  C   UNL     1      83.204 126.574 131.325  1.00  0.00     0.000 C 
BRANCH   4   5
ATOM      5  C   UNL     1      84.321 125.780 132.026  1.00  0.00     0.000 C 
BRANCH   5   6
ATOM      6  C   UNL     1      83.847 124.584 132.873  1.00  0.00     0.000 C 
BRANCH   6   7
ATOM      7  C   UNL     1      84.631 123.292 132.586  1.00  0.00     0.000 C 
BRANCH   7   8
ATOM      8  C   UNL     1      85.736 123.493 131.536  1.00  0.00     0.000 C 
BRANCH   8   9
ATOM      9  C   UNL     1      87.142 123.525 132.154  1.00  0.00     0.000 C 
BRANCH   9  10
ATOM     10  C   UNL     1      88.169 122.877 131.213  1.00  0.00     0.000 C 
BRANCH  10  11
ATOM     11  C   UNL     1      87.555 121.791 130.310  1.00  0.00     0.000 C 
BRANCH  11  12
ATOM     12  C   UNL     1      86.645 120.781 131.034  1.00  0.00     0.006 C 
BRANCH  12  13
ATOM     13  C   UNL     1      86.772 119.357 130.478  1.00  0.00     0.053 C 
BRANCH  13  14
ATOM     14  C   UNL     1      86.910 119.388 128.989  1.00  0.00     0.041 C 
ATOM     15  O   UNL     1      85.953 119.780 128.272  1.00  0.00    -0.550 OA
ATOM     16  O   UNL     1      88.113 119.030 128.394  1.00  0.00    -0.550 OA
ENDBRANCH  13  14
ENDBRANCH  12  13
ENDBRANCH  11  12
ENDBRANCH  10  11
ENDBRANCH   9  10
ENDBRANCH   8   9
ENDBRANCH   7   8
ENDBRANCH   6   7
ENDBRANCH   5   6
ENDBRANCH   4   5
ENDBRANCH   3   4
ENDBRANCH   2   3
ENDBRANCH   1   2
BRANCH   1  17
ATOM     17  C   UNL     1      82.171 122.709 129.591  1.00  0.00     0.000 C 
BRANCH  17  18
ATOM     18  C   UNL     1      83.177 121.543 129.544  1.00  0.00     0.000 C 
BRANCH  18  19
ATOM     19  C   UNL     1      82.520 120.178 129.841  1.00  0.00     0.000 C 
BRANCH  19  20
ATOM     20  C   UNL     1      82.011 119.443 128.589  1.00  0.00     0.000 C 
BRANCH  20  21
ATOM     21  C   UNL     1      82.794 119.807 127.320  1.00  0.00     0.000 C 
BRANCH  21  22
ATOM     22  C   UNL     1      81.878 120.458 126.276  1.00  0.00    -0.000 C 
BRANCH  22  23
ATOM     23  C   UNL     1      82.265 120.026 124.853  1.00  0.00    -0.000 C 
BRANCH  23  24
ATOM     24  C   UNL     1      82.617 121.213 123.939  1.00  0.00    -0.000 C 
BRANCH  24  25
ATOM     25  C   UNL     1      83.937 121.929 124.277  1.00  0.00    -0.000 C 
BRANCH  25  26
ATOM     26  C   UNL     1      83.750 123.114 125.236  1.00  0.00    -0.000 C 
BRANCH  26  27
ATOM     27  C   UNL     1      84.872 123.153 126.284  1.00  0.00    -0.000 C 
BRANCH  27  28
ATOM     28  C   UNL     1      84.884 124.455 127.105  1.00  0.00    -0.000 C 
BRANCH  28  29
ATOM     29  C   UNL     1      86.106 124.628 128.026  1.00  0.00    -0.003 C 
ATOM     30  C   UNL     1      86.148 125.990 128.717  1.00  0.00     0.004 C 
ENDBRANCH  28  29
ENDBRANCH  27  28
ENDBRANCH  26  27
ENDBRANCH  25  26
ENDBRANCH  24  25
ENDBRANCH  23  24
ENDBRANCH  22  23
ENDBRANCH  21  22
ENDBRANCH  20  21
ENDBRANCH  19  20
ENDBRANCH  18  19
ENDBRANCH  17  18
ENDBRANCH   1  17
TORSDOF 26
ENDMDL
MODEL 6
REMARK VINA RESULT:    -3.323      1.709      5.117
REMARK INTER + INTRA:         -12.758
REMARK INTER:                  -9.490
REMARK INTRA:                  -3.269
REMARK UNBOUND:                -4.386
REMARK SMILES CCCCCCCCCCCCCCCCCCCCCCCCCCCC(=O)[O-]
REMARK SMILES IDX 15 1 16 2 17 3 18 4 19 5 20 6 21 7 22 8 23 9 24 10 25 11
REMARK SMILES IDX 26 12 27 13 28 14 29 15 30 16 14 17 13 18 12 19 11 20 10 21
REMARK SMILES IDX 9 22 8 23 7 24 6 25 5 26 4 27 3 28 2 29 1 30
REMARK H PARENT
REMARK Flexibility Score: inf
ROOT
ATOM      1  C   UNL     1      83.412 123.492 126.127  1.00  0.00     0.000 C 
ENDROOT
BRANCH   1   2
ATOM      2  C   UNL     1      82.082 124.099 126.598  1.00  0.00     0.000 C 
BRANCH   2   3
ATOM      3  C   UNL     1      81.891 123.892 128.106  1.00  0.00     0.000 C 
BRANCH   3   4
ATOM      4  C   UNL     1      82.792 124.841 128.910  1.00  0.00     0.000 C 
BRANCH   4   5
ATOM      5  C   UNL     1      82.170 125.271 130.251  1.00  0.00     0.000 C 
BRANCH   5   6
ATOM      6  C   UNL     1      82.781 126.534 130.885  1.00  0.00     0.000 C 
BRANCH   6   7
ATOM      7  C   UNL     1      83.874 126.221 131.921  1.00  0.00     0.000 C 
BRANCH   7   8
ATOM      8  C   UNL     1      83.766 124.794 132.481  1.00  0.00     0.000 C 
BRANCH   8   9
ATOM      9  C   UNL     1      85.087 124.294 133.088  1.00  0.00     0.000 C 
BRANCH   9  10
ATOM     10  C   UNL     1      85.125 122.759 133.125  1.00  0.00     0.000 C 
BRANCH  10  11
ATOM     11  C   UNL     1      85.731 122.142 131.850  1.00  0.00     0.000 C 
BRANCH  11  12
ATOM     12  C   UNL     1      86.725 120.990 132.093  1.00  0.00     0.006 C 
BRANCH  12  13
ATOM     13  C   UNL     1      87.488 120.582 130.827  1.00  0.00     0.053 C 
BRANCH  13  14
ATOM     14  C   UNL     1      88.702 121.437 130.651  1.00  0.00     0.041 C 
ATOM     15  O   UNL     1      88.715 122.350 129.784  1.00  0.00    -0.550 OA
ATOM     16  O   UNL     1      89.805 121.258 131.476  1.00  0.00    -0.550 OA
ENDBRANCH  13  14
ENDBRANCH  12  13
ENDBRANCH  11  12
ENDBRANCH  10  11
ENDBRANCH   9  10
ENDBRANCH   8   9
ENDBRANCH   7   8
ENDBRANCH   6   7
ENDBRANCH   5   6
ENDBRANCH   4   5
ENDBRANCH   3   4
ENDBRANCH   2   3
ENDBRANCH   1   2
BRANCH   1  17
ATOM     17  C   UNL     1      83.592 123.558 124.602  1.00  0.00     0.000 C 
BRANCH  17  18
ATOM     18  C   UNL     1      83.802 122.170 123.968  1.00  0.00     0.000 C 
BRANCH  18  19
ATOM     19  C   UNL     1      82.721 121.153 124.393  1.00  0.00     0.000 C 
BRANCH  19  20
ATOM     20  C   UNL     1      83.270 119.747 124.694  1.00  0.00     0.000 C 
BRANCH  20  21
ATOM     21  C   UNL     1      82.528 119.047 125.841  1.00  0.00     0.000 C 
BRANCH  21  22
ATOM     22  C   UNL     1      82.678 119.829 127.152  1.00  0.00    -0.000 C 
BRANCH  22  23
ATOM     23  C   UNL     1      83.269 118.944 128.260  1.00  0.00    -0.000 C 
BRANCH  23  24
ATOM     24  C   UNL     1      84.802 119.043 128.355  1.00  0.00    -0.000 C 
BRANCH  24  25
ATOM     25  C   UNL     1      85.411 120.328 127.764  1.00  0.00    -0.000 C 
BRANCH  25  26
ATOM     26  C   UNL     1      84.889 121.606 128.438  1.00  0.00    -0.000 C 
BRANCH  26  27
ATOM     27  C   UNL     1      85.693 122.832 127.982  1.00  0.00    -0.000 C 
BRANCH  27  28
ATOM     28  C   UNL     1      85.989 123.817 129.127  1.00  0.00    -0.000 C 
BRANCH  28  29
ATOM     29  C   UNL     1      86.712 125.108 128.700  1.00  0.00    -0.003 C 
ATOM     30  C   UNL     1      85.757 126.198 128.216  1.00  0.00     0.004 C 
ENDBRANCH  28  29
ENDBRANCH  27  28
ENDBRANCH  26  27
ENDBRANCH  25  26
ENDBRANCH  24  25
ENDBRANCH  23  24
ENDBRANCH  22  23
ENDBRANCH  21  22
ENDBRANCH  20  21
ENDBRANCH  19  20
ENDBRANCH  18  19
ENDBRANCH  17  18
ENDBRANCH   1  17
TORSDOF 26
ENDMDL
MODEL 7
REMARK VINA RESULT:    -3.125      1.573      6.235
REMARK INTER + INTRA:         -12.261
REMARK INTER:                  -8.450
REMARK INTRA:                  -3.810
REMARK UNBOUND:                -4.386
REMARK SMILES CCCCCCCCCCCCCCCCCCCCCCCCCCCC(=O)[O-]
REMARK SMILES IDX 15 1 16 2 17 3 18 4 19 5 20 6 21 7 22 8 23 9 24 10 25 11
REMARK SMILES IDX 26 12 27 13 28 14 29 15 30 16 14 17 13 18 12 19 11 20 10 21
REMARK SMILES IDX 9 22 8 23 7 24 6 25 5 26 4 27 3 28 2 29 1 30
REMARK H PARENT
REMARK Flexibility Score: inf
ROOT
ATOM      1  C   UNL     1      82.447 123.612 130.408  1.00  0.00     0.000 C 
ENDROOT
BRANCH   1   2
ATOM      2  C   UNL     1      81.875 122.207 130.166  1.00  0.00     0.000 C 
BRANCH   2   3
ATOM      3  C   UNL     1      82.979 121.145 130.251  1.00  0.00     0.000 C 
BRANCH   3   4
ATOM      4  C   UNL     1      82.869 120.143 129.093  1.00  0.00     0.000 C 
BRANCH   4   5
ATOM      5  C   UNL     1      82.349 120.779 127.791  1.00  0.00     0.000 C 
BRANCH   5   6
ATOM      6  C   UNL     1      81.902 119.784 126.705  1.00  0.00     0.000 C 
BRANCH   6   7
ATOM      7  C   UNL     1      83.069 119.266 125.845  1.00  0.00     0.000 C 
BRANCH   7   8
ATOM      8  C   UNL     1      84.005 120.392 125.379  1.00  0.00     0.000 C 
BRANCH   8   9
ATOM      9  C   UNL     1      83.274 121.473 124.568  1.00  0.00     0.000 C 
BRANCH   9  10
ATOM     10  C   UNL     1      84.161 122.714 124.384  1.00  0.00     0.000 C 
BRANCH  10  11
ATOM     11  C   UNL     1      83.550 123.986 125.000  1.00  0.00     0.000 C 
BRANCH  11  12
ATOM     12  C   UNL     1      83.775 124.149 126.515  1.00  0.00     0.006 C 
BRANCH  12  13
ATOM     13  C   UNL     1      85.096 123.532 126.992  1.00  0.00     0.053 C 
BRANCH  13  14
ATOM     14  C   UNL     1      85.952 124.572 127.642  1.00  0.00     0.041 C 
ATOM     15  O   UNL     1      87.125 124.292 128.001  1.00  0.00    -0.550 OA
ATOM     16  O   UNL     1      85.471 125.864 127.810  1.00  0.00    -0.550 OA
ENDBRANCH  13  14
ENDBRANCH  12  13
ENDBRANCH  11  12
ENDBRANCH  10  11
ENDBRANCH   9  10
ENDBRANCH   8   9
ENDBRANCH   7   8
ENDBRANCH   6   7
ENDBRANCH   5   6
ENDBRANCH   4   5
ENDBRANCH   3   4
ENDBRANCH   2   3
ENDBRANCH   1   2
BRANCH   1  17
ATOM     17  C   UNL     1      82.020 124.624 129.334  1.00  0.00     0.000 C 
BRANCH  17  18
ATOM     18  C   UNL     1      81.931 126.063 129.876  1.00  0.00     0.000 C 
BRANCH  18  19
ATOM     19  C   UNL     1      83.174 126.467 130.698  1.00  0.00     0.000 C 
BRANCH  19  20
ATOM     20  C   UNL     1      82.907 126.615 132.205  1.00  0.00     0.000 C 
BRANCH  20  21
ATOM     21  C   UNL     1      83.519 125.479 133.038  1.00  0.00     0.000 C 
BRANCH  21  22
ATOM     22  C   UNL     1      85.045 125.610 133.109  1.00  0.00    -0.000 C 
BRANCH  22  23
ATOM     23  C   UNL     1      85.732 124.292 132.721  1.00  0.00    -0.000 C 
BRANCH  23  24
ATOM     24  C   UNL     1      86.490 124.379 131.384  1.00  0.00    -0.000 C 
BRANCH  24  25
ATOM     25  C   UNL     1      87.106 123.055 130.895  1.00  0.00    -0.000 C 
BRANCH  25  26
ATOM     26  C   UNL     1      87.868 122.303 131.997  1.00  0.00    -0.000 C 
BRANCH  26  27
ATOM     27  C   UNL     1      87.665 120.787 131.865  1.00  0.00    -0.000 C 
BRANCH  27  28
ATOM     28  C   UNL     1      86.509 120.414 130.920  1.00  0.00    -0.000 C 
BRANCH  28  29
ATOM     29  C   UNL     1      86.944 119.823 129.566  1.00  0.00    -0.003 C 
ATOM     30  C   UNL     1      86.283 120.510 128.372  1.00  0.00     0.004 C 
ENDBRANCH  28  29
ENDBRANCH  27  28
ENDBRANCH  26  27
ENDBRANCH  25  26
ENDBRANCH  24  25
ENDBRANCH  23  24
ENDBRANCH  22  23
ENDBRANCH  21  22
ENDBRANCH  20  21
ENDBRANCH  19  20
ENDBRANCH  18  19
ENDBRANCH  17  18
ENDBRANCH   1  17
TORSDOF 26
ENDMDL
MODEL 8
REMARK VINA RESULT:    -3.095      2.507      7.629
REMARK INTER + INTRA:         -12.184
REMARK INTER:                  -9.407
REMARK INTRA:                  -2.777
REMARK UNBOUND:                -4.386
REMARK SMILES CCCCCCCCCCCCCCCCCCCCCCCCCCCC(=O)[O-]
REMARK SMILES IDX 15 1 16 2 17 3 18 4 19 5 20 6 21 7 22 8 23 9 24 10 25 11
REMARK SMILES IDX 26 12 27 13 28 14 29 15 30 16 14 17 13 18 12 19 11 20 10 21
REMARK SMILES IDX 9 22 8 23 7 24 6 25 5 26 4 27 3 28 2 29 1 30
REMARK H PARENT
REMARK Flexibility Score: inf
ROOT
ATOM      1  C   UNL     1      83.774 124.199 126.302  1.00  0.00     0.000 C 
ENDROOT
BRANCH   1   2
ATOM      2  C   UNL     1      84.242 122.969 125.510  1.00  0.00     0.000 C 
BRANCH   2   3
ATOM      3  C   UNL     1      83.561 122.913 124.136  1.00  0.00     0.000 C 
BRANCH   3   4
ATOM      4  C   UNL     1      82.925 121.536 123.895  1.00  0.00     0.000 C 
BRANCH   4   5
ATOM      5  C   UNL     1      83.243 120.520 125.007  1.00  0.00     0.000 C 
BRANCH   5   6
ATOM      6  C   UNL     1      82.074 120.192 125.953  1.00  0.00     0.000 C 
BRANCH   6   7
ATOM      7  C   UNL     1      82.536 119.676 127.327  1.00  0.00     0.000 C 
BRANCH   7   8
ATOM      8  C   UNL     1      84.047 119.399 127.377  1.00  0.00     0.000 C 
BRANCH   8   9
ATOM      9  C   UNL     1      84.550 119.108 128.799  1.00  0.00     0.000 C 
BRANCH   9  10
ATOM     10  C   UNL     1      86.084 119.158 128.859  1.00  0.00     0.000 C 
BRANCH  10  11
ATOM     11  C   UNL     1      86.633 119.058 130.294  1.00  0.00     0.000 C 
BRANCH  11  12
ATOM     12  C   UNL     1      86.758 120.400 131.039  1.00  0.00     0.006 C 
BRANCH  12  13
ATOM     13  C   UNL     1      87.838 121.314 130.447  1.00  0.00     0.053 C 
BRANCH  13  14
ATOM     14  C   UNL     1      87.704 122.700 130.991  1.00  0.00     0.041 C 
ATOM     15  O   UNL     1      88.255 123.667 130.404  1.00  0.00    -0.550 OA
ATOM     16  O   UNL     1      86.930 122.933 132.121  1.00  0.00    -0.550 OA
ENDBRANCH  13  14
ENDBRANCH  12  13
ENDBRANCH  11  12
ENDBRANCH  10  11
ENDBRANCH   9  10
ENDBRANCH   8   9
ENDBRANCH   7   8
ENDBRANCH   6   7
ENDBRANCH   5   6
ENDBRANCH   4   5
ENDBRANCH   3   4
ENDBRANCH   2   3
ENDBRANCH   1   2
BRANCH   1  17
ATOM     17  C   UNL     1      82.289 124.130 126.690  1.00  0.00     0.000 C 
BRANCH  17  18
ATOM     18  C   UNL     1      82.067 124.222 128.211  1.00  0.00     0.000 C 
BRANCH  18  19
ATOM     19  C   UNL     1      82.031 122.837 128.892  1.00  0.00     0.000 C 
BRANCH  19  20
ATOM     20  C   UNL     1      83.322 122.478 129.648  1.00  0.00     0.000 C 
BRANCH  20  21
ATOM     21  C   UNL     1      83.480 123.249 130.966  1.00  0.00     0.000 C 
BRANCH  21  22
ATOM     22  C   UNL     1      82.120 123.719 131.495  1.00  0.00    -0.000 C 
BRANCH  22  23
ATOM     23  C   UNL     1      82.275 124.479 132.822  1.00  0.00    -0.000 C 
BRANCH  23  24
ATOM     24  C   UNL     1      81.878 125.962 132.716  1.00  0.00    -0.000 C 
BRANCH  24  25
ATOM     25  C   UNL     1      83.025 126.920 132.345  1.00  0.00    -0.000 C 
BRANCH  25  26
ATOM     26  C   UNL     1      82.531 128.288 131.852  1.00  0.00    -0.000 C 
BRANCH  26  27
ATOM     27  C   UNL     1      82.563 129.323 132.986  1.00  0.00    -0.000 C 
BRANCH  27  28
ATOM     28  C   UNL     1      83.245 130.641 132.578  1.00  0.00    -0.000 C 
BRANCH  28  29
ATOM     29  C   UNL     1      82.291 131.726 132.045  1.00  0.00    -0.003 C 
ATOM     30  C   UNL     1      82.980 132.730 131.122  1.00  0.00     0.004 C 
ENDBRANCH  28  29
ENDBRANCH  27  28
ENDBRANCH  26  27
ENDBRANCH  25  26
ENDBRANCH  24  25
ENDBRANCH  23  24
ENDBRANCH  22  23
ENDBRANCH  21  22
ENDBRANCH  20  21
ENDBRANCH  19  20
ENDBRANCH  18  19
ENDBRANCH  17  18
ENDBRANCH   1  17
TORSDOF 26
ENDMDL
MODEL 9
REMARK VINA RESULT:    -3.042      1.694      6.993
REMARK INTER + INTRA:         -12.050
REMARK INTER:                  -8.988
REMARK INTRA:                  -3.062
REMARK UNBOUND:                -4.386
REMARK SMILES CCCCCCCCCCCCCCCCCCCCCCCCCCCC(=O)[O-]
REMARK SMILES IDX 15 1 16 2 17 3 18 4 19 5 20 6 21 7 22 8 23 9 24 10 25 11
REMARK SMILES IDX 26 12 27 13 28 14 29 15 30 16 14 17 13 18 12 19 11 20 10 21
REMARK SMILES IDX 9 22 8 23 7 24 6 25 5 26 4 27 3 28 2 29 1 30
REMARK H PARENT
REMARK Flexibility Score: inf
ROOT
ATOM      1  C   UNL     1      85.115 124.702 127.855  1.00  0.00     0.000 C 
ENDROOT
BRANCH   1   2
ATOM      2  C   UNL     1      84.323 123.453 128.268  1.00  0.00     0.000 C 
BRANCH   2   3
ATOM      3  C   UNL     1      82.868 123.546 127.790  1.00  0.00     0.000 C 
BRANCH   3   4
ATOM      4  C   UNL     1      82.802 123.768 126.272  1.00  0.00     0.000 C 
BRANCH   4   5
ATOM      5  C   UNL     1      84.187 123.754 125.599  1.00  0.00     0.000 C 
BRANCH   5   6
ATOM      6  C   UNL     1      84.378 122.684 124.509  1.00  0.00     0.000 C 
BRANCH   6   7
ATOM      7  C   UNL     1      83.285 122.724 123.426  1.00  0.00     0.000 C 
BRANCH   7   8
ATOM      8  C   UNL     1      82.842 121.321 122.981  1.00  0.00     0.000 C 
BRANCH   8   9
ATOM      9  C   UNL     1      81.908 120.645 123.997  1.00  0.00     0.000 C 
BRANCH   9  10
ATOM     10  C   UNL     1      82.388 119.222 124.320  1.00  0.00     0.000 C 
BRANCH  10  11
ATOM     11  C   UNL     1      82.375 118.912 125.829  1.00  0.00     0.000 C 
BRANCH  11  12
ATOM     12  C   UNL     1      82.590 120.131 126.746  1.00  0.00     0.006 C 
BRANCH  12  13
ATOM     13  C   UNL     1      83.363 119.788 128.025  1.00  0.00     0.053 C 
BRANCH  13  14
ATOM     14  C   UNL     1      84.834 119.779 127.759  1.00  0.00     0.041 C 
ATOM     15  O   UNL     1      85.340 120.618 126.969  1.00  0.00    -0.550 OA
ATOM     16  O   UNL     1      85.656 118.875 128.421  1.00  0.00    -0.550 OA
ENDBRANCH  13  14
ENDBRANCH  12  13
ENDBRANCH  11  12
ENDBRANCH  10  11
ENDBRANCH   9  10
ENDBRANCH   8   9
ENDBRANCH   7   8
ENDBRANCH   6   7
ENDBRANCH   5   6
ENDBRANCH   4   5
ENDBRANCH   3   4
ENDBRANCH   2   3
ENDBRANCH   1   2
BRANCH   1  17
ATOM     17  C   UNL     1      85.932 125.301 129.011  1.00  0.00     0.000 C 
BRANCH  17  18
ATOM     18  C   UNL     1      85.062 125.658 130.230  1.00  0.00     0.000 C 
BRANCH  18  19
ATOM     19  C   UNL     1      83.732 126.335 129.834  1.00  0.00     0.000 C 
BRANCH  19  20
ATOM     20  C   UNL     1      82.490 125.704 130.489  1.00  0.00     0.000 C 
BRANCH  20  21
ATOM     21  C   UNL     1      82.325 126.095 131.964  1.00  0.00     0.000 C 
BRANCH  21  22
ATOM     22  C   UNL     1      82.568 124.891 132.883  1.00  0.00    -0.000 C 
BRANCH  22  23
ATOM     23  C   UNL     1      82.008 123.601 132.263  1.00  0.00    -0.000 C 
BRANCH  23  24
ATOM     24  C   UNL     1      83.109 122.631 131.798  1.00  0.00    -0.000 C 
BRANCH  24  25
ATOM     25  C   UNL     1      84.390 122.639 132.652  1.00  0.00    -0.000 C 
BRANCH  25  26
ATOM     26  C   UNL     1      85.675 122.676 131.810  1.00  0.00    -0.000 C 
BRANCH  26  27
ATOM     27  C   UNL     1      85.828 121.388 130.988  1.00  0.00    -0.000 C 
BRANCH  27  28
ATOM     28  C   UNL     1      87.247 121.200 130.423  1.00  0.00    -0.000 C 
BRANCH  28  29
ATOM     29  C   UNL     1      87.976 122.506 130.057  1.00  0.00    -0.003 C 
ATOM     30  C   UNL     1      88.863 123.034 131.185  1.00  0.00     0.004 C 
ENDBRANCH  28  29
ENDBRANCH  27  28
ENDBRANCH  26  27
ENDBRANCH  25  26
ENDBRANCH  24  25
ENDBRANCH  23  24
ENDBRANCH  22  23
ENDBRANCH  21  22
ENDBRANCH  20  21
ENDBRANCH  19  20
ENDBRANCH  18  19
ENDBRANCH  17  18
ENDBRANCH   1  17
TORSDOF 26
ENDMDL
