MODEL 1
REMARK VINA RESULT:    -4.937      0.000      0.000
REMARK INTER + INTRA:          -6.391
REMARK INTER:                  -6.092
REMARK INTRA:                  -0.299
REMARK UNBOUND:                -0.299
REMARK SMILES Oc1cc(O)c2cc(O)c(-c3cc(O)c(O)c(O)c3)[o+]c2c1
REMARK SMILES IDX 10 1 20 2 21 3 22 4 2 5 3 6 4 7 6 8 7 9 8 10 11 11 12 12
REMARK SMILES IDX 13 13 19 14 15 15 17 16 14 17 16 19 18 21 9 23 1 25 5 27
REMARK H PARENT 14 18 16 20 18 22 9 24 1 26 5 28
REMARK Flexibility Score: inf
ROOT
ATOM      1  C   UNL     1      26.726  58.249 143.276  1.00  0.00     0.402 A 
ATOM      2  O   UNL     1      26.875  59.142 144.252  1.00  0.00    -0.202 OA
ATOM      3  C   UNL     1      26.132  59.146 145.355  1.00  0.00     0.368 A 
ATOM      4  C   UNL     1      26.350  60.122 146.332  1.00  0.00     0.162 A 
ATOM      5  C   UNL     1      25.573  60.140 147.495  1.00  0.00     0.128 A 
ATOM      6  C   UNL     1      24.575  59.175 147.684  1.00  0.00     0.093 A 
ATOM      7  C   UNL     1      24.347  58.189 146.713  1.00  0.00     0.136 A 
ATOM      8  C   UNL     1      25.128  58.171 145.542  1.00  0.00     0.125 A 
ATOM      9  C   UNL     1      24.950  57.207 144.545  1.00  0.00     0.078 A 
ATOM     10  C   UNL     1      25.759  57.231 143.404  1.00  0.00     0.223 A 
ENDROOT
BRANCH   1  11
ATOM     11  C   UNL     1      27.607  58.352 142.090  1.00  0.00     0.091 A 
ATOM     12  C   UNL     1      27.364  59.351 141.136  1.00  0.00     0.068 A 
ATOM     13  C   UNL     1      28.168  59.460 139.996  1.00  0.00     0.162 A 
ATOM     14  C   UNL     1      28.648  57.434 141.870  1.00  0.00     0.068 A 
ATOM     15  C   UNL     1      29.222  58.553 139.791  1.00  0.00     0.200 A 
ATOM     16  C   UNL     1      29.458  57.535 140.731  1.00  0.00     0.162 A 
BRANCH  13  17
ATOM     17  O   UNL     1      27.903  60.476 139.077  1.00  0.00    -0.504 OA
ATOM     18  H   UNL     1      28.639  60.939 138.560  1.00  0.00     0.293 HD
ENDBRANCH  13  17
BRANCH  15  19
ATOM     19  O   UNL     1      30.020  58.671 138.653  1.00  0.00    -0.502 OA
ATOM     20  H   UNL     1      30.826  59.285 138.620  1.00  0.00     0.293 HD
ENDBRANCH  15  19
BRANCH  16  21
ATOM     21  O   UNL     1      30.493  56.623 140.526  1.00  0.00    -0.504 OA
ATOM     22  H   UNL     1      31.183  56.758 139.796  1.00  0.00     0.293 HD
ENDBRANCH  16  21
ENDBRANCH   1  11
BRANCH  10  23
ATOM     23  O   UNL     1      25.621  56.243 142.429  1.00  0.00    -0.500 OA
ATOM     24  H   UNL     1      26.427  55.801 142.002  1.00  0.00     0.294 HD
ENDBRANCH  10  23
BRANCH   5  25
ATOM     25  O   UNL     1      25.803  61.121 148.457  1.00  0.00    -0.507 OA
ATOM     26  H   UNL     1      26.662  61.145 148.995  1.00  0.00     0.293 HD
ENDBRANCH   5  25
BRANCH   7  27
ATOM     27  O   UNL     1      23.351  57.232 146.913  1.00  0.00    -0.507 OA
ATOM     28  H   UNL     1      22.368  57.460 146.820  1.00  0.00     0.293 HD
ENDBRANCH   7  27
TORSDOF 7
ENDMDL
MODEL 2
REMARK VINA RESULT:    -4.426      1.598      7.333
REMARK INTER + INTRA:          -5.760
REMARK INTER:                  -6.012
REMARK INTRA:                   0.252
REMARK UNBOUND:                -0.299
REMARK SMILES Oc1cc(O)c2cc(O)c(-c3cc(O)c(O)c(O)c3)[o+]c2c1
REMARK SMILES IDX 10 1 20 2 21 3 22 4 2 5 3 6 4 7 6 8 7 9 8 10 11 11 12 12
REMARK SMILES IDX 13 13 19 14 15 15 17 16 14 17 16 19 18 21 9 23 1 25 5 27
REMARK H PARENT 14 18 16 20 18 22 9 24 1 26 5 28
REMARK Flexibility Score: inf
ROOT
ATOM      1  C   UNL     1      26.399  58.792 143.848  1.00  0.00     0.402 A 
ATOM      2  O   UNL     1      26.334  57.584 143.292  1.00  0.00    -0.202 OA
ATOM      3  C   UNL     1      26.757  57.327 142.057  1.00  0.00     0.368 A 
ATOM      4  C   UNL     1      26.648  56.030 141.545  1.00  0.00     0.162 A 
ATOM      5  C   UNL     1      27.086  55.747 140.247  1.00  0.00     0.128 A 
ATOM      6  C   UNL     1      27.635  56.766 139.456  1.00  0.00     0.093 A 
ATOM      7  C   UNL     1      27.751  58.071 139.959  1.00  0.00     0.136 A 
ATOM      8  C   UNL     1      27.310  58.355 141.265  1.00  0.00     0.125 A 
ATOM      9  C   UNL     1      27.409  59.636 141.819  1.00  0.00     0.078 A 
ATOM     10  C   UNL     1      26.963  59.863 143.125  1.00  0.00     0.223 A 
ENDROOT
BRANCH   1  11
ATOM     11  C   UNL     1      25.888  58.957 145.228  1.00  0.00     0.091 A 
ATOM     12  C   UNL     1      24.856  58.124 145.684  1.00  0.00     0.068 A 
ATOM     13  C   UNL     1      24.339  58.269 146.976  1.00  0.00     0.162 A 
ATOM     14  C   UNL     1      26.375  59.968 146.073  1.00  0.00     0.068 A 
ATOM     15  C   UNL     1      24.845  59.268 147.826  1.00  0.00     0.200 A 
ATOM     16  C   UNL     1      25.863  60.122 147.369  1.00  0.00     0.162 A 
BRANCH  13  17
ATOM     17  O   UNL     1      23.322  57.412 147.398  1.00  0.00    -0.504 OA
ATOM     18  H   UNL     1      22.447  57.328 146.897  1.00  0.00     0.293 HD
ENDBRANCH  13  17
BRANCH  15  19
ATOM     19  O   UNL     1      24.326  59.405 149.114  1.00  0.00    -0.502 OA
ATOM     20  H   UNL     1      23.586  58.807 149.464  1.00  0.00     0.293 HD
ENDBRANCH  15  19
BRANCH  16  21
ATOM     21  O   UNL     1      26.359  61.125 148.201  1.00  0.00    -0.504 OA
ATOM     22  H   UNL     1      26.065  61.206 149.168  1.00  0.00     0.293 HD
ENDBRANCH  16  21
ENDBRANCH   1  11
BRANCH  10  23
ATOM     23  O   UNL     1      27.104  61.125 143.702  1.00  0.00    -0.500 OA
ATOM     24  H   UNL     1      27.824  61.771 143.399  1.00  0.00     0.294 HD
ENDBRANCH  10  23
BRANCH   5  25
ATOM     25  O   UNL     1      26.969  54.450 139.752  1.00  0.00    -0.507 OA
ATOM     26  H   UNL     1      27.577  53.705 140.072  1.00  0.00     0.293 HD
ENDBRANCH   5  25
BRANCH   7  27
ATOM     27  O   UNL     1      28.302  59.077 139.163  1.00  0.00    -0.507 OA
ATOM     28  H   UNL     1      28.784  59.871 139.568  1.00  0.00     0.293 HD
ENDBRANCH   7  27
TORSDOF 7
ENDMDL
MODEL 3
REMARK VINA RESULT:    -4.421      1.199      7.122
REMARK INTER + INTRA:          -5.755
REMARK INTER:                  -5.417
REMARK INTRA:                  -0.338
REMARK UNBOUND:                -0.299
REMARK SMILES Oc1cc(O)c2cc(O)c(-c3cc(O)c(O)c(O)c3)[o+]c2c1
REMARK SMILES IDX 10 1 20 2 21 3 22 4 2 5 3 6 4 7 6 8 7 9 8 10 11 11 12 12
REMARK SMILES IDX 13 13 19 14 15 15 17 16 14 17 16 19 18 21 9 23 1 25 5 27
REMARK H PARENT 14 18 16 20 18 22 9 24 1 26 5 28
REMARK Flexibility Score: inf
ROOT
ATOM      1  C   UNL     1      26.967  58.503 143.570  1.00  0.00     0.402 A 
ATOM      2  O   UNL     1      26.749  59.290 142.519  1.00  0.00    -0.202 OA
ATOM      3  C   UNL     1      27.381  59.146 141.357  1.00  0.00     0.368 A 
ATOM      4  C   UNL     1      27.097  60.019 140.302  1.00  0.00     0.162 A 
ATOM      5  C   UNL     1      27.758  59.880 139.077  1.00  0.00     0.128 A 
ATOM      6  C   UNL     1      28.706  58.863 138.905  1.00  0.00     0.093 A 
ATOM      7  C   UNL     1      28.999  57.980 139.955  1.00  0.00     0.136 A 
ATOM      8  C   UNL     1      28.335  58.119 141.188  1.00  0.00     0.125 A 
ATOM      9  C   UNL     1      28.582  57.262 142.266  1.00  0.00     0.078 A 
ATOM     10  C   UNL     1      27.888  57.441 143.467  1.00  0.00     0.223 A 
ENDROOT
BRANCH   1  11
ATOM     11  C   UNL     1      26.207  58.767 144.814  1.00  0.00     0.091 A 
ATOM     12  C   UNL     1      25.084  57.983 145.115  1.00  0.00     0.068 A 
ATOM     13  C   UNL     1      24.335  58.223 146.272  1.00  0.00     0.162 A 
ATOM     14  C   UNL     1      26.552  59.826 145.671  1.00  0.00     0.068 A 
ATOM     15  C   UNL     1      24.697  59.269 147.138  1.00  0.00     0.200 A 
ATOM     16  C   UNL     1      25.807  60.075 146.832  1.00  0.00     0.162 A 
BRANCH  13  17
ATOM     17  O   UNL     1      23.233  57.412 146.543  1.00  0.00    -0.504 OA
ATOM     18  H   UNL     1      23.330  56.431 146.774  1.00  0.00     0.293 HD
ENDBRANCH  13  17
BRANCH  15  19
ATOM     19  O   UNL     1      23.946  59.500 148.291  1.00  0.00    -0.502 OA
ATOM     20  H   UNL     1      23.145  58.929 148.537  1.00  0.00     0.293 HD
ENDBRANCH  15  19
BRANCH  16  21
ATOM     21  O   UNL     1      26.163  61.123 147.679  1.00  0.00    -0.504 OA
ATOM     22  H   UNL     1      26.706  60.966 148.520  1.00  0.00     0.293 HD
ENDBRANCH  16  21
ENDBRANCH   1  11
BRANCH  10  23
ATOM     23  O   UNL     1      28.092  56.560 144.529  1.00  0.00    -0.500 OA
ATOM     24  H   UNL     1      27.521  55.731 144.650  1.00  0.00     0.294 HD
ENDBRANCH  10  23
BRANCH   5  25
ATOM     25  O   UNL     1      27.464  60.759 138.038  1.00  0.00    -0.507 OA
ATOM     26  H   UNL     1      27.567  61.762 138.147  1.00  0.00     0.293 HD
ENDBRANCH   5  25
BRANCH   7  27
ATOM     27  O   UNL     1      29.945  56.969 139.771  1.00  0.00    -0.507 OA
ATOM     28  H   UNL     1      30.403  56.520 140.556  1.00  0.00     0.293 HD
ENDBRANCH   7  27
TORSDOF 7
ENDMDL
MODEL 4
REMARK VINA RESULT:    -4.418      1.238      7.086
REMARK INTER + INTRA:          -5.751
REMARK INTER:                  -5.418
REMARK INTRA:                  -0.333
REMARK UNBOUND:                -0.299
REMARK SMILES Oc1cc(O)c2cc(O)c(-c3cc(O)c(O)c(O)c3)[o+]c2c1
REMARK SMILES IDX 10 1 20 2 21 3 22 4 2 5 3 6 4 7 6 8 7 9 8 10 11 11 12 12
REMARK SMILES IDX 13 13 19 14 15 15 17 16 14 17 16 19 18 21 9 23 1 25 5 27
REMARK H PARENT 14 18 16 20 18 22 9 24 1 26 5 28
REMARK Flexibility Score: inf
ROOT
ATOM      1  C   UNL     1      27.019  58.513 143.394  1.00  0.00     0.402 A 
ATOM      2  O   UNL     1      26.800  59.286 142.332  1.00  0.00    -0.202 OA
ATOM      3  C   UNL     1      27.455  59.147 141.183  1.00  0.00     0.368 A 
ATOM      4  C   UNL     1      27.169  60.003 140.115  1.00  0.00     0.162 A 
ATOM      5  C   UNL     1      27.854  59.870 138.903  1.00  0.00     0.128 A 
ATOM      6  C   UNL     1      28.829  58.874 138.756  1.00  0.00     0.093 A 
ATOM      7  C   UNL     1      29.125  58.007 139.819  1.00  0.00     0.136 A 
ATOM      8  C   UNL     1      28.436  58.142 141.039  1.00  0.00     0.125 A 
ATOM      9  C   UNL     1      28.685  57.301 142.129  1.00  0.00     0.078 A 
ATOM     10  C   UNL     1      27.967  57.473 143.317  1.00  0.00     0.223 A 
ENDROOT
BRANCH   1  11
ATOM     11  C   UNL     1      26.231  58.770 144.622  1.00  0.00     0.091 A 
ATOM     12  C   UNL     1      26.612  59.814 145.478  1.00  0.00     0.068 A 
ATOM     13  C   UNL     1      25.900  60.068 146.655  1.00  0.00     0.162 A 
ATOM     14  C   UNL     1      25.144  57.955 144.979  1.00  0.00     0.068 A 
ATOM     15  C   UNL     1      24.799  59.263 146.997  1.00  0.00     0.200 A 
ATOM     16  C   UNL     1      24.425  58.201 146.157  1.00  0.00     0.162 A 
BRANCH  13  17
ATOM     17  O   UNL     1      26.301  61.124 147.473  1.00  0.00    -0.504 OA
ATOM     18  H   UNL     1      25.645  61.643 148.044  1.00  0.00     0.293 HD
ENDBRANCH  13  17
BRANCH  15  19
ATOM     19  O   UNL     1      24.093  59.525 148.171  1.00  0.00    -0.502 OA
ATOM     20  H   UNL     1      23.129  59.839 148.163  1.00  0.00     0.293 HD
ENDBRANCH  15  19
BRANCH  16  21
ATOM     21  O   UNL     1      23.344  57.389 146.497  1.00  0.00    -0.504 OA
ATOM     22  H   UNL     1      23.249  56.994 147.426  1.00  0.00     0.293 HD
ENDBRANCH  16  21
ENDBRANCH   1  11
BRANCH  10  23
ATOM     23  O   UNL     1      28.173  56.606 144.390  1.00  0.00    -0.500 OA
ATOM     24  H   UNL     1      27.472  56.476 145.111  1.00  0.00     0.294 HD
ENDBRANCH  10  23
BRANCH   5  25
ATOM     25  O   UNL     1      27.557  60.733 137.850  1.00  0.00    -0.507 OA
ATOM     26  H   UNL     1      26.780  61.381 137.901  1.00  0.00     0.293 HD
ENDBRANCH   5  25
BRANCH   7  27
ATOM     27  O   UNL     1      30.097  57.018 139.661  1.00  0.00    -0.507 OA
ATOM     28  H   UNL     1      30.143  56.447 138.825  1.00  0.00     0.293 HD
ENDBRANCH   7  27
TORSDOF 7
ENDMDL
MODEL 5
REMARK VINA RESULT:    -4.384      1.679      6.900
REMARK INTER + INTRA:          -5.709
REMARK INTER:                  -6.032
REMARK INTRA:                   0.323
REMARK UNBOUND:                -0.299
REMARK SMILES Oc1cc(O)c2cc(O)c(-c3cc(O)c(O)c(O)c3)[o+]c2c1
REMARK SMILES IDX 10 1 20 2 21 3 22 4 2 5 3 6 4 7 6 8 7 9 8 10 11 11 12 12
REMARK SMILES IDX 13 13 19 14 15 15 17 16 14 17 16 19 18 21 9 23 1 25 5 27
REMARK H PARENT 14 18 16 20 18 22 9 24 1 26 5 28
REMARK Flexibility Score: inf
ROOT
ATOM      1  C   UNL     1      26.736  58.030 143.724  1.00  0.00     0.402 A 
ATOM      2  O   UNL     1      27.960  58.522 143.542  1.00  0.00    -0.202 OA
ATOM      3  C   UNL     1      28.740  58.174 142.522  1.00  0.00     0.368 A 
ATOM      4  C   UNL     1      30.016  58.734 142.405  1.00  0.00     0.162 A 
ATOM      5  C   UNL     1      30.847  58.375 141.339  1.00  0.00     0.128 A 
ATOM      6  C   UNL     1      30.401  57.451 140.385  1.00  0.00     0.093 A 
ATOM      7  C   UNL     1      29.122  56.883 140.489  1.00  0.00     0.136 A 
ATOM      8  C   UNL     1      28.286  57.244 141.562  1.00  0.00     0.125 A 
ATOM      9  C   UNL     1      26.999  56.716 141.711  1.00  0.00     0.078 A 
ATOM     10  C   UNL     1      26.206  57.114 142.792  1.00  0.00     0.223 A 
ENDROOT
BRANCH   1  11
ATOM     11  C   UNL     1      25.965  58.487 144.903  1.00  0.00     0.091 A 
ATOM     12  C   UNL     1      26.430  59.581 145.648  1.00  0.00     0.068 A 
ATOM     13  C   UNL     1      25.734  60.023 146.778  1.00  0.00     0.162 A 
ATOM     14  C   UNL     1      24.808  57.812 145.328  1.00  0.00     0.068 A 
ATOM     15  C   UNL     1      24.565  59.359 147.187  1.00  0.00     0.200 A 
ATOM     16  C   UNL     1      24.105  58.247 146.460  1.00  0.00     0.162 A 
BRANCH  13  17
ATOM     17  O   UNL     1      26.221  61.124 147.484  1.00  0.00    -0.504 OA
ATOM     18  H   UNL     1      25.775  62.032 147.440  1.00  0.00     0.293 HD
ENDBRANCH  13  17
BRANCH  15  19
ATOM     19  O   UNL     1      23.875  59.807 148.314  1.00  0.00    -0.502 OA
ATOM     20  H   UNL     1      22.949  59.469 148.550  1.00  0.00     0.293 HD
ENDBRANCH  15  19
BRANCH  16  21
ATOM     21  O   UNL     1      22.954  57.574 146.868  1.00  0.00    -0.504 OA
ATOM     22  H   UNL     1      22.682  57.532 147.844  1.00  0.00     0.293 HD
ENDBRANCH  16  21
ENDBRANCH   1  11
BRANCH  10  23
ATOM     23  O   UNL     1      24.904  56.630 142.920  1.00  0.00    -0.500 OA
ATOM     24  H   UNL     1      24.715  55.644 143.061  1.00  0.00     0.294 HD
ENDBRANCH  10  23
BRANCH   5  25
ATOM     25  O   UNL     1      32.116  58.942 141.239  1.00  0.00    -0.507 OA
ATOM     26  H   UNL     1      32.264  59.935 141.376  1.00  0.00     0.293 HD
ENDBRANCH   5  25
BRANCH   7  27
ATOM     27  O   UNL     1      28.688  55.965 139.531  1.00  0.00    -0.507 OA
ATOM     28  H   UNL     1      27.920  55.329 139.714  1.00  0.00     0.293 HD
ENDBRANCH   7  27
TORSDOF 7
ENDMDL
MODEL 6
REMARK VINA RESULT:    -4.374      2.209      3.663
REMARK INTER + INTRA:          -5.696
REMARK INTER:                  -5.721
REMARK INTRA:                   0.025
REMARK UNBOUND:                -0.299
REMARK SMILES Oc1cc(O)c2cc(O)c(-c3cc(O)c(O)c(O)c3)[o+]c2c1
REMARK SMILES IDX 10 1 20 2 21 3 22 4 2 5 3 6 4 7 6 8 7 9 8 10 11 11 12 12
REMARK SMILES IDX 13 13 19 14 15 15 17 16 14 17 16 19 18 21 9 23 1 25 5 27
REMARK H PARENT 14 18 16 20 18 22 9 24 1 26 5 28
REMARK Flexibility Score: inf
ROOT
ATOM      1  C   UNL     1      26.154  57.667 143.072  1.00  0.00     0.402 A 
ATOM      2  O   UNL     1      25.284  57.381 144.038  1.00  0.00    -0.202 OA
ATOM      3  C   UNL     1      25.163  58.105 145.147  1.00  0.00     0.368 A 
ATOM      4  C   UNL     1      24.226  57.734 146.117  1.00  0.00     0.162 A 
ATOM      5  C   UNL     1      24.092  58.485 147.289  1.00  0.00     0.128 A 
ATOM      6  C   UNL     1      24.897  59.614 147.493  1.00  0.00     0.093 A 
ATOM      7  C   UNL     1      25.839  59.998 146.527  1.00  0.00     0.136 A 
ATOM      8  C   UNL     1      25.975  59.242 145.348  1.00  0.00     0.125 A 
ATOM      9  C   UNL     1      26.892  59.583 144.348  1.00  0.00     0.078 A 
ATOM     10  C   UNL     1      26.982  58.801 143.192  1.00  0.00     0.223 A 
ENDROOT
BRANCH   1  11
ATOM     11  C   UNL     1      26.202  56.780 141.887  1.00  0.00     0.091 A 
ATOM     12  C   UNL     1      27.445  56.388 141.369  1.00  0.00     0.068 A 
ATOM     13  C   UNL     1      27.522  55.567 140.238  1.00  0.00     0.162 A 
ATOM     14  C   UNL     1      25.028  56.367 141.233  1.00  0.00     0.068 A 
ATOM     15  C   UNL     1      26.345  55.139 139.601  1.00  0.00     0.200 A 
ATOM     16  C   UNL     1      25.095  55.546 140.099  1.00  0.00     0.162 A 
BRANCH  13  17
ATOM     17  O   UNL     1      28.777  55.188 139.763  1.00  0.00    -0.504 OA
ATOM     18  H   UNL     1      29.309  55.767 139.124  1.00  0.00     0.293 HD
ENDBRANCH  13  17
BRANCH  15  19
ATOM     19  O   UNL     1      26.430  54.319 138.476  1.00  0.00    -0.502 OA
ATOM     20  H   UNL     1      26.309  54.678 137.535  1.00  0.00     0.293 HD
ENDBRANCH  15  19
BRANCH  16  21
ATOM     21  O   UNL     1      23.924  55.137 139.463  1.00  0.00    -0.504 OA
ATOM     22  H   UNL     1      23.064  55.669 139.540  1.00  0.00     0.293 HD
ENDBRANCH  16  21
ENDBRANCH   1  11
BRANCH  10  23
ATOM     23  O   UNL     1      27.858  59.164 142.169  1.00  0.00    -0.500 OA
ATOM     24  H   UNL     1      28.429  58.477 141.690  1.00  0.00     0.294 HD
ENDBRANCH  10  23
BRANCH   5  25
ATOM     25  O   UNL     1      23.154  58.100 148.245  1.00  0.00    -0.507 OA
ATOM     26  H   UNL     1      22.437  57.415 148.037  1.00  0.00     0.293 HD
ENDBRANCH   5  25
BRANCH   7  27
ATOM     27  O   UNL     1      26.635  61.125 146.740  1.00  0.00    -0.507 OA
ATOM     28  H   UNL     1      27.197  61.527 145.999  1.00  0.00     0.293 HD
ENDBRANCH   7  27
TORSDOF 7
ENDMDL
MODEL 7
REMARK VINA RESULT:    -4.316      1.589      7.284
REMARK INTER + INTRA:          -5.625
REMARK INTER:                  -5.910
REMARK INTRA:                   0.285
REMARK UNBOUND:                -0.299
REMARK SMILES Oc1cc(O)c2cc(O)c(-c3cc(O)c(O)c(O)c3)[o+]c2c1
REMARK SMILES IDX 10 1 20 2 21 3 22 4 2 5 3 6 4 7 6 8 7 9 8 10 11 11 12 12
REMARK SMILES IDX 13 13 19 14 15 15 17 16 14 17 16 19 18 21 9 23 1 25 5 27
REMARK H PARENT 14 18 16 20 18 22 9 24 1 26 5 28
REMARK Flexibility Score: inf
ROOT
ATOM      1  C   UNL     1      26.410  58.792 143.825  1.00  0.00     0.402 A 
ATOM      2  O   UNL     1      26.364  57.583 143.268  1.00  0.00    -0.202 OA
ATOM      3  C   UNL     1      26.827  57.326 142.048  1.00  0.00     0.368 A 
ATOM      4  C   UNL     1      26.736  56.029 141.533  1.00  0.00     0.162 A 
ATOM      5  C   UNL     1      27.216  55.745 140.251  1.00  0.00     0.128 A 
ATOM      6  C   UNL     1      27.791  56.763 139.478  1.00  0.00     0.093 A 
ATOM      7  C   UNL     1      27.889  58.069 139.983  1.00  0.00     0.136 A 
ATOM      8  C   UNL     1      27.406  58.354 141.274  1.00  0.00     0.125 A 
ATOM      9  C   UNL     1      27.486  59.635 141.831  1.00  0.00     0.078 A 
ATOM     10  C   UNL     1      26.997  59.863 143.121  1.00  0.00     0.223 A 
ENDROOT
BRANCH   1  11
ATOM     11  C   UNL     1      25.854  58.957 145.188  1.00  0.00     0.091 A 
ATOM     12  C   UNL     1      26.377  59.950 146.030  1.00  0.00     0.068 A 
ATOM     13  C   UNL     1      25.885  60.117 147.329  1.00  0.00     0.162 A 
ATOM     14  C   UNL     1      24.853  58.102 145.679  1.00  0.00     0.068 A 
ATOM     15  C   UNL     1      24.868  59.273 147.808  1.00  0.00     0.200 A 
ATOM     16  C   UNL     1      24.355  58.260 146.979  1.00  0.00     0.162 A 
BRANCH  13  17
ATOM     17  O   UNL     1      26.421  61.125 148.130  1.00  0.00    -0.504 OA
ATOM     18  H   UNL     1      26.045  61.344 149.044  1.00  0.00     0.293 HD
ENDBRANCH  13  17
BRANCH  15  19
ATOM     19  O   UNL     1      24.382  59.447 149.104  1.00  0.00    -0.502 OA
ATOM     20  H   UNL     1      23.917  60.299 149.396  1.00  0.00     0.293 HD
ENDBRANCH  15  19
BRANCH  16  21
ATOM     21  O   UNL     1      23.357  57.410 147.453  1.00  0.00    -0.504 OA
ATOM     22  H   UNL     1      22.966  57.516 148.383  1.00  0.00     0.293 HD
ENDBRANCH  16  21
ENDBRANCH   1  11
BRANCH  10  23
ATOM     23  O   UNL     1      27.118  61.125 143.702  1.00  0.00    -0.500 OA
ATOM     24  H   UNL     1      26.887  61.970 143.191  1.00  0.00     0.294 HD
ENDBRANCH  10  23
BRANCH   5  25
ATOM     25  O   UNL     1      27.116  54.448 139.753  1.00  0.00    -0.507 OA
ATOM     26  H   UNL     1      27.804  53.739 139.981  1.00  0.00     0.293 HD
ENDBRANCH   5  25
BRANCH   7  27
ATOM     27  O   UNL     1      28.466  59.074 139.205  1.00  0.00    -0.507 OA
ATOM     28  H   UNL     1      28.292  59.141 138.209  1.00  0.00     0.293 HD
ENDBRANCH   7  27
TORSDOF 7
ENDMDL
MODEL 8
REMARK VINA RESULT:    -4.224      1.700      6.953
REMARK INTER + INTRA:          -5.512
REMARK INTER:                  -5.925
REMARK INTRA:                   0.413
REMARK UNBOUND:                -0.299
REMARK SMILES Oc1cc(O)c2cc(O)c(-c3cc(O)c(O)c(O)c3)[o+]c2c1
REMARK SMILES IDX 10 1 20 2 21 3 22 4 2 5 3 6 4 7 6 8 7 9 8 10 11 11 12 12
REMARK SMILES IDX 13 13 19 14 15 15 17 16 14 17 16 19 18 21 9 23 1 25 5 27
REMARK H PARENT 14 18 16 20 18 22 9 24 1 26 5 28
REMARK Flexibility Score: inf
ROOT
ATOM      1  C   UNL     1      26.735  57.986 143.750  1.00  0.00     0.402 A 
ATOM      2  O   UNL     1      27.955  58.476 143.540  1.00  0.00    -0.202 OA
ATOM      3  C   UNL     1      28.712  58.125 142.503  1.00  0.00     0.368 A 
ATOM      4  C   UNL     1      29.985  58.683 142.357  1.00  0.00     0.162 A 
ATOM      5  C   UNL     1      30.792  58.320 141.273  1.00  0.00     0.128 A 
ATOM      6  C   UNL     1      30.324  57.396 140.331  1.00  0.00     0.093 A 
ATOM      7  C   UNL     1      29.047  56.829 140.465  1.00  0.00     0.136 A 
ATOM      8  C   UNL     1      28.235  57.194 141.556  1.00  0.00     0.125 A 
ATOM      9  C   UNL     1      26.952  56.667 141.735  1.00  0.00     0.078 A 
ATOM     10  C   UNL     1      26.183  57.069 142.832  1.00  0.00     0.223 A 
ENDROOT
BRANCH   1  11
ATOM     11  C   UNL     1      25.991  58.446 144.945  1.00  0.00     0.091 A 
ATOM     12  C   UNL     1      24.818  57.779 145.326  1.00  0.00     0.068 A 
ATOM     13  C   UNL     1      24.083  58.204 146.438  1.00  0.00     0.162 A 
ATOM     14  C   UNL     1      26.404  59.575 145.674  1.00  0.00     0.068 A 
ATOM     15  C   UNL     1      24.512  59.320 147.178  1.00  0.00     0.200 A 
ATOM     16  C   UNL     1      25.675  60.008 146.789  1.00  0.00     0.162 A 
BRANCH  13  17
ATOM     17  O   UNL     1      22.930  57.505 146.793  1.00  0.00    -0.504 OA
ATOM     18  H   UNL     1      22.197  57.301 146.125  1.00  0.00     0.293 HD
ENDBRANCH  13  17
BRANCH  15  19
ATOM     19  O   UNL     1      23.776  59.735 148.287  1.00  0.00    -0.502 OA
ATOM     20  H   UNL     1      24.152  59.702 149.228  1.00  0.00     0.293 HD
ENDBRANCH  15  19
BRANCH  16  21
ATOM     21  O   UNL     1      26.097  61.125 147.510  1.00  0.00    -0.504 OA
ATOM     22  H   UNL     1      25.592  61.454 148.324  1.00  0.00     0.293 HD
ENDBRANCH  16  21
ENDBRANCH   1  11
BRANCH  10  23
ATOM     23  O   UNL     1      24.884  56.587 142.990  1.00  0.00    -0.500 OA
ATOM     24  H   UNL     1      24.476  55.933 142.331  1.00  0.00     0.294 HD
ENDBRANCH  10  23
BRANCH   5  25
ATOM     25  O   UNL     1      32.059  58.886 141.144  1.00  0.00    -0.507 OA
ATOM     26  H   UNL     1      32.273  59.799 141.527  1.00  0.00     0.293 HD
ENDBRANCH   5  25
BRANCH   7  27
ATOM     27  O   UNL     1      28.590  55.910 139.519  1.00  0.00    -0.507 OA
ATOM     28  H   UNL     1      28.840  54.929 139.567  1.00  0.00     0.293 HD
ENDBRANCH   7  27
TORSDOF 7
ENDMDL
