MODEL 1
REMARK VINA RESULT:    -3.964      0.000      0.000
REMARK INTER + INTRA:         -10.339
REMARK INTER:                  -7.439
REMARK INTRA:                  -2.899
REMARK UNBOUND:                -2.899
REMARK SMILES CCCCCCCCC=CCCCCCCCC(=O)[O-]
REMARK SMILES IDX 10 1 9 2 11 3 12 4 13 5 14 6 15 7 16 8 17 9 18 10 19 11
REMARK SMILES IDX 20 12 8 13 7 14 6 15 5 16 4 17 3 18 2 19 1 20
REMARK H PARENT
REMARK Flexibility Score: inf
ROOT
ATOM      1  C   UNL     1      19.621  21.244  21.369  1.00  0.00    -0.031 C 
ATOM      2  C   UNL     1      18.447  21.695  21.856  1.00  0.00    -0.031 C 
ENDROOT
BRANCH   1   3
ATOM      3  C   UNL     1      19.829  19.910  20.699  1.00  0.00     0.027 C 
BRANCH   3   4
ATOM      4  C   UNL     1      20.721  18.990  21.547  1.00  0.00     0.004 C 
BRANCH   4   5
ATOM      5  C   UNL     1      21.530  19.761  22.601  1.00  0.00     0.000 C 
BRANCH   5   6
ATOM      6  C   UNL     1      21.114  19.411  24.040  1.00  0.00     0.000 C 
BRANCH   6   7
ATOM      7  C   UNL     1      19.829  18.571  24.097  1.00  0.00     0.000 C 
BRANCH   7   8
ATOM      8  C   UNL     1      18.635  19.357  24.669  1.00  0.00     0.006 C 
BRANCH   8   9
ATOM      9  C   UNL     1      19.069  20.380  25.727  1.00  0.00     0.053 C 
BRANCH   9  10
ATOM     10  C   UNL     1      18.381  21.698  25.543  1.00  0.00     0.041 C 
ATOM     11  O   UNL     1      19.036  22.707  25.169  1.00  0.00    -0.550 OA
ATOM     12  O   UNL     1      17.014  21.807  25.762  1.00  0.00    -0.550 OA
ENDBRANCH   9  10
ENDBRANCH   8   9
ENDBRANCH   7   8
ENDBRANCH   6   7
ENDBRANCH   5   6
ENDBRANCH   4   5
ENDBRANCH   3   4
ENDBRANCH   1   3
BRANCH   2  13
ATOM     13  C   UNL     1      17.140  20.936  21.831  1.00  0.00     0.027 C 
BRANCH  13  14
ATOM     14  C   UNL     1      16.026  21.729  21.126  1.00  0.00     0.004 C 
BRANCH  14  15
ATOM     15  C   UNL     1      16.499  22.989  20.372  1.00  0.00     0.000 C 
BRANCH  15  16
ATOM     16  C   UNL     1      16.526  22.862  18.838  1.00  0.00     0.000 C 
BRANCH  16  17
ATOM     17  C   UNL     1      17.891  22.411  18.300  1.00  0.00    -0.000 C 
BRANCH  17  18
ATOM     18  C   UNL     1      17.756  21.138  17.455  1.00  0.00    -0.000 C 
BRANCH  18  19
ATOM     19  C   UNL     1      16.518  20.333  17.870  1.00  0.00    -0.003 C 
ATOM     20  C   UNL     1      16.912  18.997  18.493  1.00  0.00     0.004 C 
ENDBRANCH  18  19
ENDBRANCH  17  18
ENDBRANCH  16  17
ENDBRANCH  15  16
ENDBRANCH  14  15
ENDBRANCH  13  14
ENDBRANCH   2  13
TORSDOF 15
ENDMDL
MODEL 2
REMARK VINA RESULT:    -3.870      1.408      3.741
REMARK INTER + INTRA:         -10.162
REMARK INTER:                  -6.993
REMARK INTRA:                  -3.169
REMARK UNBOUND:                -2.899
REMARK SMILES CCCCCCCCC=CCCCCCCCC(=O)[O-]
REMARK SMILES IDX 10 1 9 2 11 3 12 4 13 5 14 6 15 7 16 8 17 9 18 10 19 11
REMARK SMILES IDX 20 12 8 13 7 14 6 15 5 16 4 17 3 18 2 19 1 20
REMARK H PARENT
REMARK Flexibility Score: inf
ROOT
ATOM      1  C   UNL     1      21.518  19.963  23.027  1.00  0.00    -0.031 C 
ATOM      2  C   UNL     1      20.952  19.600  24.195  1.00  0.00    -0.031 C 
ENDROOT
BRANCH   1   3
ATOM      3  C   UNL     1      21.522  19.133  21.769  1.00  0.00     0.027 C 
BRANCH   3   4
ATOM      4  C   UNL     1      20.490  19.649  20.754  1.00  0.00     0.004 C 
BRANCH   4   5
ATOM      5  C   UNL     1      20.065  21.100  21.031  1.00  0.00     0.000 C 
BRANCH   5   6
ATOM      6  C   UNL     1      18.729  21.464  20.360  1.00  0.00     0.000 C 
BRANCH   6   7
ATOM      7  C   UNL     1      17.615  21.752  21.379  1.00  0.00     0.000 C 
BRANCH   7   8
ATOM      8  C   UNL     1      18.157  21.966  22.804  1.00  0.00     0.006 C 
BRANCH   8   9
ATOM      9  C   UNL     1      17.055  21.849  23.865  1.00  0.00     0.053 C 
BRANCH   9  10
ATOM     10  C   UNL     1      17.594  22.032  25.251  1.00  0.00     0.041 C 
ATOM     11  O   UNL     1      18.773  22.443  25.422  1.00  0.00    -0.550 OA
ATOM     12  O   UNL     1      16.790  21.771  26.352  1.00  0.00    -0.550 OA
ENDBRANCH   9  10
ENDBRANCH   8   9
ENDBRANCH   7   8
ENDBRANCH   6   7
ENDBRANCH   5   6
ENDBRANCH   4   5
ENDBRANCH   3   4
ENDBRANCH   1   3
BRANCH   2  13
ATOM     13  C   UNL     1      20.239  18.292  24.454  1.00  0.00     0.027 C 
BRANCH  13  14
ATOM     14  C   UNL     1      18.712  18.439  24.354  1.00  0.00     0.004 C 
BRANCH  14  15
ATOM     15  C   UNL     1      18.103  18.023  22.999  1.00  0.00     0.000 C 
BRANCH  15  16
ATOM     16  C   UNL     1      16.619  18.388  22.809  1.00  0.00     0.000 C 
BRANCH  16  17
ATOM     17  C   UNL     1      16.198  18.428  21.333  1.00  0.00    -0.000 C 
BRANCH  17  18
ATOM     18  C   UNL     1      17.355  18.005  20.419  1.00  0.00    -0.000 C 
BRANCH  18  19
ATOM     19  C   UNL     1      16.882  17.853  18.969  1.00  0.00    -0.003 C 
ATOM     20  C   UNL     1      16.913  19.191  18.235  1.00  0.00     0.004 C 
ENDBRANCH  18  19
ENDBRANCH  17  18
ENDBRANCH  16  17
ENDBRANCH  15  16
ENDBRANCH  14  15
ENDBRANCH  13  14
ENDBRANCH   2  13
TORSDOF 15
ENDMDL
MODEL 3
REMARK VINA RESULT:    -3.869     12.849     15.287
REMARK INTER + INTRA:         -10.161
REMARK INTER:                  -8.529
REMARK INTRA:                  -1.632
REMARK UNBOUND:                -2.899
REMARK SMILES CCCCCCCCC=CCCCCCCCC(=O)[O-]
REMARK SMILES IDX 10 1 9 2 11 3 12 4 13 5 14 6 15 7 16 8 17 9 18 10 19 11
REMARK SMILES IDX 20 12 8 13 7 14 6 15 5 16 4 17 3 18 2 19 1 20
REMARK H PARENT
REMARK Flexibility Score: inf
ROOT
ATOM      1  C   UNL     1      21.277  29.362  34.170  1.00  0.00    -0.031 C 
ATOM      2  C   UNL     1      21.810  28.129  34.283  1.00  0.00    -0.031 C 
ENDROOT
BRANCH   1   3
ATOM      3  C   UNL     1      19.909  29.765  34.658  1.00  0.00     0.027 C 
BRANCH   3   4
ATOM      4  C   UNL     1      19.175  30.626  33.618  1.00  0.00     0.004 C 
BRANCH   4   5
ATOM      5  C   UNL     1      19.046  32.094  34.054  1.00  0.00     0.000 C 
BRANCH   5   6
ATOM      6  C   UNL     1      19.677  33.069  33.045  1.00  0.00     0.000 C 
BRANCH   6   7
ATOM      7  C   UNL     1      19.403  32.672  31.586  1.00  0.00     0.000 C 
BRANCH   7   8
ATOM      8  C   UNL     1      20.688  32.304  30.822  1.00  0.00     0.006 C 
BRANCH   8   9
ATOM      9  C   UNL     1      21.444  33.546  30.331  1.00  0.00     0.053 C 
BRANCH   9  10
ATOM     10  C   UNL     1      21.848  33.419  28.894  1.00  0.00     0.041 C 
ATOM     11  O   UNL     1      21.818  32.296  28.325  1.00  0.00    -0.550 OA
ATOM     12  O   UNL     1      22.237  34.543  28.177  1.00  0.00    -0.550 OA
ENDBRANCH   9  10
ENDBRANCH   8   9
ENDBRANCH   7   8
ENDBRANCH   6   7
ENDBRANCH   5   6
ENDBRANCH   4   5
ENDBRANCH   3   4
ENDBRANCH   1   3
BRANCH   2  13
ATOM     13  C   UNL     1      21.124  26.932  34.901  1.00  0.00     0.027 C 
BRANCH  13  14
ATOM     14  C   UNL     1      20.609  25.949  33.836  1.00  0.00     0.004 C 
BRANCH  14  15
ATOM     15  C   UNL     1      19.103  25.622  33.921  1.00  0.00     0.000 C 
BRANCH  15  16
ATOM     16  C   UNL     1      18.290  26.525  34.865  1.00  0.00     0.000 C 
BRANCH  16  17
ATOM     17  C   UNL     1      16.898  26.867  34.314  1.00  0.00    -0.000 C 
BRANCH  17  18
ATOM     18  C   UNL     1      16.713  26.302  32.901  1.00  0.00    -0.000 C 
BRANCH  18  19
ATOM     19  C   UNL     1      15.946  27.288  32.011  1.00  0.00    -0.003 C 
ATOM     20  C   UNL     1      16.446  28.716  32.214  1.00  0.00     0.004 C 
ENDBRANCH  18  19
ENDBRANCH  17  18
ENDBRANCH  16  17
ENDBRANCH  15  16
ENDBRANCH  14  15
ENDBRANCH  13  14
ENDBRANCH   2  13
TORSDOF 15
ENDMDL
MODEL 4
REMARK VINA RESULT:    -3.831     13.431     15.561
REMARK INTER + INTRA:         -10.089
REMARK INTER:                  -8.487
REMARK INTRA:                  -1.602
REMARK UNBOUND:                -2.899
REMARK SMILES CCCCCCCCC=CCCCCCCCC(=O)[O-]
REMARK SMILES IDX 10 1 9 2 11 3 12 4 13 5 14 6 15 7 16 8 17 9 18 10 19 11
REMARK SMILES IDX 20 12 8 13 7 14 6 15 5 16 4 17 3 18 2 19 1 20
REMARK H PARENT
REMARK Flexibility Score: inf
ROOT
ATOM      1  C   UNL     1      17.239  29.762  32.807  1.00  0.00    -0.031 C 
ATOM      2  C   UNL     1      16.636  28.560  32.713  1.00  0.00    -0.031 C 
ENDROOT
BRANCH   1   3
ATOM      3  C   UNL     1      18.014  30.255  34.002  1.00  0.00     0.027 C 
BRANCH   3   4
ATOM      4  C   UNL     1      19.404  30.767  33.596  1.00  0.00     0.004 C 
BRANCH   4   5
ATOM      5  C   UNL     1      19.526  32.295  33.712  1.00  0.00     0.000 C 
BRANCH   5   6
ATOM      6  C   UNL     1      19.976  32.955  32.398  1.00  0.00     0.000 C 
BRANCH   6   7
ATOM      7  C   UNL     1      19.509  32.180  31.155  1.00  0.00     0.000 C 
BRANCH   7   8
ATOM      8  C   UNL     1      20.252  32.609  29.877  1.00  0.00     0.006 C 
BRANCH   8   9
ATOM      9  C   UNL     1      20.642  34.093  29.907  1.00  0.00     0.053 C 
BRANCH   9  10
ATOM     10  C   UNL     1      21.982  34.330  29.279  1.00  0.00     0.041 C 
ATOM     11  O   UNL     1      22.827  35.068  29.850  1.00  0.00    -0.550 OA
ATOM     12  O   UNL     1      22.305  33.716  28.075  1.00  0.00    -0.550 OA
ENDBRANCH   9  10
ENDBRANCH   8   9
ENDBRANCH   7   8
ENDBRANCH   6   7
ENDBRANCH   5   6
ENDBRANCH   4   5
ENDBRANCH   3   4
ENDBRANCH   1   3
BRANCH   2  13
ATOM     13  C   UNL     1      16.617  27.503  33.795  1.00  0.00     0.027 C 
BRANCH  13  14
ATOM     14  C   UNL     1      17.372  26.232  33.372  1.00  0.00     0.004 C 
BRANCH  14  15
ATOM     15  C   UNL     1      18.554  25.841  34.283  1.00  0.00     0.000 C 
BRANCH  15  16
ATOM     16  C   UNL     1      19.031  26.943  35.246  1.00  0.00     0.000 C 
BRANCH  16  17
ATOM     17  C   UNL     1      20.441  27.454  34.919  1.00  0.00    -0.000 C 
BRANCH  17  18
ATOM     18  C   UNL     1      21.221  26.423  34.094  1.00  0.00    -0.000 C 
BRANCH  18  19
ATOM     19  C   UNL     1      22.555  26.078  34.767  1.00  0.00    -0.003 C 
ATOM     20  C   UNL     1      23.208  24.866  34.107  1.00  0.00     0.004 C 
ENDBRANCH  18  19
ENDBRANCH  17  18
ENDBRANCH  16  17
ENDBRANCH  15  16
ENDBRANCH  14  15
ENDBRANCH  13  14
ENDBRANCH   2  13
TORSDOF 15
ENDMDL
MODEL 5
REMARK VINA RESULT:    -3.809     12.993     14.865
REMARK INTER + INTRA:         -10.049
REMARK INTER:                  -7.863
REMARK INTRA:                  -2.186
REMARK UNBOUND:                -2.899
REMARK SMILES CCCCCCCCC=CCCCCCCCC(=O)[O-]
REMARK SMILES IDX 10 1 9 2 11 3 12 4 13 5 14 6 15 7 16 8 17 9 18 10 19 11
REMARK SMILES IDX 20 12 8 13 7 14 6 15 5 16 4 17 3 18 2 19 1 20
REMARK H PARENT
REMARK Flexibility Score: inf
ROOT
ATOM      1  C   UNL     1      16.649  29.150  32.400  1.00  0.00    -0.031 C 
ATOM      2  C   UNL     1      17.434  30.069  32.996  1.00  0.00    -0.031 C 
ENDROOT
BRANCH   1   3
ATOM      3  C   UNL     1      15.893  28.058  33.114  1.00  0.00     0.027 C 
BRANCH   3   4
ATOM      4  C   UNL     1      16.274  26.669  32.578  1.00  0.00     0.004 C 
BRANCH   4   5
ATOM      5  C   UNL     1      17.314  25.962  33.461  1.00  0.00     0.000 C 
BRANCH   5   6
ATOM      6  C   UNL     1      17.108  26.241  34.959  1.00  0.00     0.000 C 
BRANCH   6   7
ATOM      7  C   UNL     1      18.392  26.719  35.656  1.00  0.00     0.000 C 
BRANCH   7   8
ATOM      8  C   UNL     1      19.533  27.000  34.661  1.00  0.00     0.006 C 
BRANCH   8   9
ATOM      9  C   UNL     1      20.903  27.050  35.353  1.00  0.00     0.053 C 
BRANCH   9  10
ATOM     10  C   UNL     1      22.017  27.236  34.368  1.00  0.00     0.041 C 
ATOM     11  O   UNL     1      22.158  28.337  33.772  1.00  0.00    -0.550 OA
ATOM     12  O   UNL     1      22.913  26.203  34.126  1.00  0.00    -0.550 OA
ENDBRANCH   9  10
ENDBRANCH   8   9
ENDBRANCH   7   8
ENDBRANCH   6   7
ENDBRANCH   5   6
ENDBRANCH   4   5
ENDBRANCH   3   4
ENDBRANCH   1   3
BRANCH   2  13
ATOM     13  C   UNL     1      17.707  30.157  34.480  1.00  0.00     0.027 C 
BRANCH  13  14
ATOM     14  C   UNL     1      19.151  30.597  34.776  1.00  0.00     0.004 C 
BRANCH  14  15
ATOM     15  C   UNL     1      19.952  31.079  33.548  1.00  0.00     0.000 C 
BRANCH  15  16
ATOM     16  C   UNL     1      20.099  32.606  33.421  1.00  0.00     0.000 C 
BRANCH  16  17
ATOM     17  C   UNL     1      19.284  33.190  32.258  1.00  0.00    -0.000 C 
BRANCH  17  18
ATOM     18  C   UNL     1      19.646  32.506  30.934  1.00  0.00    -0.000 C 
BRANCH  18  19
ATOM     19  C   UNL     1      21.150  32.607  30.658  1.00  0.00    -0.003 C 
ATOM     20  C   UNL     1      21.432  32.678  29.159  1.00  0.00     0.004 C 
ENDBRANCH  18  19
ENDBRANCH  17  18
ENDBRANCH  16  17
ENDBRANCH  15  16
ENDBRANCH  14  15
ENDBRANCH  13  14
ENDBRANCH   2  13
TORSDOF 15
ENDMDL
MODEL 6
REMARK VINA RESULT:    -3.785     14.417     16.361
REMARK INTER + INTRA:         -10.003
REMARK INTER:                  -9.122
REMARK INTRA:                  -0.881
REMARK UNBOUND:                -2.899
REMARK SMILES CCCCCCCCC=CCCCCCCCC(=O)[O-]
REMARK SMILES IDX 10 1 9 2 11 3 12 4 13 5 14 6 15 7 16 8 17 9 18 10 19 11
REMARK SMILES IDX 20 12 8 13 7 14 6 15 5 16 4 17 3 18 2 19 1 20
REMARK H PARENT
REMARK Flexibility Score: inf
ROOT
ATOM      1  C   UNL     1      20.065  32.439  30.590  1.00  0.00    -0.031 C 
ATOM      2  C   UNL     1      21.008  32.865  29.727  1.00  0.00    -0.031 C 
ENDROOT
BRANCH   1   3
ATOM      3  C   UNL     1      19.705  33.114  31.888  1.00  0.00     0.027 C 
BRANCH   3   4
ATOM      4  C   UNL     1      19.938  32.184  33.088  1.00  0.00     0.004 C 
BRANCH   4   5
ATOM      5  C   UNL     1      19.043  30.935  33.048  1.00  0.00     0.000 C 
BRANCH   5   6
ATOM      6  C   UNL     1      18.985  30.204  34.401  1.00  0.00     0.000 C 
BRANCH   6   7
ATOM      7  C   UNL     1      20.379  29.859  34.948  1.00  0.00     0.000 C 
BRANCH   7   8
ATOM      8  C   UNL     1      20.629  28.342  35.013  1.00  0.00     0.006 C 
BRANCH   8   9
ATOM      9  C   UNL     1      21.892  27.931  34.244  1.00  0.00     0.053 C 
BRANCH   9  10
ATOM     10  C   UNL     1      22.440  26.624  34.731  1.00  0.00     0.041 C 
ATOM     11  O   UNL     1      22.366  26.322  35.951  1.00  0.00    -0.550 OA
ATOM     12  O   UNL     1      23.011  25.730  33.834  1.00  0.00    -0.550 OA
ENDBRANCH   9  10
ENDBRANCH   8   9
ENDBRANCH   7   8
ENDBRANCH   6   7
ENDBRANCH   5   6
ENDBRANCH   4   5
ENDBRANCH   3   4
ENDBRANCH   1   3
BRANCH   2  13
ATOM     13  C   UNL     1      21.883  34.085  29.918  1.00  0.00     0.027 C 
BRANCH  13  14
ATOM     14  C   UNL     1      22.092  34.856  28.605  1.00  0.00     0.004 C 
BRANCH  14  15
ATOM     15  C   UNL     1      23.127  35.998  28.674  1.00  0.00     0.000 C 
BRANCH  15  16
ATOM     16  C   UNL     1      23.935  36.069  29.983  1.00  0.00     0.000 C 
BRANCH  16  17
ATOM     17  C   UNL     1      25.426  36.351  29.750  1.00  0.00    -0.000 C 
BRANCH  17  18
ATOM     18  C   UNL     1      25.764  36.326  28.255  1.00  0.00    -0.000 C 
BRANCH  18  19
ATOM     19  C   UNL     1      27.263  36.094  28.035  1.00  0.00    -0.003 C 
ATOM     20  C   UNL     1      27.845  35.187  29.115  1.00  0.00     0.004 C 
ENDBRANCH  18  19
ENDBRANCH  17  18
ENDBRANCH  16  17
ENDBRANCH  15  16
ENDBRANCH  14  15
ENDBRANCH  13  14
ENDBRANCH   2  13
TORSDOF 15
ENDMDL
MODEL 7
REMARK VINA RESULT:    -3.742      2.049      3.829
REMARK INTER + INTRA:          -9.922
REMARK INTER:                  -6.966
REMARK INTRA:                  -2.957
REMARK UNBOUND:                -2.899
REMARK SMILES CCCCCCCCC=CCCCCCCCC(=O)[O-]
REMARK SMILES IDX 10 1 9 2 11 3 12 4 13 5 14 6 15 7 16 8 17 9 18 10 19 11
REMARK SMILES IDX 20 12 8 13 7 14 6 15 5 16 4 17 3 18 2 19 1 20
REMARK H PARENT
REMARK Flexibility Score: inf
ROOT
ATOM      1  C   UNL     1      19.005  21.139  25.390  1.00  0.00    -0.031 C 
ATOM      2  C   UNL     1      18.130  22.000  24.835  1.00  0.00    -0.031 C 
ENDROOT
BRANCH   1   3
ATOM      3  C   UNL     1      18.654  19.786  25.955  1.00  0.00     0.027 C 
BRANCH   3   4
ATOM      4  C   UNL     1      18.921  18.667  24.936  1.00  0.00     0.004 C 
BRANCH   4   5
ATOM      5  C   UNL     1      17.659  18.267  24.155  1.00  0.00     0.000 C 
BRANCH   5   6
ATOM      6  C   UNL     1      17.809  18.479  22.639  1.00  0.00     0.000 C 
BRANCH   6   7
ATOM      7  C   UNL     1      19.263  18.342  22.162  1.00  0.00     0.000 C 
BRANCH   7   8
ATOM      8  C   UNL     1      19.604  19.313  21.017  1.00  0.00     0.006 C 
BRANCH   8   9
ATOM      9  C   UNL     1      20.455  20.496  21.497  1.00  0.00     0.053 C 
BRANCH   9  10
ATOM     10  C   UNL     1      21.679  20.040  22.232  1.00  0.00     0.041 C 
ATOM     11  O   UNL     1      21.747  20.163  23.484  1.00  0.00    -0.550 OA
ATOM     12  O   UNL     1      22.732  19.459  21.538  1.00  0.00    -0.550 OA
ENDBRANCH   9  10
ENDBRANCH   8   9
ENDBRANCH   7   8
ENDBRANCH   6   7
ENDBRANCH   5   6
ENDBRANCH   4   5
ENDBRANCH   3   4
ENDBRANCH   1   3
BRANCH   2  13
ATOM     13  C   UNL     1      16.642  21.769  24.696  1.00  0.00     0.027 C 
BRANCH  13  14
ATOM     14  C   UNL     1      16.201  21.718  23.224  1.00  0.00     0.004 C 
BRANCH  14  15
ATOM     15  C   UNL     1      17.263  22.188  22.207  1.00  0.00     0.000 C 
BRANCH  15  16
ATOM     16  C   UNL     1      16.752  22.372  20.766  1.00  0.00     0.000 C 
BRANCH  16  17
ATOM     17  C   UNL     1      16.419  21.041  20.075  1.00  0.00    -0.000 C 
BRANCH  17  18
ATOM     18  C   UNL     1      17.127  20.935  18.719  1.00  0.00    -0.000 C 
BRANCH  18  19
ATOM     19  C   UNL     1      18.335  21.877  18.654  1.00  0.00    -0.003 C 
ATOM     20  C   UNL     1      18.306  22.725  17.386  1.00  0.00     0.004 C 
ENDBRANCH  18  19
ENDBRANCH  17  18
ENDBRANCH  16  17
ENDBRANCH  15  16
ENDBRANCH  14  15
ENDBRANCH  13  14
ENDBRANCH   2  13
TORSDOF 15
ENDMDL
MODEL 8
REMARK VINA RESULT:    -3.696      1.195      3.017
REMARK INTER + INTRA:          -9.837
REMARK INTER:                  -7.484
REMARK INTRA:                  -2.353
REMARK UNBOUND:                -2.899
REMARK SMILES CCCCCCCCC=CCCCCCCCC(=O)[O-]
REMARK SMILES IDX 10 1 9 2 11 3 12 4 13 5 14 6 15 7 16 8 17 9 18 10 19 11
REMARK SMILES IDX 20 12 8 13 7 14 6 15 5 16 4 17 3 18 2 19 1 20
REMARK H PARENT
REMARK Flexibility Score: inf
ROOT
ATOM      1  C   UNL     1      21.842  19.634  23.172  1.00  0.00    -0.031 C 
ATOM      2  C   UNL     1      21.806  19.653  21.825  1.00  0.00    -0.031 C 
ENDROOT
BRANCH   1   3
ATOM      3  C   UNL     1      20.635  19.571  24.073  1.00  0.00     0.027 C 
BRANCH   3   4
ATOM      4  C   UNL     1      20.279  18.120  24.432  1.00  0.00     0.004 C 
BRANCH   4   5
ATOM      5  C   UNL     1      19.081  17.590  23.629  1.00  0.00     0.000 C 
BRANCH   5   6
ATOM      6  C   UNL     1      17.892  18.566  23.625  1.00  0.00     0.000 C 
BRANCH   6   7
ATOM      7  C   UNL     1      17.045  18.473  24.903  1.00  0.00     0.000 C 
BRANCH   7   8
ATOM      8  C   UNL     1      16.427  19.825  25.303  1.00  0.00     0.006 C 
BRANCH   8   9
ATOM      9  C   UNL     1      17.143  21.007  24.636  1.00  0.00     0.053 C 
BRANCH   9  10
ATOM     10  C   UNL     1      18.138  21.646  25.557  1.00  0.00     0.041 C 
ATOM     11  O   UNL     1      18.423  21.102  26.656  1.00  0.00    -0.550 OA
ATOM     12  O   UNL     1      18.768  22.829  25.190  1.00  0.00    -0.550 OA
ENDBRANCH   9  10
ENDBRANCH   8   9
ENDBRANCH   7   8
ENDBRANCH   6   7
ENDBRANCH   5   6
ENDBRANCH   4   5
ENDBRANCH   3   4
ENDBRANCH   1   3
BRANCH   2  13
ATOM     13  C   UNL     1      20.551  19.633  20.982  1.00  0.00     0.027 C 
BRANCH  13  14
ATOM     14  C   UNL     1      20.020  21.049  20.703  1.00  0.00     0.004 C 
BRANCH  14  15
ATOM     15  C   UNL     1      18.837  21.490  21.590  1.00  0.00     0.000 C 
BRANCH  15  16
ATOM     16  C   UNL     1      17.443  21.289  20.967  1.00  0.00     0.000 C 
BRANCH  16  17
ATOM     17  C   UNL     1      16.731  22.613  20.655  1.00  0.00    -0.000 C 
BRANCH  17  18
ATOM     18  C   UNL     1      16.282  22.663  19.189  1.00  0.00    -0.000 C 
BRANCH  18  19
ATOM     19  C   UNL     1      17.254  21.890  18.290  1.00  0.00    -0.003 C 
ATOM     20  C   UNL     1      18.292  22.822  17.671  1.00  0.00     0.004 C 
ENDBRANCH  18  19
ENDBRANCH  17  18
ENDBRANCH  16  17
ENDBRANCH  15  16
ENDBRANCH  14  15
ENDBRANCH  13  14
ENDBRANCH   2  13
TORSDOF 15
ENDMDL
MODEL 9
REMARK VINA RESULT:    -3.695     14.357     16.456
REMARK INTER + INTRA:          -9.834
REMARK INTER:                  -7.580
REMARK INTRA:                  -2.254
REMARK UNBOUND:                -2.899
REMARK SMILES CCCCCCCCC=CCCCCCCCC(=O)[O-]
REMARK SMILES IDX 10 1 9 2 11 3 12 4 13 5 14 6 15 7 16 8 17 9 18 10 19 11
REMARK SMILES IDX 20 12 8 13 7 14 6 15 5 16 4 17 3 18 2 19 1 20
REMARK H PARENT
REMARK Flexibility Score: inf
ROOT
ATOM      1  C   UNL     1      21.130  32.549  29.723  1.00  0.00    -0.031 C 
ATOM      2  C   UNL     1      21.746  33.495  28.986  1.00  0.00    -0.031 C 
ENDROOT
BRANCH   1   3
ATOM      3  C   UNL     1      20.770  32.681  31.180  1.00  0.00     0.027 C 
BRANCH   3   4
ATOM      4  C   UNL     1      19.337  32.196  31.450  1.00  0.00     0.004 C 
BRANCH   4   5
ATOM      5  C   UNL     1      19.189  31.530  32.827  1.00  0.00     0.000 C 
BRANCH   5   6
ATOM      6  C   UNL     1      20.538  31.350  33.546  1.00  0.00     0.000 C 
BRANCH   6   7
ATOM      7  C   UNL     1      20.412  30.543  34.848  1.00  0.00     0.000 C 
BRANCH   7   8
ATOM      8  C   UNL     1      20.424  29.023  34.604  1.00  0.00     0.006 C 
BRANCH   8   9
ATOM      9  C   UNL     1      21.818  28.510  34.221  1.00  0.00     0.053 C 
BRANCH   9  10
ATOM     10  C   UNL     1      22.055  27.117  34.719  1.00  0.00     0.041 C 
ATOM     11  O   UNL     1      21.875  26.840  35.934  1.00  0.00    -0.550 OA
ATOM     12  O   UNL     1      22.451  26.120  33.837  1.00  0.00    -0.550 OA
ENDBRANCH   9  10
ENDBRANCH   8   9
ENDBRANCH   7   8
ENDBRANCH   6   7
ENDBRANCH   5   6
ENDBRANCH   4   5
ENDBRANCH   3   4
ENDBRANCH   1   3
BRANCH   2  13
ATOM     13  C   UNL     1      22.199  34.845  29.495  1.00  0.00     0.027 C 
BRANCH  13  14
ATOM     14  C   UNL     1      21.467  36.001  28.793  1.00  0.00     0.004 C 
BRANCH  14  15
ATOM     15  C   UNL     1      20.481  36.787  29.682  1.00  0.00     0.000 C 
BRANCH  15  16
ATOM     16  C   UNL     1      19.345  35.949  30.297  1.00  0.00     0.000 C 
BRANCH  16  17
ATOM     17  C   UNL     1      19.143  36.224  31.794  1.00  0.00    -0.000 C 
BRANCH  17  18
ATOM     18  C   UNL     1      20.479  36.185  32.546  1.00  0.00    -0.000 C 
BRANCH  18  19
ATOM     19  C   UNL     1      20.422  35.195  33.715  1.00  0.00    -0.003 C 
ATOM     20  C   UNL     1      18.988  34.994  34.198  1.00  0.00     0.004 C 
ENDBRANCH  18  19
ENDBRANCH  17  18
ENDBRANCH  16  17
ENDBRANCH  15  16
ENDBRANCH  14  15
ENDBRANCH  13  14
ENDBRANCH   2  13
TORSDOF 15
ENDMDL
