MODEL 1
REMARK VINA RESULT:    -3.972      0.000      0.000
REMARK INTER + INTRA:         -12.113
REMARK INTER:                  -8.615
REMARK INTRA:                  -3.498
REMARK UNBOUND:                -3.498
REMARK SMILES CCCCCCCCCCCCCCCCCCCCCC(=O)[O-]
REMARK SMILES IDX 12 1 11 2 10 3 9 4 8 5 7 6 6 7 5 8 4 9 3 10 2 11 1 12 13 13
REMARK SMILES IDX 14 14 15 15 16 16 17 17 18 18 19 19 20 20 21 21 22 22 23 23
REMARK SMILES IDX 24 24
REMARK H PARENT
REMARK Flexibility Score: inf
ROOT
ATOM      1  C   UNL     1       0.809 128.436 112.375  1.00  0.00     0.000 C 
ENDROOT
BRANCH   1   2
ATOM      2  C   UNL     1       1.750 129.321 111.540  1.00  0.00     0.000 C 
BRANCH   2   3
ATOM      3  C   UNL     1       2.314 128.584 110.312  1.00  0.00     0.000 C 
BRANCH   3   4
ATOM      4  C   UNL     1       2.158 127.059 110.413  1.00  0.00    -0.000 C 
BRANCH   4   5
ATOM      5  C   UNL     1       3.497 126.339 110.656  1.00  0.00    -0.000 C 
BRANCH   5   6
ATOM      6  C   UNL     1       3.371 124.805 110.543  1.00  0.00    -0.000 C 
BRANCH   6   7
ATOM      7  C   UNL     1       4.485 124.026 111.269  1.00  0.00    -0.000 C 
BRANCH   7   8
ATOM      8  C   UNL     1       5.825 124.773 111.424  1.00  0.00    -0.000 C 
BRANCH   8   9
ATOM      9  C   UNL     1       6.948 124.279 110.490  1.00  0.00    -0.000 C 
BRANCH   9  10
ATOM     10  C   UNL     1       7.409 125.340 109.466  1.00  0.00    -0.000 C 
BRANCH  10  11
ATOM     11  C   UNL     1       6.524 125.403 108.211  1.00  0.00    -0.003 C 
ATOM     12  C   UNL     1       7.271 125.000 106.940  1.00  0.00     0.004 C 
ENDBRANCH  10  11
ENDBRANCH   9  10
ENDBRANCH   8   9
ENDBRANCH   7   8
ENDBRANCH   6   7
ENDBRANCH   5   6
ENDBRANCH   4   5
ENDBRANCH   3   4
ENDBRANCH   2   3
ENDBRANCH   1   2
BRANCH   1  13
ATOM     13  C   UNL     1       0.808 128.817 113.866  1.00  0.00     0.000 C 
BRANCH  13  14
ATOM     14  C   UNL     1       1.130 127.622 114.778  1.00  0.00     0.000 C 
BRANCH  14  15
ATOM     15  C   UNL     1       1.477 126.347 113.987  1.00  0.00     0.000 C 
BRANCH  15  16
ATOM     16  C   UNL     1       2.958 125.960 114.113  1.00  0.00     0.000 C 
BRANCH  16  17
ATOM     17  C   UNL     1       3.770 126.985 114.917  1.00  0.00     0.000 C 
BRANCH  17  18
ATOM     18  C   UNL     1       5.123 127.265 114.251  1.00  0.00     0.000 C 
BRANCH  18  19
ATOM     19  C   UNL     1       4.995 128.365 113.190  1.00  0.00     0.000 C 
BRANCH  19  20
ATOM     20  C   UNL     1       4.984 129.759 113.835  1.00  0.00     0.006 C 
BRANCH  20  21
ATOM     21  C   UNL     1       6.091 129.921 114.885  1.00  0.00     0.053 C 
BRANCH  21  22
ATOM     22  C   UNL     1       7.190 130.819 114.402  1.00  0.00     0.041 C 
ATOM     23  O   UNL     1       7.531 131.823 115.081  1.00  0.00    -0.550 OA
ATOM     24  O   UNL     1       7.866 130.522 113.227  1.00  0.00    -0.550 OA
ENDBRANCH  21  22
ENDBRANCH  20  21
ENDBRANCH  19  20
ENDBRANCH  18  19
ENDBRANCH  17  18
ENDBRANCH  16  17
ENDBRANCH  15  16
ENDBRANCH  14  15
ENDBRANCH  13  14
ENDBRANCH   1  13
TORSDOF 20
ENDMDL
MODEL 2
REMARK VINA RESULT:    -3.825      1.840      3.527
REMARK INTER + INTRA:         -11.794
REMARK INTER:                  -7.967
REMARK INTRA:                  -3.827
REMARK UNBOUND:                -3.498
REMARK SMILES CCCCCCCCCCCCCCCCCCCCCC(=O)[O-]
REMARK SMILES IDX 12 1 11 2 10 3 9 4 8 5 7 6 6 7 5 8 4 9 3 10 2 11 1 12 13 13
REMARK SMILES IDX 14 14 15 15 16 16 17 17 18 18 19 19 20 20 21 21 22 22 23 23
REMARK SMILES IDX 24 24
REMARK H PARENT
REMARK Flexibility Score: inf
ROOT
ATOM      1  C   UNL     1       1.625 125.202 112.540  1.00  0.00     0.000 C 
ENDROOT
BRANCH   1   2
ATOM      2  C   UNL     1       1.371 126.174 113.704  1.00  0.00     0.000 C 
BRANCH   2   3
ATOM      3  C   UNL     1       2.077 125.737 114.999  1.00  0.00     0.000 C 
BRANCH   3   4
ATOM      4  C   UNL     1       3.525 125.281 114.760  1.00  0.00    -0.000 C 
BRANCH   4   5
ATOM      5  C   UNL     1       3.777 123.833 115.218  1.00  0.00    -0.000 C 
BRANCH   5   6
ATOM      6  C   UNL     1       4.860 123.127 114.376  1.00  0.00    -0.000 C 
BRANCH   6   7
ATOM      7  C   UNL     1       4.366 122.628 113.004  1.00  0.00    -0.000 C 
BRANCH   7   8
ATOM      8  C   UNL     1       5.115 123.197 111.782  1.00  0.00    -0.000 C 
BRANCH   8   9
ATOM      9  C   UNL     1       6.623 123.427 112.004  1.00  0.00    -0.000 C 
BRANCH   9  10
ATOM     10  C   UNL     1       7.034 124.916 111.947  1.00  0.00    -0.000 C 
BRANCH  10  11
ATOM     11  C   UNL     1       5.855 125.866 111.687  1.00  0.00    -0.003 C 
ATOM     12  C   UNL     1       5.838 127.062 112.637  1.00  0.00     0.004 C 
ENDBRANCH  10  11
ENDBRANCH   9  10
ENDBRANCH   8   9
ENDBRANCH   7   8
ENDBRANCH   6   7
ENDBRANCH   5   6
ENDBRANCH   4   5
ENDBRANCH   3   4
ENDBRANCH   2   3
ENDBRANCH   1   2
BRANCH   1  13
ATOM     13  C   UNL     1       2.198 125.905 111.296  1.00  0.00     0.000 C 
BRANCH  13  14
ATOM     14  C   UNL     1       1.572 127.289 111.063  1.00  0.00     0.000 C 
BRANCH  14  15
ATOM     15  C   UNL     1       2.605 128.344 110.629  1.00  0.00     0.000 C 
BRANCH  15  16
ATOM     16  C   UNL     1       3.055 129.242 111.791  1.00  0.00     0.000 C 
BRANCH  16  17
ATOM     17  C   UNL     1       1.894 129.640 112.714  1.00  0.00     0.000 C 
BRANCH  17  18
ATOM     18  C   UNL     1       2.388 129.914 114.139  1.00  0.00     0.000 C 
BRANCH  18  19
ATOM     19  C   UNL     1       3.656 129.108 114.444  1.00  0.00     0.000 C 
BRANCH  19  20
ATOM     20  C   UNL     1       4.725 129.986 115.110  1.00  0.00     0.006 C 
BRANCH  20  21
ATOM     21  C   UNL     1       5.666 130.634 114.085  1.00  0.00     0.053 C 
BRANCH  21  22
ATOM     22  C   UNL     1       7.061 130.770 114.616  1.00  0.00     0.041 C 
ATOM     23  O   UNL     1       7.251 131.062 115.826  1.00  0.00    -0.550 OA
ATOM     24  O   UNL     1       8.148 130.531 113.787  1.00  0.00    -0.550 OA
ENDBRANCH  21  22
ENDBRANCH  20  21
ENDBRANCH  19  20
ENDBRANCH  18  19
ENDBRANCH  17  18
ENDBRANCH  16  17
ENDBRANCH  15  16
ENDBRANCH  14  15
ENDBRANCH  13  14
ENDBRANCH   1  13
TORSDOF 20
ENDMDL
MODEL 3
REMARK VINA RESULT:    -3.812      3.118      6.503
REMARK INTER + INTRA:         -11.767
REMARK INTER:                  -7.745
REMARK INTRA:                  -4.022
REMARK UNBOUND:                -3.498
REMARK SMILES CCCCCCCCCCCCCCCCCCCCCC(=O)[O-]
REMARK SMILES IDX 12 1 11 2 10 3 9 4 8 5 7 6 6 7 5 8 4 9 3 10 2 11 1 12 13 13
REMARK SMILES IDX 14 14 15 15 16 16 17 17 18 18 19 19 20 20 21 21 22 22 23 23
REMARK SMILES IDX 24 24
REMARK H PARENT
REMARK Flexibility Score: inf
ROOT
ATOM      1  C   UNL     1       3.022 121.102 114.014  1.00  0.00     0.000 C 
ENDROOT
BRANCH   1   2
ATOM      2  C   UNL     1       4.108 122.164 113.772  1.00  0.00     0.000 C 
BRANCH   2   3
ATOM      3  C   UNL     1       4.599 122.810 115.081  1.00  0.00     0.000 C 
BRANCH   3   4
ATOM      4  C   UNL     1       5.237 124.190 114.857  1.00  0.00    -0.000 C 
BRANCH   4   5
ATOM      5  C   UNL     1       4.250 125.348 115.098  1.00  0.00    -0.000 C 
BRANCH   5   6
ATOM      6  C   UNL     1       4.765 126.689 114.536  1.00  0.00    -0.000 C 
BRANCH   6   7
ATOM      7  C   UNL     1       3.658 127.729 114.272  1.00  0.00    -0.000 C 
BRANCH   7   8
ATOM      8  C   UNL     1       4.009 128.826 113.247  1.00  0.00    -0.000 C 
BRANCH   8   9
ATOM      9  C   UNL     1       5.494 129.243 113.237  1.00  0.00    -0.000 C 
BRANCH   9  10
ATOM     10  C   UNL     1       5.805 130.434 114.173  1.00  0.00    -0.000 C 
BRANCH  10  11
ATOM     11  C   UNL     1       6.449 130.014 115.503  1.00  0.00    -0.003 C 
ATOM     12  C   UNL     1       5.463 130.035 116.670  1.00  0.00     0.004 C 
ENDBRANCH  10  11
ENDBRANCH   9  10
ENDBRANCH   8   9
ENDBRANCH   7   8
ENDBRANCH   6   7
ENDBRANCH   5   6
ENDBRANCH   4   5
ENDBRANCH   3   4
ENDBRANCH   2   3
ENDBRANCH   1   2
BRANCH   1  13
ATOM     13  C   UNL     1       1.676 121.718 114.439  1.00  0.00     0.000 C 
BRANCH  13  14
ATOM     14  C   UNL     1       1.127 122.705 113.397  1.00  0.00     0.000 C 
BRANCH  14  15
ATOM     15  C   UNL     1       0.833 124.095 113.990  1.00  0.00     0.000 C 
BRANCH  15  16
ATOM     16  C   UNL     1       1.257 125.237 113.054  1.00  0.00     0.000 C 
BRANCH  16  17
ATOM     17  C   UNL     1       2.259 124.782 111.983  1.00  0.00     0.000 C 
BRANCH  17  18
ATOM     18  C   UNL     1       2.614 125.932 111.033  1.00  0.00     0.000 C 
BRANCH  18  19
ATOM     19  C   UNL     1       4.115 125.937 110.715  1.00  0.00     0.000 C 
BRANCH  19  20
ATOM     20  C   UNL     1       4.800 124.672 111.251  1.00  0.00     0.006 C 
BRANCH  20  21
ATOM     21  C   UNL     1       6.303 124.878 111.480  1.00  0.00     0.053 C 
BRANCH  21  22
ATOM     22  C   UNL     1       7.047 123.577 111.503  1.00  0.00     0.041 C 
ATOM     23  O   UNL     1       7.080 122.849 110.477  1.00  0.00    -0.550 OA
ATOM     24  O   UNL     1       7.740 123.191 112.642  1.00  0.00    -0.550 OA
ENDBRANCH  21  22
ENDBRANCH  20  21
ENDBRANCH  19  20
ENDBRANCH  18  19
ENDBRANCH  17  18
ENDBRANCH  16  17
ENDBRANCH  15  16
ENDBRANCH  14  15
ENDBRANCH  13  14
ENDBRANCH   1  13
TORSDOF 20
ENDMDL
MODEL 4
REMARK VINA RESULT:    -3.760      2.681      5.584
REMARK INTER + INTRA:         -11.654
REMARK INTER:                  -7.952
REMARK INTRA:                  -3.702
REMARK UNBOUND:                -3.498
REMARK SMILES CCCCCCCCCCCCCCCCCCCCCC(=O)[O-]
REMARK SMILES IDX 12 1 11 2 10 3 9 4 8 5 7 6 6 7 5 8 4 9 3 10 2 11 1 12 13 13
REMARK SMILES IDX 14 14 15 15 16 16 17 17 18 18 19 19 20 20 21 21 22 22 23 23
REMARK SMILES IDX 24 24
REMARK H PARENT
REMARK Flexibility Score: inf
ROOT
ATOM      1  C   UNL     1       3.169 126.883 111.231  1.00  0.00     0.000 C 
ENDROOT
BRANCH   1   2
ATOM      2  C   UNL     1       2.630 127.958 110.273  1.00  0.00     0.000 C 
BRANCH   2   3
ATOM      3  C   UNL     1       2.655 129.366 110.896  1.00  0.00     0.000 C 
BRANCH   3   4
ATOM      4  C   UNL     1       3.539 129.443 112.150  1.00  0.00    -0.000 C 
BRANCH   4   5
ATOM      5  C   UNL     1       2.818 130.088 113.348  1.00  0.00    -0.000 C 
BRANCH   5   6
ATOM      6  C   UNL     1       2.769 129.158 114.578  1.00  0.00    -0.000 C 
BRANCH   6   7
ATOM      7  C   UNL     1       3.836 128.047 114.572  1.00  0.00    -0.000 C 
BRANCH   7   8
ATOM      8  C   UNL     1       4.723 127.970 115.832  1.00  0.00    -0.000 C 
BRANCH   8   9
ATOM      9  C   UNL     1       6.054 128.741 115.727  1.00  0.00    -0.000 C 
BRANCH   9  10
ATOM     10  C   UNL     1       5.923 130.244 116.063  1.00  0.00    -0.000 C 
BRANCH  10  11
ATOM     11  C   UNL     1       6.563 131.163 115.011  1.00  0.00    -0.003 C 
ATOM     12  C   UNL     1       6.734 130.481 113.655  1.00  0.00     0.004 C 
ENDBRANCH  10  11
ENDBRANCH   9  10
ENDBRANCH   8   9
ENDBRANCH   7   8
ENDBRANCH   6   7
ENDBRANCH   5   6
ENDBRANCH   4   5
ENDBRANCH   3   4
ENDBRANCH   2   3
ENDBRANCH   1   2
BRANCH   1  13
ATOM     13  C   UNL     1       2.120 125.806 111.563  1.00  0.00     0.000 C 
BRANCH  13  14
ATOM     14  C   UNL     1       1.137 126.259 112.653  1.00  0.00     0.000 C 
BRANCH  14  15
ATOM     15  C   UNL     1       1.356 125.531 113.992  1.00  0.00     0.000 C 
BRANCH  15  16
ATOM     16  C   UNL     1       2.146 124.223 113.830  1.00  0.00     0.000 C 
BRANCH  16  17
ATOM     17  C   UNL     1       3.398 124.177 114.718  1.00  0.00     0.000 C 
BRANCH  17  18
ATOM     18  C   UNL     1       4.675 124.323 113.881  1.00  0.00     0.000 C 
BRANCH  18  19
ATOM     19  C   UNL     1       4.670 123.348 112.697  1.00  0.00     0.000 C 
BRANCH  19  20
ATOM     20  C   UNL     1       5.327 123.975 111.459  1.00  0.00     0.006 C 
BRANCH  20  21
ATOM     21  C   UNL     1       6.662 123.304 111.107  1.00  0.00     0.053 C 
BRANCH  21  22
ATOM     22  C   UNL     1       7.800 123.882 111.893  1.00  0.00     0.041 C 
ATOM     23  O   UNL     1       8.207 125.049 111.651  1.00  0.00    -0.550 OA
ATOM     24  O   UNL     1       8.381 123.150 112.919  1.00  0.00    -0.550 OA
ENDBRANCH  21  22
ENDBRANCH  20  21
ENDBRANCH  19  20
ENDBRANCH  18  19
ENDBRANCH  17  18
ENDBRANCH  16  17
ENDBRANCH  15  16
ENDBRANCH  14  15
ENDBRANCH  13  14
ENDBRANCH   1  13
TORSDOF 20
ENDMDL
MODEL 5
REMARK VINA RESULT:    -3.758      1.129      2.043
REMARK INTER + INTRA:         -11.649
REMARK INTER:                  -9.039
REMARK INTRA:                  -2.610
REMARK UNBOUND:                -3.498
REMARK SMILES CCCCCCCCCCCCCCCCCCCCCC(=O)[O-]
REMARK SMILES IDX 12 1 11 2 10 3 9 4 8 5 7 6 6 7 5 8 4 9 3 10 2 11 1 12 13 13
REMARK SMILES IDX 14 14 15 15 16 16 17 17 18 18 19 19 20 20 21 21 22 22 23 23
REMARK SMILES IDX 24 24
REMARK H PARENT
REMARK Flexibility Score: inf
ROOT
ATOM      1  C   UNL     1       1.542 126.644 111.325  1.00  0.00     0.000 C 
ENDROOT
BRANCH   1   2
ATOM      2  C   UNL     1       2.925 126.535 110.662  1.00  0.00     0.000 C 
BRANCH   2   3
ATOM      3  C   UNL     1       3.378 125.075 110.484  1.00  0.00     0.000 C 
BRANCH   3   4
ATOM      4  C   UNL     1       3.589 124.353 111.825  1.00  0.00    -0.000 C 
BRANCH   4   5
ATOM      5  C   UNL     1       4.824 123.434 111.818  1.00  0.00    -0.000 C 
BRANCH   5   6
ATOM      6  C   UNL     1       5.844 123.808 112.914  1.00  0.00    -0.000 C 
BRANCH   6   7
ATOM      7  C   UNL     1       6.886 124.854 112.475  1.00  0.00    -0.000 C 
BRANCH   7   8
ATOM      8  C   UNL     1       8.044 124.317 111.609  1.00  0.00    -0.000 C 
BRANCH   8   9
ATOM      9  C   UNL     1       8.175 124.987 110.227  1.00  0.00    -0.000 C 
BRANCH   9  10
ATOM     10  C   UNL     1       6.821 125.196 109.513  1.00  0.00    -0.000 C 
BRANCH  10  11
ATOM     11  C   UNL     1       6.936 125.229 107.981  1.00  0.00    -0.003 C 
ATOM     12  C   UNL     1       8.287 124.721 107.478  1.00  0.00     0.004 C 
ENDBRANCH  10  11
ENDBRANCH   9  10
ENDBRANCH   8   9
ENDBRANCH   7   8
ENDBRANCH   6   7
ENDBRANCH   5   6
ENDBRANCH   4   5
ENDBRANCH   3   4
ENDBRANCH   2   3
ENDBRANCH   1   2
BRANCH   1  13
ATOM     13  C   UNL     1       1.322 128.003 112.014  1.00  0.00     0.000 C 
BRANCH  13  14
ATOM     14  C   UNL     1       1.498 127.924 113.539  1.00  0.00     0.000 C 
BRANCH  14  15
ATOM     15  C   UNL     1       1.418 126.483 114.073  1.00  0.00     0.000 C 
BRANCH  15  16
ATOM     16  C   UNL     1       2.624 126.111 114.950  1.00  0.00     0.000 C 
BRANCH  16  17
ATOM     17  C   UNL     1       3.932 126.745 114.455  1.00  0.00     0.000 C 
BRANCH  17  18
ATOM     18  C   UNL     1       4.649 127.489 115.587  1.00  0.00     0.000 C 
BRANCH  18  19
ATOM     19  C   UNL     1       5.582 128.571 115.029  1.00  0.00     0.000 C 
BRANCH  19  20
ATOM     20  C   UNL     1       5.117 129.974 115.446  1.00  0.00     0.006 C 
BRANCH  20  21
ATOM     21  C   UNL     1       5.839 131.081 114.665  1.00  0.00     0.053 C 
BRANCH  21  22
ATOM     22  C   UNL     1       7.323 131.025 114.864  1.00  0.00     0.041 C 
ATOM     23  O   UNL     1       7.824 131.314 115.982  1.00  0.00    -0.550 OA
ATOM     24  O   UNL     1       8.149 130.610 113.828  1.00  0.00    -0.550 OA
ENDBRANCH  21  22
ENDBRANCH  20  21
ENDBRANCH  19  20
ENDBRANCH  18  19
ENDBRANCH  17  18
ENDBRANCH  16  17
ENDBRANCH  15  16
ENDBRANCH  14  15
ENDBRANCH  13  14
ENDBRANCH   1  13
TORSDOF 20
ENDMDL
MODEL 6
REMARK VINA RESULT:    -3.682      2.492      6.368
REMARK INTER + INTRA:         -11.485
REMARK INTER:                  -7.935
REMARK INTRA:                  -3.551
REMARK UNBOUND:                -3.498
REMARK SMILES CCCCCCCCCCCCCCCCCCCCCC(=O)[O-]
REMARK SMILES IDX 12 1 11 2 10 3 9 4 8 5 7 6 6 7 5 8 4 9 3 10 2 11 1 12 13 13
REMARK SMILES IDX 14 14 15 15 16 16 17 17 18 18 19 19 20 20 21 21 22 22 23 23
REMARK SMILES IDX 24 24
REMARK H PARENT
REMARK Flexibility Score: inf
ROOT
ATOM      1  C   UNL     1       4.549 127.607 113.829  1.00  0.00     0.000 C 
ENDROOT
BRANCH   1   2
ATOM      2  C   UNL     1       4.325 128.696 112.765  1.00  0.00     0.000 C 
BRANCH   2   3
ATOM      3  C   UNL     1       4.740 130.093 113.259  1.00  0.00     0.000 C 
BRANCH   3   4
ATOM      4  C   UNL     1       6.223 130.165 113.656  1.00  0.00    -0.000 C 
BRANCH   4   5
ATOM      5  C   UNL     1       6.455 130.975 114.945  1.00  0.00    -0.000 C 
BRANCH   5   6
ATOM      6  C   UNL     1       5.168 131.662 115.450  1.00  0.00    -0.000 C 
BRANCH   6   7
ATOM      7  C   UNL     1       4.668 131.142 116.812  1.00  0.00    -0.000 C 
BRANCH   7   8
ATOM      8  C   UNL     1       3.573 130.058 116.747  1.00  0.00    -0.000 C 
BRANCH   8   9
ATOM      9  C   UNL     1       3.951 128.724 117.422  1.00  0.00    -0.000 C 
BRANCH   9  10
ATOM     10  C   UNL     1       5.430 128.325 117.213  1.00  0.00    -0.000 C 
BRANCH  10  11
ATOM     11  C   UNL     1       5.719 126.854 117.549  1.00  0.00    -0.003 C 
ATOM     12  C   UNL     1       6.698 126.206 116.571  1.00  0.00     0.004 C 
ENDBRANCH  10  11
ENDBRANCH   9  10
ENDBRANCH   8   9
ENDBRANCH   7   8
ENDBRANCH   6   7
ENDBRANCH   5   6
ENDBRANCH   4   5
ENDBRANCH   3   4
ENDBRANCH   2   3
ENDBRANCH   1   2
BRANCH   1  13
ATOM     13  C   UNL     1       3.249 126.875 114.209  1.00  0.00     0.000 C 
BRANCH  13  14
ATOM     14  C   UNL     1       1.999 127.571 113.649  1.00  0.00     0.000 C 
BRANCH  14  15
ATOM     15  C   UNL     1       1.149 126.643 112.762  1.00  0.00     0.000 C 
BRANCH  15  16
ATOM     16  C   UNL     1       1.963 125.482 112.171  1.00  0.00     0.000 C 
BRANCH  16  17
ATOM     17  C   UNL     1       2.622 125.844 110.832  1.00  0.00     0.000 C 
BRANCH  17  18
ATOM     18  C   UNL     1       3.923 125.060 110.625  1.00  0.00     0.000 C 
BRANCH  18  19
ATOM     19  C   UNL     1       4.187 124.115 111.804  1.00  0.00     0.000 C 
BRANCH  19  20
ATOM     20  C   UNL     1       5.545 123.412 111.658  1.00  0.00     0.006 C 
BRANCH  20  21
ATOM     21  C   UNL     1       6.584 123.942 112.654  1.00  0.00     0.053 C 
BRANCH  21  22
ATOM     22  C   UNL     1       7.562 124.869 111.999  1.00  0.00     0.041 C 
ATOM     23  O   UNL     1       8.703 124.453 111.666  1.00  0.00    -0.550 OA
ATOM     24  O   UNL     1       7.199 126.179 111.716  1.00  0.00    -0.550 OA
ENDBRANCH  21  22
ENDBRANCH  20  21
ENDBRANCH  19  20
ENDBRANCH  18  19
ENDBRANCH  17  18
ENDBRANCH  16  17
ENDBRANCH  15  16
ENDBRANCH  14  15
ENDBRANCH  13  14
ENDBRANCH   1  13
TORSDOF 20
ENDMDL
MODEL 7
REMARK VINA RESULT:    -3.676      1.759      2.802
REMARK INTER + INTRA:         -11.472
REMARK INTER:                  -9.063
REMARK INTRA:                  -2.408
REMARK UNBOUND:                -3.498
REMARK SMILES CCCCCCCCCCCCCCCCCCCCCC(=O)[O-]
REMARK SMILES IDX 12 1 11 2 10 3 9 4 8 5 7 6 6 7 5 8 4 9 3 10 2 11 1 12 13 13
REMARK SMILES IDX 14 14 15 15 16 16 17 17 18 18 19 19 20 20 21 21 22 22 23 23
REMARK SMILES IDX 24 24
REMARK H PARENT
REMARK Flexibility Score: inf
ROOT
ATOM      1  C   UNL     1       1.938 126.318 112.077  1.00  0.00     0.000 C 
ENDROOT
BRANCH   1   2
ATOM      2  C   UNL     1       2.446 126.290 110.626  1.00  0.00     0.000 C 
BRANCH   2   3
ATOM      3  C   UNL     1       3.753 125.491 110.476  1.00  0.00     0.000 C 
BRANCH   3   4
ATOM      4  C   UNL     1       4.373 125.110 111.830  1.00  0.00    -0.000 C 
BRANCH   4   5
ATOM      5  C   UNL     1       4.723 123.613 111.923  1.00  0.00    -0.000 C 
BRANCH   5   6
ATOM      6  C   UNL     1       6.148 123.308 111.415  1.00  0.00    -0.000 C 
BRANCH   6   7
ATOM      7  C   UNL     1       7.230 124.259 111.962  1.00  0.00    -0.000 C 
BRANCH   7   8
ATOM      8  C   UNL     1       8.280 124.730 110.936  1.00  0.00    -0.000 C 
BRANCH   8   9
ATOM      9  C   UNL     1       7.690 125.278 109.621  1.00  0.00    -0.000 C 
BRANCH   9  10
ATOM     10  C   UNL     1       8.173 124.517 108.365  1.00  0.00    -0.000 C 
BRANCH  10  11
ATOM     11  C   UNL     1       7.477 124.969 107.072  1.00  0.00    -0.003 C 
ATOM     12  C   UNL     1       6.151 125.682 107.331  1.00  0.00     0.004 C 
ENDBRANCH  10  11
ENDBRANCH   9  10
ENDBRANCH   8   9
ENDBRANCH   7   8
ENDBRANCH   6   7
ENDBRANCH   5   6
ENDBRANCH   4   5
ENDBRANCH   3   4
ENDBRANCH   2   3
ENDBRANCH   1   2
BRANCH   1  13
ATOM     13  C   UNL     1       1.444 127.712 112.504  1.00  0.00     0.000 C 
BRANCH  13  14
ATOM     14  C   UNL     1       2.185 128.244 113.741  1.00  0.00     0.000 C 
BRANCH  14  15
ATOM     15  C   UNL     1       3.147 127.207 114.350  1.00  0.00     0.000 C 
BRANCH  15  16
ATOM     16  C   UNL     1       4.586 127.735 114.467  1.00  0.00     0.000 C 
BRANCH  16  17
ATOM     17  C   UNL     1       5.011 128.566 113.248  1.00  0.00     0.000 C 
BRANCH  17  18
ATOM     18  C   UNL     1       5.937 129.716 113.659  1.00  0.00     0.000 C 
BRANCH  18  19
ATOM     19  C   UNL     1       5.137 130.876 114.265  1.00  0.00     0.000 C 
BRANCH  19  20
ATOM     20  C   UNL     1       5.505 131.093 115.740  1.00  0.00     0.006 C 
BRANCH  20  21
ATOM     21  C   UNL     1       4.709 132.241 116.374  1.00  0.00     0.053 C 
BRANCH  21  22
ATOM     22  C   UNL     1       5.051 133.564 115.757  1.00  0.00     0.041 C 
ATOM     23  O   UNL     1       4.159 134.249 115.193  1.00  0.00    -0.550 OA
ATOM     24  O   UNL     1       6.345 134.059 115.845  1.00  0.00    -0.550 OA
ENDBRANCH  21  22
ENDBRANCH  20  21
ENDBRANCH  19  20
ENDBRANCH  18  19
ENDBRANCH  17  18
ENDBRANCH  16  17
ENDBRANCH  15  16
ENDBRANCH  14  15
ENDBRANCH  13  14
ENDBRANCH   1  13
TORSDOF 20
ENDMDL
MODEL 8
REMARK VINA RESULT:    -3.643      2.618      6.261
REMARK INTER + INTRA:         -11.399
REMARK INTER:                  -7.350
REMARK INTRA:                  -4.049
REMARK UNBOUND:                -3.498
REMARK SMILES CCCCCCCCCCCCCCCCCCCCCC(=O)[O-]
REMARK SMILES IDX 12 1 11 2 10 3 9 4 8 5 7 6 6 7 5 8 4 9 3 10 2 11 1 12 13 13
REMARK SMILES IDX 14 14 15 15 16 16 17 17 18 18 19 19 20 20 21 21 22 22 23 23
REMARK SMILES IDX 24 24
REMARK H PARENT
REMARK Flexibility Score: inf
ROOT
ATOM      1  C   UNL     1       1.805 125.871 112.295  1.00  0.00     0.000 C 
ENDROOT
BRANCH   1   2
ATOM      2  C   UNL     1       1.299 126.612 113.544  1.00  0.00     0.000 C 
BRANCH   2   3
ATOM      3  C   UNL     1       2.378 127.514 114.170  1.00  0.00     0.000 C 
BRANCH   3   4
ATOM      4  C   UNL     1       3.774 126.872 114.145  1.00  0.00    -0.000 C 
BRANCH   4   5
ATOM      5  C   UNL     1       4.821 127.751 113.437  1.00  0.00    -0.000 C 
BRANCH   5   6
ATOM      6  C   UNL     1       4.200 129.014 112.803  1.00  0.00    -0.000 C 
BRANCH   6   7
ATOM      7  C   UNL     1       4.798 130.337 113.317  1.00  0.00    -0.000 C 
BRANCH   7   8
ATOM      8  C   UNL     1       3.814 131.268 114.055  1.00  0.00    -0.000 C 
BRANCH   8   9
ATOM      9  C   UNL     1       4.106 131.446 115.559  1.00  0.00    -0.000 C 
BRANCH   9  10
ATOM     10  C   UNL     1       4.007 130.131 116.365  1.00  0.00    -0.000 C 
BRANCH  10  11
ATOM     11  C   UNL     1       5.357 129.652 116.920  1.00  0.00    -0.003 C 
ATOM     12  C   UNL     1       5.357 128.165 117.273  1.00  0.00     0.004 C 
ENDBRANCH  10  11
ENDBRANCH   9  10
ENDBRANCH   8   9
ENDBRANCH   7   8
ENDBRANCH   6   7
ENDBRANCH   5   6
ENDBRANCH   4   5
ENDBRANCH   3   4
ENDBRANCH   2   3
ENDBRANCH   1   2
BRANCH   1  13
ATOM     13  C   UNL     1       1.781 126.753 111.034  1.00  0.00     0.000 C 
BRANCH  13  14
ATOM     14  C   UNL     1       3.087 126.662 110.228  1.00  0.00     0.000 C 
BRANCH  14  15
ATOM     15  C   UNL     1       3.694 125.247 110.237  1.00  0.00     0.000 C 
BRANCH  15  16
ATOM     16  C   UNL     1       5.206 125.255 110.509  1.00  0.00     0.000 C 
BRANCH  16  17
ATOM     17  C   UNL     1       5.572 124.551 111.824  1.00  0.00     0.000 C 
BRANCH  17  18
ATOM     18  C   UNL     1       4.799 123.237 111.982  1.00  0.00     0.000 C 
BRANCH  18  19
ATOM     19  C   UNL     1       4.050 123.198 113.320  1.00  0.00     0.000 C 
BRANCH  19  20
ATOM     20  C   UNL     1       4.961 122.696 114.450  1.00  0.00     0.006 C 
BRANCH  20  21
ATOM     21  C   UNL     1       5.339 123.813 115.431  1.00  0.00     0.053 C 
BRANCH  21  22
ATOM     22  C   UNL     1       6.721 124.336 115.174  1.00  0.00     0.041 C 
ATOM     23  O   UNL     1       7.609 123.573 114.711  1.00  0.00    -0.550 OA
ATOM     24  O   UNL     1       7.014 125.673 115.405  1.00  0.00    -0.550 OA
ENDBRANCH  21  22
ENDBRANCH  20  21
ENDBRANCH  19  20
ENDBRANCH  18  19
ENDBRANCH  17  18
ENDBRANCH  16  17
ENDBRANCH  15  16
ENDBRANCH  14  15
ENDBRANCH  13  14
ENDBRANCH   1  13
TORSDOF 20
ENDMDL
MODEL 9
REMARK VINA RESULT:    -3.605      1.468      4.694
REMARK INTER + INTRA:         -11.318
REMARK INTER:                  -7.551
REMARK INTRA:                  -3.767
REMARK UNBOUND:                -3.498
REMARK SMILES CCCCCCCCCCCCCCCCCCCCCC(=O)[O-]
REMARK SMILES IDX 12 1 11 2 10 3 9 4 8 5 7 6 6 7 5 8 4 9 3 10 2 11 1 12 13 13
REMARK SMILES IDX 14 14 15 15 16 16 17 17 18 18 19 19 20 20 21 21 22 22 23 23
REMARK SMILES IDX 24 24
REMARK H PARENT
REMARK Flexibility Score: inf
ROOT
ATOM      1  C   UNL     1       3.460 126.209 110.262  1.00  0.00     0.000 C 
ENDROOT
BRANCH   1   2
ATOM      2  C   UNL     1       3.188 124.860 110.948  1.00  0.00     0.000 C 
BRANCH   2   3
ATOM      3  C   UNL     1       4.483 124.153 111.389  1.00  0.00     0.000 C 
BRANCH   3   4
ATOM      4  C   UNL     1       5.748 124.868 110.887  1.00  0.00    -0.000 C 
BRANCH   4   5
ATOM      5  C   UNL     1       6.728 125.211 112.024  1.00  0.00    -0.000 C 
BRANCH   5   6
ATOM      6  C   UNL     1       6.164 124.855 113.416  1.00  0.00    -0.000 C 
BRANCH   6   7
ATOM      7  C   UNL     1       5.793 126.078 114.277  1.00  0.00    -0.000 C 
BRANCH   7   8
ATOM      8  C   UNL     1       4.410 126.697 113.990  1.00  0.00    -0.000 C 
BRANCH   8   9
ATOM      9  C   UNL     1       3.222 125.917 114.589  1.00  0.00    -0.000 C 
BRANCH   9  10
ATOM     10  C   UNL     1       2.423 126.722 115.639  1.00  0.00    -0.000 C 
BRANCH  10  11
ATOM     11  C   UNL     1       0.927 126.841 115.310  1.00  0.00    -0.003 C 
ATOM     12  C   UNL     1       0.355 125.568 114.689  1.00  0.00     0.004 C 
ENDBRANCH  10  11
ENDBRANCH   9  10
ENDBRANCH   8   9
ENDBRANCH   7   8
ENDBRANCH   6   7
ENDBRANCH   5   6
ENDBRANCH   4   5
ENDBRANCH   3   4
ENDBRANCH   2   3
ENDBRANCH   1   2
BRANCH   1  13
ATOM     13  C   UNL     1       2.222 127.124 110.244  1.00  0.00     0.000 C 
BRANCH  13  14
ATOM     14  C   UNL     1       1.632 127.341 111.647  1.00  0.00     0.000 C 
BRANCH  14  15
ATOM     15  C   UNL     1       0.538 128.424 111.671  1.00  0.00     0.000 C 
BRANCH  15  16
ATOM     16  C   UNL     1       1.032 129.749 112.274  1.00  0.00     0.000 C 
BRANCH  16  17
ATOM     17  C   UNL     1       2.357 129.593 113.034  1.00  0.00     0.000 C 
BRANCH  17  18
ATOM     18  C   UNL     1       2.295 130.284 114.401  1.00  0.00     0.000 C 
BRANCH  18  19
ATOM     19  C   UNL     1       3.632 130.158 115.141  1.00  0.00     0.000 C 
BRANCH  19  20
ATOM     20  C   UNL     1       4.814 130.441 114.202  1.00  0.00     0.006 C 
BRANCH  20  21
ATOM     21  C   UNL     1       6.137 129.888 114.751  1.00  0.00     0.053 C 
BRANCH  21  22
ATOM     22  C   UNL     1       7.260 130.867 114.586  1.00  0.00     0.041 C 
ATOM     23  O   UNL     1       7.357 131.855 115.359  1.00  0.00    -0.550 OA
ATOM     24  O   UNL     1       8.224 130.662 113.608  1.00  0.00    -0.550 OA
ENDBRANCH  21  22
ENDBRANCH  20  21
ENDBRANCH  19  20
ENDBRANCH  18  19
ENDBRANCH  17  18
ENDBRANCH  16  17
ENDBRANCH  15  16
ENDBRANCH  14  15
ENDBRANCH  13  14
ENDBRANCH   1  13
TORSDOF 20
ENDMDL
