MODEL 1
REMARK VINA RESULT:    -2.710      0.000      0.000
REMARK INTER + INTRA:          -7.257
REMARK INTER:                  -7.145
REMARK INTRA:                  -0.112
REMARK UNBOUND:                -0.112
REMARK SMILES CCCCCCCCCCCCCCCCCCCCCCCCCCCCCC(=O)[O-]
REMARK SMILES IDX 16 1 17 2 18 3 19 4 20 5 21 6 22 7 23 8 24 9 25 10 26 11
REMARK SMILES IDX 27 12 28 13 29 14 30 15 31 16 32 17 15 18 14 19 13 20 12 21
REMARK SMILES IDX 11 22 10 23 9 24 8 25 7 26 6 27 5 28 4 29 3 30 2 31 1 32
REMARK H PARENT
REMARK Flexibility Score: inf
ROOT
ATOM      1  C   UNL     1      -1.090  21.203  15.968  1.00  0.00     0.000 C 
ENDROOT
BRANCH   1   2
ATOM      2  C   UNL     1      -1.476  20.155  17.023  1.00  0.00     0.000 C 
BRANCH   2   3
ATOM      3  C   UNL     1      -3.001  19.966  17.076  1.00  0.00     0.000 C 
BRANCH   3   4
ATOM      4  C   UNL     1      -3.613  20.429  18.409  1.00  0.00     0.000 C 
BRANCH   4   5
ATOM      5  C   UNL     1      -5.087  20.010  18.560  1.00  0.00     0.000 C 
BRANCH   5   6
ATOM      6  C   UNL     1      -5.803  19.878  17.204  1.00  0.00     0.000 C 
BRANCH   6   7
ATOM      7  C   UNL     1      -5.138  20.671  16.063  1.00  0.00     0.000 C 
BRANCH   7   8
ATOM      8  C   UNL     1      -6.138  21.538  15.281  1.00  0.00     0.000 C 
BRANCH   8   9
ATOM      9  C   UNL     1      -7.358  20.713  14.841  1.00  0.00     0.000 C 
BRANCH   9  10
ATOM     10  C   UNL     1      -8.652  21.137  15.558  1.00  0.00     0.000 C 
BRANCH  10  11
ATOM     11  C   UNL     1      -8.382  21.908  16.859  1.00  0.00     0.000 C 
BRANCH  11  12
ATOM     12  C   UNL     1      -8.718  21.052  18.090  1.00  0.00     0.000 C 
BRANCH  12  13
ATOM     13  C   UNL     1      -8.959  21.893  19.356  1.00  0.00     0.006 C 
BRANCH  13  14
ATOM     14  C   UNL     1      -7.770  21.937  20.329  1.00  0.00     0.053 C 
BRANCH  14  15
ATOM     15  C   UNL     1      -7.912  23.028  21.346  1.00  0.00     0.041 C 
ATOM     16  O   UNL     1      -8.559  22.825  22.406  1.00  0.00    -0.550 OA
ATOM     17  O   UNL     1      -7.341  24.275  21.115  1.00  0.00    -0.550 OA
ENDBRANCH  14  15
ENDBRANCH  13  14
ENDBRANCH  12  13
ENDBRANCH  11  12
ENDBRANCH  10  11
ENDBRANCH   9  10
ENDBRANCH   8   9
ENDBRANCH   7   8
ENDBRANCH   6   7
ENDBRANCH   5   6
ENDBRANCH   4   5
ENDBRANCH   3   4
ENDBRANCH   2   3
ENDBRANCH   1   2
BRANCH   1  18
ATOM     18  C   UNL     1       0.327  20.987  15.411  1.00  0.00     0.000 C 
BRANCH  18  19
ATOM     19  C   UNL     1       1.359  20.671  16.509  1.00  0.00     0.000 C 
BRANCH  19  20
ATOM     20  C   UNL     1       2.762  21.178  16.132  1.00  0.00     0.000 C 
BRANCH  20  21
ATOM     21  C   UNL     1       3.821  20.849  17.203  1.00  0.00     0.000 C 
BRANCH  21  22
ATOM     22  C   UNL     1       4.983  21.856  17.191  1.00  0.00     0.000 C 
BRANCH  22  23
ATOM     23  C   UNL     1       6.244  21.253  16.547  1.00  0.00     0.000 C 
BRANCH  23  24
ATOM     24  C   UNL     1       6.177  21.222  15.013  1.00  0.00    -0.000 C 
BRANCH  24  25
ATOM     25  C   UNL     1       6.688  19.900  14.418  1.00  0.00    -0.000 C 
BRANCH  25  26
ATOM     26  C   UNL     1       8.216  19.918  14.276  1.00  0.00    -0.000 C 
BRANCH  26  27
ATOM     27  C   UNL     1       8.645  20.594  12.964  1.00  0.00    -0.000 C 
BRANCH  27  28
ATOM     28  C   UNL     1      10.138  20.988  12.970  1.00  0.00    -0.000 C 
BRANCH  28  29
ATOM     29  C   UNL     1      10.424  22.360  12.326  1.00  0.00    -0.000 C 
BRANCH  29  30
ATOM     30  C   UNL     1      11.030  23.409  13.272  1.00  0.00    -0.000 C 
BRANCH  30  31
ATOM     31  C   UNL     1      11.124  24.802  12.634  1.00  0.00    -0.003 C 
ATOM     32  C   UNL     1      10.627  24.774  11.191  1.00  0.00     0.004 C 
ENDBRANCH  30  31
ENDBRANCH  29  30
ENDBRANCH  28  29
ENDBRANCH  27  28
ENDBRANCH  26  27
ENDBRANCH  25  26
ENDBRANCH  24  25
ENDBRANCH  23  24
ENDBRANCH  22  23
ENDBRANCH  21  22
ENDBRANCH  20  21
ENDBRANCH  19  20
ENDBRANCH  18  19
ENDBRANCH   1  18
TORSDOF 28
ENDMDL
MODEL 2
REMARK VINA RESULT:    -2.358      5.358     15.553
REMARK INTER + INTRA:          -6.329
REMARK INTER:                  -5.623
REMARK INTRA:                  -0.705
REMARK UNBOUND:                -0.112
REMARK SMILES CCCCCCCCCCCCCCCCCCCCCCCCCCCCCC(=O)[O-]
REMARK SMILES IDX 16 1 17 2 18 3 19 4 20 5 21 6 22 7 23 8 24 9 25 10 26 11
REMARK SMILES IDX 27 12 28 13 29 14 30 15 31 16 32 17 15 18 14 19 13 20 12 21
REMARK SMILES IDX 11 22 10 23 9 24 8 25 7 26 6 27 5 28 4 29 3 30 2 31 1 32
REMARK H PARENT
REMARK Flexibility Score: inf
ROOT
ATOM      1  C   UNL     1       3.567  21.280  16.893  1.00  0.00     0.000 C 
ENDROOT
BRANCH   1   2
ATOM      2  C   UNL     1       4.076  22.457  17.739  1.00  0.00     0.000 C 
BRANCH   2   3
ATOM      3  C   UNL     1       5.613  22.504  17.747  1.00  0.00     0.000 C 
BRANCH   3   4
ATOM      4  C   UNL     1       6.241  21.671  16.617  1.00  0.00     0.000 C 
BRANCH   4   5
ATOM      5  C   UNL     1       7.725  21.349  16.872  1.00  0.00     0.000 C 
BRANCH   5   6
ATOM      6  C   UNL     1       8.507  22.566  17.397  1.00  0.00     0.000 C 
BRANCH   6   7
ATOM      7  C   UNL     1      10.032  22.465  17.202  1.00  0.00     0.000 C 
BRANCH   7   8
ATOM      8  C   UNL     1      10.423  22.097  15.762  1.00  0.00     0.000 C 
BRANCH   8   9
ATOM      9  C   UNL     1       9.832  20.736  15.360  1.00  0.00     0.000 C 
BRANCH   9  10
ATOM     10  C   UNL     1      10.047  20.411  13.872  1.00  0.00     0.000 C 
BRANCH  10  11
ATOM     11  C   UNL     1       9.644  21.571  12.948  1.00  0.00     0.000 C 
BRANCH  11  12
ATOM     12  C   UNL     1      10.148  21.337  11.515  1.00  0.00     0.000 C 
BRANCH  12  13
ATOM     13  C   UNL     1      11.124  22.428  11.039  1.00  0.00     0.006 C 
BRANCH  13  14
ATOM     14  C   UNL     1      10.971  23.778  11.757  1.00  0.00     0.053 C 
BRANCH  14  15
ATOM     15  C   UNL     1      10.374  24.826  10.868  1.00  0.00     0.041 C 
ATOM     16  O   UNL     1       9.828  25.844  11.367  1.00  0.00    -0.550 OA
ATOM     17  O   UNL     1      10.408  24.671   9.487  1.00  0.00    -0.550 OA
ENDBRANCH  14  15
ENDBRANCH  13  14
ENDBRANCH  12  13
ENDBRANCH  11  12
ENDBRANCH  10  11
ENDBRANCH   9  10
ENDBRANCH   8   9
ENDBRANCH   7   8
ENDBRANCH   6   7
ENDBRANCH   5   6
ENDBRANCH   4   5
ENDBRANCH   3   4
ENDBRANCH   2   3
ENDBRANCH   1   2
BRANCH   1  18
ATOM     18  C   UNL     1       2.035  21.157  16.911  1.00  0.00     0.000 C 
BRANCH  18  19
ATOM     19  C   UNL     1       1.517  19.997  16.042  1.00  0.00     0.000 C 
BRANCH  19  20
ATOM     20  C   UNL     1      -0.015  19.875  16.111  1.00  0.00     0.000 C 
BRANCH  20  21
ATOM     21  C   UNL     1      -0.629  20.733  17.235  1.00  0.00     0.000 C 
BRANCH  21  22
ATOM     22  C   UNL     1      -2.160  20.597  17.291  1.00  0.00     0.000 C 
BRANCH  22  23
ATOM     23  C   UNL     1      -2.788  20.730  15.892  1.00  0.00     0.000 C 
BRANCH  23  24
ATOM     24  C   UNL     1      -4.217  20.171  15.821  1.00  0.00    -0.000 C 
BRANCH  24  25
ATOM     25  C   UNL     1      -5.271  21.255  15.547  1.00  0.00    -0.000 C 
BRANCH  25  26
ATOM     26  C   UNL     1      -6.543  20.643  14.948  1.00  0.00    -0.000 C 
BRANCH  26  27
ATOM     27  C   UNL     1      -7.648  20.506  16.007  1.00  0.00    -0.000 C 
BRANCH  27  28
ATOM     28  C   UNL     1      -7.896  21.827  16.769  1.00  0.00    -0.000 C 
BRANCH  28  29
ATOM     29  C   UNL     1      -7.732  21.705  18.297  1.00  0.00    -0.000 C 
BRANCH  29  30
ATOM     30  C   UNL     1      -8.720  22.541  19.126  1.00  0.00    -0.000 C 
BRANCH  30  31
ATOM     31  C   UNL     1      -8.029  23.371  20.217  1.00  0.00    -0.003 C 
ATOM     32  C   UNL     1      -8.440  22.892  21.607  1.00  0.00     0.004 C 
ENDBRANCH  30  31
ENDBRANCH  29  30
ENDBRANCH  28  29
ENDBRANCH  27  28
ENDBRANCH  26  27
ENDBRANCH  25  26
ENDBRANCH  24  25
ENDBRANCH  23  24
ENDBRANCH  22  23
ENDBRANCH  21  22
ENDBRANCH  20  21
ENDBRANCH  19  20
ENDBRANCH  18  19
ENDBRANCH   1  18
TORSDOF 28
ENDMDL
MODEL 3
REMARK VINA RESULT:    -2.190      1.601      2.816
REMARK INTER + INTRA:          -5.887
REMARK INTER:                  -5.748
REMARK INTRA:                  -0.139
REMARK UNBOUND:                -0.112
REMARK SMILES CCCCCCCCCCCCCCCCCCCCCCCCCCCCCC(=O)[O-]
REMARK SMILES IDX 16 1 17 2 18 3 19 4 20 5 21 6 22 7 23 8 24 9 25 10 26 11
REMARK SMILES IDX 27 12 28 13 29 14 30 15 31 16 32 17 15 18 14 19 13 20 12 21
REMARK SMILES IDX 11 22 10 23 9 24 8 25 7 26 6 27 5 28 4 29 3 30 2 31 1 32
REMARK H PARENT
REMARK Flexibility Score: inf
ROOT
ATOM      1  C   UNL     1       0.560  20.696  15.656  1.00  0.00     0.000 C 
ENDROOT
BRANCH   1   2
ATOM      2  C   UNL     1      -0.630  21.300  16.419  1.00  0.00     0.000 C 
BRANCH   2   3
ATOM      3  C   UNL     1      -1.895  21.307  15.546  1.00  0.00     0.000 C 
BRANCH   3   4
ATOM      4  C   UNL     1      -3.136  20.787  16.291  1.00  0.00     0.000 C 
BRANCH   4   5
ATOM      5  C   UNL     1      -4.136  20.082  15.356  1.00  0.00     0.000 C 
BRANCH   5   6
ATOM      6  C   UNL     1      -5.297  21.001  14.939  1.00  0.00     0.000 C 
BRANCH   6   7
ATOM      7  C   UNL     1      -6.693  20.383  15.139  1.00  0.00     0.000 C 
BRANCH   7   8
ATOM      8  C   UNL     1      -7.783  21.440  15.379  1.00  0.00     0.000 C 
BRANCH   8   9
ATOM      9  C   UNL     1      -8.967  20.847  16.158  1.00  0.00     0.000 C 
BRANCH   9  10
ATOM     10  C   UNL     1      -8.521  19.877  17.267  1.00  0.00     0.000 C 
BRANCH  10  11
ATOM     11  C   UNL     1      -9.031  20.290  18.656  1.00  0.00     0.000 C 
BRANCH  11  12
ATOM     12  C   UNL     1      -7.869  20.436  19.650  1.00  0.00     0.000 C 
BRANCH  12  13
ATOM     13  C   UNL     1      -8.299  20.206  21.111  1.00  0.00     0.006 C 
BRANCH  13  14
ATOM     14  C   UNL     1      -7.522  21.038  22.143  1.00  0.00     0.053 C 
BRANCH  14  15
ATOM     15  C   UNL     1      -7.911  22.484  22.112  1.00  0.00     0.041 C 
ATOM     16  O   UNL     1      -8.629  22.967  23.025  1.00  0.00    -0.550 OA
ATOM     17  O   UNL     1      -7.492  23.297  21.064  1.00  0.00    -0.550 OA
ENDBRANCH  14  15
ENDBRANCH  13  14
ENDBRANCH  12  13
ENDBRANCH  11  12
ENDBRANCH  10  11
ENDBRANCH   9  10
ENDBRANCH   8   9
ENDBRANCH   7   8
ENDBRANCH   6   7
ENDBRANCH   5   6
ENDBRANCH   4   5
ENDBRANCH   3   4
ENDBRANCH   2   3
ENDBRANCH   1   2
BRANCH   1  18
ATOM     18  C   UNL     1       1.540  19.956  16.580  1.00  0.00     0.000 C 
BRANCH  18  19
ATOM     19  C   UNL     1       2.881  20.694  16.744  1.00  0.00     0.000 C 
BRANCH  19  20
ATOM     20  C   UNL     1       4.019  19.977  15.996  1.00  0.00     0.000 C 
BRANCH  20  21
ATOM     21  C   UNL     1       5.077  20.955  15.448  1.00  0.00     0.000 C 
BRANCH  21  22
ATOM     22  C   UNL     1       6.471  20.310  15.373  1.00  0.00     0.000 C 
BRANCH  22  23
ATOM     23  C   UNL     1       7.047  20.378  13.947  1.00  0.00     0.000 C 
BRANCH  23  24
ATOM     24  C   UNL     1       8.544  20.718  13.920  1.00  0.00    -0.000 C 
BRANCH  24  25
ATOM     25  C   UNL     1       9.144  20.669  12.506  1.00  0.00    -0.000 C 
BRANCH  25  26
ATOM     26  C   UNL     1       9.857  21.984  12.168  1.00  0.00    -0.000 C 
BRANCH  26  27
ATOM     27  C   UNL     1      11.082  22.202  13.071  1.00  0.00    -0.000 C 
BRANCH  27  28
ATOM     28  C   UNL     1      10.814  21.780  14.533  1.00  0.00    -0.000 C 
BRANCH  28  29
ATOM     29  C   UNL     1      10.743  22.963  15.519  1.00  0.00    -0.000 C 
BRANCH  29  30
ATOM     30  C   UNL     1      10.959  22.593  16.995  1.00  0.00    -0.000 C 
BRANCH  30  31
ATOM     31  C   UNL     1       9.797  23.033  17.897  1.00  0.00    -0.003 C 
ATOM     32  C   UNL     1       8.599  22.103  17.732  1.00  0.00     0.004 C 
ENDBRANCH  30  31
ENDBRANCH  29  30
ENDBRANCH  28  29
ENDBRANCH  27  28
ENDBRANCH  26  27
ENDBRANCH  25  26
ENDBRANCH  24  25
ENDBRANCH  23  24
ENDBRANCH  22  23
ENDBRANCH  21  22
ENDBRANCH  20  21
ENDBRANCH  19  20
ENDBRANCH  18  19
ENDBRANCH   1  18
TORSDOF 28
ENDMDL
MODEL 4
REMARK VINA RESULT:    -1.792      1.790      2.523
REMARK INTER + INTRA:          -4.836
REMARK INTER:                  -3.886
REMARK INTRA:                  -0.949
REMARK UNBOUND:                -0.112
REMARK SMILES CCCCCCCCCCCCCCCCCCCCCCCCCCCCCC(=O)[O-]
REMARK SMILES IDX 16 1 17 2 18 3 19 4 20 5 21 6 22 7 23 8 24 9 25 10 26 11
REMARK SMILES IDX 27 12 28 13 29 14 30 15 31 16 32 17 15 18 14 19 13 20 12 21
REMARK SMILES IDX 11 22 10 23 9 24 8 25 7 26 6 27 5 28 4 29 3 30 2 31 1 32
REMARK H PARENT
REMARK Flexibility Score: inf
ROOT
ATOM      1  C   UNL     1      -0.738  19.875  16.931  1.00  0.00     0.000 C 
ENDROOT
BRANCH   1   2
ATOM      2  C   UNL     1      -1.714  21.062  16.909  1.00  0.00     0.000 C 
BRANCH   2   3
ATOM      3  C   UNL     1      -1.784  21.689  15.507  1.00  0.00     0.000 C 
BRANCH   3   4
ATOM      4  C   UNL     1      -3.209  21.706  14.932  1.00  0.00     0.000 C 
BRANCH   4   5
ATOM      5  C   UNL     1      -4.229  21.012  15.854  1.00  0.00     0.000 C 
BRANCH   5   6
ATOM      6  C   UNL     1      -5.407  20.403  15.073  1.00  0.00     0.000 C 
BRANCH   6   7
ATOM      7  C   UNL     1      -6.599  21.359  14.886  1.00  0.00     0.000 C 
BRANCH   7   8
ATOM      8  C   UNL     1      -7.788  21.012  15.797  1.00  0.00     0.000 C 
BRANCH   8   9
ATOM      9  C   UNL     1      -7.997  22.094  16.868  1.00  0.00     0.000 C 
BRANCH   9  10
ATOM     10  C   UNL     1      -8.873  21.610  18.037  1.00  0.00     0.000 C 
BRANCH  10  11
ATOM     11  C   UNL     1      -8.418  20.254  18.596  1.00  0.00     0.000 C 
BRANCH  11  12
ATOM     12  C   UNL     1      -9.118  19.942  19.928  1.00  0.00     0.000 C 
BRANCH  12  13
ATOM     13  C   UNL     1      -8.273  20.335  21.154  1.00  0.00     0.006 C 
BRANCH  13  14
ATOM     14  C   UNL     1      -8.927  21.382  22.070  1.00  0.00     0.053 C 
BRANCH  14  15
ATOM     15  C   UNL     1      -7.915  22.141  22.872  1.00  0.00     0.041 C 
ATOM     16  O   UNL     1      -7.365  21.605  23.869  1.00  0.00    -0.550 OA
ATOM     17  O   UNL     1      -7.589  23.448  22.526  1.00  0.00    -0.550 OA
ENDBRANCH  14  15
ENDBRANCH  13  14
ENDBRANCH  12  13
ENDBRANCH  11  12
ENDBRANCH  10  11
ENDBRANCH   9  10
ENDBRANCH   8   9
ENDBRANCH   7   8
ENDBRANCH   6   7
ENDBRANCH   5   6
ENDBRANCH   4   5
ENDBRANCH   3   4
ENDBRANCH   2   3
ENDBRANCH   1   2
BRANCH   1  18
ATOM     18  C   UNL     1       0.732  20.320  16.995  1.00  0.00     0.000 C 
BRANCH  18  19
ATOM     19  C   UNL     1       1.201  21.026  15.710  1.00  0.00     0.000 C 
BRANCH  19  20
ATOM     20  C   UNL     1       2.706  21.343  15.752  1.00  0.00     0.000 C 
BRANCH  20  21
ATOM     21  C   UNL     1       3.495  20.363  16.642  1.00  0.00     0.000 C 
BRANCH  21  22
ATOM     22  C   UNL     1       4.792  19.888  15.966  1.00  0.00     0.000 C 
BRANCH  22  23
ATOM     23  C   UNL     1       5.964  20.838  16.269  1.00  0.00     0.000 C 
BRANCH  23  24
ATOM     24  C   UNL     1       7.144  20.662  15.301  1.00  0.00    -0.000 C 
BRANCH  24  25
ATOM     25  C   UNL     1       8.508  20.887  15.972  1.00  0.00    -0.000 C 
BRANCH  25  26
ATOM     26  C   UNL     1       9.602  21.122  14.923  1.00  0.00    -0.000 C 
BRANCH  26  27
ATOM     27  C   UNL     1       8.997  21.344  13.527  1.00  0.00    -0.000 C 
BRANCH  27  28
ATOM     28  C   UNL     1       9.321  20.186  12.558  1.00  0.00    -0.000 C 
BRANCH  28  29
ATOM     29  C   UNL     1       9.738  20.651  11.148  1.00  0.00    -0.000 C 
BRANCH  29  30
ATOM     30  C   UNL     1       8.927  20.040   9.995  1.00  0.00    -0.000 C 
BRANCH  30  31
ATOM     31  C   UNL     1       9.108  20.798   8.672  1.00  0.00    -0.003 C 
ATOM     32  C   UNL     1      10.580  21.119   8.427  1.00  0.00     0.004 C 
ENDBRANCH  30  31
ENDBRANCH  29  30
ENDBRANCH  28  29
ENDBRANCH  27  28
ENDBRANCH  26  27
ENDBRANCH  25  26
ENDBRANCH  24  25
ENDBRANCH  23  24
ENDBRANCH  22  23
ENDBRANCH  21  22
ENDBRANCH  20  21
ENDBRANCH  19  20
ENDBRANCH  18  19
ENDBRANCH   1  18
TORSDOF 28
ENDMDL
MODEL 5
REMARK VINA RESULT:    -1.407      1.747      3.014
REMARK INTER + INTRA:          -3.821
REMARK INTER:                  -2.633
REMARK INTRA:                  -1.188
REMARK UNBOUND:                -0.112
REMARK SMILES CCCCCCCCCCCCCCCCCCCCCCCCCCCCCC(=O)[O-]
REMARK SMILES IDX 16 1 17 2 18 3 19 4 20 5 21 6 22 7 23 8 24 9 25 10 26 11
REMARK SMILES IDX 27 12 28 13 29 14 30 15 31 16 32 17 15 18 14 19 13 20 12 21
REMARK SMILES IDX 11 22 10 23 9 24 8 25 7 26 6 27 5 28 4 29 3 30 2 31 1 32
REMARK H PARENT
REMARK Flexibility Score: inf
ROOT
ATOM      1  C   UNL     1       2.539  20.823  15.994  1.00  0.00     0.000 C 
ENDROOT
BRANCH   1   2
ATOM      2  C   UNL     1       1.390  19.896  16.419  1.00  0.00     0.000 C 
BRANCH   2   3
ATOM      3  C   UNL     1       0.150  20.708  16.825  1.00  0.00     0.000 C 
BRANCH   3   4
ATOM      4  C   UNL     1      -0.879  19.875  17.607  1.00  0.00     0.000 C 
BRANCH   4   5
ATOM      5  C   UNL     1      -2.302  20.457  17.520  1.00  0.00     0.000 C 
BRANCH   5   6
ATOM      6  C   UNL     1      -2.472  21.415  16.327  1.00  0.00     0.000 C 
BRANCH   6   7
ATOM      7  C   UNL     1      -3.296  20.831  15.164  1.00  0.00     0.000 C 
BRANCH   7   8
ATOM      8  C   UNL     1      -4.552  20.084  15.641  1.00  0.00     0.000 C 
BRANCH   8   9
ATOM      9  C   UNL     1      -5.747  21.042  15.771  1.00  0.00     0.000 C 
BRANCH   9  10
ATOM     10  C   UNL     1      -6.928  20.642  14.869  1.00  0.00     0.000 C 
BRANCH  10  11
ATOM     11  C   UNL     1      -8.291  20.981  15.493  1.00  0.00     0.000 C 
BRANCH  11  12
ATOM     12  C   UNL     1      -8.169  21.186  17.011  1.00  0.00     0.000 C 
BRANCH  12  13
ATOM     13  C   UNL     1      -8.576  22.601  17.458  1.00  0.00     0.006 C 
BRANCH  13  14
ATOM     14  C   UNL     1      -8.906  22.727  18.954  1.00  0.00     0.053 C 
BRANCH  14  15
ATOM     15  C   UNL     1      -7.740  22.363  19.822  1.00  0.00     0.041 C 
ATOM     16  O   UNL     1      -7.297  21.185  19.826  1.00  0.00    -0.550 OA
ATOM     17  O   UNL     1      -7.151  23.323  20.637  1.00  0.00    -0.550 OA
ENDBRANCH  14  15
ENDBRANCH  13  14
ENDBRANCH  12  13
ENDBRANCH  11  12
ENDBRANCH  10  11
ENDBRANCH   9  10
ENDBRANCH   8   9
ENDBRANCH   7   8
ENDBRANCH   6   7
ENDBRANCH   5   6
ENDBRANCH   4   5
ENDBRANCH   3   4
ENDBRANCH   2   3
ENDBRANCH   1   2
BRANCH   1  18
ATOM     18  C   UNL     1       3.409  21.269  17.180  1.00  0.00     0.000 C 
BRANCH  18  19
ATOM     19  C   UNL     1       4.388  22.399  16.813  1.00  0.00     0.000 C 
BRANCH  19  20
ATOM     20  C   UNL     1       5.609  22.419  17.748  1.00  0.00     0.000 C 
BRANCH  20  21
ATOM     21  C   UNL     1       6.836  21.711  17.139  1.00  0.00     0.000 C 
BRANCH  21  22
ATOM     22  C   UNL     1       6.493  21.001  15.819  1.00  0.00     0.000 C 
BRANCH  22  23
ATOM     23  C   UNL     1       7.496  19.876  15.509  1.00  0.00     0.000 C 
BRANCH  23  24
ATOM     24  C   UNL     1       8.936  20.229  15.909  1.00  0.00    -0.000 C 
BRANCH  24  25
ATOM     25  C   UNL     1       9.766  20.777  14.738  1.00  0.00    -0.000 C 
BRANCH  25  26
ATOM     26  C   UNL     1       8.873  21.072  13.526  1.00  0.00    -0.000 C 
BRANCH  26  27
ATOM     27  C   UNL     1       9.486  22.164  12.635  1.00  0.00    -0.000 C 
BRANCH  27  28
ATOM     28  C   UNL     1      10.425  21.580  11.555  1.00  0.00    -0.000 C 
BRANCH  28  29
ATOM     29  C   UNL     1      10.064  20.142  11.128  1.00  0.00    -0.000 C 
BRANCH  29  30
ATOM     30  C   UNL     1       9.155  20.039   9.894  1.00  0.00    -0.000 C 
BRANCH  30  31
ATOM     31  C   UNL     1       9.629  20.921   8.729  1.00  0.00    -0.003 C 
ATOM     32  C   UNL     1      10.493  20.120   7.759  1.00  0.00     0.004 C 
ENDBRANCH  30  31
ENDBRANCH  29  30
ENDBRANCH  28  29
ENDBRANCH  27  28
ENDBRANCH  26  27
ENDBRANCH  25  26
ENDBRANCH  24  25
ENDBRANCH  23  24
ENDBRANCH  22  23
ENDBRANCH  21  22
ENDBRANCH  20  21
ENDBRANCH  19  20
ENDBRANCH  18  19
ENDBRANCH   1  18
TORSDOF 28
ENDMDL
MODEL 6
REMARK VINA RESULT:    -1.374      5.311     15.051
REMARK INTER + INTRA:          -3.734
REMARK INTER:                  -4.340
REMARK INTRA:                   0.607
REMARK UNBOUND:                -0.112
REMARK SMILES CCCCCCCCCCCCCCCCCCCCCCCCCCCCCC(=O)[O-]
REMARK SMILES IDX 16 1 17 2 18 3 19 4 20 5 21 6 22 7 23 8 24 9 25 10 26 11
REMARK SMILES IDX 27 12 28 13 29 14 30 15 31 16 32 17 15 18 14 19 13 20 12 21
REMARK SMILES IDX 11 22 10 23 9 24 8 25 7 26 6 27 5 28 4 29 3 30 2 31 1 32
REMARK H PARENT
REMARK Flexibility Score: inf
ROOT
ATOM      1  C   UNL     1      -1.088  21.205  15.768  1.00  0.00     0.000 C 
ENDROOT
BRANCH   1   2
ATOM      2  C   UNL     1       0.397  20.906  15.509  1.00  0.00     0.000 C 
BRANCH   2   3
ATOM      3  C   UNL     1       1.125  20.565  16.819  1.00  0.00     0.000 C 
BRANCH   3   4
ATOM      4  C   UNL     1       2.603  20.990  16.807  1.00  0.00     0.000 C 
BRANCH   4   5
ATOM      5  C   UNL     1       3.536  19.876  16.300  1.00  0.00     0.000 C 
BRANCH   5   6
ATOM      6  C   UNL     1       5.015  20.304  16.296  1.00  0.00     0.000 C 
BRANCH   6   7
ATOM      7  C   UNL     1       5.487  20.923  14.967  1.00  0.00     0.000 C 
BRANCH   7   8
ATOM      8  C   UNL     1       6.657  20.152  14.335  1.00  0.00     0.000 C 
BRANCH   8   9
ATOM      9  C   UNL     1       7.784  19.926  15.354  1.00  0.00     0.000 C 
BRANCH   9  10
ATOM     10  C   UNL     1       8.918  20.958  15.224  1.00  0.00     0.000 C 
BRANCH  10  11
ATOM     11  C   UNL     1      10.228  20.337  14.716  1.00  0.00     0.000 C 
BRANCH  11  12
ATOM     12  C   UNL     1      10.572  20.845  13.307  1.00  0.00     0.000 C 
BRANCH  12  13
ATOM     13  C   UNL     1      10.731  22.375  13.245  1.00  0.00     0.006 C 
BRANCH  13  14
ATOM     14  C   UNL     1      10.703  22.961  11.825  1.00  0.00     0.053 C 
BRANCH  14  15
ATOM     15  C   UNL     1      10.692  24.459  11.833  1.00  0.00     0.041 C 
ATOM     16  O   UNL     1      10.895  25.089  12.903  1.00  0.00    -0.550 OA
ATOM     17  O   UNL     1      10.444  25.161  10.658  1.00  0.00    -0.550 OA
ENDBRANCH  14  15
ENDBRANCH  13  14
ENDBRANCH  12  13
ENDBRANCH  11  12
ENDBRANCH  10  11
ENDBRANCH   9  10
ENDBRANCH   8   9
ENDBRANCH   7   8
ENDBRANCH   6   7
ENDBRANCH   5   6
ENDBRANCH   4   5
ENDBRANCH   3   4
ENDBRANCH   2   3
ENDBRANCH   1   2
BRANCH   1  18
ATOM     18  C   UNL     1      -1.413  21.326  17.266  1.00  0.00     0.000 C 
BRANCH  18  19
ATOM     19  C   UNL     1      -2.226  20.133  17.800  1.00  0.00     0.000 C 
BRANCH  19  20
ATOM     20  C   UNL     1      -2.788  20.412  19.206  1.00  0.00     0.000 C 
BRANCH  20  21
ATOM     21  C   UNL     1      -4.325  20.525  19.219  1.00  0.00     0.000 C 
BRANCH  21  22
ATOM     22  C   UNL     1      -4.960  19.877  17.978  1.00  0.00     0.000 C 
BRANCH  22  23
ATOM     23  C   UNL     1      -4.471  20.546  16.681  1.00  0.00     0.000 C 
BRANCH  23  24
ATOM     24  C   UNL     1      -5.474  20.416  15.525  1.00  0.00    -0.000 C 
BRANCH  24  25
ATOM     25  C   UNL     1      -6.230  21.723  15.239  1.00  0.00    -0.000 C 
BRANCH  25  26
ATOM     26  C   UNL     1      -7.482  21.457  14.392  1.00  0.00    -0.000 C 
BRANCH  26  27
ATOM     27  C   UNL     1      -8.485  20.569  15.145  1.00  0.00    -0.000 C 
BRANCH  27  28
ATOM     28  C   UNL     1      -8.099  20.376  16.628  1.00  0.00    -0.000 C 
BRANCH  28  29
ATOM     29  C   UNL     1      -8.332  21.627  17.500  1.00  0.00    -0.000 C 
BRANCH  29  30
ATOM     30  C   UNL     1      -8.390  21.364  19.013  1.00  0.00    -0.000 C 
BRANCH  30  31
ATOM     31  C   UNL     1      -8.012  22.596  19.847  1.00  0.00    -0.003 C 
ATOM     32  C   UNL     1      -8.419  22.410  21.307  1.00  0.00     0.004 C 
ENDBRANCH  30  31
ENDBRANCH  29  30
ENDBRANCH  28  29
ENDBRANCH  27  28
ENDBRANCH  26  27
ENDBRANCH  25  26
ENDBRANCH  24  25
ENDBRANCH  23  24
ENDBRANCH  22  23
ENDBRANCH  21  22
ENDBRANCH  20  21
ENDBRANCH  19  20
ENDBRANCH  18  19
ENDBRANCH   1  18
TORSDOF 28
ENDMDL
MODEL 7
REMARK VINA RESULT:    -1.301      1.628      4.904
REMARK INTER + INTRA:          -3.543
REMARK INTER:                  -3.714
REMARK INTRA:                   0.171
REMARK UNBOUND:                -0.112
REMARK SMILES CCCCCCCCCCCCCCCCCCCCCCCCCCCCCC(=O)[O-]
REMARK SMILES IDX 16 1 17 2 18 3 19 4 20 5 21 6 22 7 23 8 24 9 25 10 26 11
REMARK SMILES IDX 27 12 28 13 29 14 30 15 31 16 32 17 15 18 14 19 13 20 12 21
REMARK SMILES IDX 11 22 10 23 9 24 8 25 7 26 6 27 5 28 4 29 3 30 2 31 1 32
REMARK H PARENT
REMARK Flexibility Score: inf
ROOT
ATOM      1  C   UNL     1       5.129  21.886  16.367  1.00  0.00     0.000 C 
ENDROOT
BRANCH   1   2
ATOM      2  C   UNL     1       4.401  21.392  17.626  1.00  0.00     0.000 C 
BRANCH   2   3
ATOM      3  C   UNL     1       2.883  21.322  17.391  1.00  0.00     0.000 C 
BRANCH   3   4
ATOM      4  C   UNL     1       2.509  20.473  16.165  1.00  0.00     0.000 C 
BRANCH   4   5
ATOM      5  C   UNL     1       1.122  20.830  15.599  1.00  0.00     0.000 C 
BRANCH   5   6
ATOM      6  C   UNL     1      -0.015  20.517  16.588  1.00  0.00     0.000 C 
BRANCH   6   7
ATOM      7  C   UNL     1      -1.414  20.919  16.086  1.00  0.00     0.000 C 
BRANCH   7   8
ATOM      8  C   UNL     1      -2.545  20.236  16.873  1.00  0.00     0.000 C 
BRANCH   8   9
ATOM      9  C   UNL     1      -3.720  19.875  15.949  1.00  0.00     0.000 C 
BRANCH   9  10
ATOM     10  C   UNL     1      -4.889  20.869  16.061  1.00  0.00     0.000 C 
BRANCH  10  11
ATOM     11  C   UNL     1      -5.983  20.390  17.027  1.00  0.00     0.000 C 
BRANCH  11  12
ATOM     12  C   UNL     1      -5.445  20.282  18.462  1.00  0.00     0.000 C 
BRANCH  12  13
ATOM     13  C   UNL     1      -6.456  20.765  19.519  1.00  0.00     0.006 C 
BRANCH  13  14
ATOM     14  C   UNL     1      -7.523  21.733  18.984  1.00  0.00     0.053 C 
BRANCH  14  15
ATOM     15  C   UNL     1      -8.443  22.212  20.065  1.00  0.00     0.041 C 
ATOM     16  O   UNL     1      -8.709  23.437  20.173  1.00  0.00    -0.550 OA
ATOM     17  O   UNL     1      -8.995  21.306  20.963  1.00  0.00    -0.550 OA
ENDBRANCH  14  15
ENDBRANCH  13  14
ENDBRANCH  12  13
ENDBRANCH  11  12
ENDBRANCH  10  11
ENDBRANCH   9  10
ENDBRANCH   8   9
ENDBRANCH   7   8
ENDBRANCH   6   7
ENDBRANCH   5   6
ENDBRANCH   4   5
ENDBRANCH   3   4
ENDBRANCH   2   3
ENDBRANCH   1   2
BRANCH   1  18
ATOM     18  C   UNL     1       6.543  21.297  16.232  1.00  0.00     0.000 C 
BRANCH  18  19
ATOM     19  C   UNL     1       6.545  19.877  15.637  1.00  0.00     0.000 C 
BRANCH  19  20
ATOM     20  C   UNL     1       6.859  19.892  14.131  1.00  0.00     0.000 C 
BRANCH  20  21
ATOM     21  C   UNL     1       8.346  20.173  13.837  1.00  0.00     0.000 C 
BRANCH  21  22
ATOM     22  C   UNL     1       8.566  20.644  12.389  1.00  0.00     0.000 C 
BRANCH  22  23
ATOM     23  C   UNL     1       9.979  20.292  11.892  1.00  0.00     0.000 C 
BRANCH  23  24
ATOM     24  C   UNL     1      11.030  21.343  12.280  1.00  0.00    -0.000 C 
BRANCH  24  25
ATOM     25  C   UNL     1      10.902  22.644  11.472  1.00  0.00    -0.000 C 
BRANCH  25  26
ATOM     26  C   UNL     1      10.914  23.867  12.399  1.00  0.00    -0.000 C 
BRANCH  26  27
ATOM     27  C   UNL     1      10.414  23.504  13.806  1.00  0.00    -0.000 C 
BRANCH  27  28
ATOM     28  C   UNL     1      11.120  22.253  14.374  1.00  0.00    -0.000 C 
BRANCH  28  29
ATOM     29  C   UNL     1      10.928  22.064  15.892  1.00  0.00    -0.000 C 
BRANCH  29  30
ATOM     30  C   UNL     1      10.438  23.311  16.646  1.00  0.00    -0.000 C 
BRANCH  30  31
ATOM     31  C   UNL     1      10.120  23.029  18.121  1.00  0.00    -0.003 C 
ATOM     32  C   UNL     1       8.844  22.201  18.253  1.00  0.00     0.004 C 
ENDBRANCH  30  31
ENDBRANCH  29  30
ENDBRANCH  28  29
ENDBRANCH  27  28
ENDBRANCH  26  27
ENDBRANCH  25  26
ENDBRANCH  24  25
ENDBRANCH  23  24
ENDBRANCH  22  23
ENDBRANCH  21  22
ENDBRANCH  20  21
ENDBRANCH  19  20
ENDBRANCH  18  19
ENDBRANCH   1  18
TORSDOF 28
ENDMDL
