MODEL 1
REMARK VINA RESULT:    -7.794      0.000      0.000
REMARK INTER + INTRA:          -9.679
REMARK INTER:                  -9.389
REMARK INTRA:                  -0.290
REMARK UNBOUND:                -0.290
REMARK SMILES O=c1c(O)c(-c2ccc(O)c(O)c2)oc2cc(O)cc(O)c12
REMARK SMILES IDX 5 1 3 2 2 3 1 4 22 5 20 6 19 7 17 8 16 9 15 10 14 11 6 12
REMARK SMILES IDX 7 13 8 14 9 15 13 16 11 17 10 18 12 20 4 22 21 24 18 26
REMARK H PARENT 10 19 12 21 4 23 21 25 18 27
REMARK Flexibility Score: inf
ROOT
ATOM      1  C   UNL     1      48.985  61.833   2.900  1.00  0.00     0.180 A 
ATOM      2  C   UNL     1      48.940  63.140   2.385  1.00  0.00     0.208 A 
ATOM      3  C   UNL     1      47.710  63.817   2.352  1.00  0.00     0.238 A 
ATOM      4  O   UNL     1      47.686  65.006   1.940  1.00  0.00    -0.285 OA
ATOM      5  C   UNL     1      46.539  63.173   2.820  1.00  0.00     0.111 A 
ATOM      6  C   UNL     1      45.233  63.750   2.796  1.00  0.00     0.134 A 
ATOM      7  C   UNL     1      44.169  63.073   3.405  1.00  0.00     0.093 A 
ATOM      8  C   UNL     1      44.349  61.814   3.977  1.00  0.00     0.123 A 
ATOM      9  C   UNL     1      45.608  61.215   3.953  1.00  0.00     0.094 A 
ATOM     10  C   UNL     1      46.697  61.881   3.385  1.00  0.00     0.146 A 
ATOM     11  O   UNL     1      47.882  61.281   3.392  1.00  0.00    -0.452 OA
ENDROOT
BRANCH   1  12
ATOM     12  C   UNL     1      50.239  61.046   2.944  1.00  0.00     0.025 A 
ATOM     13  C   UNL     1      51.156  61.266   3.982  1.00  0.00     0.016 A 
ATOM     14  C   UNL     1      52.335  60.522   4.054  1.00  0.00     0.051 A 
ATOM     15  C   UNL     1      52.615  59.536   3.103  1.00  0.00     0.157 A 
ATOM     16  C   UNL     1      50.507  60.041   2.000  1.00  0.00     0.062 A 
ATOM     17  C   UNL     1      51.685  59.286   2.065  1.00  0.00     0.158 A 
BRANCH  15  18
ATOM     18  O   UNL     1      53.815  58.831   3.226  1.00  0.00    -0.504 OA
ATOM     19  H   UNL     1      54.674  59.094   2.766  1.00  0.00     0.293 HD
ENDBRANCH  15  18
BRANCH  17  20
ATOM     20  O   UNL     1      51.886  58.306   1.092  1.00  0.00    -0.504 OA
ATOM     21  H   UNL     1      52.732  57.760   1.007  1.00  0.00     0.293 HD
ENDBRANCH  17  20
ENDBRANCH   1  12
BRANCH   2  22
ATOM     22  O   UNL     1      50.111  63.764   1.949  1.00  0.00    -0.502 OA
ATOM     23  H   UNL     1      50.870  63.997   2.577  1.00  0.00     0.293 HD
ENDBRANCH   2  22
BRANCH   6  24
ATOM     24  O   UNL     1      44.926  64.961   2.170  1.00  0.00    -0.507 OA
ATOM     25  H   UNL     1      45.577  65.721   2.038  1.00  0.00     0.293 HD
ENDBRANCH   6  24
BRANCH   8  26
ATOM     26  O   UNL     1      43.263  61.163   4.560  1.00  0.00    -0.508 OA
ATOM     27  H   UNL     1      43.392  60.394   5.208  1.00  0.00     0.293 HD
ENDBRANCH   8  26
TORSDOF 6
ENDMDL
MODEL 2
REMARK VINA RESULT:    -7.759      3.578      5.209
REMARK INTER + INTRA:          -9.637
REMARK INTER:                  -9.365
REMARK INTRA:                  -0.272
REMARK UNBOUND:                -0.290
REMARK SMILES O=c1c(O)c(-c2ccc(O)c(O)c2)oc2cc(O)cc(O)c12
REMARK SMILES IDX 5 1 3 2 2 3 1 4 22 5 20 6 19 7 17 8 16 9 15 10 14 11 6 12
REMARK SMILES IDX 7 13 8 14 9 15 13 16 11 17 10 18 12 20 4 22 21 24 18 26
REMARK H PARENT 10 19 12 21 4 23 21 25 18 27
REMARK Flexibility Score: inf
ROOT
ATOM      1  C   UNL     1      50.322  61.475   6.416  1.00  0.00     0.180 A 
ATOM      2  C   UNL     1      49.155  60.731   6.656  1.00  0.00     0.208 A 
ATOM      3  C   UNL     1      47.964  61.107   6.015  1.00  0.00     0.238 A 
ATOM      4  O   UNL     1      46.934  60.405   6.191  1.00  0.00    -0.285 OA
ATOM      5  C   UNL     1      47.951  62.232   5.155  1.00  0.00     0.111 A 
ATOM      6  C   UNL     1      46.792  62.727   4.485  1.00  0.00     0.134 A 
ATOM      7  C   UNL     1      46.924  63.767   3.557  1.00  0.00     0.093 A 
ATOM      8  C   UNL     1      48.158  64.372   3.322  1.00  0.00     0.123 A 
ATOM      9  C   UNL     1      49.287  63.937   4.016  1.00  0.00     0.094 A 
ATOM     10  C   UNL     1      49.194  62.876   4.922  1.00  0.00     0.146 A 
ATOM     11  O   UNL     1      50.294  62.484   5.554  1.00  0.00    -0.452 OA
ENDROOT
BRANCH   1  12
ATOM     12  C   UNL     1      51.610  61.154   7.075  1.00  0.00     0.025 A 
ATOM     13  C   UNL     1      52.655  60.605   6.318  1.00  0.00     0.016 A 
ATOM     14  C   UNL     1      53.883  60.314   6.914  1.00  0.00     0.051 A 
ATOM     15  C   UNL     1      54.098  60.579   8.270  1.00  0.00     0.157 A 
ATOM     16  C   UNL     1      51.830  61.442   8.432  1.00  0.00     0.062 A 
ATOM     17  C   UNL     1      53.060  61.158   9.039  1.00  0.00     0.158 A 
BRANCH  15  18
ATOM     18  O   UNL     1      55.346  60.258   8.809  1.00  0.00    -0.504 OA
ATOM     19  H   UNL     1      56.151  60.003   8.256  1.00  0.00     0.293 HD
ENDBRANCH  15  18
BRANCH  17  20
ATOM     20  O   UNL     1      53.206  61.469  10.392  1.00  0.00    -0.504 OA
ATOM     21  H   UNL     1      52.922  60.859  11.146  1.00  0.00     0.293 HD
ENDBRANCH  17  20
ENDBRANCH   1  12
BRANCH   2  22
ATOM     22  O   UNL     1      49.194  59.611   7.491  1.00  0.00    -0.502 OA
ATOM     23  H   UNL     1      48.417  58.967   7.575  1.00  0.00     0.293 HD
ENDBRANCH   2  22
BRANCH   6  24
ATOM     24  O   UNL     1      45.497  62.255   4.713  1.00  0.00    -0.507 OA
ATOM     25  H   UNL     1      44.763  62.784   5.160  1.00  0.00     0.293 HD
ENDBRANCH   6  24
BRANCH   8  26
ATOM     26  O   UNL     1      48.248  65.416   2.403  1.00  0.00    -0.508 OA
ATOM     27  H   UNL     1      49.137  65.696   2.005  1.00  0.00     0.293 HD
ENDBRANCH   8  26
TORSDOF 6
ENDMDL
MODEL 3
REMARK VINA RESULT:    -7.753      2.373      3.237
REMARK INTER + INTRA:          -9.629
REMARK INTER:                  -9.362
REMARK INTRA:                  -0.268
REMARK UNBOUND:                -0.290
REMARK SMILES O=c1c(O)c(-c2ccc(O)c(O)c2)oc2cc(O)cc(O)c12
REMARK SMILES IDX 5 1 3 2 2 3 1 4 22 5 20 6 19 7 17 8 16 9 15 10 14 11 6 12
REMARK SMILES IDX 7 13 8 14 9 15 13 16 11 17 10 18 12 20 4 22 21 24 18 26
REMARK H PARENT 10 19 12 21 4 23 21 25 18 27
REMARK Flexibility Score: inf
ROOT
ATOM      1  C   UNL     1      50.124  61.293   0.611  1.00  0.00     0.180 A 
ATOM      2  C   UNL     1      50.418  62.643   0.351  1.00  0.00     0.208 A 
ATOM      3  C   UNL     1      49.654  63.639   0.978  1.00  0.00     0.238 A 
ATOM      4  O   UNL     1      49.957  64.846   0.783  1.00  0.00    -0.285 OA
ATOM      5  C   UNL     1      48.597  63.275   1.847  1.00  0.00     0.111 A 
ATOM      6  C   UNL     1      47.733  64.201   2.505  1.00  0.00     0.134 A 
ATOM      7  C   UNL     1      46.804  63.731   3.442  1.00  0.00     0.093 A 
ATOM      8  C   UNL     1      46.664  62.368   3.697  1.00  0.00     0.123 A 
ATOM      9  C   UNL     1      47.462  61.449   3.015  1.00  0.00     0.094 A 
ATOM     10  C   UNL     1      48.423  61.889   2.100  1.00  0.00     0.146 A 
ATOM     11  O   UNL     1      49.170  60.984   1.480  1.00  0.00    -0.452 OA
ENDROOT
BRANCH   1  12
ATOM     12  C   UNL     1      50.869  60.187  -0.033  1.00  0.00     0.025 A 
ATOM     13  C   UNL     1      51.738  59.400   0.736  1.00  0.00     0.016 A 
ATOM     14  C   UNL     1      52.435  58.339   0.154  1.00  0.00     0.051 A 
ATOM     15  C   UNL     1      52.266  58.034  -1.201  1.00  0.00     0.157 A 
ATOM     16  C   UNL     1      50.681  59.869  -1.389  1.00  0.00     0.062 A 
ATOM     17  C   UNL     1      51.372  58.804  -1.982  1.00  0.00     0.158 A 
BRANCH  15  18
ATOM     18  O   UNL     1      52.998  56.965  -1.725  1.00  0.00    -0.504 OA
ATOM     19  H   UNL     1      53.455  56.264  -1.162  1.00  0.00     0.293 HD
ENDBRANCH  15  18
BRANCH  17  20
ATOM     20  O   UNL     1      51.138  58.548  -3.334  1.00  0.00    -0.504 OA
ATOM     21  H   UNL     1      50.313  58.081  -3.685  1.00  0.00     0.293 HD
ENDBRANCH  17  20
ENDBRANCH   1  12
BRANCH   2  22
ATOM     22  O   UNL     1      51.480  62.981  -0.493  1.00  0.00    -0.502 OA
ATOM     23  H   UNL     1      51.421  63.734  -1.166  1.00  0.00     0.293 HD
ENDBRANCH   2  22
BRANCH   6  24
ATOM     24  O   UNL     1      47.727  65.576   2.256  1.00  0.00    -0.507 OA
ATOM     25  H   UNL     1      47.470  66.000   1.377  1.00  0.00     0.293 HD
ENDBRANCH   6  24
BRANCH   8  26
ATOM     26  O   UNL     1      45.718  61.936   4.625  1.00  0.00    -0.508 OA
ATOM     27  H   UNL     1      45.870  61.109   5.191  1.00  0.00     0.293 HD
ENDBRANCH   8  26
TORSDOF 6
ENDMDL
MODEL 4
REMARK VINA RESULT:    -7.623      3.264      7.658
REMARK INTER + INTRA:          -9.472
REMARK INTER:                  -9.138
REMARK INTRA:                  -0.334
REMARK UNBOUND:                -0.290
REMARK SMILES O=c1c(O)c(-c2ccc(O)c(O)c2)oc2cc(O)cc(O)c12
REMARK SMILES IDX 5 1 3 2 2 3 1 4 22 5 20 6 19 7 17 8 16 9 15 10 14 11 6 12
REMARK SMILES IDX 7 13 8 14 9 15 13 16 11 17 10 18 12 20 4 22 21 24 18 26
REMARK H PARENT 10 19 12 21 4 23 21 25 18 27
REMARK Flexibility Score: inf
ROOT
ATOM      1  C   UNL     1      49.938  61.639   5.602  1.00  0.00     0.180 A 
ATOM      2  C   UNL     1      50.652  60.789   4.740  1.00  0.00     0.208 A 
ATOM      3  C   UNL     1      51.855  60.221   5.187  1.00  0.00     0.238 A 
ATOM      4  O   UNL     1      52.463  59.419   4.430  1.00  0.00    -0.285 OA
ATOM      5  C   UNL     1      52.338  60.520   6.484  1.00  0.00     0.111 A 
ATOM      6  C   UNL     1      53.565  60.032   7.025  1.00  0.00     0.134 A 
ATOM      7  C   UNL     1      53.878  60.288   8.366  1.00  0.00     0.093 A 
ATOM      8  C   UNL     1      53.042  61.067   9.165  1.00  0.00     0.123 A 
ATOM      9  C   UNL     1      51.869  61.600   8.629  1.00  0.00     0.094 A 
ATOM     10  C   UNL     1      51.512  61.331   7.305  1.00  0.00     0.146 A 
ATOM     11  O   UNL     1      50.382  61.848   6.836  1.00  0.00    -0.452 OA
ENDROOT
BRANCH   1  12
ATOM     12  C   UNL     1      48.675  62.295   5.194  1.00  0.00     0.025 A 
ATOM     13  C   UNL     1      47.449  61.692   5.510  1.00  0.00     0.016 A 
ATOM     14  C   UNL     1      46.246  62.303   5.151  1.00  0.00     0.051 A 
ATOM     15  C   UNL     1      46.242  63.534   4.486  1.00  0.00     0.157 A 
ATOM     16  C   UNL     1      48.674  63.542   4.545  1.00  0.00     0.062 A 
ATOM     17  C   UNL     1      47.472  64.165   4.185  1.00  0.00     0.158 A 
BRANCH  15  18
ATOM     18  O   UNL     1      45.006  64.089   4.149  1.00  0.00    -0.504 OA
ATOM     19  H   UNL     1      44.142  63.569   4.118  1.00  0.00     0.293 HD
ENDBRANCH  15  18
BRANCH  17  20
ATOM     20  O   UNL     1      47.548  65.402   3.541  1.00  0.00    -0.504 OA
ATOM     21  H   UNL     1      46.878  66.148   3.671  1.00  0.00     0.293 HD
ENDBRANCH  17  20
ENDBRANCH   1  12
BRANCH   2  22
ATOM     22  O   UNL     1      50.148  60.490   3.472  1.00  0.00    -0.502 OA
ATOM     23  H   UNL     1      49.795  59.572   3.229  1.00  0.00     0.293 HD
ENDBRANCH   2  22
BRANCH   6  24
ATOM     24  O   UNL     1      54.515  59.321   6.288  1.00  0.00    -0.507 OA
ATOM     25  H   UNL     1      54.483  58.327   6.116  1.00  0.00     0.293 HD
ENDBRANCH   6  24
BRANCH   8  26
ATOM     26  O   UNL     1      53.394  61.314  10.491  1.00  0.00    -0.508 OA
ATOM     27  H   UNL     1      54.192  61.891  10.728  1.00  0.00     0.293 HD
ENDBRANCH   8  26
TORSDOF 6
ENDMDL
MODEL 5
REMARK VINA RESULT:    -7.558      4.391      7.094
REMARK INTER + INTRA:          -9.395
REMARK INTER:                  -9.093
REMARK INTRA:                  -0.302
REMARK UNBOUND:                -0.290
REMARK SMILES O=c1c(O)c(-c2ccc(O)c(O)c2)oc2cc(O)cc(O)c12
REMARK SMILES IDX 5 1 3 2 2 3 1 4 22 5 20 6 19 7 17 8 16 9 15 10 14 11 6 12
REMARK SMILES IDX 7 13 8 14 9 15 13 16 11 17 10 18 12 20 4 22 21 24 18 26
REMARK H PARENT 10 19 12 21 4 23 21 25 18 27
REMARK Flexibility Score: inf
ROOT
ATOM      1  C   UNL     1      52.350  59.682   3.865  1.00  0.00     0.180 A 
ATOM      2  C   UNL     1      51.217  60.302   3.311  1.00  0.00     0.208 A 
ATOM      3  C   UNL     1      51.123  60.427   1.916  1.00  0.00     0.238 A 
ATOM      4  O   UNL     1      50.081  60.934   1.423  1.00  0.00    -0.285 OA
ATOM      5  C   UNL     1      52.169  59.943   1.093  1.00  0.00     0.111 A 
ATOM      6  C   UNL     1      52.197  60.052  -0.330  1.00  0.00     0.134 A 
ATOM      7  C   UNL     1      53.221  59.423  -1.050  1.00  0.00     0.093 A 
ATOM      8  C   UNL     1      54.249  58.746  -0.397  1.00  0.00     0.123 A 
ATOM      9  C   UNL     1      54.265  58.684   0.996  1.00  0.00     0.094 A 
ATOM     10  C   UNL     1      53.237  59.271   1.741  1.00  0.00     0.146 A 
ATOM     11  O   UNL     1      53.283  59.180   3.065  1.00  0.00    -0.452 OA
ENDROOT
BRANCH   1  12
ATOM     12  C   UNL     1      52.532  59.537   5.328  1.00  0.00     0.025 A 
ATOM     13  C   UNL     1      51.928  58.462   5.996  1.00  0.00     0.016 A 
ATOM     14  C   UNL     1      52.103  58.295   7.371  1.00  0.00     0.051 A 
ATOM     15  C   UNL     1      52.894  59.186   8.102  1.00  0.00     0.157 A 
ATOM     16  C   UNL     1      53.345  60.422   6.056  1.00  0.00     0.062 A 
ATOM     17  C   UNL     1      53.530  60.261   7.435  1.00  0.00     0.158 A 
BRANCH  15  18
ATOM     18  O   UNL     1      53.024  58.969   9.476  1.00  0.00    -0.504 OA
ATOM     19  H   UNL     1      53.053  59.707  10.164  1.00  0.00     0.293 HD
ENDBRANCH  15  18
BRANCH  17  20
ATOM     20  O   UNL     1      54.351  61.178   8.094  1.00  0.00    -0.504 OA
ATOM     21  H   UNL     1      54.375  61.295   9.097  1.00  0.00     0.293 HD
ENDBRANCH  17  20
ENDBRANCH   1  12
BRANCH   2  22
ATOM     22  O   UNL     1      50.185  60.753   4.139  1.00  0.00    -0.502 OA
ATOM     23  H   UNL     1      49.983  60.328   5.036  1.00  0.00     0.293 HD
ENDBRANCH   2  22
BRANCH   6  24
ATOM     24  O   UNL     1      51.268  60.783  -1.076  1.00  0.00    -0.507 OA
ATOM     25  H   UNL     1      50.315  60.497  -1.245  1.00  0.00     0.293 HD
ENDBRANCH   6  24
BRANCH   8  26
ATOM     26  O   UNL     1      55.260  58.145  -1.146  1.00  0.00    -0.508 OA
ATOM     27  H   UNL     1      56.118  58.637  -1.368  1.00  0.00     0.293 HD
ENDBRANCH   8  26
TORSDOF 6
ENDMDL
MODEL 6
REMARK VINA RESULT:    -7.464      4.539      6.806
REMARK INTER + INTRA:          -9.282
REMARK INTER:                  -8.952
REMARK INTRA:                  -0.330
REMARK UNBOUND:                -0.290
REMARK SMILES O=c1c(O)c(-c2ccc(O)c(O)c2)oc2cc(O)cc(O)c12
REMARK SMILES IDX 5 1 3 2 2 3 1 4 22 5 20 6 19 7 17 8 16 9 15 10 14 11 6 12
REMARK SMILES IDX 7 13 8 14 9 15 13 16 11 17 10 18 12 20 4 22 21 24 18 26
REMARK H PARENT 10 19 12 21 4 23 21 25 18 27
REMARK Flexibility Score: inf
ROOT
ATOM      1  C   UNL     1      52.537  59.939   3.134  1.00  0.00     0.180 A 
ATOM      2  C   UNL     1      51.530  60.743   3.695  1.00  0.00     0.208 A 
ATOM      3  C   UNL     1      51.396  60.791   5.092  1.00  0.00     0.238 A 
ATOM      4  O   UNL     1      50.528  61.554   5.590  1.00  0.00    -0.285 OA
ATOM      5  C   UNL     1      52.262  60.025   5.909  1.00  0.00     0.111 A 
ATOM      6  C   UNL     1      52.191  59.967   7.334  1.00  0.00     0.134 A 
ATOM      7  C   UNL     1      53.181  59.278   8.046  1.00  0.00     0.093 A 
ATOM      8  C   UNL     1      54.199  58.592   7.385  1.00  0.00     0.123 A 
ATOM      9  C   UNL     1      54.243  58.591   5.991  1.00  0.00     0.094 A 
ATOM     10  C   UNL     1      53.291  59.300   5.253  1.00  0.00     0.146 A 
ATOM     11  O   UNL     1      53.375  59.284   3.928  1.00  0.00    -0.452 OA
ENDROOT
BRANCH   1  12
ATOM     12  C   UNL     1      52.723  59.818   1.669  1.00  0.00     0.025 A 
ATOM     13  C   UNL     1      53.609  60.682   1.012  1.00  0.00     0.016 A 
ATOM     14  C   UNL     1      53.814  60.571  -0.365  1.00  0.00     0.051 A 
ATOM     15  C   UNL     1      53.153  59.588  -1.108  1.00  0.00     0.157 A 
ATOM     16  C   UNL     1      52.073  58.815   0.930  1.00  0.00     0.062 A 
ATOM     17  C   UNL     1      52.275  58.693  -0.451  1.00  0.00     0.158 A 
BRANCH  15  18
ATOM     18  O   UNL     1      53.395  59.535  -2.482  1.00  0.00    -0.504 OA
ATOM     19  H   UNL     1      54.172  59.991  -2.938  1.00  0.00     0.293 HD
ENDBRANCH  15  18
BRANCH  17  20
ATOM     20  O   UNL     1      51.594  57.675  -1.122  1.00  0.00    -0.504 OA
ATOM     21  H   UNL     1      51.413  56.763  -0.727  1.00  0.00     0.293 HD
ENDBRANCH  17  20
ENDBRANCH   1  12
BRANCH   2  22
ATOM     22  O   UNL     1      50.700  61.509   2.871  1.00  0.00    -0.502 OA
ATOM     23  H   UNL     1      49.701  61.360   2.816  1.00  0.00     0.293 HD
ENDBRANCH   2  22
BRANCH   6  24
ATOM     24  O   UNL     1      51.165  60.541   8.089  1.00  0.00    -0.507 OA
ATOM     25  H   UNL     1      51.137  61.507   8.381  1.00  0.00     0.293 HD
ENDBRANCH   6  24
BRANCH   8  26
ATOM     26  O   UNL     1      55.157  57.903   8.127  1.00  0.00    -0.508 OA
ATOM     27  H   UNL     1      56.113  58.234   8.194  1.00  0.00     0.293 HD
ENDBRANCH   8  26
TORSDOF 6
ENDMDL
MODEL 7
REMARK VINA RESULT:    -7.447      2.354      7.255
REMARK INTER + INTRA:          -9.261
REMARK INTER:                  -8.932
REMARK INTRA:                  -0.329
REMARK UNBOUND:                -0.290
REMARK SMILES O=c1c(O)c(-c2ccc(O)c(O)c2)oc2cc(O)cc(O)c12
REMARK SMILES IDX 5 1 3 2 2 3 1 4 22 5 20 6 19 7 17 8 16 9 15 10 14 11 6 12
REMARK SMILES IDX 7 13 8 14 9 15 13 16 11 17 10 18 12 20 4 22 21 24 18 26
REMARK H PARENT 10 19 12 21 4 23 21 25 18 27
REMARK Flexibility Score: inf
ROOT
ATOM      1  C   UNL     1      49.849  61.605   1.397  1.00  0.00     0.180 A 
ATOM      2  C   UNL     1      50.875  61.218   2.275  1.00  0.00     0.208 A 
ATOM      3  C   UNL     1      51.825  60.279   1.841  1.00  0.00     0.238 A 
ATOM      4  O   UNL     1      52.773  59.978   2.613  1.00  0.00    -0.285 OA
ATOM      5  C   UNL     1      51.729  59.729   0.540  1.00  0.00     0.111 A 
ATOM      6  C   UNL     1      52.612  58.741   0.011  1.00  0.00     0.134 A 
ATOM      7  C   UNL     1      52.500  58.364  -1.334  1.00  0.00     0.093 A 
ATOM      8  C   UNL     1      51.497  58.889  -2.148  1.00  0.00     0.123 A 
ATOM      9  C   UNL     1      50.590  59.811  -1.624  1.00  0.00     0.094 A 
ATOM     10  C   UNL     1      50.699  60.233  -0.296  1.00  0.00     0.146 A 
ATOM     11  O   UNL     1      49.823  61.120   0.161  1.00  0.00    -0.452 OA
ENDROOT
BRANCH   1  12
ATOM     12  C   UNL     1      48.797  62.569   1.792  1.00  0.00     0.025 A 
ATOM     13  C   UNL     1      48.985  63.937   1.544  1.00  0.00     0.016 A 
ATOM     14  C   UNL     1      47.998  64.861   1.890  1.00  0.00     0.051 A 
ATOM     15  C   UNL     1      46.799  64.439   2.473  1.00  0.00     0.157 A 
ATOM     16  C   UNL     1      47.584  62.140   2.358  1.00  0.00     0.062 A 
ATOM     17  C   UNL     1      46.586  63.059   2.704  1.00  0.00     0.158 A 
BRANCH  15  18
ATOM     18  O   UNL     1      45.854  65.414   2.803  1.00  0.00    -0.504 OA
ATOM     19  H   UNL     1      45.773  66.303   2.333  1.00  0.00     0.293 HD
ENDBRANCH  15  18
BRANCH  17  20
ATOM     20  O   UNL     1      45.408  62.561   3.265  1.00  0.00    -0.504 OA
ATOM     21  H   UNL     1      44.575  63.114   3.411  1.00  0.00     0.293 HD
ENDBRANCH  17  20
ENDBRANCH   1  12
BRANCH   2  22
ATOM     22  O   UNL     1      50.966  61.790   3.547  1.00  0.00    -0.502 OA
ATOM     23  H   UNL     1      50.205  61.756   4.214  1.00  0.00     0.293 HD
ENDBRANCH   2  22
BRANCH   6  24
ATOM     24  O   UNL     1      53.591  58.085   0.762  1.00  0.00    -0.507 OA
ATOM     25  H   UNL     1      53.795  57.099   0.704  1.00  0.00     0.293 HD
ENDBRANCH   6  24
BRANCH   8  26
ATOM     26  O   UNL     1      51.406  58.479  -3.477  1.00  0.00    -0.508 OA
ATOM     27  H   UNL     1      51.421  57.498  -3.730  1.00  0.00     0.293 HD
ENDBRANCH   8  26
TORSDOF 6
ENDMDL
MODEL 8
REMARK VINA RESULT:    -7.427      3.473      6.251
REMARK INTER + INTRA:          -9.237
REMARK INTER:                  -8.919
REMARK INTRA:                  -0.318
REMARK UNBOUND:                -0.290
REMARK SMILES O=c1c(O)c(-c2ccc(O)c(O)c2)oc2cc(O)cc(O)c12
REMARK SMILES IDX 5 1 3 2 2 3 1 4 22 5 20 6 19 7 17 8 16 9 15 10 14 11 6 12
REMARK SMILES IDX 7 13 8 14 9 15 13 16 11 17 10 18 12 20 4 22 21 24 18 26
REMARK H PARENT 10 19 12 21 4 23 21 25 18 27
REMARK Flexibility Score: inf
ROOT
ATOM      1  C   UNL     1      52.325  59.808   4.297  1.00  0.00     0.180 A 
ATOM      2  C   UNL     1      53.209  59.228   3.372  1.00  0.00     0.208 A 
ATOM      3  C   UNL     1      52.964  59.392   2.000  1.00  0.00     0.238 A 
ATOM      4  O   UNL     1      53.789  58.916   1.177  1.00  0.00    -0.285 OA
ATOM      5  C   UNL     1      51.829  60.122   1.569  1.00  0.00     0.111 A 
ATOM      6  C   UNL     1      51.461  60.317   0.204  1.00  0.00     0.134 A 
ATOM      7  C   UNL     1      50.391  61.165  -0.108  1.00  0.00     0.093 A 
ATOM      8  C   UNL     1      49.636  61.772   0.896  1.00  0.00     0.123 A 
ATOM      9  C   UNL     1      49.950  61.540   2.235  1.00  0.00     0.094 A 
ATOM     10  C   UNL     1      51.035  60.728   2.577  1.00  0.00     0.146 A 
ATOM     11  O   UNL     1      51.306  60.542   3.863  1.00  0.00    -0.452 OA
ENDROOT
BRANCH   1  12
ATOM     12  C   UNL     1      52.504  59.657   5.760  1.00  0.00     0.025 A 
ATOM     13  C   UNL     1      51.877  58.594   6.426  1.00  0.00     0.016 A 
ATOM     14  C   UNL     1      52.049  58.421   7.801  1.00  0.00     0.051 A 
ATOM     15  C   UNL     1      52.859  59.294   8.533  1.00  0.00     0.157 A 
ATOM     16  C   UNL     1      53.336  60.523   6.489  1.00  0.00     0.062 A 
ATOM     17  C   UNL     1      53.518  60.356   7.868  1.00  0.00     0.158 A 
BRANCH  15  18
ATOM     18  O   UNL     1      52.984  59.072   9.907  1.00  0.00    -0.504 OA
ATOM     19  H   UNL     1      53.855  59.139  10.413  1.00  0.00     0.293 HD
ENDBRANCH  15  18
BRANCH  17  20
ATOM     20  O   UNL     1      54.357  61.255   8.528  1.00  0.00    -0.504 OA
ATOM     21  H   UNL     1      55.202  61.638   8.126  1.00  0.00     0.293 HD
ENDBRANCH  17  20
ENDBRANCH   1  12
BRANCH   2  22
ATOM     22  O   UNL     1      54.336  58.531   3.818  1.00  0.00    -0.502 OA
ATOM     23  H   UNL     1      55.086  58.255   3.197  1.00  0.00     0.293 HD
ENDBRANCH   2  22
BRANCH   6  24
ATOM     24  O   UNL     1      52.090  59.686  -0.872  1.00  0.00    -0.507 OA
ATOM     25  H   UNL     1      53.082  59.717  -1.056  1.00  0.00     0.293 HD
ENDBRANCH   6  24
BRANCH   8  26
ATOM     26  O   UNL     1      48.568  62.597   0.549  1.00  0.00    -0.508 OA
ATOM     27  H   UNL     1      48.147  63.229   1.220  1.00  0.00     0.293 HD
ENDBRANCH   8  26
TORSDOF 6
ENDMDL
MODEL 9
REMARK VINA RESULT:    -7.424      1.576      7.048
REMARK INTER + INTRA:          -9.233
REMARK INTER:                  -8.934
REMARK INTRA:                  -0.299
REMARK UNBOUND:                -0.290
REMARK SMILES O=c1c(O)c(-c2ccc(O)c(O)c2)oc2cc(O)cc(O)c12
REMARK SMILES IDX 5 1 3 2 2 3 1 4 22 5 20 6 19 7 17 8 16 9 15 10 14 11 6 12
REMARK SMILES IDX 7 13 8 14 9 15 13 16 11 17 10 18 12 20 4 22 21 24 18 26
REMARK H PARENT 10 19 12 21 4 23 21 25 18 27
REMARK Flexibility Score: inf
ROOT
ATOM      1  C   UNL     1      49.104  61.159   2.788  1.00  0.00     0.180 A 
ATOM      2  C   UNL     1      50.158  61.306   3.706  1.00  0.00     0.208 A 
ATOM      3  C   UNL     1      51.375  60.653   3.456  1.00  0.00     0.238 A 
ATOM      4  O   UNL     1      52.332  60.833   4.254  1.00  0.00    -0.285 OA
ATOM      5  C   UNL     1      51.520  59.850   2.299  1.00  0.00     0.111 A 
ATOM      6  C   UNL     1      52.695  59.111   1.967  1.00  0.00     0.134 A 
ATOM      7  C   UNL     1      52.771  58.454   0.732  1.00  0.00     0.093 A 
ATOM      8  C   UNL     1      51.694  58.456  -0.153  1.00  0.00     0.123 A 
ATOM      9  C   UNL     1      50.517  59.125   0.188  1.00  0.00     0.094 A 
ATOM     10  C   UNL     1      50.424  59.819   1.397  1.00  0.00     0.146 A 
ATOM     11  O   UNL     1      49.292  60.452   1.679  1.00  0.00    -0.452 OA
ENDROOT
BRANCH   1  12
ATOM     12  C   UNL     1      47.783  61.795   2.996  1.00  0.00     0.025 A 
ATOM     13  C   UNL     1      46.860  61.201   3.868  1.00  0.00     0.016 A 
ATOM     14  C   UNL     1      45.617  61.795   4.094  1.00  0.00     0.051 A 
ATOM     15  C   UNL     1      45.277  62.998   3.467  1.00  0.00     0.157 A 
ATOM     16  C   UNL     1      47.453  63.015   2.382  1.00  0.00     0.062 A 
ATOM     17  C   UNL     1      46.210  63.621   2.605  1.00  0.00     0.158 A 
BRANCH  15  18
ATOM     18  O   UNL     1      44.015  63.537   3.729  1.00  0.00    -0.504 OA
ATOM     19  H   UNL     1      43.638  64.348   3.259  1.00  0.00     0.293 HD
ENDBRANCH  15  18
BRANCH  17  20
ATOM     20  O   UNL     1      45.951  64.832   1.960  1.00  0.00    -0.504 OA
ATOM     21  H   UNL     1      46.306  65.725   2.272  1.00  0.00     0.293 HD
ENDBRANCH  17  20
ENDBRANCH   1  12
BRANCH   2  22
ATOM     22  O   UNL     1      50.002  62.121   4.830  1.00  0.00    -0.502 OA
ATOM     23  H   UNL     1      49.449  61.843   5.632  1.00  0.00     0.293 HD
ENDBRANCH   2  22
BRANCH   6  24
ATOM     24  O   UNL     1      53.794  58.969   2.818  1.00  0.00    -0.507 OA
ATOM     25  H   UNL     1      54.264  58.096   3.008  1.00  0.00     0.293 HD
ENDBRANCH   6  24
BRANCH   8  26
ATOM     26  O   UNL     1      51.800  57.778  -1.366  1.00  0.00    -0.508 OA
ATOM     27  H   UNL     1      51.413  58.160  -2.221  1.00  0.00     0.293 HD
ENDBRANCH   8  26
TORSDOF 6
ENDMDL
