MODEL 1
REMARK VINA RESULT:    -3.086      0.000      0.000
REMARK INTER + INTRA:          -5.921
REMARK INTER:                  -5.252
REMARK INTRA:                  -0.670
REMARK UNBOUND:                -0.670
REMARK SMILES CCCCCCCCCCCCCC(=O)[O-]
REMARK SMILES IDX 8 1 9 2 10 3 11 4 12 5 13 6 14 7 15 8 16 9 7 10 6 11 5 12
REMARK SMILES IDX 4 13 3 14 2 15 1 16
REMARK H PARENT
REMARK Flexibility Score: inf
ROOT
ATOM      1  C   UNL     1       2.283  77.495   6.172  1.00  0.00     0.000 C 
ENDROOT
BRANCH   1   2
ATOM      2  C   UNL     1       2.960  77.324   4.801  1.00  0.00     0.000 C 
BRANCH   2   3
ATOM      3  C   UNL     1       4.494  77.292   4.902  1.00  0.00     0.000 C 
BRANCH   3   4
ATOM      4  C   UNL     1       5.170  76.978   3.556  1.00  0.00     0.000 C 
BRANCH   4   5
ATOM      5  C   UNL     1       6.056  78.132   3.059  1.00  0.00     0.006 C 
BRANCH   5   6
ATOM      6  C   UNL     1       7.532  77.730   2.932  1.00  0.00     0.053 C 
BRANCH   6   7
ATOM      7  C   UNL     1       8.325  78.290   4.069  1.00  0.00     0.041 C 
ATOM      8  O   UNL     1       9.445  78.827   3.857  1.00  0.00    -0.550 OA
ATOM      9  O   UNL     1       7.808  78.266   5.358  1.00  0.00    -0.550 OA
ENDBRANCH   6   7
ENDBRANCH   5   6
ENDBRANCH   4   5
ENDBRANCH   3   4
ENDBRANCH   2   3
ENDBRANCH   1   2
BRANCH   1  10
ATOM     10  C   UNL     1       2.292  78.953   6.659  1.00  0.00     0.000 C 
BRANCH  10  11
ATOM     11  C   UNL     1       2.898  79.107   8.062  1.00  0.00    -0.000 C 
BRANCH  11  12
ATOM     12  C   UNL     1       3.946  78.016   8.329  1.00  0.00    -0.000 C 
BRANCH  12  13
ATOM     13  C   UNL     1       3.980  77.563   9.801  1.00  0.00    -0.000 C 
BRANCH  13  14
ATOM     14  C   UNL     1       4.376  78.657  10.809  1.00  0.00    -0.000 C 
BRANCH  14  15
ATOM     15  C   UNL     1       4.932  78.087  12.122  1.00  0.00    -0.003 C 
ATOM     16  C   UNL     1       6.356  77.572  11.937  1.00  0.00     0.004 C 
ENDBRANCH  14  15
ENDBRANCH  13  14
ENDBRANCH  12  13
ENDBRANCH  11  12
ENDBRANCH  10  11
ENDBRANCH   1  10
TORSDOF 12
ENDMDL
MODEL 2
REMARK VINA RESULT:    -2.666      2.891      6.610
REMARK INTER + INTRA:          -5.206
REMARK INTER:                  -4.509
REMARK INTRA:                  -0.696
REMARK UNBOUND:                -0.670
REMARK SMILES CCCCCCCCCCCCCC(=O)[O-]
REMARK SMILES IDX 8 1 9 2 10 3 11 4 12 5 13 6 14 7 15 8 16 9 7 10 6 11 5 12
REMARK SMILES IDX 4 13 3 14 2 15 1 16
REMARK H PARENT
REMARK Flexibility Score: inf
ROOT
ATOM      1  C   UNL     1       3.024  77.244   5.162  1.00  0.00     0.000 C 
ENDROOT
BRANCH   1   2
ATOM      2  C   UNL     1       2.700  77.510   6.642  1.00  0.00     0.000 C 
BRANCH   2   3
ATOM      3  C   UNL     1       3.931  77.967   7.441  1.00  0.00     0.000 C 
BRANCH   3   4
ATOM      4  C   UNL     1       3.810  77.659   8.944  1.00  0.00     0.000 C 
BRANCH   4   5
ATOM      5  C   UNL     1       3.735  78.932   9.803  1.00  0.00     0.006 C 
BRANCH   5   6
ATOM      6  C   UNL     1       3.588  78.626  11.299  1.00  0.00     0.053 C 
BRANCH   6   7
ATOM      7  C   UNL     1       4.806  77.925  11.811  1.00  0.00     0.041 C 
ATOM      8  O   UNL     1       4.751  76.706  12.125  1.00  0.00    -0.550 OA
ATOM      9  O   UNL     1       6.015  78.603  11.895  1.00  0.00    -0.550 OA
ENDBRANCH   6   7
ENDBRANCH   5   6
ENDBRANCH   4   5
ENDBRANCH   3   4
ENDBRANCH   2   3
ENDBRANCH   1   2
BRANCH   1  10
ATOM     10  C   UNL     1       4.480  77.588   4.805  1.00  0.00     0.000 C 
BRANCH  10  11
ATOM     11  C   UNL     1       4.934  76.949   3.483  1.00  0.00    -0.000 C 
BRANCH  11  12
ATOM     12  C   UNL     1       5.966  77.838   2.772  1.00  0.00    -0.000 C 
BRANCH  12  13
ATOM     13  C   UNL     1       7.407  77.312   2.905  1.00  0.00    -0.000 C 
BRANCH  13  14
ATOM     14  C   UNL     1       8.407  78.302   3.529  1.00  0.00    -0.000 C 
BRANCH  14  15
ATOM     15  C   UNL     1       8.012  78.737   4.948  1.00  0.00    -0.003 C 
ATOM     16  C   UNL     1       7.715  77.528   5.831  1.00  0.00     0.004 C 
ENDBRANCH  14  15
ENDBRANCH  13  14
ENDBRANCH  12  13
ENDBRANCH  11  12
ENDBRANCH  10  11
ENDBRANCH   1  10
TORSDOF 12
ENDMDL
MODEL 3
REMARK VINA RESULT:    -2.560     21.965     23.854
REMARK INTER + INTRA:          -5.025
REMARK INTER:                  -4.399
REMARK INTRA:                  -0.626
REMARK UNBOUND:                -0.670
REMARK SMILES CCCCCCCCCCCCCC(=O)[O-]
REMARK SMILES IDX 8 1 9 2 10 3 11 4 12 5 13 6 14 7 15 8 16 9 7 10 6 11 5 12
REMARK SMILES IDX 4 13 3 14 2 15 1 16
REMARK H PARENT
REMARK Flexibility Score: inf
ROOT
ATOM      1  C   UNL     1       1.010  60.531  -4.446  1.00  0.00     0.000 C 
ENDROOT
BRANCH   1   2
ATOM      2  C   UNL     1      -0.350  59.831  -4.612  1.00  0.00     0.000 C 
BRANCH   2   3
ATOM      3  C   UNL     1      -1.345  60.207  -3.502  1.00  0.00     0.000 C 
BRANCH   3   4
ATOM      4  C   UNL     1      -2.798  60.276  -4.005  1.00  0.00     0.000 C 
BRANCH   4   5
ATOM      5  C   UNL     1      -3.281  58.941  -4.594  1.00  0.00     0.006 C 
BRANCH   5   6
ATOM      6  C   UNL     1      -4.371  59.126  -5.658  1.00  0.00     0.053 C 
BRANCH   6   7
ATOM      7  C   UNL     1      -3.760  59.500  -6.971  1.00  0.00     0.041 C 
ATOM      8  O   UNL     1      -2.561  59.204  -7.220  1.00  0.00    -0.550 OA
ATOM      9  O   UNL     1      -4.528  60.132  -7.941  1.00  0.00    -0.550 OA
ENDBRANCH   6   7
ENDBRANCH   5   6
ENDBRANCH   4   5
ENDBRANCH   3   4
ENDBRANCH   2   3
ENDBRANCH   1   2
BRANCH   1  10
ATOM     10  C   UNL     1       2.065  60.013  -5.437  1.00  0.00     0.000 C 
BRANCH  10  11
ATOM     11  C   UNL     1       1.468  59.097  -6.516  1.00  0.00    -0.000 C 
BRANCH  11  12
ATOM     12  C   UNL     1       1.887  59.560  -7.920  1.00  0.00    -0.000 C 
BRANCH  12  13
ATOM     13  C   UNL     1       2.856  60.756  -7.894  1.00  0.00    -0.000 C 
BRANCH  13  14
ATOM     14  C   UNL     1       4.336  60.400  -8.124  1.00  0.00    -0.000 C 
BRANCH  14  15
ATOM     15  C   UNL     1       4.702  59.002  -7.605  1.00  0.00    -0.003 C 
ATOM     16  C   UNL     1       6.206  58.875  -7.382  1.00  0.00     0.004 C 
ENDBRANCH  14  15
ENDBRANCH  13  14
ENDBRANCH  12  13
ENDBRANCH  11  12
ENDBRANCH  10  11
ENDBRANCH   1  10
TORSDOF 12
ENDMDL
MODEL 4
REMARK VINA RESULT:    -2.190     21.527     23.356
REMARK INTER + INTRA:          -4.396
REMARK INTER:                  -3.448
REMARK INTRA:                  -0.948
REMARK UNBOUND:                -0.670
REMARK SMILES CCCCCCCCCCCCCC(=O)[O-]
REMARK SMILES IDX 8 1 9 2 10 3 11 4 12 5 13 6 14 7 15 8 16 9 7 10 6 11 5 12
REMARK SMILES IDX 4 13 3 14 2 15 1 16
REMARK H PARENT
REMARK Flexibility Score: inf
ROOT
ATOM      1  C   UNL     1      -0.682  60.652  -4.222  1.00  0.00     0.000 C 
ENDROOT
BRANCH   1   2
ATOM      2  C   UNL     1       0.824  60.369  -4.084  1.00  0.00     0.000 C 
BRANCH   2   3
ATOM      3  C   UNL     1       1.325  59.337  -5.107  1.00  0.00     0.000 C 
BRANCH   3   4
ATOM      4  C   UNL     1       0.613  59.456  -6.466  1.00  0.00     0.000 C 
BRANCH   4   5
ATOM      5  C   UNL     1       1.454  58.892  -7.623  1.00  0.00     0.006 C 
BRANCH   5   6
ATOM      6  C   UNL     1       2.958  58.906  -7.321  1.00  0.00     0.053 C 
BRANCH   6   7
ATOM      7  C   UNL     1       3.574  60.181  -7.801  1.00  0.00     0.041 C 
ATOM      8  O   UNL     1       4.821  60.261  -7.963  1.00  0.00    -0.550 OA
ATOM      9  O   UNL     1       2.769  61.269  -8.116  1.00  0.00    -0.550 OA
ENDBRANCH   6   7
ENDBRANCH   5   6
ENDBRANCH   4   5
ENDBRANCH   3   4
ENDBRANCH   2   3
ENDBRANCH   1   2
BRANCH   1  10
ATOM     10  C   UNL     1      -1.507  60.020  -3.089  1.00  0.00     0.000 C 
BRANCH  10  11
ATOM     11  C   UNL     1      -2.408  58.875  -3.579  1.00  0.00    -0.000 C 
BRANCH  11  12
ATOM     12  C   UNL     1      -3.820  59.389  -3.902  1.00  0.00    -0.000 C 
BRANCH  12  13
ATOM     13  C   UNL     1      -4.315  58.949  -5.292  1.00  0.00    -0.000 C 
BRANCH  13  14
ATOM     14  C   UNL     1      -3.228  58.881  -6.379  1.00  0.00    -0.000 C 
BRANCH  14  15
ATOM     15  C   UNL     1      -3.784  59.087  -7.795  1.00  0.00    -0.003 C 
ATOM     16  C   UNL     1      -4.048  60.564  -8.072  1.00  0.00     0.004 C 
ENDBRANCH  14  15
ENDBRANCH  13  14
ENDBRANCH  12  13
ENDBRANCH  11  12
ENDBRANCH  10  11
ENDBRANCH   1  10
TORSDOF 12
ENDMDL
MODEL 5
REMARK VINA RESULT:    -2.081      2.911      6.761
REMARK INTER + INTRA:          -4.211
REMARK INTER:                  -3.897
REMARK INTRA:                  -0.314
REMARK UNBOUND:                -0.670
REMARK SMILES CCCCCCCCCCCCCC(=O)[O-]
REMARK SMILES IDX 8 1 9 2 10 3 11 4 12 5 13 6 14 7 15 8 16 9 7 10 6 11 5 12
REMARK SMILES IDX 4 13 3 14 2 15 1 16
REMARK H PARENT
REMARK Flexibility Score: inf
ROOT
ATOM      1  C   UNL     1       3.725  77.000   6.622  1.00  0.00     0.000 C 
ENDROOT
BRANCH   1   2
ATOM      2  C   UNL     1       2.500  77.932   6.633  1.00  0.00     0.000 C 
BRANCH   2   3
ATOM      3  C   UNL     1       2.676  79.124   7.587  1.00  0.00     0.000 C 
BRANCH   3   4
ATOM      4  C   UNL     1       3.764  78.879   8.648  1.00  0.00     0.000 C 
BRANCH   4   5
ATOM      5  C   UNL     1       3.186  78.755  10.067  1.00  0.00     0.006 C 
BRANCH   5   6
ATOM      6  C   UNL     1       4.240  78.995  11.156  1.00  0.00     0.053 C 
BRANCH   6   7
ATOM      7  C   UNL     1       4.750  77.691  11.684  1.00  0.00     0.041 C 
ATOM      8  O   UNL     1       3.942  76.803  12.067  1.00  0.00    -0.550 OA
ATOM      9  O   UNL     1       6.115  77.436  11.709  1.00  0.00    -0.550 OA
ENDBRANCH   6   7
ENDBRANCH   5   6
ENDBRANCH   4   5
ENDBRANCH   3   4
ENDBRANCH   2   3
ENDBRANCH   1   2
BRANCH   1  10
ATOM     10  C   UNL     1       4.962  77.658   5.989  1.00  0.00     0.000 C 
BRANCH  10  11
ATOM     11  C   UNL     1       6.236  77.452   6.822  1.00  0.00    -0.000 C 
BRANCH  11  12
ATOM     12  C   UNL     1       7.471  77.339   5.915  1.00  0.00    -0.000 C 
BRANCH  12  13
ATOM     13  C   UNL     1       7.819  78.661   5.206  1.00  0.00    -0.000 C 
BRANCH  13  14
ATOM     14  C   UNL     1       8.523  78.504   3.846  1.00  0.00    -0.000 C 
BRANCH  14  15
ATOM     15  C   UNL     1       7.762  77.584   2.881  1.00  0.00    -0.003 C 
ATOM     16  C   UNL     1       6.312  78.031   2.724  1.00  0.00     0.004 C 
ENDBRANCH  14  15
ENDBRANCH  13  14
ENDBRANCH  12  13
ENDBRANCH  11  12
ENDBRANCH  10  11
ENDBRANCH   1  10
TORSDOF 12
ENDMDL
MODEL 6
REMARK VINA RESULT:    -1.464     22.815     24.154
REMARK INTER + INTRA:          -3.160
REMARK INTER:                  -2.914
REMARK INTRA:                  -0.246
REMARK UNBOUND:                -0.670
REMARK SMILES CCCCCCCCCCCCCC(=O)[O-]
REMARK SMILES IDX 8 1 9 2 10 3 11 4 12 5 13 6 14 7 15 8 16 9 7 10 6 11 5 12
REMARK SMILES IDX 4 13 3 14 2 15 1 16
REMARK H PARENT
REMARK Flexibility Score: inf
ROOT
ATOM      1  C   UNL     1       2.135  59.644  -5.827  1.00  0.00     0.000 C 
ENDROOT
BRANCH   1   2
ATOM      2  C   UNL     1       0.739  59.153  -5.406  1.00  0.00     0.000 C 
BRANCH   2   3
ATOM      3  C   UNL     1      -0.201  58.952  -6.606  1.00  0.00     0.000 C 
BRANCH   3   4
ATOM      4  C   UNL     1      -1.687  58.974  -6.206  1.00  0.00     0.000 C 
BRANCH   4   5
ATOM      5  C   UNL     1      -1.933  59.736  -4.894  1.00  0.00     0.006 C 
BRANCH   5   6
ATOM      6  C   UNL     1      -3.135  60.686  -4.979  1.00  0.00     0.053 C 
BRANCH   6   7
ATOM      7  C   UNL     1      -4.188  60.115  -5.874  1.00  0.00     0.041 C 
ATOM      8  O   UNL     1      -4.552  58.916  -5.741  1.00  0.00    -0.550 OA
ATOM      9  O   UNL     1      -4.806  60.919  -6.824  1.00  0.00    -0.550 OA
ENDBRANCH   6   7
ENDBRANCH   5   6
ENDBRANCH   4   5
ENDBRANCH   3   4
ENDBRANCH   2   3
ENDBRANCH   1   2
BRANCH   1  10
ATOM     10  C   UNL     1       2.571  59.084  -7.191  1.00  0.00     0.000 C 
BRANCH  10  11
ATOM     11  C   UNL     1       3.155  60.164  -8.117  1.00  0.00    -0.000 C 
BRANCH  11  12
ATOM     12  C   UNL     1       4.659  60.348  -7.861  1.00  0.00    -0.000 C 
BRANCH  12  13
ATOM     13  C   UNL     1       5.473  59.067  -8.116  1.00  0.00    -0.000 C 
BRANCH  13  14
ATOM     14  C   UNL     1       6.746  58.924  -7.262  1.00  0.00    -0.000 C 
BRANCH  14  15
ATOM     15  C   UNL     1       8.029  58.876  -8.105  1.00  0.00    -0.003 C 
ATOM     16  C   UNL     1       8.752  60.219  -8.083  1.00  0.00     0.004 C 
ENDBRANCH  14  15
ENDBRANCH  13  14
ENDBRANCH  12  13
ENDBRANCH  11  12
ENDBRANCH  10  11
ENDBRANCH   1  10
TORSDOF 12
ENDMDL
MODEL 7
REMARK VINA RESULT:    -0.879      1.338      2.024
REMARK INTER + INTRA:          -2.166
REMARK INTER:                  -1.995
REMARK INTRA:                  -0.171
REMARK UNBOUND:                -0.670
REMARK SMILES CCCCCCCCCCCCCC(=O)[O-]
REMARK SMILES IDX 8 1 9 2 10 3 11 4 12 5 13 6 14 7 15 8 16 9 7 10 6 11 5 12
REMARK SMILES IDX 4 13 3 14 2 15 1 16
REMARK H PARENT
REMARK Flexibility Score: inf
ROOT
ATOM      1  C   UNL     1       2.001  78.644   7.042  1.00  0.00     0.000 C 
ENDROOT
BRANCH   1   2
ATOM      2  C   UNL     1       2.077  77.359   6.198  1.00  0.00     0.000 C 
BRANCH   2   3
ATOM      3  C   UNL     1       2.993  77.513   4.973  1.00  0.00     0.000 C 
BRANCH   3   4
ATOM      4  C   UNL     1       4.414  76.980   5.224  1.00  0.00     0.000 C 
BRANCH   4   5
ATOM      5  C   UNL     1       5.421  77.463   4.168  1.00  0.00     0.006 C 
BRANCH   5   6
ATOM      6  C   UNL     1       6.763  77.883   4.780  1.00  0.00     0.053 C 
BRANCH   6   7
ATOM      7  C   UNL     1       7.796  78.048   3.711  1.00  0.00     0.041 C 
ATOM      8  O   UNL     1       7.480  77.916   2.499  1.00  0.00    -0.550 OA
ATOM      9  O   UNL     1       9.098  78.396   4.048  1.00  0.00    -0.550 OA
ENDBRANCH   6   7
ENDBRANCH   5   6
ENDBRANCH   4   5
ENDBRANCH   3   4
ENDBRANCH   2   3
ENDBRANCH   1   2
BRANCH   1  10
ATOM     10  C   UNL     1       3.374  79.082   7.576  1.00  0.00     0.000 C 
BRANCH  10  11
ATOM     11  C   UNL     1       3.438  79.095   9.111  1.00  0.00    -0.000 C 
BRANCH  11  12
ATOM     12  C   UNL     1       4.349  77.972   9.630  1.00  0.00    -0.000 C 
BRANCH  12  13
ATOM     13  C   UNL     1       5.103  78.356  10.917  1.00  0.00    -0.000 C 
BRANCH  13  14
ATOM     14  C   UNL     1       4.206  78.680  12.125  1.00  0.00    -0.000 C 
BRANCH  14  15
ATOM     15  C   UNL     1       2.817  78.032  12.029  1.00  0.00    -0.003 C 
ATOM     16  C   UNL     1       1.715  79.086  12.072  1.00  0.00     0.004 C 
ENDBRANCH  14  15
ENDBRANCH  13  14
ENDBRANCH  12  13
ENDBRANCH  11  12
ENDBRANCH  10  11
ENDBRANCH   1  10
TORSDOF 12
ENDMDL
MODEL 8
REMARK VINA RESULT:    -0.331     20.798     23.227
REMARK INTER + INTRA:          -1.234
REMARK INTER:                  -0.198
REMARK INTRA:                  -1.036
REMARK UNBOUND:                -0.670
REMARK SMILES CCCCCCCCCCCCCC(=O)[O-]
REMARK SMILES IDX 8 1 9 2 10 3 11 4 12 5 13 6 14 7 15 8 16 9 7 10 6 11 5 12
REMARK SMILES IDX 4 13 3 14 2 15 1 16
REMARK H PARENT
REMARK Flexibility Score: inf
ROOT
ATOM      1  C   UNL     1       0.794  61.086  -2.737  1.00  0.00     0.000 C 
ENDROOT
BRANCH   1   2
ATOM      2  C   UNL     1      -0.283  60.214  -2.070  1.00  0.00     0.000 C 
BRANCH   2   3
ATOM      3  C   UNL     1      -1.678  60.434  -2.678  1.00  0.00     0.000 C 
BRANCH   3   4
ATOM      4  C   UNL     1      -2.474  59.125  -2.825  1.00  0.00     0.000 C 
BRANCH   4   5
ATOM      5  C   UNL     1      -2.937  58.876  -4.269  1.00  0.00     0.006 C 
BRANCH   5   6
ATOM      6  C   UNL     1      -3.055  60.171  -5.083  1.00  0.00     0.053 C 
BRANCH   6   7
ATOM      7  C   UNL     1      -3.926  59.958  -6.280  1.00  0.00     0.041 C 
ATOM      8  O   UNL     1      -4.808  59.058  -6.270  1.00  0.00    -0.550 OA
ATOM      9  O   UNL     1      -3.801  60.785  -7.389  1.00  0.00    -0.550 OA
ENDBRANCH   6   7
ENDBRANCH   5   6
ENDBRANCH   4   5
ENDBRANCH   3   4
ENDBRANCH   2   3
ENDBRANCH   1   2
BRANCH   1  10
ATOM     10  C   UNL     1       1.468  60.385  -3.927  1.00  0.00     0.000 C 
BRANCH  10  11
ATOM     11  C   UNL     1       0.569  60.329  -5.172  1.00  0.00    -0.000 C 
BRANCH  11  12
ATOM     12  C   UNL     1       0.613  58.936  -5.818  1.00  0.00    -0.000 C 
BRANCH  12  13
ATOM     13  C   UNL     1       1.523  58.878  -7.059  1.00  0.00    -0.000 C 
BRANCH  13  14
ATOM     14  C   UNL     1       3.033  58.878  -6.760  1.00  0.00    -0.000 C 
BRANCH  14  15
ATOM     15  C   UNL     1       3.646  60.286  -6.778  1.00  0.00    -0.003 C 
ATOM     16  C   UNL     1       2.899  61.199  -7.745  1.00  0.00     0.004 C 
ENDBRANCH  14  15
ENDBRANCH  13  14
ENDBRANCH  12  13
ENDBRANCH  11  12
ENDBRANCH  10  11
ENDBRANCH   1  10
TORSDOF 12
ENDMDL
MODEL 9
REMARK VINA RESULT:    -0.143     21.386     23.561
REMARK INTER + INTRA:          -0.913
REMARK INTER:                  -0.281
REMARK INTRA:                  -0.632
REMARK UNBOUND:                -0.670
REMARK SMILES CCCCCCCCCCCCCC(=O)[O-]
REMARK SMILES IDX 8 1 9 2 10 3 11 4 12 5 13 6 14 7 15 8 16 9 7 10 6 11 5 12
REMARK SMILES IDX 4 13 3 14 2 15 1 16
REMARK H PARENT
REMARK Flexibility Score: inf
ROOT
ATOM      1  C   UNL     1       2.646  60.771  -6.946  1.00  0.00     0.000 C 
ENDROOT
BRANCH   1   2
ATOM      2  C   UNL     1       2.327  61.183  -5.498  1.00  0.00     0.000 C 
BRANCH   2   3
ATOM      3  C   UNL     1       2.246  59.978  -4.547  1.00  0.00     0.000 C 
BRANCH   3   4
ATOM      4  C   UNL     1       1.071  60.079  -3.559  1.00  0.00     0.000 C 
BRANCH   4   5
ATOM      5  C   UNL     1      -0.281  60.260  -4.268  1.00  0.00     0.006 C 
BRANCH   5   6
ATOM      6  C   UNL     1      -1.422  60.575  -3.292  1.00  0.00     0.053 C 
BRANCH   6   7
ATOM      7  C   UNL     1      -2.743  60.233  -3.905  1.00  0.00     0.041 C 
ATOM      8  O   UNL     1      -3.258  59.100  -3.708  1.00  0.00    -0.550 OA
ATOM      9  O   UNL     1      -3.430  61.180  -4.653  1.00  0.00    -0.550 OA
ENDBRANCH   6   7
ENDBRANCH   5   6
ENDBRANCH   4   5
ENDBRANCH   3   4
ENDBRANCH   2   3
ENDBRANCH   1   2
BRANCH   1  10
ATOM     10  C   UNL     1       2.425  59.271  -7.195  1.00  0.00     0.000 C 
BRANCH  10  11
ATOM     11  C   UNL     1       1.231  58.992  -8.122  1.00  0.00    -0.000 C 
BRANCH  11  12
ATOM     12  C   UNL     1      -0.072  58.875  -7.316  1.00  0.00    -0.000 C 
BRANCH  12  13
ATOM     13  C   UNL     1      -1.196  59.777  -7.857  1.00  0.00    -0.000 C 
BRANCH  13  14
ATOM     14  C   UNL     1      -2.587  59.521  -7.248  1.00  0.00    -0.000 C 
BRANCH  14  15
ATOM     15  C   UNL     1      -3.720  60.184  -8.044  1.00  0.00    -0.003 C 
ATOM     16  C   UNL     1      -4.864  60.603  -7.126  1.00  0.00     0.004 C 
ENDBRANCH  14  15
ENDBRANCH  13  14
ENDBRANCH  12  13
ENDBRANCH  11  12
ENDBRANCH  10  11
ENDBRANCH   1  10
TORSDOF 12
ENDMDL
