MODEL 1
REMARK VINA RESULT:    -5.851      0.000      0.000
REMARK INTER + INTRA:         -16.950
REMARK INTER:                 -14.745
REMARK INTRA:                  -2.205
REMARK UNBOUND:                -2.205
REMARK SMILES CCCCCCCCCCCCCCCCCCCCCCCCCCCC(=O)[O-]
REMARK SMILES IDX 15 1 16 2 17 3 18 4 19 5 20 6 21 7 22 8 23 9 24 10 25 11
REMARK SMILES IDX 26 12 27 13 28 14 29 15 30 16 14 17 13 18 12 19 11 20 10 21
REMARK SMILES IDX 9 22 8 23 7 24 6 25 5 26 4 27 3 28 2 29 1 30
REMARK H PARENT
REMARK Flexibility Score: inf
ROOT
ATOM      1  C   UNL     1      24.762  14.585   8.137  1.00  0.00     0.000 C 
ENDROOT
BRANCH   1   2
ATOM      2  C   UNL     1      26.248  14.564   7.744  1.00  0.00     0.000 C 
BRANCH   2   3
ATOM      3  C   UNL     1      27.088  15.594   8.516  1.00  0.00     0.000 C 
BRANCH   3   4
ATOM      4  C   UNL     1      27.734  16.610   7.563  1.00  0.00     0.000 C 
BRANCH   4   5
ATOM      5  C   UNL     1      27.711  18.047   8.117  1.00  0.00     0.000 C 
BRANCH   5   6
ATOM      6  C   UNL     1      26.329  18.723   8.099  1.00  0.00     0.000 C 
BRANCH   6   7
ATOM      7  C   UNL     1      25.589  18.534   6.765  1.00  0.00     0.000 C 
BRANCH   7   8
ATOM      8  C   UNL     1      24.063  18.485   6.945  1.00  0.00     0.000 C 
BRANCH   8   9
ATOM      9  C   UNL     1      23.317  19.254   5.841  1.00  0.00     0.000 C 
BRANCH   9  10
ATOM     10  C   UNL     1      24.117  20.459   5.322  1.00  0.00     0.000 C 
BRANCH  10  11
ATOM     11  C   UNL     1      23.242  21.715   5.155  1.00  0.00     0.000 C 
BRANCH  11  12
ATOM     12  C   UNL     1      23.609  22.823   6.155  1.00  0.00     0.006 C 
BRANCH  12  13
ATOM     13  C   UNL     1      25.046  23.330   5.964  1.00  0.00     0.053 C 
BRANCH  13  14
ATOM     14  C   UNL     1      25.099  24.818   6.107  1.00  0.00     0.041 C 
ATOM     15  O   UNL     1      24.050  25.469   6.353  1.00  0.00    -0.550 OA
ATOM     16  O   UNL     1      26.315  25.484   6.005  1.00  0.00    -0.550 OA
ENDBRANCH  13  14
ENDBRANCH  12  13
ENDBRANCH  11  12
ENDBRANCH  10  11
ENDBRANCH   9  10
ENDBRANCH   8   9
ENDBRANCH   7   8
ENDBRANCH   6   7
ENDBRANCH   5   6
ENDBRANCH   4   5
ENDBRANCH   3   4
ENDBRANCH   2   3
ENDBRANCH   1   2
BRANCH   1  17
ATOM     17  C   UNL     1      24.164  13.219   8.526  1.00  0.00     0.000 C 
BRANCH  17  18
ATOM     18  C   UNL     1      23.348  13.233   9.838  1.00  0.00     0.000 C 
BRANCH  18  19
ATOM     19  C   UNL     1      24.120  12.628  11.026  1.00  0.00     0.000 C 
BRANCH  19  20
ATOM     20  C   UNL     1      25.647  12.743  10.850  1.00  0.00     0.000 C 
BRANCH  20  21
ATOM     21  C   UNL     1      26.448  12.139  12.018  1.00  0.00     0.000 C 
BRANCH  21  22
ATOM     22  C   UNL     1      25.542  11.724  13.192  1.00  0.00    -0.000 C 
BRANCH  22  23
ATOM     23  C   UNL     1      25.952  10.383  13.816  1.00  0.00    -0.000 C 
BRANCH  23  24
ATOM     24  C   UNL     1      24.755   9.451  14.066  1.00  0.00    -0.000 C 
BRANCH  24  25
ATOM     25  C   UNL     1      23.487   9.994  13.392  1.00  0.00    -0.000 C 
BRANCH  25  26
ATOM     26  C   UNL     1      22.691   8.904  12.651  1.00  0.00    -0.000 C 
BRANCH  26  27
ATOM     27  C   UNL     1      21.397   9.394  11.968  1.00  0.00    -0.000 C 
BRANCH  27  28
ATOM     28  C   UNL     1      20.292   9.878  12.929  1.00  0.00    -0.000 C 
BRANCH  28  29
ATOM     29  C   UNL     1      19.257   8.807  13.315  1.00  0.00    -0.003 C 
ATOM     30  C   UNL     1      19.233   8.518  14.815  1.00  0.00     0.004 C 
ENDBRANCH  28  29
ENDBRANCH  27  28
ENDBRANCH  26  27
ENDBRANCH  25  26
ENDBRANCH  24  25
ENDBRANCH  23  24
ENDBRANCH  22  23
ENDBRANCH  21  22
ENDBRANCH  20  21
ENDBRANCH  19  20
ENDBRANCH  18  19
ENDBRANCH  17  18
ENDBRANCH   1  17
TORSDOF 26
ENDMDL
MODEL 2
REMARK VINA RESULT:    -5.785      1.618      3.337
REMARK INTER + INTRA:         -16.783
REMARK INTER:                 -14.666
REMARK INTRA:                  -2.116
REMARK UNBOUND:                -2.205
REMARK SMILES CCCCCCCCCCCCCCCCCCCCCCCCCCCC(=O)[O-]
REMARK SMILES IDX 15 1 16 2 17 3 18 4 19 5 20 6 21 7 22 8 23 9 24 10 25 11
REMARK SMILES IDX 26 12 27 13 28 14 29 15 30 16 14 17 13 18 12 19 11 20 10 21
REMARK SMILES IDX 9 22 8 23 7 24 6 25 5 26 4 27 3 28 2 29 1 30
REMARK H PARENT
REMARK Flexibility Score: inf
ROOT
ATOM      1  C   UNL     1      27.828  17.012   7.781  1.00  0.00     0.000 C 
ENDROOT
BRANCH   1   2
ATOM      2  C   UNL     1      28.001  17.971   6.593  1.00  0.00     0.000 C 
BRANCH   2   3
ATOM      3  C   UNL     1      26.723  18.760   6.268  1.00  0.00     0.000 C 
BRANCH   3   4
ATOM      4  C   UNL     1      25.739  18.731   7.447  1.00  0.00     0.000 C 
BRANCH   4   5
ATOM      5  C   UNL     1      24.367  18.145   7.065  1.00  0.00     0.000 C 
BRANCH   5   6
ATOM      6  C   UNL     1      23.619  18.918   5.964  1.00  0.00     0.000 C 
BRANCH   6   7
ATOM      7  C   UNL     1      22.408  19.699   6.502  1.00  0.00     0.000 C 
BRANCH   7   8
ATOM      8  C   UNL     1      22.148  20.990   5.710  1.00  0.00     0.000 C 
BRANCH   8   9
ATOM      9  C   UNL     1      23.233  21.259   4.652  1.00  0.00     0.000 C 
BRANCH   9  10
ATOM     10  C   UNL     1      23.781  22.693   4.724  1.00  0.00     0.000 C 
BRANCH  10  11
ATOM     11  C   UNL     1      24.351  23.034   6.112  1.00  0.00     0.000 C 
BRANCH  11  12
ATOM     12  C   UNL     1      24.038  24.477   6.536  1.00  0.00     0.006 C 
BRANCH  12  13
ATOM     13  C   UNL     1      25.286  25.228   7.022  1.00  0.00     0.053 C 
BRANCH  13  14
ATOM     14  C   UNL     1      25.095  25.710   8.425  1.00  0.00     0.041 C 
ATOM     15  O   UNL     1      25.659  26.767   8.814  1.00  0.00    -0.550 OA
ATOM     16  O   UNL     1      24.265  25.011   9.294  1.00  0.00    -0.550 OA
ENDBRANCH  13  14
ENDBRANCH  12  13
ENDBRANCH  11  12
ENDBRANCH  10  11
ENDBRANCH   9  10
ENDBRANCH   8   9
ENDBRANCH   7   8
ENDBRANCH   6   7
ENDBRANCH   5   6
ENDBRANCH   4   5
ENDBRANCH   3   4
ENDBRANCH   2   3
ENDBRANCH   1   2
BRANCH   1  17
ATOM     17  C   UNL     1      28.101  15.527   7.476  1.00  0.00     0.000 C 
BRANCH  17  18
ATOM     18  C   UNL     1      26.845  14.629   7.509  1.00  0.00     0.000 C 
BRANCH  18  19
ATOM     19  C   UNL     1      26.167  14.606   8.892  1.00  0.00     0.000 C 
BRANCH  19  20
ATOM     20  C   UNL     1      25.144  13.460   9.022  1.00  0.00     0.000 C 
BRANCH  20  21
ATOM     21  C   UNL     1      23.927  13.613   8.091  1.00  0.00     0.000 C 
BRANCH  21  22
ATOM     22  C   UNL     1      22.660  12.967   8.679  1.00  0.00    -0.000 C 
BRANCH  22  23
ATOM     23  C   UNL     1      22.602  13.055  10.211  1.00  0.00    -0.000 C 
BRANCH  23  24
ATOM     24  C   UNL     1      22.263  11.710  10.872  1.00  0.00    -0.000 C 
BRANCH  24  25
ATOM     25  C   UNL     1      23.380  11.271  11.831  1.00  0.00    -0.000 C 
BRANCH  25  26
ATOM     26  C   UNL     1      23.079   9.930  12.525  1.00  0.00    -0.000 C 
BRANCH  26  27
ATOM     27  C   UNL     1      21.715   9.304  12.169  1.00  0.00    -0.000 C 
BRANCH  27  28
ATOM     28  C   UNL     1      21.201   8.244  13.164  1.00  0.00    -0.000 C 
BRANCH  28  29
ATOM     29  C   UNL     1      19.678   8.251  13.384  1.00  0.00    -0.003 C 
ATOM     30  C   UNL     1      19.135   9.635  13.735  1.00  0.00     0.004 C 
ENDBRANCH  28  29
ENDBRANCH  27  28
ENDBRANCH  26  27
ENDBRANCH  25  26
ENDBRANCH  24  25
ENDBRANCH  23  24
ENDBRANCH  22  23
ENDBRANCH  21  22
ENDBRANCH  20  21
ENDBRANCH  19  20
ENDBRANCH  18  19
ENDBRANCH  17  18
ENDBRANCH   1  17
TORSDOF 26
ENDMDL
MODEL 3
REMARK VINA RESULT:    -5.784      1.332      2.732
REMARK INTER + INTRA:         -16.781
REMARK INTER:                 -14.173
REMARK INTRA:                  -2.607
REMARK UNBOUND:                -2.205
REMARK SMILES CCCCCCCCCCCCCCCCCCCCCCCCCCCC(=O)[O-]
REMARK SMILES IDX 15 1 16 2 17 3 18 4 19 5 20 6 21 7 22 8 23 9 24 10 25 11
REMARK SMILES IDX 26 12 27 13 28 14 29 15 30 16 14 17 13 18 12 19 11 20 10 21
REMARK SMILES IDX 9 22 8 23 7 24 6 25 5 26 4 27 3 28 2 29 1 30
REMARK H PARENT
REMARK Flexibility Score: inf
ROOT
ATOM      1  C   UNL     1      25.988  15.531   7.750  1.00  0.00     0.000 C 
ENDROOT
BRANCH   1   2
ATOM      2  C   UNL     1      26.872  16.322   8.727  1.00  0.00     0.000 C 
BRANCH   2   3
ATOM      3  C   UNL     1      27.448  17.606   8.109  1.00  0.00     0.000 C 
BRANCH   3   4
ATOM      4  C   UNL     1      26.413  18.742   8.125  1.00  0.00     0.000 C 
BRANCH   4   5
ATOM      5  C   UNL     1      26.580  19.718   6.946  1.00  0.00     0.000 C 
BRANCH   5   6
ATOM      6  C   UNL     1      25.575  19.520   5.797  1.00  0.00     0.000 C 
BRANCH   6   7
ATOM      7  C   UNL     1      24.209  19.007   6.281  1.00  0.00     0.000 C 
BRANCH   7   8
ATOM      8  C   UNL     1      23.053  19.916   5.834  1.00  0.00     0.000 C 
BRANCH   8   9
ATOM      9  C   UNL     1      23.305  20.551   4.456  1.00  0.00     0.000 C 
BRANCH   9  10
ATOM     10  C   UNL     1      23.444  22.080   4.530  1.00  0.00     0.000 C 
BRANCH  10  11
ATOM     11  C   UNL     1      23.494  22.593   5.981  1.00  0.00     0.000 C 
BRANCH  11  12
ATOM     12  C   UNL     1      24.845  23.235   6.330  1.00  0.00     0.006 C 
BRANCH  12  13
ATOM     13  C   UNL     1      24.738  24.227   7.496  1.00  0.00     0.053 C 
BRANCH  13  14
ATOM     14  C   UNL     1      25.073  25.612   7.039  1.00  0.00     0.041 C 
ATOM     15  O   UNL     1      26.166  25.840   6.458  1.00  0.00    -0.550 OA
ATOM     16  O   UNL     1      24.161  26.645   7.224  1.00  0.00    -0.550 OA
ENDBRANCH  13  14
ENDBRANCH  12  13
ENDBRANCH  11  12
ENDBRANCH  10  11
ENDBRANCH   9  10
ENDBRANCH   8   9
ENDBRANCH   7   8
ENDBRANCH   6   7
ENDBRANCH   5   6
ENDBRANCH   4   5
ENDBRANCH   3   4
ENDBRANCH   2   3
ENDBRANCH   1   2
BRANCH   1  17
ATOM     17  C   UNL     1      25.834  14.030   8.068  1.00  0.00     0.000 C 
BRANCH  17  18
ATOM     18  C   UNL     1      26.813  13.505   9.141  1.00  0.00     0.000 C 
BRANCH  18  19
ATOM     19  C   UNL     1      26.090  12.926  10.372  1.00  0.00     0.000 C 
BRANCH  19  20
ATOM     20  C   UNL     1      27.066  12.266  11.366  1.00  0.00     0.000 C 
BRANCH  20  21
ATOM     21  C   UNL     1      26.447  11.999  12.750  1.00  0.00     0.000 C 
BRANCH  21  22
ATOM     22  C   UNL     1      25.008  11.462  12.651  1.00  0.00    -0.000 C 
BRANCH  22  23
ATOM     23  C   UNL     1      24.735  10.305  13.622  1.00  0.00    -0.000 C 
BRANCH  23  24
ATOM     24  C   UNL     1      23.293   9.781  13.535  1.00  0.00    -0.000 C 
BRANCH  24  25
ATOM     25  C   UNL     1      22.907   9.473  12.081  1.00  0.00    -0.000 C 
BRANCH  25  26
ATOM     26  C   UNL     1      21.402   9.657  11.810  1.00  0.00    -0.000 C 
BRANCH  26  27
ATOM     27  C   UNL     1      21.055  10.755  10.784  1.00  0.00    -0.000 C 
BRANCH  27  28
ATOM     28  C   UNL     1      22.036  11.944  10.740  1.00  0.00    -0.000 C 
BRANCH  28  29
ATOM     29  C   UNL     1      22.535  12.316   9.332  1.00  0.00    -0.003 C 
ATOM     30  C   UNL     1      22.528  13.823   9.080  1.00  0.00     0.004 C 
ENDBRANCH  28  29
ENDBRANCH  27  28
ENDBRANCH  26  27
ENDBRANCH  25  26
ENDBRANCH  24  25
ENDBRANCH  23  24
ENDBRANCH  22  23
ENDBRANCH  21  22
ENDBRANCH  20  21
ENDBRANCH  19  20
ENDBRANCH  18  19
ENDBRANCH  17  18
ENDBRANCH   1  17
TORSDOF 26
ENDMDL
MODEL 4
REMARK VINA RESULT:    -5.766      4.936     12.683
REMARK INTER + INTRA:         -16.734
REMARK INTER:                 -14.432
REMARK INTRA:                  -2.303
REMARK UNBOUND:                -2.205
REMARK SMILES CCCCCCCCCCCCCCCCCCCCCCCCCCCC(=O)[O-]
REMARK SMILES IDX 15 1 16 2 17 3 18 4 19 5 20 6 21 7 22 8 23 9 24 10 25 11
REMARK SMILES IDX 26 12 27 13 28 14 29 15 30 16 14 17 13 18 12 19 11 20 10 21
REMARK SMILES IDX 9 22 8 23 7 24 6 25 5 26 4 27 3 28 2 29 1 30
REMARK H PARENT
REMARK Flexibility Score: inf
ROOT
ATOM      1  C   UNL     1      23.787  18.633   6.370  1.00  0.00     0.000 C 
ENDROOT
BRANCH   1   2
ATOM      2  C   UNL     1      24.502  17.698   7.358  1.00  0.00     0.000 C 
BRANCH   2   3
ATOM      3  C   UNL     1      25.909  18.189   7.738  1.00  0.00     0.000 C 
BRANCH   3   4
ATOM      4  C   UNL     1      26.807  17.020   8.169  1.00  0.00     0.000 C 
BRANCH   4   5
ATOM      5  C   UNL     1      26.159  15.646   7.916  1.00  0.00     0.000 C 
BRANCH   5   6
ATOM      6  C   UNL     1      26.573  14.545   8.908  1.00  0.00     0.000 C 
BRANCH   6   7
ATOM      7  C   UNL     1      25.437  13.554   9.208  1.00  0.00     0.000 C 
BRANCH   7   8
ATOM      8  C   UNL     1      24.416  13.472   8.061  1.00  0.00     0.000 C 
BRANCH   8   9
ATOM      9  C   UNL     1      23.071  12.879   8.514  1.00  0.00     0.000 C 
BRANCH   9  10
ATOM     10  C   UNL     1      22.694  13.302   9.942  1.00  0.00     0.000 C 
BRANCH  10  11
ATOM     11  C   UNL     1      22.638  12.107  10.912  1.00  0.00     0.000 C 
BRANCH  11  12
ATOM     12  C   UNL     1      21.431  11.193  10.648  1.00  0.00     0.006 C 
BRANCH  12  13
ATOM     13  C   UNL     1      21.603   9.802  11.274  1.00  0.00     0.053 C 
BRANCH  13  14
ATOM     14  C   UNL     1      21.078   9.789  12.675  1.00  0.00     0.041 C 
ATOM     15  O   UNL     1      19.898  10.158  12.913  1.00  0.00    -0.550 OA
ATOM     16  O   UNL     1      21.881   9.336  13.715  1.00  0.00    -0.550 OA
ENDBRANCH  13  14
ENDBRANCH  12  13
ENDBRANCH  11  12
ENDBRANCH  10  11
ENDBRANCH   9  10
ENDBRANCH   8   9
ENDBRANCH   7   8
ENDBRANCH   6   7
ENDBRANCH   5   6
ENDBRANCH   4   5
ENDBRANCH   3   4
ENDBRANCH   2   3
ENDBRANCH   1   2
BRANCH   1  17
ATOM     17  C   UNL     1      22.634  19.464   6.966  1.00  0.00     0.000 C 
BRANCH  17  18
ATOM     18  C   UNL     1      22.175  20.642   6.079  1.00  0.00     0.000 C 
BRANCH  18  19
ATOM     19  C   UNL     1      23.232  21.759   5.981  1.00  0.00     0.000 C 
BRANCH  19  20
ATOM     20  C   UNL     1      23.614  22.075   4.522  1.00  0.00     0.000 C 
BRANCH  20  21
ATOM     21  C   UNL     1      24.394  20.941   3.832  1.00  0.00     0.000 C 
BRANCH  21  22
ATOM     22  C   UNL     1      25.917  21.110   3.979  1.00  0.00    -0.000 C 
BRANCH  22  23
ATOM     23  C   UNL     1      26.346  21.424   5.419  1.00  0.00    -0.000 C 
BRANCH  23  24
ATOM     24  C   UNL     1      27.223  22.682   5.520  1.00  0.00    -0.000 C 
BRANCH  24  25
ATOM     25  C   UNL     1      27.054  23.569   4.278  1.00  0.00    -0.000 C 
BRANCH  25  26
ATOM     26  C   UNL     1      26.190  24.816   4.546  1.00  0.00    -0.000 C 
BRANCH  26  27
ATOM     27  C   UNL     1      25.583  24.894   5.963  1.00  0.00    -0.000 C 
BRANCH  27  28
ATOM     28  C   UNL     1      25.996  26.131   6.785  1.00  0.00    -0.000 C 
BRANCH  28  29
ATOM     29  C   UNL     1      24.935  26.625   7.784  1.00  0.00    -0.003 C 
ATOM     30  C   UNL     1      25.482  26.781   9.201  1.00  0.00     0.004 C 
ENDBRANCH  28  29
ENDBRANCH  27  28
ENDBRANCH  26  27
ENDBRANCH  25  26
ENDBRANCH  24  25
ENDBRANCH  23  24
ENDBRANCH  22  23
ENDBRANCH  21  22
ENDBRANCH  20  21
ENDBRANCH  19  20
ENDBRANCH  18  19
ENDBRANCH  17  18
ENDBRANCH   1  17
TORSDOF 26
ENDMDL
MODEL 5
REMARK VINA RESULT:    -5.700      1.928      5.086
REMARK INTER + INTRA:         -16.568
REMARK INTER:                 -13.979
REMARK INTRA:                  -2.589
REMARK UNBOUND:                -2.205
REMARK SMILES CCCCCCCCCCCCCCCCCCCCCCCCCCCC(=O)[O-]
REMARK SMILES IDX 15 1 16 2 17 3 18 4 19 5 20 6 21 7 22 8 23 9 24 10 25 11
REMARK SMILES IDX 26 12 27 13 28 14 29 15 30 16 14 17 13 18 12 19 11 20 10 21
REMARK SMILES IDX 9 22 8 23 7 24 6 25 5 26 4 27 3 28 2 29 1 30
REMARK H PARENT
REMARK Flexibility Score: inf
ROOT
ATOM      1  C   UNL     1      23.939  18.754   6.265  1.00  0.00     0.000 C 
ENDROOT
BRANCH   1   2
ATOM      2  C   UNL     1      22.707  19.512   6.785  1.00  0.00     0.000 C 
BRANCH   2   3
ATOM      3  C   UNL     1      22.232  20.614   5.825  1.00  0.00     0.000 C 
BRANCH   3   4
ATOM      4  C   UNL     1      23.252  21.759   5.747  1.00  0.00     0.000 C 
BRANCH   4   5
ATOM      5  C   UNL     1      23.788  21.985   4.320  1.00  0.00     0.000 C 
BRANCH   5   6
ATOM      6  C   UNL     1      25.288  21.690   4.140  1.00  0.00     0.000 C 
BRANCH   6   7
ATOM      7  C   UNL     1      26.059  21.692   5.470  1.00  0.00     0.000 C 
BRANCH   7   8
ATOM      8  C   UNL     1      27.376  22.481   5.379  1.00  0.00     0.000 C 
BRANCH   8   9
ATOM      9  C   UNL     1      27.401  23.444   4.179  1.00  0.00     0.000 C 
BRANCH   9  10
ATOM     10  C   UNL     1      26.496  24.668   4.389  1.00  0.00     0.000 C 
BRANCH  10  11
ATOM     11  C   UNL     1      26.457  25.122   5.859  1.00  0.00     0.000 C 
BRANCH  11  12
ATOM     12  C   UNL     1      25.025  25.369   6.359  1.00  0.00     0.006 C 
BRANCH  12  13
ATOM     13  C   UNL     1      24.782  24.774   7.754  1.00  0.00     0.053 C 
BRANCH  13  14
ATOM     14  C   UNL     1      24.827  25.846   8.796  1.00  0.00     0.041 C 
ATOM     15  O   UNL     1      25.554  26.860   8.631  1.00  0.00    -0.550 OA
ATOM     16  O   UNL     1      24.038  25.742   9.936  1.00  0.00    -0.550 OA
ENDBRANCH  13  14
ENDBRANCH  12  13
ENDBRANCH  11  12
ENDBRANCH  10  11
ENDBRANCH   9  10
ENDBRANCH   8   9
ENDBRANCH   7   8
ENDBRANCH   6   7
ENDBRANCH   5   6
ENDBRANCH   4   5
ENDBRANCH   3   4
ENDBRANCH   2   3
ENDBRANCH   1   2
BRANCH   1  17
ATOM     17  C   UNL     1      24.750  17.999   7.336  1.00  0.00     0.000 C 
BRANCH  17  18
ATOM     18  C   UNL     1      26.008  18.749   7.826  1.00  0.00     0.000 C 
BRANCH  18  19
ATOM     19  C   UNL     1      27.214  17.814   8.037  1.00  0.00     0.000 C 
BRANCH  19  20
ATOM     20  C   UNL     1      26.784  16.374   8.378  1.00  0.00     0.000 C 
BRANCH  20  21
ATOM     21  C   UNL     1      27.355  15.317   7.415  1.00  0.00     0.000 C 
BRANCH  21  22
ATOM     22  C   UNL     1      26.651  13.956   7.560  1.00  0.00    -0.000 C 
BRANCH  22  23
ATOM     23  C   UNL     1      25.503  13.984   8.579  1.00  0.00    -0.000 C 
BRANCH  23  24
ATOM     24  C   UNL     1      25.821  13.192   9.857  1.00  0.00    -0.000 C 
BRANCH  24  25
ATOM     25  C   UNL     1      24.533  12.807  10.599  1.00  0.00    -0.000 C 
BRANCH  25  26
ATOM     26  C   UNL     1      23.260  13.269   9.865  1.00  0.00    -0.000 C 
BRANCH  26  27
ATOM     27  C   UNL     1      21.945  12.666  10.402  1.00  0.00    -0.000 C 
BRANCH  27  28
ATOM     28  C   UNL     1      21.959  11.137  10.602  1.00  0.00    -0.000 C 
BRANCH  28  29
ATOM     29  C   UNL     1      20.834  10.594  11.501  1.00  0.00    -0.003 C 
ATOM     30  C   UNL     1      21.361   9.845  12.724  1.00  0.00     0.004 C 
ENDBRANCH  28  29
ENDBRANCH  27  28
ENDBRANCH  26  27
ENDBRANCH  25  26
ENDBRANCH  24  25
ENDBRANCH  23  24
ENDBRANCH  22  23
ENDBRANCH  21  22
ENDBRANCH  20  21
ENDBRANCH  19  20
ENDBRANCH  18  19
ENDBRANCH  17  18
ENDBRANCH   1  17
TORSDOF 26
ENDMDL
MODEL 6
REMARK VINA RESULT:    -5.697      1.265      2.468
REMARK INTER + INTRA:         -16.560
REMARK INTER:                 -13.785
REMARK INTRA:                  -2.775
REMARK UNBOUND:                -2.205
REMARK SMILES CCCCCCCCCCCCCCCCCCCCCCCCCCCC(=O)[O-]
REMARK SMILES IDX 15 1 16 2 17 3 18 4 19 5 20 6 21 7 22 8 23 9 24 10 25 11
REMARK SMILES IDX 26 12 27 13 28 14 29 15 30 16 14 17 13 18 12 19 11 20 10 21
REMARK SMILES IDX 9 22 8 23 7 24 6 25 5 26 4 27 3 28 2 29 1 30
REMARK H PARENT
REMARK Flexibility Score: inf
ROOT
ATOM      1  C   UNL     1      26.876  16.271   7.629  1.00  0.00     0.000 C 
ENDROOT
BRANCH   1   2
ATOM      2  C   UNL     1      27.180  17.509   8.489  1.00  0.00     0.000 C 
BRANCH   2   3
ATOM      3  C   UNL     1      28.015  18.564   7.747  1.00  0.00     0.000 C 
BRANCH   3   4
ATOM      4  C   UNL     1      27.230  19.874   7.578  1.00  0.00     0.000 C 
BRANCH   4   5
ATOM      5  C   UNL     1      26.946  20.213   6.103  1.00  0.00     0.000 C 
BRANCH   5   6
ATOM      6  C   UNL     1      25.763  19.450   5.482  1.00  0.00     0.000 C 
BRANCH   6   7
ATOM      7  C   UNL     1      24.650  19.147   6.498  1.00  0.00     0.000 C 
BRANCH   7   8
ATOM      8  C   UNL     1      23.263  19.067   5.839  1.00  0.00     0.000 C 
BRANCH   8   9
ATOM      9  C   UNL     1      22.533  20.421   5.842  1.00  0.00     0.000 C 
BRANCH   9  10
ATOM     10  C   UNL     1      22.495  21.072   4.450  1.00  0.00     0.000 C 
BRANCH  10  11
ATOM     11  C   UNL     1      23.635  22.086   4.247  1.00  0.00     0.000 C 
BRANCH  11  12
ATOM     12  C   UNL     1      23.927  22.902   5.516  1.00  0.00     0.006 C 
BRANCH  12  13
ATOM     13  C   UNL     1      24.737  24.172   5.221  1.00  0.00     0.053 C 
BRANCH  13  14
ATOM     14  C   UNL     1      25.263  24.765   6.490  1.00  0.00     0.041 C 
ATOM     15  O   UNL     1      26.170  25.637   6.454  1.00  0.00    -0.550 OA
ATOM     16  O   UNL     1      24.725  24.381   7.713  1.00  0.00    -0.550 OA
ENDBRANCH  13  14
ENDBRANCH  12  13
ENDBRANCH  11  12
ENDBRANCH  10  11
ENDBRANCH   9  10
ENDBRANCH   8   9
ENDBRANCH   7   8
ENDBRANCH   6   7
ENDBRANCH   5   6
ENDBRANCH   4   5
ENDBRANCH   3   4
ENDBRANCH   2   3
ENDBRANCH   1   2
BRANCH   1  17
ATOM     17  C   UNL     1      25.517  15.597   7.901  1.00  0.00     0.000 C 
BRANCH  17  18
ATOM     18  C   UNL     1      25.578  14.056   7.988  1.00  0.00     0.000 C 
BRANCH  18  19
ATOM     19  C   UNL     1      26.887  13.548   8.623  1.00  0.00     0.000 C 
BRANCH  19  20
ATOM     20  C   UNL     1      26.860  13.630  10.162  1.00  0.00     0.000 C 
BRANCH  20  21
ATOM     21  C   UNL     1      25.606  12.994  10.790  1.00  0.00     0.000 C 
BRANCH  21  22
ATOM     22  C   UNL     1      25.959  11.906  11.819  1.00  0.00    -0.000 C 
BRANCH  22  23
ATOM     23  C   UNL     1      24.833  11.657  12.834  1.00  0.00    -0.000 C 
BRANCH  23  24
ATOM     24  C   UNL     1      24.936  10.283  13.513  1.00  0.00    -0.000 C 
BRANCH  24  25
ATOM     25  C   UNL     1      23.542   9.718  13.822  1.00  0.00    -0.000 C 
BRANCH  25  26
ATOM     26  C   UNL     1      22.872   9.073  12.595  1.00  0.00    -0.000 C 
BRANCH  26  27
ATOM     27  C   UNL     1      21.333   9.170  12.566  1.00  0.00    -0.000 C 
BRANCH  27  28
ATOM     28  C   UNL     1      20.767  10.371  11.782  1.00  0.00    -0.000 C 
BRANCH  28  29
ATOM     29  C   UNL     1      21.428  10.617  10.414  1.00  0.00    -0.003 C 
ATOM     30  C   UNL     1      22.128  11.972  10.329  1.00  0.00     0.004 C 
ENDBRANCH  28  29
ENDBRANCH  27  28
ENDBRANCH  26  27
ENDBRANCH  25  26
ENDBRANCH  24  25
ENDBRANCH  23  24
ENDBRANCH  22  23
ENDBRANCH  21  22
ENDBRANCH  20  21
ENDBRANCH  19  20
ENDBRANCH  18  19
ENDBRANCH  17  18
ENDBRANCH   1  17
TORSDOF 26
ENDMDL
MODEL 7
REMARK VINA RESULT:    -5.679      3.349     11.193
REMARK INTER + INTRA:         -16.517
REMARK INTER:                 -13.371
REMARK INTRA:                  -3.146
REMARK UNBOUND:                -2.205
REMARK SMILES CCCCCCCCCCCCCCCCCCCCCCCCCCCC(=O)[O-]
REMARK SMILES IDX 15 1 16 2 17 3 18 4 19 5 20 6 21 7 22 8 23 9 24 10 25 11
REMARK SMILES IDX 26 12 27 13 28 14 29 15 30 16 14 17 13 18 12 19 11 20 10 21
REMARK SMILES IDX 9 22 8 23 7 24 6 25 5 26 4 27 3 28 2 29 1 30
REMARK H PARENT
REMARK Flexibility Score: inf
ROOT
ATOM      1  C   UNL     1      27.028  14.049   7.862  1.00  0.00     0.000 C 
ENDROOT
BRANCH   1   2
ATOM      2  C   UNL     1      26.610  14.338   9.312  1.00  0.00     0.000 C 
BRANCH   2   3
ATOM      3  C   UNL     1      25.989  13.118  10.011  1.00  0.00     0.000 C 
BRANCH   3   4
ATOM      4  C   UNL     1      27.015  12.413  10.911  1.00  0.00     0.000 C 
BRANCH   4   5
ATOM      5  C   UNL     1      26.411  11.936  12.245  1.00  0.00     0.000 C 
BRANCH   5   6
ATOM      6  C   UNL     1      24.876  12.023  12.326  1.00  0.00     0.000 C 
BRANCH   6   7
ATOM      7  C   UNL     1      24.277  11.047  13.352  1.00  0.00     0.000 C 
BRANCH   7   8
ATOM      8  C   UNL     1      23.618   9.829  12.683  1.00  0.00     0.000 C 
BRANCH   8   9
ATOM      9  C   UNL     1      22.260   9.477  13.314  1.00  0.00     0.000 C 
BRANCH   9  10
ATOM     10  C   UNL     1      21.084   9.739  12.361  1.00  0.00     0.000 C 
BRANCH  10  11
ATOM     11  C   UNL     1      21.552  10.098  10.939  1.00  0.00     0.000 C 
BRANCH  11  12
ATOM     12  C   UNL     1      21.466  11.606  10.657  1.00  0.00     0.006 C 
BRANCH  12  13
ATOM     13  C   UNL     1      22.461  12.057   9.578  1.00  0.00     0.053 C 
BRANCH  13  14
ATOM     14  C   UNL     1      22.452  13.547   9.446  1.00  0.00     0.041 C 
ATOM     15  O   UNL     1      23.045  14.102   8.483  1.00  0.00    -0.550 OA
ATOM     16  O   UNL     1      21.759  14.324  10.368  1.00  0.00    -0.550 OA
ENDBRANCH  13  14
ENDBRANCH  12  13
ENDBRANCH  11  12
ENDBRANCH  10  11
ENDBRANCH   9  10
ENDBRANCH   8   9
ENDBRANCH   7   8
ENDBRANCH   6   7
ENDBRANCH   5   6
ENDBRANCH   4   5
ENDBRANCH   3   4
ENDBRANCH   2   3
ENDBRANCH   1   2
BRANCH   1  17
ATOM     17  C   UNL     1      27.829  15.170   7.171  1.00  0.00     0.000 C 
BRANCH  17  18
ATOM     18  C   UNL     1      27.966  16.461   8.007  1.00  0.00     0.000 C 
BRANCH  18  19
ATOM     19  C   UNL     1      27.359  17.691   7.306  1.00  0.00     0.000 C 
BRANCH  19  20
ATOM     20  C   UNL     1      26.026  18.129   7.945  1.00  0.00     0.000 C 
BRANCH  20  21
ATOM     21  C   UNL     1      24.787  17.704   7.135  1.00  0.00     0.000 C 
BRANCH  21  22
ATOM     22  C   UNL     1      23.720  18.812   7.081  1.00  0.00    -0.000 C 
BRANCH  22  23
ATOM     23  C   UNL     1      23.428  19.289   5.651  1.00  0.00    -0.000 C 
BRANCH  23  24
ATOM     24  C   UNL     1      22.721  20.653   5.611  1.00  0.00    -0.000 C 
BRANCH  24  25
ATOM     25  C   UNL     1      23.180  21.474   4.397  1.00  0.00    -0.000 C 
BRANCH  25  26
ATOM     26  C   UNL     1      23.894  22.780   4.794  1.00  0.00    -0.000 C 
BRANCH  26  27
ATOM     27  C   UNL     1      24.633  22.732   6.147  1.00  0.00    -0.000 C 
BRANCH  27  28
ATOM     28  C   UNL     1      26.172  22.733   6.053  1.00  0.00    -0.000 C 
BRANCH  28  29
ATOM     29  C   UNL     1      26.837  21.376   6.344  1.00  0.00    -0.003 C 
ATOM     30  C   UNL     1      26.924  20.481   5.109  1.00  0.00     0.004 C 
ENDBRANCH  28  29
ENDBRANCH  27  28
ENDBRANCH  26  27
ENDBRANCH  25  26
ENDBRANCH  24  25
ENDBRANCH  23  24
ENDBRANCH  22  23
ENDBRANCH  21  22
ENDBRANCH  20  21
ENDBRANCH  19  20
ENDBRANCH  18  19
ENDBRANCH  17  18
ENDBRANCH   1  17
TORSDOF 26
ENDMDL
MODEL 8
REMARK VINA RESULT:    -5.631      4.484     12.722
REMARK INTER + INTRA:         -16.394
REMARK INTER:                 -13.950
REMARK INTRA:                  -2.444
REMARK UNBOUND:                -2.205
REMARK SMILES CCCCCCCCCCCCCCCCCCCCCCCCCCCC(=O)[O-]
REMARK SMILES IDX 15 1 16 2 17 3 18 4 19 5 20 6 21 7 22 8 23 9 24 10 25 11
REMARK SMILES IDX 26 12 27 13 28 14 29 15 30 16 14 17 13 18 12 19 11 20 10 21
REMARK SMILES IDX 9 22 8 23 7 24 6 25 5 26 4 27 3 28 2 29 1 30
REMARK H PARENT
REMARK Flexibility Score: inf
ROOT
ATOM      1  C   UNL     1      26.363  16.943   8.092  1.00  0.00     0.000 C 
ENDROOT
BRANCH   1   2
ATOM      2  C   UNL     1      27.621  16.172   7.663  1.00  0.00     0.000 C 
BRANCH   2   3
ATOM      3  C   UNL     1      27.466  14.648   7.800  1.00  0.00     0.000 C 
BRANCH   3   4
ATOM      4  C   UNL     1      25.985  14.240   7.801  1.00  0.00     0.000 C 
BRANCH   4   5
ATOM      5  C   UNL     1      25.576  13.483   9.079  1.00  0.00     0.000 C 
BRANCH   5   6
ATOM      6  C   UNL     1      26.741  12.822   9.838  1.00  0.00     0.000 C 
BRANCH   6   7
ATOM      7  C   UNL     1      26.382  12.471  11.291  1.00  0.00     0.000 C 
BRANCH   7   8
ATOM      8  C   UNL     1      24.864  12.484  11.536  1.00  0.00     0.000 C 
BRANCH   8   9
ATOM      9  C   UNL     1      24.492  11.966  12.937  1.00  0.00     0.000 C 
BRANCH   9  10
ATOM     10  C   UNL     1      25.345  10.761  13.363  1.00  0.00     0.000 C 
BRANCH  10  11
ATOM     11  C   UNL     1      24.489   9.526  13.696  1.00  0.00     0.000 C 
BRANCH  11  12
ATOM     12  C   UNL     1      22.984   9.835  13.683  1.00  0.00     0.006 C 
BRANCH  12  13
ATOM     13  C   UNL     1      22.253   9.132  12.530  1.00  0.00     0.053 C 
BRANCH  13  14
ATOM     14  C   UNL     1      21.145   9.993  12.009  1.00  0.00     0.041 C 
ATOM     15  O   UNL     1      20.079  10.120  12.666  1.00  0.00    -0.550 OA
ATOM     16  O   UNL     1      21.305  10.686  10.814  1.00  0.00    -0.550 OA
ENDBRANCH  13  14
ENDBRANCH  12  13
ENDBRANCH  11  12
ENDBRANCH  10  11
ENDBRANCH   9  10
ENDBRANCH   8   9
ENDBRANCH   7   8
ENDBRANCH   6   7
ENDBRANCH   5   6
ENDBRANCH   4   5
ENDBRANCH   3   4
ENDBRANCH   2   3
ENDBRANCH   1   2
BRANCH   1  17
ATOM     17  C   UNL     1      26.600  18.403   8.525  1.00  0.00     0.000 C 
BRANCH  17  18
ATOM     18  C   UNL     1      27.474  19.221   7.548  1.00  0.00     0.000 C 
BRANCH  18  19
ATOM     19  C   UNL     1      26.706  20.387   6.897  1.00  0.00     0.000 C 
BRANCH  19  20
ATOM     20  C   UNL     1      27.648  21.402   6.221  1.00  0.00     0.000 C 
BRANCH  20  21
ATOM     21  C   UNL     1      27.234  21.763   4.783  1.00  0.00     0.000 C 
BRANCH  21  22
ATOM     22  C   UNL     1      26.056  20.907   4.285  1.00  0.00    -0.000 C 
BRANCH  22  23
ATOM     23  C   UNL     1      24.768  21.721   4.090  1.00  0.00    -0.000 C 
BRANCH  23  24
ATOM     24  C   UNL     1      23.630  21.267   5.018  1.00  0.00    -0.000 C 
BRANCH  24  25
ATOM     25  C   UNL     1      23.307  22.348   6.060  1.00  0.00    -0.000 C 
BRANCH  25  26
ATOM     26  C   UNL     1      24.014  23.685   5.773  1.00  0.00    -0.000 C 
BRANCH  26  27
ATOM     27  C   UNL     1      25.079  24.095   6.811  1.00  0.00    -0.000 C 
BRANCH  27  28
ATOM     28  C   UNL     1      25.859  25.382   6.476  1.00  0.00    -0.000 C 
BRANCH  28  29
ATOM     29  C   UNL     1      25.477  26.608   7.324  1.00  0.00    -0.003 C 
ATOM     30  C   UNL     1      25.451  26.308   8.822  1.00  0.00     0.004 C 
ENDBRANCH  28  29
ENDBRANCH  27  28
ENDBRANCH  26  27
ENDBRANCH  25  26
ENDBRANCH  24  25
ENDBRANCH  23  24
ENDBRANCH  22  23
ENDBRANCH  21  22
ENDBRANCH  20  21
ENDBRANCH  19  20
ENDBRANCH  18  19
ENDBRANCH  17  18
ENDBRANCH   1  17
TORSDOF 26
ENDMDL
MODEL 9
REMARK VINA RESULT:    -5.557      4.464     12.432
REMARK INTER + INTRA:         -16.208
REMARK INTER:                 -14.564
REMARK INTRA:                  -1.644
REMARK UNBOUND:                -2.205
REMARK SMILES CCCCCCCCCCCCCCCCCCCCCCCCCCCC(=O)[O-]
REMARK SMILES IDX 15 1 16 2 17 3 18 4 19 5 20 6 21 7 22 8 23 9 24 10 25 11
REMARK SMILES IDX 26 12 27 13 28 14 29 15 30 16 14 17 13 18 12 19 11 20 10 21
REMARK SMILES IDX 9 22 8 23 7 24 6 25 5 26 4 27 3 28 2 29 1 30
REMARK H PARENT
REMARK Flexibility Score: inf
ROOT
ATOM      1  C   UNL     1      26.828  16.389   7.807  1.00  0.00     0.000 C 
ENDROOT
BRANCH   1   2
ATOM      2  C   UNL     1      27.324  15.174   8.607  1.00  0.00     0.000 C 
BRANCH   2   3
ATOM      3  C   UNL     1      26.582  13.877   8.248  1.00  0.00     0.000 C 
BRANCH   3   4
ATOM      4  C   UNL     1      25.115  14.158   7.889  1.00  0.00     0.000 C 
BRANCH   4   5
ATOM      5  C   UNL     1      24.129  13.266   8.666  1.00  0.00     0.000 C 
BRANCH   5   6
ATOM      6  C   UNL     1      22.803  13.949   9.047  1.00  0.00     0.000 C 
BRANCH   6   7
ATOM      7  C   UNL     1      22.056  13.215  10.172  1.00  0.00     0.000 C 
BRANCH   7   8
ATOM      8  C   UNL     1      22.078  11.688   9.988  1.00  0.00     0.000 C 
BRANCH   8   9
ATOM      9  C   UNL     1      21.178  10.962  11.002  1.00  0.00     0.000 C 
BRANCH   9  10
ATOM     10  C   UNL     1      21.805   9.656  11.514  1.00  0.00     0.000 C 
BRANCH  10  11
ATOM     11  C   UNL     1      21.745   9.539  13.048  1.00  0.00     0.000 C 
BRANCH  11  12
ATOM     12  C   UNL     1      23.118   9.745  13.706  1.00  0.00     0.006 C 
BRANCH  12  13
ATOM     13  C   UNL     1      23.938  10.845  13.018  1.00  0.00     0.053 C 
BRANCH  13  14
ATOM     14  C   UNL     1      25.360  10.807  13.480  1.00  0.00     0.041 C 
ATOM     15  O   UNL     1      26.113  11.800  13.296  1.00  0.00    -0.550 OA
ATOM     16  O   UNL     1      25.845   9.688  14.147  1.00  0.00    -0.550 OA
ENDBRANCH  13  14
ENDBRANCH  12  13
ENDBRANCH  11  12
ENDBRANCH  10  11
ENDBRANCH   9  10
ENDBRANCH   8   9
ENDBRANCH   7   8
ENDBRANCH   6   7
ENDBRANCH   5   6
ENDBRANCH   4   5
ENDBRANCH   3   4
ENDBRANCH   2   3
ENDBRANCH   1   2
BRANCH   1  17
ATOM     17  C   UNL     1      26.657  17.688   8.619  1.00  0.00     0.000 C 
BRANCH  17  18
ATOM     18  C   UNL     1      26.543  18.965   7.758  1.00  0.00     0.000 C 
BRANCH  18  19
ATOM     19  C   UNL     1      25.598  18.789   6.554  1.00  0.00     0.000 C 
BRANCH  19  20
ATOM     20  C   UNL     1      24.134  18.579   6.987  1.00  0.00     0.000 C 
BRANCH  20  21
ATOM     21  C   UNL     1      23.119  18.805   5.851  1.00  0.00     0.000 C 
BRANCH  21  22
ATOM     22  C   UNL     1      22.359  20.135   6.005  1.00  0.00    -0.000 C 
BRANCH  22  23
ATOM     23  C   UNL     1      22.531  21.063   4.794  1.00  0.00    -0.000 C 
BRANCH  23  24
ATOM     24  C   UNL     1      24.004  21.376   4.487  1.00  0.00    -0.000 C 
BRANCH  24  25
ATOM     25  C   UNL     1      24.306  22.866   4.705  1.00  0.00    -0.000 C 
BRANCH  25  26
ATOM     26  C   UNL     1      24.082  23.314   6.161  1.00  0.00    -0.000 C 
BRANCH  26  27
ATOM     27  C   UNL     1      24.879  24.565   6.587  1.00  0.00    -0.000 C 
BRANCH  27  28
ATOM     28  C   UNL     1      24.038  25.843   6.777  1.00  0.00    -0.000 C 
BRANCH  28  29
ATOM     29  C   UNL     1      24.728  26.955   7.588  1.00  0.00    -0.003 C 
ATOM     30  C   UNL     1      25.473  26.422   8.811  1.00  0.00     0.004 C 
ENDBRANCH  28  29
ENDBRANCH  27  28
ENDBRANCH  26  27
ENDBRANCH  25  26
ENDBRANCH  24  25
ENDBRANCH  23  24
ENDBRANCH  22  23
ENDBRANCH  21  22
ENDBRANCH  20  21
ENDBRANCH  19  20
ENDBRANCH  18  19
ENDBRANCH  17  18
ENDBRANCH   1  17
TORSDOF 26
ENDMDL
