MODEL 1
REMARK VINA RESULT:    -5.790      0.000      0.000
REMARK INTER + INTRA:          -9.359
REMARK INTER:                  -8.499
REMARK INTRA:                  -0.860
REMARK UNBOUND:                -0.860
REMARK SMILES O=c1c(O[C@@H]2O[C@H](CO)[C@H](O)[C@@H](O)[C@H]2O)c(-c2ccc(O)c(O)c2)oc2cc(O)cc(O)c12
REMARK SMILES IDX 4 1 3 2 16 3 25 4 2 5 26 6 1 7 33 8 27 9 31 10 28 11 30 12
REMARK SMILES IDX 17 13 18 14 19 15 20 16 24 17 22 18 21 19 23 21 32 23 29 25
REMARK SMILES IDX 5 27 14 28 6 29 12 30 7 31 10 32 15 33 13 35 8 37 9 38 11 40
REMARK H PARENT 21 20 23 22 32 24 29 26 15 34 13 36 9 39 11 41
REMARK Flexibility Score: inf
ROOT
ATOM      1  O   UNL     1      -4.754  15.599 -27.362  1.00  0.00    -0.454 OA
ENDROOT
BRANCH   1   2
ATOM      2  C   UNL     1      -4.462  16.590 -28.303  1.00  0.00     0.214 A 
ATOM      3  C   UNL     1      -3.375  17.453 -28.044  1.00  0.00     0.180 A 
ATOM      4  O   UNL     1      -3.331  18.658 -28.601  1.00  0.00    -0.452 OA
ATOM      5  C   UNL     1      -5.400  16.959 -29.267  1.00  0.00     0.239 A 
ATOM      6  C   UNL     1      -4.274  19.088 -29.449  1.00  0.00     0.146 A 
ATOM      7  O   UNL     1      -6.338  16.174 -29.582  1.00  0.00    -0.285 OA
ATOM      8  C   UNL     1      -5.347  18.246 -29.830  1.00  0.00     0.111 A 
ATOM      9  C   UNL     1      -4.226  20.404 -29.894  1.00  0.00     0.094 A 
ATOM     10  C   UNL     1      -6.408  18.780 -30.595  1.00  0.00     0.134 A 
ATOM     11  C   UNL     1      -5.274  20.928 -30.677  1.00  0.00     0.123 A 
ATOM     12  C   UNL     1      -6.365  20.114 -31.005  1.00  0.00     0.093 A 
BRANCH   3  13
ATOM     13  C   UNL     1      -2.356  17.097 -27.041  1.00  0.00     0.025 A 
ATOM     14  C   UNL     1      -1.714  15.847 -27.082  1.00  0.00     0.016 A 
ATOM     15  C   UNL     1      -0.883  15.446 -26.032  1.00  0.00     0.051 A 
ATOM     16  C   UNL     1      -0.677  16.292 -24.936  1.00  0.00     0.157 A 
ATOM     17  C   UNL     1      -2.094  17.968 -25.973  1.00  0.00     0.062 A 
ATOM     18  C   UNL     1      -1.268  17.565 -24.914  1.00  0.00     0.158 A 
BRANCH  16  19
ATOM     19  O   UNL     1       0.125  15.875 -23.863  1.00  0.00    -0.504 OA
ATOM     20  H   UNL     1      -0.033  16.218 -22.920  1.00  0.00     0.293 HD
ENDBRANCH  16  19
BRANCH  18  21
ATOM     21  O   UNL     1      -1.071  18.438 -23.848  1.00  0.00    -0.504 OA
ATOM     22  H   UNL     1      -1.701  18.464 -23.064  1.00  0.00     0.293 HD
ENDBRANCH  18  21
ENDBRANCH   3  13
BRANCH  10  23
ATOM     23  O   UNL     1      -7.496  17.983 -30.975  1.00  0.00    -0.507 OA
ATOM     24  H   UNL     1      -8.307  17.885 -30.385  1.00  0.00     0.293 HD
ENDBRANCH  10  23
BRANCH  11  25
ATOM     25  O   UNL     1      -5.256  22.251 -31.097  1.00  0.00    -0.508 OA
ATOM     26  H   UNL     1      -6.109  22.732 -31.358  1.00  0.00     0.293 HD
ENDBRANCH  11  25
ENDBRANCH   1   2
BRANCH   1  27
ATOM     27  C   UNL     1      -4.455  14.190 -27.387  1.00  0.00     0.339 C 
ATOM     28  C   UNL     1      -5.302  13.298 -26.443  1.00  0.00     0.214 C 
ATOM     29  O   UNL     1      -4.492  13.637 -28.692  1.00  0.00    -0.332 OA
ATOM     30  C   UNL     1      -4.975  11.795 -26.708  1.00  0.00     0.180 C 
ATOM     31  C   UNL     1      -3.572  12.546 -28.773  1.00  0.00     0.179 C 
ATOM     32  C   UNL     1      -3.642  11.601 -27.490  1.00  0.00     0.177 C 
BRANCH  28  33
ATOM     33  O   UNL     1      -5.079  13.623 -25.072  1.00  0.00    -0.384 OA
ATOM     34  H   UNL     1      -4.230  14.154 -24.999  1.00  0.00     0.211 HD
ENDBRANCH  28  33
BRANCH  30  35
ATOM     35  O   UNL     1      -4.932  11.058 -25.503  1.00  0.00    -0.387 OA
ATOM     36  H   UNL     1      -4.597  11.656 -24.776  1.00  0.00     0.211 HD
ENDBRANCH  30  35
BRANCH  31  37
ATOM     37  C   UNL     1      -3.789  11.795 -30.105  1.00  0.00     0.191 C 
BRANCH  37  38
ATOM     38  O   UNL     1      -2.692  10.942 -30.351  1.00  0.00    -0.394 OA
ATOM     39  H   UNL     1      -1.874  11.514 -30.345  1.00  0.00     0.210 HD
ENDBRANCH  37  38
ENDBRANCH  31  37
BRANCH  32  40
ATOM     40  O   UNL     1      -3.488  10.234 -27.810  1.00  0.00    -0.387 OA
ATOM     41  H   UNL     1      -4.379   9.839 -27.612  1.00  0.00     0.211 HD
ENDBRANCH  32  40
ENDBRANCH   1  27
TORSDOF 12
ENDMDL
MODEL 2
REMARK VINA RESULT:    -5.606      0.663      2.063
REMARK INTER + INTRA:          -9.088
REMARK INTER:                  -8.317
REMARK INTRA:                  -0.771
REMARK UNBOUND:                -0.860
REMARK SMILES O=c1c(O[C@@H]2O[C@H](CO)[C@H](O)[C@@H](O)[C@H]2O)c(-c2ccc(O)c(O)c2)oc2cc(O)cc(O)c12
REMARK SMILES IDX 4 1 3 2 16 3 25 4 2 5 26 6 1 7 33 8 27 9 31 10 28 11 30 12
REMARK SMILES IDX 17 13 18 14 19 15 20 16 24 17 22 18 21 19 23 21 32 23 29 25
REMARK SMILES IDX 5 27 14 28 6 29 12 30 7 31 10 32 15 33 13 35 8 37 9 38 11 40
REMARK H PARENT 21 20 23 22 32 24 29 26 15 34 13 36 9 39 11 41
REMARK Flexibility Score: inf
ROOT
ATOM      1  O   UNL     1      -4.780  15.581 -27.414  1.00  0.00    -0.454 OA
ENDROOT
BRANCH   1   2
ATOM      2  C   UNL     1      -4.485  16.581 -28.345  1.00  0.00     0.214 A 
ATOM      3  C   UNL     1      -3.393  17.435 -28.079  1.00  0.00     0.180 A 
ATOM      4  O   UNL     1      -3.345  18.647 -28.622  1.00  0.00    -0.452 OA
ATOM      5  C   UNL     1      -5.425  16.966 -29.302  1.00  0.00     0.239 A 
ATOM      6  C   UNL     1      -4.287  19.091 -29.463  1.00  0.00     0.146 A 
ATOM      7  O   UNL     1      -6.368  16.190 -29.623  1.00  0.00    -0.285 OA
ATOM      8  C   UNL     1      -5.367  18.259 -29.850  1.00  0.00     0.111 A 
ATOM      9  C   UNL     1      -4.234  20.411 -29.893  1.00  0.00     0.094 A 
ATOM     10  C   UNL     1      -6.427  18.807 -30.606  1.00  0.00     0.134 A 
ATOM     11  C   UNL     1      -5.281  20.950 -30.667  1.00  0.00     0.123 A 
ATOM     12  C   UNL     1      -6.378  20.146 -31.001  1.00  0.00     0.093 A 
BRANCH   3  13
ATOM     13  C   UNL     1      -2.373  17.062 -27.084  1.00  0.00     0.025 A 
ATOM     14  C   UNL     1      -1.778  15.789 -27.108  1.00  0.00     0.016 A 
ATOM     15  C   UNL     1      -0.946  15.379 -26.061  1.00  0.00     0.051 A 
ATOM     16  C   UNL     1      -0.693  16.239 -24.986  1.00  0.00     0.157 A 
ATOM     17  C   UNL     1      -2.063  17.944 -26.038  1.00  0.00     0.062 A 
ATOM     18  C   UNL     1      -1.237  17.533 -24.983  1.00  0.00     0.158 A 
BRANCH  16  19
ATOM     19  O   UNL     1       0.108  15.815 -23.916  1.00  0.00    -0.504 OA
ATOM     20  H   UNL     1       0.928  16.340 -23.628  1.00  0.00     0.293 HD
ENDBRANCH  16  19
BRANCH  18  21
ATOM     21  O   UNL     1      -0.992  18.420 -23.938  1.00  0.00    -0.504 OA
ATOM     22  H   UNL     1      -0.246  18.266 -23.280  1.00  0.00     0.293 HD
ENDBRANCH  18  21
ENDBRANCH   3  13
BRANCH  10  23
ATOM     23  O   UNL     1      -7.520  18.021 -30.991  1.00  0.00    -0.507 OA
ATOM     24  H   UNL     1      -7.601  17.653 -31.925  1.00  0.00     0.293 HD
ENDBRANCH  10  23
BRANCH  11  25
ATOM     25  O   UNL     1      -5.257  22.278 -31.071  1.00  0.00    -0.508 OA
ATOM     26  H   UNL     1      -5.673  23.008 -30.503  1.00  0.00     0.293 HD
ENDBRANCH  11  25
ENDBRANCH   1   2
BRANCH   1  27
ATOM     27  C   UNL     1      -4.759  14.148 -27.566  1.00  0.00     0.339 C 
ATOM     28  C   UNL     1      -3.781  13.591 -28.633  1.00  0.00     0.214 C 
ATOM     29  O   UNL     1      -4.539  13.463 -26.344  1.00  0.00    -0.332 OA
ATOM     30  C   UNL     1      -3.755  12.033 -28.558  1.00  0.00     0.180 C 
ATOM     31  C   UNL     1      -5.190  12.192 -26.387  1.00  0.00     0.179 C 
ATOM     32  C   UNL     1      -4.973  11.450 -27.782  1.00  0.00     0.177 C 
BRANCH  28  33
ATOM     33  O   UNL     1      -4.135  14.022 -29.946  1.00  0.00    -0.384 OA
ATOM     34  H   UNL     1      -3.297  14.136 -30.487  1.00  0.00     0.211 HD
ENDBRANCH  28  33
BRANCH  30  35
ATOM     35  O   UNL     1      -3.691  11.457 -29.847  1.00  0.00    -0.387 OA
ATOM     36  H   UNL     1      -3.802  12.183 -30.525  1.00  0.00     0.211 HD
ENDBRANCH  30  35
BRANCH  31  37
ATOM     37  C   UNL     1      -4.749  11.353 -25.168  1.00  0.00     0.191 C 
BRANCH  37  38
ATOM     38  O   UNL     1      -5.738  10.390 -24.873  1.00  0.00    -0.394 OA
ATOM     39  H   UNL     1      -6.077  10.047 -25.748  1.00  0.00     0.210 HD
ENDBRANCH  37  38
ENDBRANCH  31  37
BRANCH  32  40
ATOM     40  O   UNL     1      -4.806  10.055 -27.638  1.00  0.00    -0.387 OA
ATOM     41  H   UNL     1      -3.948   9.966 -27.144  1.00  0.00     0.211 HD
ENDBRANCH  32  40
ENDBRANCH   1  27
TORSDOF 12
ENDMDL
MODEL 3
REMARK VINA RESULT:    -3.944      1.532      5.485
REMARK INTER + INTRA:          -6.648
REMARK INTER:                  -5.489
REMARK INTRA:                  -1.160
REMARK UNBOUND:                -0.860
REMARK SMILES O=c1c(O[C@@H]2O[C@H](CO)[C@H](O)[C@@H](O)[C@H]2O)c(-c2ccc(O)c(O)c2)oc2cc(O)cc(O)c12
REMARK SMILES IDX 4 1 3 2 16 3 25 4 2 5 26 6 1 7 33 8 27 9 31 10 28 11 30 12
REMARK SMILES IDX 17 13 18 14 19 15 20 16 24 17 22 18 21 19 23 21 32 23 29 25
REMARK SMILES IDX 5 27 14 28 6 29 12 30 7 31 10 32 15 33 13 35 8 37 9 38 11 40
REMARK H PARENT 21 20 23 22 32 24 29 26 15 34 13 36 9 39 11 41
REMARK Flexibility Score: inf
ROOT
ATOM      1  O   UNL     1      -2.893  16.785 -28.102  1.00  0.00    -0.454 OA
ENDROOT
BRANCH   1   2
ATOM      2  C   UNL     1      -4.201  17.137 -28.444  1.00  0.00     0.214 A 
ATOM      3  C   UNL     1      -5.155  16.105 -28.573  1.00  0.00     0.180 A 
ATOM      4  O   UNL     1      -6.234  16.282 -29.329  1.00  0.00    -0.452 OA
ATOM      5  C   UNL     1      -4.484  18.389 -28.992  1.00  0.00     0.239 A 
ATOM      6  C   UNL     1      -6.483  17.436 -29.958  1.00  0.00     0.146 A 
ATOM      7  O   UNL     1      -3.690  19.356 -28.824  1.00  0.00    -0.285 OA
ATOM      8  C   UNL     1      -5.620  18.550 -29.805  1.00  0.00     0.111 A 
ATOM      9  C   UNL     1      -7.563  17.506 -30.829  1.00  0.00     0.094 A 
ATOM     10  C   UNL     1      -5.819  19.696 -30.604  1.00  0.00     0.134 A 
ATOM     11  C   UNL     1      -7.774  18.661 -31.610  1.00  0.00     0.123 A 
ATOM     12  C   UNL     1      -6.888  19.739 -31.503  1.00  0.00     0.093 A 
BRANCH   3  13
ATOM     13  C   UNL     1      -4.901  14.771 -28.000  1.00  0.00     0.025 A 
ATOM     14  C   UNL     1      -4.238  13.783 -28.747  1.00  0.00     0.016 A 
ATOM     15  C   UNL     1      -4.159  12.471 -28.269  1.00  0.00     0.051 A 
ATOM     16  C   UNL     1      -4.731  12.136 -27.037  1.00  0.00     0.157 A 
ATOM     17  C   UNL     1      -5.415  14.445 -26.736  1.00  0.00     0.062 A 
ATOM     18  C   UNL     1      -5.345  13.130 -26.258  1.00  0.00     0.158 A 
BRANCH  16  19
ATOM     19  O   UNL     1      -4.687  10.813 -26.573  1.00  0.00    -0.504 OA
ATOM     20  H   UNL     1      -5.500  10.371 -26.156  1.00  0.00     0.293 HD
ENDBRANCH  16  19
BRANCH  18  21
ATOM     21  O   UNL     1      -5.910  12.835 -25.020  1.00  0.00    -0.504 OA
ATOM     22  H   UNL     1      -5.682  11.989 -24.524  1.00  0.00     0.293 HD
ENDBRANCH  18  21
ENDBRANCH   3  13
BRANCH  10  23
ATOM     23  O   UNL     1      -4.974  20.808 -30.494  1.00  0.00    -0.507 OA
ATOM     24  H   UNL     1      -5.019  21.426 -29.700  1.00  0.00     0.293 HD
ENDBRANCH  10  23
BRANCH  11  25
ATOM     25  O   UNL     1      -8.829  18.727 -32.511  1.00  0.00    -0.508 OA
ATOM     26  H   UNL     1      -8.669  18.910 -33.495  1.00  0.00     0.293 HD
ENDBRANCH  11  25
ENDBRANCH   1   2
BRANCH   1  27
ATOM     27  C   UNL     1      -2.113  17.154 -26.948  1.00  0.00     0.339 C 
ATOM     28  C   UNL     1      -1.304  16.011 -26.280  1.00  0.00     0.214 C 
ATOM     29  O   UNL     1      -1.242  18.246 -27.192  1.00  0.00    -0.332 OA
ATOM     30  C   UNL     1      -0.391  16.600 -25.160  1.00  0.00     0.180 C 
ATOM     31  C   UNL     1      -1.053  18.984 -25.983  1.00  0.00     0.179 C 
ATOM     32  C   UNL     1      -0.825  18.031 -24.725  1.00  0.00     0.177 C 
BRANCH  28  33
ATOM     33  O   UNL     1      -2.161  15.003 -25.747  1.00  0.00    -0.384 OA
ATOM     34  H   UNL     1      -2.222  15.121 -24.752  1.00  0.00     0.211 HD
ENDBRANCH  28  33
BRANCH  30  35
ATOM     35  O   UNL     1      -0.349  15.751 -24.031  1.00  0.00    -0.387 OA
ATOM     36  H   UNL     1      -1.047  15.044 -24.139  1.00  0.00     0.211 HD
ENDBRANCH  30  35
BRANCH  31  37
ATOM     37  C   UNL     1       0.077  20.016 -26.188  1.00  0.00     0.191 C 
BRANCH  37  38
ATOM     38  O   UNL     1      -0.305  20.945 -27.179  1.00  0.00    -0.394 OA
ATOM     39  H   UNL     1      -0.788  20.431 -27.886  1.00  0.00     0.210 HD
ENDBRANCH  37  38
ENDBRANCH  31  37
BRANCH  32  40
ATOM     40  O   UNL     1       0.125  18.547 -23.815  1.00  0.00    -0.387 OA
ATOM     41  H   UNL     1       0.928  18.714 -24.377  1.00  0.00     0.211 HD
ENDBRANCH  32  40
ENDBRANCH   1  27
TORSDOF 12
ENDMDL
MODEL 4
REMARK VINA RESULT:    -3.796      1.671      5.739
REMARK INTER + INTRA:          -6.432
REMARK INTER:                  -5.951
REMARK INTRA:                  -0.482
REMARK UNBOUND:                -0.860
REMARK SMILES O=c1c(O[C@@H]2O[C@H](CO)[C@H](O)[C@@H](O)[C@H]2O)c(-c2ccc(O)c(O)c2)oc2cc(O)cc(O)c12
REMARK SMILES IDX 4 1 3 2 16 3 25 4 2 5 26 6 1 7 33 8 27 9 31 10 28 11 30 12
REMARK SMILES IDX 17 13 18 14 19 15 20 16 24 17 22 18 21 19 23 21 32 23 29 25
REMARK SMILES IDX 5 27 14 28 6 29 12 30 7 31 10 32 15 33 13 35 8 37 9 38 11 40
REMARK H PARENT 21 20 23 22 32 24 29 26 15 34 13 36 9 39 11 41
REMARK Flexibility Score: inf
ROOT
ATOM      1  O   UNL     1      -3.612  15.074 -29.278  1.00  0.00    -0.454 OA
ENDROOT
BRANCH   1   2
ATOM      2  C   UNL     1      -3.360  15.658 -28.034  1.00  0.00     0.214 A 
ATOM      3  C   UNL     1      -3.930  16.921 -27.764  1.00  0.00     0.180 A 
ATOM      4  O   UNL     1      -3.378  17.724 -26.861  1.00  0.00    -0.452 OA
ATOM      5  C   UNL     1      -2.311  15.207 -27.233  1.00  0.00     0.239 A 
ATOM      6  C   UNL     1      -2.302  17.366 -26.149  1.00  0.00     0.146 A 
ATOM      7  O   UNL     1      -1.834  14.049 -27.393  1.00  0.00    -0.285 OA
ATOM      8  C   UNL     1      -1.728  16.079 -26.297  1.00  0.00     0.111 A 
ATOM      9  C   UNL     1      -1.708  18.305 -25.315  1.00  0.00     0.094 A 
ATOM     10  C   UNL     1      -0.504  15.789 -25.655  1.00  0.00     0.134 A 
ATOM     11  C   UNL     1      -0.498  18.005 -24.656  1.00  0.00     0.123 A 
ATOM     12  C   UNL     1       0.102  16.754 -24.847  1.00  0.00     0.093 A 
BRANCH   3  13
ATOM     13  C   UNL     1      -5.047  17.431 -28.579  1.00  0.00     0.025 A 
ATOM     14  C   UNL     1      -6.238  16.695 -28.705  1.00  0.00     0.016 A 
ATOM     15  C   UNL     1      -7.220  17.094 -29.617  1.00  0.00     0.051 A 
ATOM     16  C   UNL     1      -7.028  18.235 -30.403  1.00  0.00     0.157 A 
ATOM     17  C   UNL     1      -4.888  18.610 -29.322  1.00  0.00     0.062 A 
ATOM     18  C   UNL     1      -5.866  19.007 -30.243  1.00  0.00     0.158 A 
BRANCH  16  19
ATOM     19  O   UNL     1      -7.994  18.615 -31.347  1.00  0.00    -0.504 OA
ATOM     20  H   UNL     1      -8.392  19.548 -31.351  1.00  0.00     0.293 HD
ENDBRANCH  16  19
BRANCH  18  21
ATOM     21  O   UNL     1      -5.650  20.158 -30.997  1.00  0.00    -0.504 OA
ATOM     22  H   UNL     1      -5.446  20.112 -31.982  1.00  0.00     0.293 HD
ENDBRANCH  18  21
ENDBRANCH   3  13
BRANCH  10  23
ATOM     23  O   UNL     1       0.103  14.534 -25.793  1.00  0.00    -0.507 OA
ATOM     24  H   UNL     1       0.762  14.348 -26.532  1.00  0.00     0.293 HD
ENDBRANCH  10  23
BRANCH  11  25
ATOM     25  O   UNL     1       0.125  18.948 -23.849  1.00  0.00    -0.508 OA
ATOM     26  H   UNL     1      -0.376  19.410 -23.098  1.00  0.00     0.293 HD
ENDBRANCH  11  25
ENDBRANCH   1   2
BRANCH   1  27
ATOM     27  C   UNL     1      -3.554  13.690 -29.674  1.00  0.00     0.339 C 
ATOM     28  C   UNL     1      -4.474  12.718 -28.890  1.00  0.00     0.214 C 
ATOM     29  O   UNL     1      -3.768  13.500 -31.063  1.00  0.00    -0.332 OA
ATOM     30  C   UNL     1      -4.420  11.302 -29.543  1.00  0.00     0.180 C 
ATOM     31  C   UNL     1      -3.050  12.344 -31.502  1.00  0.00     0.179 C 
ATOM     32  C   UNL     1      -3.192  11.124 -30.485  1.00  0.00     0.177 C 
BRANCH  28  33
ATOM     33  O   UNL     1      -4.110  12.648 -27.513  1.00  0.00    -0.384 OA
ATOM     34  H   UNL     1      -4.636  13.335 -27.003  1.00  0.00     0.211 HD
ENDBRANCH  28  33
BRANCH  30  35
ATOM     35  O   UNL     1      -4.421  10.284 -28.563  1.00  0.00    -0.387 OA
ATOM     36  H   UNL     1      -4.899   9.488 -28.933  1.00  0.00     0.211 HD
ENDBRANCH  30  35
BRANCH  31  37
ATOM     37  C   UNL     1      -3.475  11.998 -32.945  1.00  0.00     0.191 C 
BRANCH  37  38
ATOM     38  O   UNL     1      -4.793  11.492 -32.941  1.00  0.00    -0.394 OA
ATOM     39  H   UNL     1      -4.790  10.673 -33.512  1.00  0.00     0.210 HD
ENDBRANCH  37  38
ENDBRANCH  31  37
BRANCH  32  40
ATOM     40  O   UNL     1      -3.288   9.877 -31.140  1.00  0.00    -0.387 OA
ATOM     41  H   UNL     1      -2.452   9.403 -30.879  1.00  0.00     0.211 HD
ENDBRANCH  32  40
ENDBRANCH   1  27
TORSDOF 12
ENDMDL
MODEL 5
REMARK VINA RESULT:    -3.487      2.155      4.298
REMARK INTER + INTRA:          -5.978
REMARK INTER:                  -5.387
REMARK INTRA:                  -0.591
REMARK UNBOUND:                -0.860
REMARK SMILES O=c1c(O[C@@H]2O[C@H](CO)[C@H](O)[C@@H](O)[C@H]2O)c(-c2ccc(O)c(O)c2)oc2cc(O)cc(O)c12
REMARK SMILES IDX 4 1 3 2 16 3 25 4 2 5 26 6 1 7 33 8 27 9 31 10 28 11 30 12
REMARK SMILES IDX 17 13 18 14 19 15 20 16 24 17 22 18 21 19 23 21 32 23 29 25
REMARK SMILES IDX 5 27 14 28 6 29 12 30 7 31 10 32 15 33 13 35 8 37 9 38 11 40
REMARK H PARENT 21 20 23 22 32 24 29 26 15 34 13 36 9 39 11 41
REMARK Flexibility Score: inf
ROOT
ATOM      1  O   UNL     1      -2.749  15.428 -27.599  1.00  0.00    -0.454 OA
ENDROOT
BRANCH   1   2
ATOM      2  C   UNL     1      -3.938  16.135 -27.803  1.00  0.00     0.214 A 
ATOM      3  C   UNL     1      -5.157  15.432 -27.691  1.00  0.00     0.180 A 
ATOM      4  O   UNL     1      -6.243  15.875 -28.314  1.00  0.00    -0.452 OA
ATOM      5  C   UNL     1      -3.931  17.375 -28.443  1.00  0.00     0.239 A 
ATOM      6  C   UNL     1      -6.246  17.007 -29.028  1.00  0.00     0.146 A 
ATOM      7  O   UNL     1      -2.876  18.067 -28.488  1.00  0.00    -0.285 OA
ATOM      8  C   UNL     1      -5.086  17.816 -29.112  1.00  0.00     0.111 A 
ATOM      9  C   UNL     1      -7.384  17.341 -29.752  1.00  0.00     0.094 A 
ATOM     10  C   UNL     1      -5.070  18.914 -30.000  1.00  0.00     0.134 A 
ATOM     11  C   UNL     1      -7.374  18.452 -30.620  1.00  0.00     0.123 A 
ATOM     12  C   UNL     1      -6.209  19.218 -30.750  1.00  0.00     0.093 A 
BRANCH   3  13
ATOM     13  C   UNL     1      -5.210  14.124 -27.014  1.00  0.00     0.025 A 
ATOM     14  C   UNL     1      -5.242  14.043 -25.611  1.00  0.00     0.016 A 
ATOM     15  C   UNL     1      -5.113  12.806 -24.973  1.00  0.00     0.051 A 
ATOM     16  C   UNL     1      -4.961  11.638 -25.728  1.00  0.00     0.157 A 
ATOM     17  C   UNL     1      -5.125  12.944 -27.767  1.00  0.00     0.062 A 
ATOM     18  C   UNL     1      -4.986  11.703 -27.131  1.00  0.00     0.158 A 
BRANCH  16  19
ATOM     19  O   UNL     1      -4.792  10.400 -25.090  1.00  0.00    -0.504 OA
ATOM     20  H   UNL     1      -5.461   9.646 -25.210  1.00  0.00     0.293 HD
ENDBRANCH  16  19
BRANCH  18  21
ATOM     21  O   UNL     1      -4.855  10.559 -27.913  1.00  0.00    -0.504 OA
ATOM     22  H   UNL     1      -5.600  10.240 -28.510  1.00  0.00     0.293 HD
ENDBRANCH  18  21
ENDBRANCH   3  13
BRANCH  10  23
ATOM     23  O   UNL     1      -3.935  19.725 -30.125  1.00  0.00    -0.507 OA
ATOM     24  H   UNL     1      -3.008  19.332 -30.160  1.00  0.00     0.293 HD
ENDBRANCH  10  23
BRANCH  11  25
ATOM     25  O   UNL     1      -8.494  18.774 -31.376  1.00  0.00    -0.508 OA
ATOM     26  H   UNL     1      -9.278  18.136 -31.452  1.00  0.00     0.293 HD
ENDBRANCH  11  25
ENDBRANCH   1   2
BRANCH   1  27
ATOM     27  C   UNL     1      -2.176  14.352 -28.366  1.00  0.00     0.339 C 
ATOM     28  C   UNL     1      -1.533  13.201 -27.549  1.00  0.00     0.214 C 
ATOM     29  O   UNL     1      -3.082  13.793 -29.303  1.00  0.00    -0.332 OA
ATOM     30  C   UNL     1      -1.113  12.046 -28.509  1.00  0.00     0.180 C 
ATOM     31  C   UNL     1      -2.356  13.296 -30.430  1.00  0.00     0.179 C 
ATOM     32  C   UNL     1      -1.044  12.500 -29.998  1.00  0.00     0.177 C 
BRANCH  28  33
ATOM     33  O   UNL     1      -0.412  13.656 -26.794  1.00  0.00    -0.384 OA
ATOM     34  H   UNL     1      -0.692  13.780 -25.838  1.00  0.00     0.211 HD
ENDBRANCH  28  33
BRANCH  30  35
ATOM     35  O   UNL     1       0.125  11.482 -28.125  1.00  0.00    -0.387 OA
ATOM     36  H   UNL     1       0.723  12.216 -27.806  1.00  0.00     0.211 HD
ENDBRANCH  30  35
BRANCH  31  37
ATOM     37  C   UNL     1      -3.307  12.476 -31.328  1.00  0.00     0.191 C 
BRANCH  37  38
ATOM     38  O   UNL     1      -3.743  11.329 -30.632  1.00  0.00    -0.394 OA
ATOM     39  H   UNL     1      -3.399  11.409 -29.698  1.00  0.00     0.210 HD
ENDBRANCH  37  38
ENDBRANCH  31  37
BRANCH  32  40
ATOM     40  O   UNL     1      -0.795  11.375 -30.814  1.00  0.00    -0.387 OA
ATOM     41  H   UNL     1      -0.910  10.602 -30.199  1.00  0.00     0.211 HD
ENDBRANCH  32  40
ENDBRANCH   1  27
TORSDOF 12
ENDMDL
MODEL 6
REMARK VINA RESULT:    -3.480      2.947      5.227
REMARK INTER + INTRA:          -5.968
REMARK INTER:                  -4.645
REMARK INTRA:                  -1.323
REMARK UNBOUND:                -0.860
REMARK SMILES O=c1c(O[C@@H]2O[C@H](CO)[C@H](O)[C@@H](O)[C@H]2O)c(-c2ccc(O)c(O)c2)oc2cc(O)cc(O)c12
REMARK SMILES IDX 4 1 3 2 16 3 25 4 2 5 26 6 1 7 33 8 27 9 31 10 28 11 30 12
REMARK SMILES IDX 17 13 18 14 19 15 20 16 24 17 22 18 21 19 23 21 32 23 29 25
REMARK SMILES IDX 5 27 14 28 6 29 12 30 7 31 10 32 15 33 13 35 8 37 9 38 11 40
REMARK H PARENT 21 20 23 22 32 24 29 26 15 34 13 36 9 39 11 41
REMARK Flexibility Score: inf
ROOT
ATOM      1  O   UNL     1      -2.440  14.037 -26.361  1.00  0.00    -0.454 OA
ENDROOT
BRANCH   1   2
ATOM      2  C   UNL     1      -2.478  15.411 -26.611  1.00  0.00     0.214 A 
ATOM      3  C   UNL     1      -2.566  15.842 -27.952  1.00  0.00     0.180 A 
ATOM      4  O   UNL     1      -2.137  17.051 -28.296  1.00  0.00    -0.452 OA
ATOM      5  C   UNL     1      -2.081  16.326 -25.635  1.00  0.00     0.239 A 
ATOM      6  C   UNL     1      -1.648  17.917 -27.400  1.00  0.00     0.146 A 
ATOM      7  O   UNL     1      -2.071  15.998 -24.415  1.00  0.00    -0.285 OA
ATOM      8  C   UNL     1      -1.612  17.594 -26.021  1.00  0.00     0.111 A 
ATOM      9  C   UNL     1      -1.105  19.113 -27.851  1.00  0.00     0.094 A 
ATOM     10  C   UNL     1      -0.946  18.458 -25.124  1.00  0.00     0.134 A 
ATOM     11  C   UNL     1      -0.461  19.986 -26.951  1.00  0.00     0.123 A 
ATOM     12  C   UNL     1      -0.371  19.640 -25.597  1.00  0.00     0.093 A 
BRANCH   3  13
ATOM     13  C   UNL     1      -2.992  14.911 -29.013  1.00  0.00     0.025 A 
ATOM     14  C   UNL     1      -4.298  14.959 -29.530  1.00  0.00     0.016 A 
ATOM     15  C   UNL     1      -4.748  13.965 -30.403  1.00  0.00     0.051 A 
ATOM     16  C   UNL     1      -3.897  12.919 -30.776  1.00  0.00     0.157 A 
ATOM     17  C   UNL     1      -2.122  13.897 -29.442  1.00  0.00     0.062 A 
ATOM     18  C   UNL     1      -2.573  12.894 -30.310  1.00  0.00     0.158 A 
BRANCH  16  19
ATOM     19  O   UNL     1      -4.359  11.898 -31.621  1.00  0.00    -0.504 OA
ATOM     20  H   UNL     1      -4.758  11.042 -31.248  1.00  0.00     0.293 HD
ENDBRANCH  16  19
BRANCH  18  21
ATOM     21  O   UNL     1      -1.694  11.878 -30.675  1.00  0.00    -0.504 OA
ATOM     22  H   UNL     1      -1.705  10.981 -30.217  1.00  0.00     0.293 HD
ENDBRANCH  18  21
ENDBRANCH   3  13
BRANCH  10  23
ATOM     23  O   UNL     1      -0.872  18.161 -23.757  1.00  0.00    -0.507 OA
ATOM     24  H   UNL     1      -1.093  18.851 -23.057  1.00  0.00     0.293 HD
ENDBRANCH  10  23
BRANCH  11  25
ATOM     25  O   UNL     1       0.119  21.167 -27.396  1.00  0.00    -0.508 OA
ATOM     26  H   UNL     1       1.048  21.442 -27.096  1.00  0.00     0.293 HD
ENDBRANCH  11  25
ENDBRANCH   1   2
BRANCH   1  27
ATOM     27  C   UNL     1      -3.523  13.105 -26.175  1.00  0.00     0.339 C 
ATOM     28  C   UNL     1      -4.939  13.724 -26.049  1.00  0.00     0.214 C 
ATOM     29  O   UNL     1      -3.557  12.088 -27.162  1.00  0.00    -0.332 OA
ATOM     30  C   UNL     1      -6.008  12.589 -26.021  1.00  0.00     0.180 C 
ATOM     31  C   UNL     1      -4.111  10.897 -26.600  1.00  0.00     0.179 C 
ATOM     32  C   UNL     1      -5.392  11.195 -25.699  1.00  0.00     0.177 C 
BRANCH  28  33
ATOM     33  O   UNL     1      -5.052  14.545 -24.888  1.00  0.00    -0.384 OA
ATOM     34  H   UNL     1      -5.919  14.336 -24.425  1.00  0.00     0.211 HD
ENDBRANCH  28  33
BRANCH  30  35
ATOM     35  O   UNL     1      -7.042  12.877 -25.101  1.00  0.00    -0.387 OA
ATOM     36  H   UNL     1      -6.696  13.532 -24.430  1.00  0.00     0.211 HD
ENDBRANCH  30  35
BRANCH  31  37
ATOM     37  C   UNL     1      -4.373   9.875 -27.727  1.00  0.00     0.191 C 
BRANCH  37  38
ATOM     38  O   UNL     1      -5.190  10.462 -28.717  1.00  0.00    -0.394 OA
ATOM     39  H   UNL     1      -6.134  10.227 -28.490  1.00  0.00     0.210 HD
ENDBRANCH  37  38
ENDBRANCH  31  37
BRANCH  32  40
ATOM     40  O   UNL     1      -6.392  10.205 -25.828  1.00  0.00    -0.387 OA
ATOM     41  H   UNL     1      -7.053  10.612 -26.450  1.00  0.00     0.211 HD
ENDBRANCH  32  40
ENDBRANCH   1  27
TORSDOF 12
ENDMDL
MODEL 7
REMARK VINA RESULT:    -3.198      1.464      4.730
REMARK INTER + INTRA:          -5.554
REMARK INTER:                  -4.364
REMARK INTRA:                  -1.191
REMARK UNBOUND:                -0.860
REMARK SMILES O=c1c(O[C@@H]2O[C@H](CO)[C@H](O)[C@@H](O)[C@H]2O)c(-c2ccc(O)c(O)c2)oc2cc(O)cc(O)c12
REMARK SMILES IDX 4 1 3 2 16 3 25 4 2 5 26 6 1 7 33 8 27 9 31 10 28 11 30 12
REMARK SMILES IDX 17 13 18 14 19 15 20 16 24 17 22 18 21 19 23 21 32 23 29 25
REMARK SMILES IDX 5 27 14 28 6 29 12 30 7 31 10 32 15 33 13 35 8 37 9 38 11 40
REMARK H PARENT 21 20 23 22 32 24 29 26 15 34 13 36 9 39 11 41
REMARK Flexibility Score: inf
ROOT
ATOM      1  O   UNL     1      -2.796  17.098 -28.564  1.00  0.00    -0.454 OA
ENDROOT
BRANCH   1   2
ATOM      2  C   UNL     1      -4.137  17.439 -28.758  1.00  0.00     0.214 A 
ATOM      3  C   UNL     1      -5.091  16.400 -28.781  1.00  0.00     0.180 A 
ATOM      4  O   UNL     1      -6.248  16.568 -29.413  1.00  0.00    -0.452 OA
ATOM      5  C   UNL     1      -4.489  18.689 -29.270  1.00  0.00     0.239 A 
ATOM      6  C   UNL     1      -6.575  17.721 -30.010  1.00  0.00     0.146 A 
ATOM      7  O   UNL     1      -3.689  19.663 -29.191  1.00  0.00    -0.285 OA
ATOM      8  C   UNL     1      -5.709  18.841 -29.952  1.00  0.00     0.111 A 
ATOM      9  C   UNL     1      -7.746  17.782 -30.755  1.00  0.00     0.094 A 
ATOM     10  C   UNL     1      -6.005  19.986 -30.724  1.00  0.00     0.134 A 
ATOM     11  C   UNL     1      -8.051  18.935 -31.507  1.00  0.00     0.123 A 
ATOM     12  C   UNL     1      -7.167  20.020 -31.498  1.00  0.00     0.093 A 
BRANCH   3  13
ATOM     13  C   UNL     1      -4.765  15.069 -28.241  1.00  0.00     0.025 A 
ATOM     14  C   UNL     1      -4.175  14.087 -29.056  1.00  0.00     0.016 A 
ATOM     15  C   UNL     1      -4.033  12.776 -28.591  1.00  0.00     0.051 A 
ATOM     16  C   UNL     1      -4.468  12.435 -27.306  1.00  0.00     0.157 A 
ATOM     17  C   UNL     1      -5.139  14.737 -26.930  1.00  0.00     0.062 A 
ATOM     18  C   UNL     1      -5.005  13.422 -26.464  1.00  0.00     0.158 A 
BRANCH  16  19
ATOM     19  O   UNL     1      -4.362  11.112 -26.852  1.00  0.00    -0.504 OA
ATOM     20  H   UNL     1      -3.891  10.887 -25.982  1.00  0.00     0.293 HD
ENDBRANCH  16  19
BRANCH  18  21
ATOM     21  O   UNL     1      -5.432  13.121 -25.174  1.00  0.00    -0.504 OA
ATOM     22  H   UNL     1      -4.780  12.878 -24.446  1.00  0.00     0.293 HD
ENDBRANCH  18  21
ENDBRANCH   3  13
BRANCH  10  23
ATOM     23  O   UNL     1      -5.162  21.105 -30.708  1.00  0.00    -0.507 OA
ATOM     24  H   UNL     1      -4.337  21.150 -31.284  1.00  0.00     0.293 HD
ENDBRANCH  10  23
BRANCH  11  25
ATOM     25  O   UNL     1      -9.200  18.993 -32.285  1.00  0.00    -0.508 OA
ATOM     26  H   UNL     1      -9.710  18.153 -32.533  1.00  0.00     0.293 HD
ENDBRANCH  11  25
ENDBRANCH   1   2
BRANCH   1  27
ATOM     27  C   UNL     1      -2.071  16.878 -27.338  1.00  0.00     0.339 C 
ATOM     28  C   UNL     1      -2.706  17.475 -26.056  1.00  0.00     0.214 C 
ATOM     29  O   UNL     1      -1.775  15.510 -27.106  1.00  0.00    -0.332 OA
ATOM     30  C   UNL     1      -1.897  17.011 -24.804  1.00  0.00     0.180 C 
ATOM     31  C   UNL     1      -0.559  15.406 -26.363  1.00  0.00     0.179 C 
ATOM     32  C   UNL     1      -0.486  16.465 -25.173  1.00  0.00     0.177 C 
BRANCH  28  33
ATOM     33  O   UNL     1      -2.764  18.899 -26.113  1.00  0.00    -0.384 OA
ATOM     34  H   UNL     1      -2.431  19.202 -27.011  1.00  0.00     0.211 HD
ENDBRANCH  28  33
BRANCH  30  35
ATOM     35  O   UNL     1      -1.773  18.053 -23.857  1.00  0.00    -0.387 OA
ATOM     36  H   UNL     1      -1.633  17.646 -22.955  1.00  0.00     0.211 HD
ENDBRANCH  30  35
BRANCH  31  37
ATOM     37  C   UNL     1      -0.367  13.945 -25.901  1.00  0.00     0.191 C 
BRANCH  37  38
ATOM     38  O   UNL     1      -0.233  13.106 -27.028  1.00  0.00    -0.394 OA
ATOM     39  H   UNL     1      -1.113  12.652 -27.157  1.00  0.00     0.210 HD
ENDBRANCH  37  38
ENDBRANCH  31  37
BRANCH  32  40
ATOM     40  O   UNL     1       0.125  15.940 -24.012  1.00  0.00    -0.387 OA
ATOM     41  H   UNL     1      -0.563  16.060 -23.304  1.00  0.00     0.211 HD
ENDBRANCH  32  40
ENDBRANCH   1  27
TORSDOF 12
ENDMDL
MODEL 8
REMARK VINA RESULT:    -3.104      3.188      5.722
REMARK INTER + INTRA:          -5.417
REMARK INTER:                  -4.322
REMARK INTRA:                  -1.095
REMARK UNBOUND:                -0.860
REMARK SMILES O=c1c(O[C@@H]2O[C@H](CO)[C@H](O)[C@@H](O)[C@H]2O)c(-c2ccc(O)c(O)c2)oc2cc(O)cc(O)c12
REMARK SMILES IDX 4 1 3 2 16 3 25 4 2 5 26 6 1 7 33 8 27 9 31 10 28 11 30 12
REMARK SMILES IDX 17 13 18 14 19 15 20 16 24 17 22 18 21 19 23 21 32 23 29 25
REMARK SMILES IDX 5 27 14 28 6 29 12 30 7 31 10 32 15 33 13 35 8 37 9 38 11 40
REMARK H PARENT 21 20 23 22 32 24 29 26 15 34 13 36 9 39 11 41
REMARK Flexibility Score: inf
ROOT
ATOM      1  O   UNL     1      -4.173  14.423 -28.144  1.00  0.00    -0.454 OA
ENDROOT
BRANCH   1   2
ATOM      2  C   UNL     1      -3.201  14.833 -27.227  1.00  0.00     0.214 A 
ATOM      3  C   UNL     1      -3.305  14.371 -25.898  1.00  0.00     0.180 A 
ATOM      4  O   UNL     1      -2.748  15.058 -24.906  1.00  0.00    -0.452 OA
ATOM      5  C   UNL     1      -2.379  15.927 -27.499  1.00  0.00     0.239 A 
ATOM      6  C   UNL     1      -2.042  16.175 -25.120  1.00  0.00     0.146 A 
ATOM      7  O   UNL     1      -2.199  16.314 -28.687  1.00  0.00    -0.285 OA
ATOM      8  C   UNL     1      -1.815  16.652 -26.435  1.00  0.00     0.111 A 
ATOM      9  C   UNL     1      -1.596  16.906 -24.025  1.00  0.00     0.094 A 
ATOM     10  C   UNL     1      -1.208  17.914 -26.619  1.00  0.00     0.134 A 
ATOM     11  C   UNL     1      -0.968  18.155 -24.212  1.00  0.00     0.123 A 
ATOM     12  C   UNL     1      -0.797  18.656 -25.509  1.00  0.00     0.093 A 
BRANCH   3  13
ATOM     13  C   UNL     1      -4.153  13.212 -25.569  1.00  0.00     0.025 A 
ATOM     14  C   UNL     1      -3.632  11.907 -25.607  1.00  0.00     0.016 A 
ATOM     15  C   UNL     1      -4.481  10.804 -25.470  1.00  0.00     0.051 A 
ATOM     16  C   UNL     1      -5.855  10.994 -25.283  1.00  0.00     0.157 A 
ATOM     17  C   UNL     1      -5.520  13.397 -25.316  1.00  0.00     0.062 A 
ATOM     18  C   UNL     1      -6.375  12.294 -25.187  1.00  0.00     0.158 A 
BRANCH  16  19
ATOM     19  O   UNL     1      -6.714   9.889 -25.185  1.00  0.00    -0.504 OA
ATOM     20  H   UNL     1      -6.943   9.475 -24.288  1.00  0.00     0.293 HD
ENDBRANCH  16  19
BRANCH  18  21
ATOM     21  O   UNL     1      -7.734  12.519 -24.985  1.00  0.00    -0.504 OA
ATOM     22  H   UNL     1      -8.298  11.885 -24.443  1.00  0.00     0.293 HD
ENDBRANCH  18  21
ENDBRANCH   3  13
BRANCH  10  23
ATOM     23  O   UNL     1      -0.985  18.427 -27.903  1.00  0.00    -0.507 OA
ATOM     24  H   UNL     1      -0.059  18.484 -28.293  1.00  0.00     0.293 HD
ENDBRANCH  10  23
BRANCH  11  25
ATOM     25  O   UNL     1      -0.552  18.911 -23.125  1.00  0.00    -0.508 OA
ATOM     26  H   UNL     1      -0.625  19.923 -23.129  1.00  0.00     0.293 HD
ENDBRANCH  11  25
ENDBRANCH   1   2
BRANCH   1  27
ATOM     27  C   UNL     1      -4.159  13.316 -29.066  1.00  0.00     0.339 C 
ATOM     28  C   UNL     1      -3.791  13.657 -30.534  1.00  0.00     0.214 C 
ATOM     29  O   UNL     1      -3.344  12.240 -28.631  1.00  0.00    -0.332 OA
ATOM     30  C   UNL     1      -3.657  12.342 -31.361  1.00  0.00     0.180 C 
ATOM     31  C   UNL     1      -3.873  11.010 -29.130  1.00  0.00     0.179 C 
ATOM     32  C   UNL     1      -4.321  11.121 -30.657  1.00  0.00     0.177 C 
BRANCH  28  33
ATOM     33  O   UNL     1      -4.754  14.526 -31.128  1.00  0.00    -0.384 OA
ATOM     34  H   UNL     1      -5.497  13.971 -31.514  1.00  0.00     0.211 HD
ENDBRANCH  28  33
BRANCH  30  35
ATOM     35  O   UNL     1      -4.195  12.493 -32.659  1.00  0.00    -0.387 OA
ATOM     36  H   UNL     1      -3.439  12.566 -33.310  1.00  0.00     0.211 HD
ENDBRANCH  30  35
BRANCH  31  37
ATOM     37  C   UNL     1      -2.860   9.875 -28.866  1.00  0.00     0.191 C 
BRANCH  37  38
ATOM     38  O   UNL     1      -1.765  10.379 -28.132  1.00  0.00    -0.394 OA
ATOM     39  H   UNL     1      -2.076  11.218 -27.688  1.00  0.00     0.210 HD
ENDBRANCH  37  38
ENDBRANCH  31  37
BRANCH  32  40
ATOM     40  O   UNL     1      -4.039   9.951 -31.395  1.00  0.00    -0.387 OA
ATOM     41  H   UNL     1      -4.599   9.252 -30.960  1.00  0.00     0.211 HD
ENDBRANCH  32  40
ENDBRANCH   1  27
TORSDOF 12
ENDMDL
