MODEL 1
REMARK VINA RESULT:    -3.316      0.000      0.000
REMARK INTER + INTRA:         -10.534
REMARK INTER:                  -7.193
REMARK INTRA:                  -3.341
REMARK UNBOUND:                -3.341
REMARK SMILES CCCCCCCCCCCCCCCCCCCCCC(=O)[O-]
REMARK SMILES IDX 12 1 11 2 10 3 9 4 8 5 7 6 6 7 5 8 4 9 3 10 2 11 1 12 13 13
REMARK SMILES IDX 14 14 15 15 16 16 17 17 18 18 19 19 20 20 21 21 22 22 23 23
REMARK SMILES IDX 24 24
REMARK H PARENT
REMARK Flexibility Score: inf
ROOT
ATOM      1  C   UNL     1      55.769  25.576  51.664  1.00  0.00     0.000 C 
ENDROOT
BRANCH   1   2
ATOM      2  C   UNL     1      55.312  25.354  50.212  1.00  0.00     0.000 C 
BRANCH   2   3
ATOM      3  C   UNL     1      53.832  25.686  49.933  1.00  0.00     0.000 C 
BRANCH   3   4
ATOM      4  C   UNL     1      53.231  26.788  50.823  1.00  0.00    -0.000 C 
BRANCH   4   5
ATOM      5  C   UNL     1      53.227  28.167  50.146  1.00  0.00    -0.000 C 
BRANCH   5   6
ATOM      6  C   UNL     1      54.271  29.096  50.782  1.00  0.00    -0.000 C 
BRANCH   6   7
ATOM      7  C   UNL     1      53.657  30.115  51.760  1.00  0.00    -0.000 C 
BRANCH   7   8
ATOM      8  C   UNL     1      54.359  30.218  53.126  1.00  0.00    -0.000 C 
BRANCH   8   9
ATOM      9  C   UNL     1      55.831  29.775  53.079  1.00  0.00    -0.000 C 
BRANCH   9  10
ATOM     10  C   UNL     1      56.795  30.849  53.616  1.00  0.00    -0.000 C 
BRANCH  10  11
ATOM     11  C   UNL     1      58.274  30.646  53.237  1.00  0.00    -0.003 C 
ATOM     12  C   UNL     1      58.840  29.316  53.733  1.00  0.00     0.004 C 
ENDBRANCH  10  11
ENDBRANCH   9  10
ENDBRANCH   8   9
ENDBRANCH   7   8
ENDBRANCH   6   7
ENDBRANCH   5   6
ENDBRANCH   4   5
ENDBRANCH   3   4
ENDBRANCH   2   3
ENDBRANCH   1   2
BRANCH   1  13
ATOM     13  C   UNL     1      56.972  26.523  51.775  1.00  0.00     0.000 C 
BRANCH  13  14
ATOM     14  C   UNL     1      57.461  26.950  50.383  1.00  0.00     0.000 C 
BRANCH  14  15
ATOM     15  C   UNL     1      57.673  28.468  50.271  1.00  0.00     0.000 C 
BRANCH  15  16
ATOM     16  C   UNL     1      59.089  28.834  49.786  1.00  0.00     0.000 C 
BRANCH  16  17
ATOM     17  C   UNL     1      59.926  27.600  49.406  1.00  0.00     0.000 C 
BRANCH  17  18
ATOM     18  C   UNL     1      61.109  27.316  50.351  1.00  0.00     0.000 C 
BRANCH  18  19
ATOM     19  C   UNL     1      60.981  25.960  51.068  1.00  0.00     0.000 C 
BRANCH  19  20
ATOM     20  C   UNL     1      60.479  24.843  50.138  1.00  0.00     0.006 C 
BRANCH  20  21
ATOM     21  C   UNL     1      59.591  23.820  50.859  1.00  0.00     0.053 C 
BRANCH  21  22
ATOM     22  C   UNL     1      60.301  22.509  50.991  1.00  0.00     0.041 C 
ATOM     23  O   UNL     1      60.357  21.718  50.012  1.00  0.00    -0.550 OA
ATOM     24  O   UNL     1      60.877  22.148  52.203  1.00  0.00    -0.550 OA
ENDBRANCH  21  22
ENDBRANCH  20  21
ENDBRANCH  19  20
ENDBRANCH  18  19
ENDBRANCH  17  18
ENDBRANCH  16  17
ENDBRANCH  15  16
ENDBRANCH  14  15
ENDBRANCH  13  14
ENDBRANCH   1  13
TORSDOF 20
ENDMDL
MODEL 2
REMARK VINA RESULT:    -3.197      2.840      6.905
REMARK INTER + INTRA:         -10.275
REMARK INTER:                  -6.761
REMARK INTRA:                  -3.514
REMARK UNBOUND:                -3.341
REMARK SMILES CCCCCCCCCCCCCCCCCCCCCC(=O)[O-]
REMARK SMILES IDX 12 1 11 2 10 3 9 4 8 5 7 6 6 7 5 8 4 9 3 10 2 11 1 12 13 13
REMARK SMILES IDX 14 14 15 15 16 16 17 17 18 18 19 19 20 20 21 21 22 22 23 23
REMARK SMILES IDX 24 24
REMARK H PARENT
REMARK Flexibility Score: inf
ROOT
ATOM      1  C   UNL     1      59.702  26.610  50.513  1.00  0.00     0.000 C 
ENDROOT
BRANCH   1   2
ATOM      2  C   UNL     1      59.243  25.167  50.245  1.00  0.00     0.000 C 
BRANCH   2   3
ATOM      3  C   UNL     1      58.736  24.401  51.484  1.00  0.00     0.000 C 
BRANCH   3   4
ATOM      4  C   UNL     1      59.450  23.067  51.765  1.00  0.00    -0.000 C 
BRANCH   4   5
ATOM      5  C   UNL     1      60.357  22.619  50.608  1.00  0.00    -0.000 C 
BRANCH   5   6
ATOM      6  C   UNL     1      61.764  22.270  51.116  1.00  0.00    -0.000 C 
BRANCH   6   7
ATOM      7  C   UNL     1      62.562  23.503  51.579  1.00  0.00    -0.000 C 
BRANCH   7   8
ATOM      8  C   UNL     1      62.910  24.513  50.471  1.00  0.00    -0.000 C 
BRANCH   8   9
ATOM      9  C   UNL     1      63.916  25.582  50.930  1.00  0.00    -0.000 C 
BRANCH   9  10
ATOM     10  C   UNL     1      63.395  27.017  50.728  1.00  0.00    -0.000 C 
BRANCH  10  11
ATOM     11  C   UNL     1      63.017  27.376  49.279  1.00  0.00    -0.003 C 
ATOM     12  C   UNL     1      64.231  27.516  48.361  1.00  0.00     0.004 C 
ENDBRANCH  10  11
ENDBRANCH   9  10
ENDBRANCH   8   9
ENDBRANCH   7   8
ENDBRANCH   6   7
ENDBRANCH   5   6
ENDBRANCH   4   5
ENDBRANCH   3   4
ENDBRANCH   2   3
ENDBRANCH   1   2
BRANCH   1  13
ATOM     13  C   UNL     1      59.305  27.582  49.393  1.00  0.00     0.000 C 
BRANCH  13  14
ATOM     14  C   UNL     1      59.151  29.009  49.937  1.00  0.00     0.000 C 
BRANCH  14  15
ATOM     15  C   UNL     1      59.668  29.152  51.378  1.00  0.00     0.000 C 
BRANCH  15  16
ATOM     16  C   UNL     1      58.561  29.566  52.366  1.00  0.00     0.000 C 
BRANCH  16  17
ATOM     17  C   UNL     1      58.120  28.413  53.286  1.00  0.00     0.000 C 
BRANCH  17  18
ATOM     18  C   UNL     1      56.898  27.625  52.780  1.00  0.00     0.000 C 
BRANCH  18  19
ATOM     19  C   UNL     1      55.934  28.495  51.953  1.00  0.00     0.000 C 
BRANCH  19  20
ATOM     20  C   UNL     1      55.723  27.956  50.529  1.00  0.00     0.006 C 
BRANCH  20  21
ATOM     21  C   UNL     1      55.702  26.423  50.468  1.00  0.00     0.053 C 
BRANCH  21  22
ATOM     22  C   UNL     1      54.316  25.927  50.196  1.00  0.00     0.041 C 
ATOM     23  O   UNL     1      53.340  26.387  50.845  1.00  0.00    -0.550 OA
ATOM     24  O   UNL     1      54.105  24.937  49.244  1.00  0.00    -0.550 OA
ENDBRANCH  21  22
ENDBRANCH  20  21
ENDBRANCH  19  20
ENDBRANCH  18  19
ENDBRANCH  17  18
ENDBRANCH  16  17
ENDBRANCH  15  16
ENDBRANCH  14  15
ENDBRANCH  13  14
ENDBRANCH   1  13
TORSDOF 20
ENDMDL
MODEL 3
REMARK VINA RESULT:    -3.166     10.057     12.502
REMARK INTER + INTRA:         -10.209
REMARK INTER:                  -7.165
REMARK INTRA:                  -3.044
REMARK UNBOUND:                -3.341
REMARK SMILES CCCCCCCCCCCCCCCCCCCCCC(=O)[O-]
REMARK SMILES IDX 12 1 11 2 10 3 9 4 8 5 7 6 6 7 5 8 4 9 3 10 2 11 1 12 13 13
REMARK SMILES IDX 14 14 15 15 16 16 17 17 18 18 19 19 20 20 21 21 22 22 23 23
REMARK SMILES IDX 24 24
REMARK H PARENT
REMARK Flexibility Score: inf
ROOT
ATOM      1  C   UNL     1      60.131  33.498  60.565  1.00  0.00     0.000 C 
ENDROOT
BRANCH   1   2
ATOM      2  C   UNL     1      60.725  34.904  60.377  1.00  0.00     0.000 C 
BRANCH   2   3
ATOM      3  C   UNL     1      62.228  34.940  60.032  1.00  0.00     0.000 C 
BRANCH   3   4
ATOM      4  C   UNL     1      63.174  35.009  61.243  1.00  0.00    -0.000 C 
BRANCH   4   5
ATOM      5  C   UNL     1      64.499  34.266  61.012  1.00  0.00    -0.000 C 
BRANCH   5   6
ATOM      6  C   UNL     1      64.257  32.765  60.796  1.00  0.00    -0.000 C 
BRANCH   6   7
ATOM      7  C   UNL     1      64.698  32.277  59.404  1.00  0.00    -0.000 C 
BRANCH   7   8
ATOM      8  C   UNL     1      64.927  30.760  59.282  1.00  0.00    -0.000 C 
BRANCH   8   9
ATOM      9  C   UNL     1      65.380  30.114  60.602  1.00  0.00    -0.000 C 
BRANCH   9  10
ATOM     10  C   UNL     1      65.902  28.677  60.416  1.00  0.00    -0.000 C 
BRANCH  10  11
ATOM     11  C   UNL     1      66.269  28.299  58.969  1.00  0.00    -0.003 C 
ATOM     12  C   UNL     1      65.395  27.181  58.403  1.00  0.00     0.004 C 
ENDBRANCH  10  11
ENDBRANCH   9  10
ENDBRANCH   8   9
ENDBRANCH   7   8
ENDBRANCH   6   7
ENDBRANCH   5   6
ENDBRANCH   4   5
ENDBRANCH   3   4
ENDBRANCH   2   3
ENDBRANCH   1   2
BRANCH   1  13
ATOM     13  C   UNL     1      60.371  32.581  59.357  1.00  0.00     0.000 C 
BRANCH  13  14
ATOM     14  C   UNL     1      61.033  31.266  59.793  1.00  0.00     0.000 C 
BRANCH  14  15
ATOM     15  C   UNL     1      61.154  31.142  61.321  1.00  0.00     0.000 C 
BRANCH  15  16
ATOM     16  C   UNL     1      61.852  29.840  61.756  1.00  0.00     0.000 C 
BRANCH  16  17
ATOM     17  C   UNL     1      61.998  28.828  60.605  1.00  0.00     0.000 C 
BRANCH  17  18
ATOM     18  C   UNL     1      62.547  27.453  61.030  1.00  0.00     0.000 C 
BRANCH  18  19
ATOM     19  C   UNL     1      61.472  26.564  61.681  1.00  0.00     0.000 C 
BRANCH  19  20
ATOM     20  C   UNL     1      60.134  26.600  60.924  1.00  0.00     0.006 C 
BRANCH  20  21
ATOM     21  C   UNL     1      58.947  26.155  61.788  1.00  0.00     0.053 C 
BRANCH  21  22
ATOM     22  C   UNL     1      57.711  26.911  61.413  1.00  0.00     0.041 C 
ATOM     23  O   UNL     1      57.573  27.357  60.244  1.00  0.00    -0.550 OA
ATOM     24  O   UNL     1      56.724  27.146  62.362  1.00  0.00    -0.550 OA
ENDBRANCH  21  22
ENDBRANCH  20  21
ENDBRANCH  19  20
ENDBRANCH  18  19
ENDBRANCH  17  18
ENDBRANCH  16  17
ENDBRANCH  15  16
ENDBRANCH  14  15
ENDBRANCH  13  14
ENDBRANCH   1  13
TORSDOF 20
ENDMDL
MODEL 4
REMARK VINA RESULT:    -3.132     11.717     13.771
REMARK INTER + INTRA:         -10.135
REMARK INTER:                  -8.197
REMARK INTRA:                  -1.938
REMARK UNBOUND:                -3.341
REMARK SMILES CCCCCCCCCCCCCCCCCCCCCC(=O)[O-]
REMARK SMILES IDX 12 1 11 2 10 3 9 4 8 5 7 6 6 7 5 8 4 9 3 10 2 11 1 12 13 13
REMARK SMILES IDX 14 14 15 15 16 16 17 17 18 18 19 19 20 20 21 21 22 22 23 23
REMARK SMILES IDX 24 24
REMARK H PARENT
REMARK Flexibility Score: inf
ROOT
ATOM      1  C   UNL     1      61.596  28.664  60.929  1.00  0.00     0.000 C 
ENDROOT
BRANCH   1   2
ATOM      2  C   UNL     1      61.888  29.885  61.818  1.00  0.00     0.000 C 
BRANCH   2   3
ATOM      3  C   UNL     1      61.518  31.249  61.199  1.00  0.00     0.000 C 
BRANCH   3   4
ATOM      4  C   UNL     1      62.523  31.793  60.170  1.00  0.00    -0.000 C 
BRANCH   4   5
ATOM      5  C   UNL     1      63.913  32.055  60.771  1.00  0.00    -0.000 C 
BRANCH   5   6
ATOM      6  C   UNL     1      64.794  32.848  59.796  1.00  0.00    -0.000 C 
BRANCH   6   7
ATOM      7  C   UNL     1      64.680  34.373  59.982  1.00  0.00    -0.000 C 
BRANCH   7   8
ATOM      8  C   UNL     1      64.229  34.831  61.380  1.00  0.00    -0.000 C 
BRANCH   8   9
ATOM      9  C   UNL     1      62.999  35.754  61.341  1.00  0.00    -0.000 C 
BRANCH   9  10
ATOM     10  C   UNL     1      62.007  35.380  60.224  1.00  0.00    -0.000 C 
BRANCH  10  11
ATOM     11  C   UNL     1      60.523  35.601  60.569  1.00  0.00    -0.003 C 
ATOM     12  C   UNL     1      59.653  34.380  60.274  1.00  0.00     0.004 C 
ENDBRANCH  10  11
ENDBRANCH   9  10
ENDBRANCH   8   9
ENDBRANCH   7   8
ENDBRANCH   6   7
ENDBRANCH   5   6
ENDBRANCH   4   5
ENDBRANCH   3   4
ENDBRANCH   2   3
ENDBRANCH   1   2
BRANCH   1  13
ATOM     13  C   UNL     1      62.848  27.825  60.636  1.00  0.00     0.000 C 
BRANCH  13  14
ATOM     14  C   UNL     1      64.124  28.626  60.930  1.00  0.00     0.000 C 
BRANCH  14  15
ATOM     15  C   UNL     1      65.405  27.827  60.640  1.00  0.00     0.000 C 
BRANCH  15  16
ATOM     16  C   UNL     1      66.675  28.694  60.722  1.00  0.00     0.000 C 
BRANCH  16  17
ATOM     17  C   UNL     1      67.488  28.686  59.415  1.00  0.00     0.000 C 
BRANCH  17  18
ATOM     18  C   UNL     1      68.955  29.127  59.572  1.00  0.00     0.000 C 
BRANCH  18  19
ATOM     19  C   UNL     1      69.657  28.431  60.753  1.00  0.00     0.000 C 
BRANCH  19  20
ATOM     20  C   UNL     1      71.155  28.769  60.834  1.00  0.00     0.006 C 
BRANCH  20  21
ATOM     21  C   UNL     1      71.430  30.094  61.558  1.00  0.00     0.053 C 
BRANCH  21  22
ATOM     22  C   UNL     1      71.961  31.115  60.601  1.00  0.00     0.041 C 
ATOM     23  O   UNL     1      71.728  32.338  60.786  1.00  0.00    -0.550 OA
ATOM     24  O   UNL     1      72.692  30.713  59.490  1.00  0.00    -0.550 OA
ENDBRANCH  21  22
ENDBRANCH  20  21
ENDBRANCH  19  20
ENDBRANCH  18  19
ENDBRANCH  17  18
ENDBRANCH  16  17
ENDBRANCH  15  16
ENDBRANCH  14  15
ENDBRANCH  13  14
ENDBRANCH   1  13
TORSDOF 20
ENDMDL
MODEL 5
REMARK VINA RESULT:    -3.087      8.499     11.703
REMARK INTER + INTRA:         -10.037
REMARK INTER:                  -7.147
REMARK INTRA:                  -2.890
REMARK UNBOUND:                -3.341
REMARK SMILES CCCCCCCCCCCCCCCCCCCCCC(=O)[O-]
REMARK SMILES IDX 12 1 11 2 10 3 9 4 8 5 7 6 6 7 5 8 4 9 3 10 2 11 1 12 13 13
REMARK SMILES IDX 14 14 15 15 16 16 17 17 18 18 19 19 20 20 21 21 22 22 23 23
REMARK SMILES IDX 24 24
REMARK H PARENT
REMARK Flexibility Score: inf
ROOT
ATOM      1  C   UNL     1      62.752  31.710  60.221  1.00  0.00     0.000 C 
ENDROOT
BRANCH   1   2
ATOM      2  C   UNL     1      63.104  33.145  59.791  1.00  0.00     0.000 C 
BRANCH   2   3
ATOM      3  C   UNL     1      63.249  34.156  60.946  1.00  0.00     0.000 C 
BRANCH   3   4
ATOM      4  C   UNL     1      62.177  35.259  60.988  1.00  0.00    -0.000 C 
BRANCH   4   5
ATOM      5  C   UNL     1      61.232  35.221  59.777  1.00  0.00    -0.000 C 
BRANCH   5   6
ATOM      6  C   UNL     1      59.816  34.801  60.196  1.00  0.00    -0.000 C 
BRANCH   6   7
ATOM      7  C   UNL     1      59.187  33.767  59.243  1.00  0.00    -0.000 C 
BRANCH   7   8
ATOM      8  C   UNL     1      59.805  33.710  57.835  1.00  0.00    -0.000 C 
BRANCH   8   9
ATOM      9  C   UNL     1      60.276  32.299  57.444  1.00  0.00    -0.000 C 
BRANCH   9  10
ATOM     10  C   UNL     1      59.190  31.227  57.652  1.00  0.00    -0.000 C 
BRANCH  10  11
ATOM     11  C   UNL     1      59.620  30.022  58.508  1.00  0.00    -0.003 C 
ATOM     12  C   UNL     1      58.839  28.749  58.182  1.00  0.00     0.004 C 
ENDBRANCH  10  11
ENDBRANCH   9  10
ENDBRANCH   8   9
ENDBRANCH   7   8
ENDBRANCH   6   7
ENDBRANCH   5   6
ENDBRANCH   4   5
ENDBRANCH   3   4
ENDBRANCH   2   3
ENDBRANCH   1   2
BRANCH   1  13
ATOM     13  C   UNL     1      61.430  31.626  60.998  1.00  0.00     0.000 C 
BRANCH  13  14
ATOM     14  C   UNL     1      61.469  30.477  62.017  1.00  0.00     0.000 C 
BRANCH  14  15
ATOM     15  C   UNL     1      62.479  29.383  61.636  1.00  0.00     0.000 C 
BRANCH  15  16
ATOM     16  C   UNL     1      61.808  28.157  60.988  1.00  0.00     0.000 C 
BRANCH  16  17
ATOM     17  C   UNL     1      62.442  26.826  61.432  1.00  0.00     0.000 C 
BRANCH  17  18
ATOM     18  C   UNL     1      61.444  25.806  62.011  1.00  0.00     0.000 C 
BRANCH  18  19
ATOM     19  C   UNL     1      60.141  25.725  61.196  1.00  0.00     0.000 C 
BRANCH  19  20
ATOM     20  C   UNL     1      58.894  26.026  62.042  1.00  0.00     0.006 C 
BRANCH  20  21
ATOM     21  C   UNL     1      57.953  27.041  61.378  1.00  0.00     0.053 C 
BRANCH  21  22
ATOM     22  C   UNL     1      56.570  26.918  61.935  1.00  0.00     0.041 C 
ATOM     23  O   UNL     1      55.821  25.975  61.568  1.00  0.00    -0.550 OA
ATOM     24  O   UNL     1      56.098  27.860  62.841  1.00  0.00    -0.550 OA
ENDBRANCH  21  22
ENDBRANCH  20  21
ENDBRANCH  19  20
ENDBRANCH  18  19
ENDBRANCH  17  18
ENDBRANCH  16  17
ENDBRANCH  15  16
ENDBRANCH  14  15
ENDBRANCH  13  14
ENDBRANCH   1  13
TORSDOF 20
ENDMDL
MODEL 6
REMARK VINA RESULT:    -3.084      1.361      3.636
REMARK INTER + INTRA:         -10.030
REMARK INTER:                  -6.613
REMARK INTRA:                  -3.417
REMARK UNBOUND:                -3.341
REMARK SMILES CCCCCCCCCCCCCCCCCCCCCC(=O)[O-]
REMARK SMILES IDX 12 1 11 2 10 3 9 4 8 5 7 6 6 7 5 8 4 9 3 10 2 11 1 12 13 13
REMARK SMILES IDX 14 14 15 15 16 16 17 17 18 18 19 19 20 20 21 21 22 22 23 23
REMARK SMILES IDX 24 24
REMARK H PARENT
REMARK Flexibility Score: inf
ROOT
ATOM      1  C   UNL     1      58.157  28.626  54.321  1.00  0.00     0.000 C 
ENDROOT
BRANCH   1   2
ATOM      2  C   UNL     1      56.934  28.801  55.236  1.00  0.00     0.000 C 
BRANCH   2   3
ATOM      3  C   UNL     1      55.655  29.301  54.532  1.00  0.00     0.000 C 
BRANCH   3   4
ATOM      4  C   UNL     1      54.634  28.206  54.178  1.00  0.00    -0.000 C 
BRANCH   4   5
ATOM      5  C   UNL     1      53.624  28.652  53.110  1.00  0.00    -0.000 C 
BRANCH   5   6
ATOM      6  C   UNL     1      54.275  29.613  52.104  1.00  0.00    -0.000 C 
BRANCH   6   7
ATOM      7  C   UNL     1      54.364  29.028  50.682  1.00  0.00    -0.000 C 
BRANCH   7   8
ATOM      8  C   UNL     1      53.169  28.158  50.254  1.00  0.00    -0.000 C 
BRANCH   8   9
ATOM      9  C   UNL     1      53.563  26.700  49.962  1.00  0.00    -0.000 C 
BRANCH   9  10
ATOM     10  C   UNL     1      55.020  26.387  50.348  1.00  0.00    -0.000 C 
BRANCH  10  11
ATOM     11  C   UNL     1      55.193  25.256  51.378  1.00  0.00    -0.003 C 
ATOM     12  C   UNL     1      56.255  25.565  52.433  1.00  0.00     0.004 C 
ENDBRANCH  10  11
ENDBRANCH   9  10
ENDBRANCH   8   9
ENDBRANCH   7   8
ENDBRANCH   6   7
ENDBRANCH   5   6
ENDBRANCH   4   5
ENDBRANCH   3   4
ENDBRANCH   2   3
ENDBRANCH   1   2
BRANCH   1  13
ATOM     13  C   UNL     1      58.521  29.907  53.556  1.00  0.00     0.000 C 
BRANCH  13  14
ATOM     14  C   UNL     1      58.849  29.593  52.090  1.00  0.00     0.000 C 
BRANCH  14  15
ATOM     15  C   UNL     1      57.821  28.651  51.442  1.00  0.00     0.000 C 
BRANCH  15  16
ATOM     16  C   UNL     1      58.170  28.308  49.982  1.00  0.00     0.000 C 
BRANCH  16  17
ATOM     17  C   UNL     1      59.688  28.272  49.724  1.00  0.00     0.000 C 
BRANCH  17  18
ATOM     18  C   UNL     1      60.328  26.879  49.870  1.00  0.00     0.000 C 
BRANCH  18  19
ATOM     19  C   UNL     1      59.305  25.740  49.716  1.00  0.00     0.000 C 
BRANCH  19  20
ATOM     20  C   UNL     1      59.285  24.794  50.927  1.00  0.00     0.006 C 
BRANCH  20  21
ATOM     21  C   UNL     1      60.690  24.438  51.431  1.00  0.00     0.053 C 
BRANCH  21  22
ATOM     22  C   UNL     1      61.297  23.368  50.579  1.00  0.00     0.041 C 
ATOM     23  O   UNL     1      60.572  22.466  50.082  1.00  0.00    -0.550 OA
ATOM     24  O   UNL     1      62.669  23.350  50.357  1.00  0.00    -0.550 OA
ENDBRANCH  21  22
ENDBRANCH  20  21
ENDBRANCH  19  20
ENDBRANCH  18  19
ENDBRANCH  17  18
ENDBRANCH  16  17
ENDBRANCH  15  16
ENDBRANCH  14  15
ENDBRANCH  13  14
ENDBRANCH   1  13
TORSDOF 20
ENDMDL
MODEL 7
REMARK VINA RESULT:    -3.031      3.014      4.194
REMARK INTER + INTRA:          -9.916
REMARK INTER:                  -5.903
REMARK INTRA:                  -4.013
REMARK UNBOUND:                -3.341
REMARK SMILES CCCCCCCCCCCCCCCCCCCCCC(=O)[O-]
REMARK SMILES IDX 12 1 11 2 10 3 9 4 8 5 7 6 6 7 5 8 4 9 3 10 2 11 1 12 13 13
REMARK SMILES IDX 14 14 15 15 16 16 17 17 18 18 19 19 20 20 21 21 22 22 23 23
REMARK SMILES IDX 24 24
REMARK H PARENT
REMARK Flexibility Score: inf
ROOT
ATOM      1  C   UNL     1      57.402  25.282  50.360  1.00  0.00     0.000 C 
ENDROOT
BRANCH   1   2
ATOM      2  C   UNL     1      56.013  25.635  50.919  1.00  0.00     0.000 C 
BRANCH   2   3
ATOM      3  C   UNL     1      54.841  25.429  49.938  1.00  0.00     0.000 C 
BRANCH   3   4
ATOM      4  C   UNL     1      53.775  26.538  49.951  1.00  0.00    -0.000 C 
BRANCH   4   5
ATOM      5  C   UNL     1      54.341  27.907  50.357  1.00  0.00    -0.000 C 
BRANCH   5   6
ATOM      6  C   UNL     1      53.452  28.580  51.411  1.00  0.00    -0.000 C 
BRANCH   6   7
ATOM      7  C   UNL     1      53.764  30.077  51.599  1.00  0.00    -0.000 C 
BRANCH   7   8
ATOM      8  C   UNL     1      53.841  30.554  53.060  1.00  0.00    -0.000 C 
BRANCH   8   9
ATOM      9  C   UNL     1      55.037  31.484  53.325  1.00  0.00    -0.000 C 
BRANCH   9  10
ATOM     10  C   UNL     1      55.371  31.615  54.823  1.00  0.00    -0.000 C 
BRANCH  10  11
ATOM     11  C   UNL     1      56.857  31.430  55.178  1.00  0.00    -0.003 C 
ATOM     12  C   UNL     1      57.743  32.558  54.650  1.00  0.00     0.004 C 
ENDBRANCH  10  11
ENDBRANCH   9  10
ENDBRANCH   8   9
ENDBRANCH   7   8
ENDBRANCH   6   7
ENDBRANCH   5   6
ENDBRANCH   4   5
ENDBRANCH   3   4
ENDBRANCH   2   3
ENDBRANCH   1   2
BRANCH   1  13
ATOM     13  C   UNL     1      58.516  25.397  51.411  1.00  0.00     0.000 C 
BRANCH  13  14
ATOM     14  C   UNL     1      59.617  26.356  50.936  1.00  0.00     0.000 C 
BRANCH  14  15
ATOM     15  C   UNL     1      59.232  27.111  49.653  1.00  0.00     0.000 C 
BRANCH  15  16
ATOM     16  C   UNL     1      58.783  28.558  49.930  1.00  0.00     0.000 C 
BRANCH  16  17
ATOM     17  C   UNL     1      59.527  29.196  51.117  1.00  0.00     0.000 C 
BRANCH  17  18
ATOM     18  C   UNL     1      58.609  29.727  52.234  1.00  0.00     0.000 C 
BRANCH  18  19
ATOM     19  C   UNL     1      57.310  28.913  52.369  1.00  0.00     0.000 C 
BRANCH  19  20
ATOM     20  C   UNL     1      57.277  28.057  53.645  1.00  0.00     0.006 C 
BRANCH  20  21
ATOM     21  C   UNL     1      55.866  27.570  54.001  1.00  0.00     0.053 C 
BRANCH  21  22
ATOM     22  C   UNL     1      55.511  27.967  55.400  1.00  0.00     0.041 C 
ATOM     23  O   UNL     1      54.321  28.260  55.692  1.00  0.00    -0.550 OA
ATOM     24  O   UNL     1      56.498  28.039  56.375  1.00  0.00    -0.550 OA
ENDBRANCH  21  22
ENDBRANCH  20  21
ENDBRANCH  19  20
ENDBRANCH  18  19
ENDBRANCH  17  18
ENDBRANCH  16  17
ENDBRANCH  15  16
ENDBRANCH  14  15
ENDBRANCH  13  14
ENDBRANCH   1  13
TORSDOF 20
ENDMDL
MODEL 8
REMARK VINA RESULT:    -3.015      3.135      5.373
REMARK INTER + INTRA:          -9.882
REMARK INTER:                  -6.030
REMARK INTRA:                  -3.852
REMARK UNBOUND:                -3.341
REMARK SMILES CCCCCCCCCCCCCCCCCCCCCC(=O)[O-]
REMARK SMILES IDX 12 1 11 2 10 3 9 4 8 5 7 6 6 7 5 8 4 9 3 10 2 11 1 12 13 13
REMARK SMILES IDX 14 14 15 15 16 16 17 17 18 18 19 19 20 20 21 21 22 22 23 23
REMARK SMILES IDX 24 24
REMARK H PARENT
REMARK Flexibility Score: inf
ROOT
ATOM      1  C   UNL     1      58.725  24.495  53.886  1.00  0.00     0.000 C 
ENDROOT
BRANCH   1   2
ATOM      2  C   UNL     1      58.417  25.966  54.213  1.00  0.00     0.000 C 
BRANCH   2   3
ATOM      3  C   UNL     1      57.107  26.203  54.993  1.00  0.00     0.000 C 
BRANCH   3   4
ATOM      4  C   UNL     1      55.884  26.547  54.125  1.00  0.00    -0.000 C 
BRANCH   4   5
ATOM      5  C   UNL     1      55.003  25.325  53.822  1.00  0.00    -0.000 C 
BRANCH   5   6
ATOM      6  C   UNL     1      53.627  25.756  53.294  1.00  0.00    -0.000 C 
BRANCH   6   7
ATOM      7  C   UNL     1      53.170  24.943  52.069  1.00  0.00    -0.000 C 
BRANCH   7   8
ATOM      8  C   UNL     1      54.215  24.800  50.948  1.00  0.00    -0.000 C 
BRANCH   8   9
ATOM      9  C   UNL     1      54.185  25.968  49.948  1.00  0.00    -0.000 C 
BRANCH   9  10
ATOM     10  C   UNL     1      55.191  27.081  50.300  1.00  0.00    -0.000 C 
BRANCH  10  11
ATOM     11  C   UNL     1      54.561  28.396  50.795  1.00  0.00    -0.003 C 
ATOM     12  C   UNL     1      53.123  28.588  50.315  1.00  0.00     0.004 C 
ENDBRANCH  10  11
ENDBRANCH   9  10
ENDBRANCH   8   9
ENDBRANCH   7   8
ENDBRANCH   6   7
ENDBRANCH   5   6
ENDBRANCH   4   5
ENDBRANCH   3   4
ENDBRANCH   2   3
ENDBRANCH   1   2
BRANCH   1  13
ATOM     13  C   UNL     1      59.031  24.265  52.399  1.00  0.00     0.000 C 
BRANCH  13  14
ATOM     14  C   UNL     1      57.918  24.846  51.515  1.00  0.00     0.000 C 
BRANCH  14  15
ATOM     15  C   UNL     1      58.436  25.325  50.149  1.00  0.00     0.000 C 
BRANCH  15  16
ATOM     16  C   UNL     1      59.936  25.674  50.174  1.00  0.00     0.000 C 
BRANCH  16  17
ATOM     17  C   UNL     1      60.222  27.110  49.699  1.00  0.00     0.000 C 
BRANCH  17  18
ATOM     18  C   UNL     1      58.972  28.000  49.569  1.00  0.00     0.000 C 
BRANCH  18  19
ATOM     19  C   UNL     1      58.876  29.054  50.687  1.00  0.00     0.000 C 
BRANCH  19  20
ATOM     20  C   UNL     1      58.057  28.566  51.892  1.00  0.00     0.006 C 
BRANCH  20  21
ATOM     21  C   UNL     1      57.673  29.700  52.852  1.00  0.00     0.053 C 
BRANCH  21  22
ATOM     22  C   UNL     1      58.897  30.384  53.373  1.00  0.00     0.041 C 
ATOM     23  O   UNL     1      59.718  29.753  54.090  1.00  0.00    -0.550 OA
ATOM     24  O   UNL     1      59.118  31.726  53.091  1.00  0.00    -0.550 OA
ENDBRANCH  21  22
ENDBRANCH  20  21
ENDBRANCH  19  20
ENDBRANCH  18  19
ENDBRANCH  17  18
ENDBRANCH  16  17
ENDBRANCH  15  16
ENDBRANCH  14  15
ENDBRANCH  13  14
ENDBRANCH   1  13
TORSDOF 20
ENDMDL
MODEL 9
REMARK VINA RESULT:    -3.015      3.392      6.616
REMARK INTER + INTRA:          -9.880
REMARK INTER:                  -5.721
REMARK INTRA:                  -4.159
REMARK UNBOUND:                -3.341
REMARK SMILES CCCCCCCCCCCCCCCCCCCCCC(=O)[O-]
REMARK SMILES IDX 12 1 11 2 10 3 9 4 8 5 7 6 6 7 5 8 4 9 3 10 2 11 1 12 13 13
REMARK SMILES IDX 14 14 15 15 16 16 17 17 18 18 19 19 20 20 21 21 22 22 23 23
REMARK SMILES IDX 24 24
REMARK H PARENT
REMARK Flexibility Score: inf
ROOT
ATOM      1  C   UNL     1      58.829  25.223  53.048  1.00  0.00     0.000 C 
ENDROOT
BRANCH   1   2
ATOM      2  C   UNL     1      58.268  26.228  54.070  1.00  0.00     0.000 C 
BRANCH   2   3
ATOM      3  C   UNL     1      58.592  27.707  53.778  1.00  0.00     0.000 C 
BRANCH   3   4
ATOM      4  C   UNL     1      57.889  28.299  52.544  1.00  0.00    -0.000 C 
BRANCH   4   5
ATOM      5  C   UNL     1      58.735  29.360  51.824  1.00  0.00    -0.000 C 
BRANCH   5   6
ATOM      6  C   UNL     1      58.996  28.959  50.365  1.00  0.00    -0.000 C 
BRANCH   6   7
ATOM      7  C   UNL     1      58.414  27.579  50.005  1.00  0.00    -0.000 C 
BRANCH   7   8
ATOM      8  C   UNL     1      59.451  26.510  49.618  1.00  0.00    -0.000 C 
BRANCH   8   9
ATOM      9  C   UNL     1      60.888  26.904  49.996  1.00  0.00    -0.000 C 
BRANCH   9  10
ATOM     10  C   UNL     1      61.661  25.761  50.681  1.00  0.00    -0.000 C 
BRANCH  10  11
ATOM     11  C   UNL     1      62.375  26.149  51.988  1.00  0.00    -0.003 C 
ATOM     12  C   UNL     1      61.996  27.543  52.486  1.00  0.00     0.004 C 
ENDBRANCH  10  11
ENDBRANCH   9  10
ENDBRANCH   8   9
ENDBRANCH   7   8
ENDBRANCH   6   7
ENDBRANCH   5   6
ENDBRANCH   4   5
ENDBRANCH   3   4
ENDBRANCH   2   3
ENDBRANCH   1   2
BRANCH   1  13
ATOM     13  C   UNL     1      57.733  24.547  52.211  1.00  0.00     0.000 C 
BRANCH  13  14
ATOM     14  C   UNL     1      56.403  24.516  52.977  1.00  0.00     0.000 C 
BRANCH  14  15
ATOM     15  C   UNL     1      55.213  24.966  52.114  1.00  0.00     0.000 C 
BRANCH  15  16
ATOM     16  C   UNL     1      55.635  25.381  50.692  1.00  0.00     0.000 C 
BRANCH  16  17
ATOM     17  C   UNL     1      54.658  26.380  50.047  1.00  0.00     0.000 C 
BRANCH  17  18
ATOM     18  C   UNL     1      54.882  27.848  50.456  1.00  0.00     0.000 C 
BRANCH  18  19
ATOM     19  C   UNL     1      53.570  28.650  50.521  1.00  0.00     0.000 C 
BRANCH  19  20
ATOM     20  C   UNL     1      53.174  29.021  51.959  1.00  0.00     0.006 C 
BRANCH  20  21
ATOM     21  C   UNL     1      54.203  28.561  53.000  1.00  0.00     0.053 C 
BRANCH  21  22
ATOM     22  C   UNL     1      54.640  29.712  53.851  1.00  0.00     0.041 C 
ATOM     23  O   UNL     1      54.315  29.759  55.067  1.00  0.00    -0.550 OA
ATOM     24  O   UNL     1      55.384  30.746  53.296  1.00  0.00    -0.550 OA
ENDBRANCH  21  22
ENDBRANCH  20  21
ENDBRANCH  19  20
ENDBRANCH  18  19
ENDBRANCH  17  18
ENDBRANCH  16  17
ENDBRANCH  15  16
ENDBRANCH  14  15
ENDBRANCH  13  14
ENDBRANCH   1  13
TORSDOF 20
ENDMDL
