MODEL 1
REMARK VINA RESULT:    -3.503      0.000      0.000
REMARK INTER + INTRA:         -15.059
REMARK INTER:                  -9.238
REMARK INTRA:                  -5.821
REMARK UNBOUND:                -5.821
REMARK SMILES CCCCCCCCCCCCCCCCCCCCCCCCCCCCCC(=O)[O-]
REMARK SMILES IDX 16 1 17 2 18 3 19 4 20 5 21 6 22 7 23 8 24 9 25 10 26 11
REMARK SMILES IDX 27 12 28 13 29 14 30 15 31 16 32 17 15 18 14 19 13 20 12 21
REMARK SMILES IDX 11 22 10 23 9 24 8 25 7 26 6 27 5 28 4 29 3 30 2 31 1 32
REMARK H PARENT
REMARK Flexibility Score: inf
ROOT
ATOM      1  C   UNL     1     -16.143  21.151  44.120  1.00  0.00     0.000 C 
ENDROOT
BRANCH   1   2
ATOM      2  C   UNL     1     -15.618  20.664  45.481  1.00  0.00     0.000 C 
BRANCH   2   3
ATOM      3  C   UNL     1     -14.087  20.746  45.598  1.00  0.00     0.000 C 
BRANCH   3   4
ATOM      4  C   UNL     1     -13.371  20.948  44.247  1.00  0.00     0.000 C 
BRANCH   4   5
ATOM      5  C   UNL     1     -12.212  21.952  44.341  1.00  0.00     0.000 C 
BRANCH   5   6
ATOM      6  C   UNL     1     -12.618  23.316  43.763  1.00  0.00     0.000 C 
BRANCH   6   7
ATOM      7  C   UNL     1     -13.403  23.209  42.441  1.00  0.00     0.000 C 
BRANCH   7   8
ATOM      8  C   UNL     1     -13.140  24.334  41.418  1.00  0.00     0.000 C 
BRANCH   8   9
ATOM      9  C   UNL     1     -12.134  25.411  41.881  1.00  0.00     0.000 C 
BRANCH   9  10
ATOM     10  C   UNL     1     -12.650  26.855  41.730  1.00  0.00     0.000 C 
BRANCH  10  11
ATOM     11  C   UNL     1     -13.833  27.218  42.643  1.00  0.00     0.000 C 
BRANCH  11  12
ATOM     12  C   UNL     1     -14.452  28.585  42.299  1.00  0.00     0.000 C 
BRANCH  12  13
ATOM     13  C   UNL     1     -15.973  28.508  42.101  1.00  0.00     0.006 C 
BRANCH  13  14
ATOM     14  C   UNL     1     -16.551  29.789  41.486  1.00  0.00     0.053 C 
BRANCH  14  15
ATOM     15  C   UNL     1     -17.959  29.999  41.947  1.00  0.00     0.041 C 
ATOM     16  O   UNL     1     -18.921  29.808  41.157  1.00  0.00    -0.550 OA
ATOM     17  O   UNL     1     -18.211  30.358  43.264  1.00  0.00    -0.550 OA
ENDBRANCH  14  15
ENDBRANCH  13  14
ENDBRANCH  12  13
ENDBRANCH  11  12
ENDBRANCH  10  11
ENDBRANCH   9  10
ENDBRANCH   8   9
ENDBRANCH   7   8
ENDBRANCH   6   7
ENDBRANCH   5   6
ENDBRANCH   4   5
ENDBRANCH   3   4
ENDBRANCH   2   3
ENDBRANCH   1   2
BRANCH   1  18
ATOM     18  C   UNL     1     -17.621  20.793  43.901  1.00  0.00     0.000 C 
BRANCH  18  19
ATOM     19  C   UNL     1     -18.251  20.120  45.132  1.00  0.00     0.000 C 
BRANCH  19  20
ATOM     20  C   UNL     1     -19.266  21.027  45.852  1.00  0.00     0.000 C 
BRANCH  20  21
ATOM     21  C   UNL     1     -19.543  22.372  45.152  1.00  0.00     0.000 C 
BRANCH  21  22
ATOM     22  C   UNL     1     -19.498  23.609  46.073  1.00  0.00     0.000 C 
BRANCH  22  23
ATOM     23  C   UNL     1     -18.089  24.189  46.315  1.00  0.00     0.000 C 
BRANCH  23  24
ATOM     24  C   UNL     1     -17.953  25.694  46.022  1.00  0.00    -0.000 C 
BRANCH  24  25
ATOM     25  C   UNL     1     -16.759  26.012  45.104  1.00  0.00    -0.000 C 
BRANCH  25  26
ATOM     26  C   UNL     1     -16.296  24.789  44.296  1.00  0.00    -0.000 C 
BRANCH  26  27
ATOM     27  C   UNL     1     -16.587  24.935  42.791  1.00  0.00    -0.000 C 
BRANCH  27  28
ATOM     28  C   UNL     1     -17.683  23.974  42.306  1.00  0.00    -0.000 C 
BRANCH  28  29
ATOM     29  C   UNL     1     -19.089  24.595  42.379  1.00  0.00    -0.000 C 
BRANCH  29  30
ATOM     30  C   UNL     1     -19.088  26.096  42.053  1.00  0.00    -0.000 C 
BRANCH  30  31
ATOM     31  C   UNL     1     -19.794  26.938  43.126  1.00  0.00    -0.003 C 
ATOM     32  C   UNL     1     -21.099  26.281  43.568  1.00  0.00     0.004 C 
ENDBRANCH  30  31
ENDBRANCH  29  30
ENDBRANCH  28  29
ENDBRANCH  27  28
ENDBRANCH  26  27
ENDBRANCH  25  26
ENDBRANCH  24  25
ENDBRANCH  23  24
ENDBRANCH  22  23
ENDBRANCH  21  22
ENDBRANCH  20  21
ENDBRANCH  19  20
ENDBRANCH  18  19
ENDBRANCH   1  18
TORSDOF 28
ENDMDL
MODEL 2
REMARK VINA RESULT:    -3.451      2.309      5.472
REMARK INTER + INTRA:         -14.920
REMARK INTER:                  -8.729
REMARK INTRA:                  -6.191
REMARK UNBOUND:                -5.821
REMARK SMILES CCCCCCCCCCCCCCCCCCCCCCCCCCCCCC(=O)[O-]
REMARK SMILES IDX 16 1 17 2 18 3 19 4 20 5 21 6 22 7 23 8 24 9 25 10 26 11
REMARK SMILES IDX 27 12 28 13 29 14 30 15 31 16 32 17 15 18 14 19 13 20 12 21
REMARK SMILES IDX 11 22 10 23 9 24 8 25 7 26 6 27 5 28 4 29 3 30 2 31 1 32
REMARK H PARENT
REMARK Flexibility Score: inf
ROOT
ATOM      1  C   UNL     1     -17.189  22.305  42.990  1.00  0.00     0.000 C 
ENDROOT
BRANCH   1   2
ATOM      2  C   UNL     1     -17.671  21.138  43.868  1.00  0.00     0.000 C 
BRANCH   2   3
ATOM      3  C   UNL     1     -18.730  21.562  44.900  1.00  0.00     0.000 C 
BRANCH   3   4
ATOM      4  C   UNL     1     -19.247  20.401  45.772  1.00  0.00     0.000 C 
BRANCH   4   5
ATOM      5  C   UNL     1     -18.422  19.117  45.591  1.00  0.00     0.000 C 
BRANCH   5   6
ATOM      6  C   UNL     1     -17.603  18.806  46.852  1.00  0.00     0.000 C 
BRANCH   6   7
ATOM      7  C   UNL     1     -16.105  18.584  46.568  1.00  0.00     0.000 C 
BRANCH   7   8
ATOM      8  C   UNL     1     -15.279  19.862  46.315  1.00  0.00     0.000 C 
BRANCH   8   9
ATOM      9  C   UNL     1     -15.733  21.099  47.123  1.00  0.00     0.000 C 
BRANCH   9  10
ATOM     10  C   UNL     1     -15.405  22.444  46.445  1.00  0.00     0.000 C 
BRANCH  10  11
ATOM     11  C   UNL     1     -13.995  22.535  45.840  1.00  0.00     0.000 C 
BRANCH  11  12
ATOM     12  C   UNL     1     -13.951  23.387  44.558  1.00  0.00     0.000 C 
BRANCH  12  13
ATOM     13  C   UNL     1     -13.209  22.685  43.411  1.00  0.00     0.006 C 
BRANCH  13  14
ATOM     14  C   UNL     1     -13.473  23.344  42.050  1.00  0.00     0.053 C 
BRANCH  14  15
ATOM     15  C   UNL     1     -12.946  24.744  42.039  1.00  0.00     0.041 C 
ATOM     16  O   UNL     1     -13.671  25.692  41.638  1.00  0.00    -0.550 OA
ATOM     17  O   UNL     1     -11.670  25.008  42.518  1.00  0.00    -0.550 OA
ENDBRANCH  14  15
ENDBRANCH  13  14
ENDBRANCH  12  13
ENDBRANCH  11  12
ENDBRANCH  10  11
ENDBRANCH   9  10
ENDBRANCH   8   9
ENDBRANCH   7   8
ENDBRANCH   6   7
ENDBRANCH   5   6
ENDBRANCH   4   5
ENDBRANCH   3   4
ENDBRANCH   2   3
ENDBRANCH   1   2
BRANCH   1  18
ATOM     18  C   UNL     1     -18.352  23.154  42.454  1.00  0.00     0.000 C 
BRANCH  18  19
ATOM     19  C   UNL     1     -17.970  24.636  42.290  1.00  0.00     0.000 C 
BRANCH  19  20
ATOM     20  C   UNL     1     -16.741  25.029  43.130  1.00  0.00     0.000 C 
BRANCH  20  21
ATOM     21  C   UNL     1     -17.053  25.887  44.372  1.00  0.00     0.000 C 
BRANCH  21  22
ATOM     22  C   UNL     1     -17.803  25.152  45.502  1.00  0.00     0.000 C 
BRANCH  22  23
ATOM     23  C   UNL     1     -18.710  26.046  46.372  1.00  0.00     0.000 C 
BRANCH  23  24
ATOM     24  C   UNL     1     -20.219  25.863  46.132  1.00  0.00    -0.000 C 
BRANCH  24  25
ATOM     25  C   UNL     1     -20.525  24.745  45.119  1.00  0.00    -0.000 C 
BRANCH  25  26
ATOM     26  C   UNL     1     -21.374  25.238  43.936  1.00  0.00    -0.000 C 
BRANCH  26  27
ATOM     27  C   UNL     1     -21.283  26.763  43.742  1.00  0.00    -0.000 C 
BRANCH  27  28
ATOM     28  C   UNL     1     -20.493  27.151  42.482  1.00  0.00    -0.000 C 
BRANCH  28  29
ATOM     29  C   UNL     1     -19.412  28.210  42.764  1.00  0.00    -0.000 C 
BRANCH  29  30
ATOM     30  C   UNL     1     -18.367  28.298  41.642  1.00  0.00    -0.000 C 
BRANCH  30  31
ATOM     31  C   UNL     1     -17.220  29.264  41.973  1.00  0.00    -0.003 C 
ATOM     32  C   UNL     1     -15.877  28.538  41.982  1.00  0.00     0.004 C 
ENDBRANCH  30  31
ENDBRANCH  29  30
ENDBRANCH  28  29
ENDBRANCH  27  28
ENDBRANCH  26  27
ENDBRANCH  25  26
ENDBRANCH  24  25
ENDBRANCH  23  24
ENDBRANCH  22  23
ENDBRANCH  21  22
ENDBRANCH  20  21
ENDBRANCH  19  20
ENDBRANCH  18  19
ENDBRANCH   1  18
TORSDOF 28
ENDMDL
MODEL 3
REMARK VINA RESULT:    -3.391      2.513      5.734
REMARK INTER + INTRA:         -14.762
REMARK INTER:                  -8.848
REMARK INTRA:                  -5.915
REMARK UNBOUND:                -5.821
REMARK SMILES CCCCCCCCCCCCCCCCCCCCCCCCCCCCCC(=O)[O-]
REMARK SMILES IDX 16 1 17 2 18 3 19 4 20 5 21 6 22 7 23 8 24 9 25 10 26 11
REMARK SMILES IDX 27 12 28 13 29 14 30 15 31 16 32 17 15 18 14 19 13 20 12 21
REMARK SMILES IDX 11 22 10 23 9 24 8 25 7 26 6 27 5 28 4 29 3 30 2 31 1 32
REMARK H PARENT
REMARK Flexibility Score: inf
ROOT
ATOM      1  C   UNL     1     -17.813  19.824  45.018  1.00  0.00     0.000 C 
ENDROOT
BRANCH   1   2
ATOM      2  C   UNL     1     -19.089  20.081  45.836  1.00  0.00     0.000 C 
BRANCH   2   3
ATOM      3  C   UNL     1     -19.141  21.495  46.438  1.00  0.00     0.000 C 
BRANCH   3   4
ATOM      4  C   UNL     1     -20.358  22.322  45.979  1.00  0.00     0.000 C 
BRANCH   4   5
ATOM      5  C   UNL     1     -19.968  23.466  45.030  1.00  0.00     0.000 C 
BRANCH   5   6
ATOM      6  C   UNL     1     -18.553  23.979  45.340  1.00  0.00     0.000 C 
BRANCH   6   7
ATOM      7  C   UNL     1     -17.897  24.713  44.154  1.00  0.00     0.000 C 
BRANCH   7   8
ATOM      8  C   UNL     1     -18.300  24.207  42.753  1.00  0.00     0.000 C 
BRANCH   8   9
ATOM      9  C   UNL     1     -19.141  25.202  41.921  1.00  0.00     0.000 C 
BRANCH   9  10
ATOM     10  C   UNL     1     -19.057  26.659  42.417  1.00  0.00     0.000 C 
BRANCH  10  11
ATOM     11  C   UNL     1     -20.387  27.250  42.914  1.00  0.00     0.000 C 
BRANCH  11  12
ATOM     12  C   UNL     1     -20.550  27.147  44.441  1.00  0.00     0.000 C 
BRANCH  12  13
ATOM     13  C   UNL     1     -21.962  26.702  44.853  1.00  0.00     0.006 C 
BRANCH  13  14
ATOM     14  C   UNL     1     -22.454  25.490  44.050  1.00  0.00     0.053 C 
BRANCH  14  15
ATOM     15  C   UNL     1     -23.512  24.757  44.811  1.00  0.00     0.041 C 
ATOM     16  O   UNL     1     -24.384  25.393  45.459  1.00  0.00    -0.550 OA
ATOM     17  O   UNL     1     -23.565  23.370  44.764  1.00  0.00    -0.550 OA
ENDBRANCH  14  15
ENDBRANCH  13  14
ENDBRANCH  12  13
ENDBRANCH  11  12
ENDBRANCH  10  11
ENDBRANCH   9  10
ENDBRANCH   8   9
ENDBRANCH   7   8
ENDBRANCH   6   7
ENDBRANCH   5   6
ENDBRANCH   4   5
ENDBRANCH   3   4
ENDBRANCH   2   3
ENDBRANCH   1   2
BRANCH   1  18
ATOM     18  C   UNL     1     -17.693  20.766  43.809  1.00  0.00     0.000 C 
BRANCH  18  19
ATOM     19  C   UNL     1     -16.283  21.367  43.672  1.00  0.00     0.000 C 
BRANCH  19  20
ATOM     20  C   UNL     1     -15.391  21.074  44.892  1.00  0.00     0.000 C 
BRANCH  20  21
ATOM     21  C   UNL     1     -15.011  22.312  45.729  1.00  0.00     0.000 C 
BRANCH  21  22
ATOM     22  C   UNL     1     -13.512  22.678  45.709  1.00  0.00     0.000 C 
BRANCH  22  23
ATOM     23  C   UNL     1     -12.765  22.291  44.416  1.00  0.00     0.000 C 
BRANCH  23  24
ATOM     24  C   UNL     1     -12.532  23.452  43.433  1.00  0.00    -0.000 C 
BRANCH  24  25
ATOM     25  C   UNL     1     -13.411  23.346  42.174  1.00  0.00    -0.000 C 
BRANCH  25  26
ATOM     26  C   UNL     1     -14.675  24.217  42.264  1.00  0.00    -0.000 C 
BRANCH  26  27
ATOM     27  C   UNL     1     -14.469  25.462  43.146  1.00  0.00    -0.000 C 
BRANCH  27  28
ATOM     28  C   UNL     1     -14.284  26.746  42.322  1.00  0.00    -0.000 C 
BRANCH  28  29
ATOM     29  C   UNL     1     -15.253  27.864  42.744  1.00  0.00    -0.000 C 
BRANCH  29  30
ATOM     30  C   UNL     1     -15.822  27.651  44.155  1.00  0.00    -0.000 C 
BRANCH  30  31
ATOM     31  C   UNL     1     -16.783  28.769  44.584  1.00  0.00    -0.003 C 
ATOM     32  C   UNL     1     -17.170  29.645  43.395  1.00  0.00     0.004 C 
ENDBRANCH  30  31
ENDBRANCH  29  30
ENDBRANCH  28  29
ENDBRANCH  27  28
ENDBRANCH  26  27
ENDBRANCH  25  26
ENDBRANCH  24  25
ENDBRANCH  23  24
ENDBRANCH  22  23
ENDBRANCH  21  22
ENDBRANCH  20  21
ENDBRANCH  19  20
ENDBRANCH  18  19
ENDBRANCH   1  18
TORSDOF 28
ENDMDL
MODEL 4
REMARK VINA RESULT:    -3.324      1.908      2.114
REMARK INTER + INTRA:         -14.585
REMARK INTER:                  -9.018
REMARK INTRA:                  -5.567
REMARK UNBOUND:                -5.821
REMARK SMILES CCCCCCCCCCCCCCCCCCCCCCCCCCCCCC(=O)[O-]
REMARK SMILES IDX 16 1 17 2 18 3 19 4 20 5 21 6 22 7 23 8 24 9 25 10 26 11
REMARK SMILES IDX 27 12 28 13 29 14 30 15 31 16 32 17 15 18 14 19 13 20 12 21
REMARK SMILES IDX 11 22 10 23 9 24 8 25 7 26 6 27 5 28 4 29 3 30 2 31 1 32
REMARK H PARENT
REMARK Flexibility Score: inf
ROOT
ATOM      1  C   UNL     1     -16.228  21.204  44.100  1.00  0.00     0.000 C 
ENDROOT
BRANCH   1   2
ATOM      2  C   UNL     1     -15.657  21.000  45.513  1.00  0.00     0.000 C 
BRANCH   2   3
ATOM      3  C   UNL     1     -14.127  21.146  45.569  1.00  0.00     0.000 C 
BRANCH   3   4
ATOM      4  C   UNL     1     -13.440  21.017  44.194  1.00  0.00     0.000 C 
BRANCH   4   5
ATOM      5  C   UNL     1     -12.317  22.048  43.999  1.00  0.00     0.000 C 
BRANCH   5   6
ATOM      6  C   UNL     1     -12.881  23.389  43.505  1.00  0.00     0.000 C 
BRANCH   6   7
ATOM      7  C   UNL     1     -13.520  23.303  42.105  1.00  0.00     0.000 C 
BRANCH   7   8
ATOM      8  C   UNL     1     -13.134  24.431  41.126  1.00  0.00     0.000 C 
BRANCH   8   9
ATOM      9  C   UNL     1     -12.116  25.452  41.682  1.00  0.00     0.000 C 
BRANCH   9  10
ATOM     10  C   UNL     1     -12.670  26.885  41.803  1.00  0.00     0.000 C 
BRANCH  10  11
ATOM     11  C   UNL     1     -13.804  27.054  42.829  1.00  0.00     0.000 C 
BRANCH  11  12
ATOM     12  C   UNL     1     -14.629  28.333  42.599  1.00  0.00     0.000 C 
BRANCH  12  13
ATOM     13  C   UNL     1     -13.752  29.591  42.518  1.00  0.00     0.006 C 
BRANCH  13  14
ATOM     14  C   UNL     1     -13.979  30.384  41.224  1.00  0.00     0.053 C 
BRANCH  14  15
ATOM     15  C   UNL     1     -12.674  30.858  40.668  1.00  0.00     0.041 C 
ATOM     16  O   UNL     1     -12.602  31.966  40.074  1.00  0.00    -0.550 OA
ATOM     17  O   UNL     1     -11.525  30.099  40.851  1.00  0.00    -0.550 OA
ENDBRANCH  14  15
ENDBRANCH  13  14
ENDBRANCH  12  13
ENDBRANCH  11  12
ENDBRANCH  10  11
ENDBRANCH   9  10
ENDBRANCH   8   9
ENDBRANCH   7   8
ENDBRANCH   6   7
ENDBRANCH   5   6
ENDBRANCH   4   5
ENDBRANCH   3   4
ENDBRANCH   2   3
ENDBRANCH   1   2
BRANCH   1  18
ATOM     18  C   UNL     1     -17.690  20.745  43.988  1.00  0.00     0.000 C 
BRANCH  18  19
ATOM     19  C   UNL     1     -18.160  19.971  45.231  1.00  0.00     0.000 C 
BRANCH  19  20
ATOM     20  C   UNL     1     -19.328  20.664  45.957  1.00  0.00     0.000 C 
BRANCH  20  21
ATOM     21  C   UNL     1     -19.737  22.029  45.370  1.00  0.00     0.000 C 
BRANCH  21  22
ATOM     22  C   UNL     1     -19.484  23.239  46.294  1.00  0.00     0.000 C 
BRANCH  22  23
ATOM     23  C   UNL     1     -18.069  23.845  46.201  1.00  0.00     0.000 C 
BRANCH  23  24
ATOM     24  C   UNL     1     -18.030  25.379  46.088  1.00  0.00    -0.000 C 
BRANCH  24  25
ATOM     25  C   UNL     1     -16.899  25.876  45.171  1.00  0.00    -0.000 C 
BRANCH  25  26
ATOM     26  C   UNL     1     -16.305  24.752  44.307  1.00  0.00    -0.000 C 
BRANCH  26  27
ATOM     27  C   UNL     1     -16.609  24.939  42.809  1.00  0.00    -0.000 C 
BRANCH  27  28
ATOM     28  C   UNL     1     -17.639  23.926  42.285  1.00  0.00    -0.000 C 
BRANCH  28  29
ATOM     29  C   UNL     1     -19.089  24.405  42.475  1.00  0.00    -0.000 C 
BRANCH  29  30
ATOM     30  C   UNL     1     -19.264  25.897  42.153  1.00  0.00    -0.000 C 
BRANCH  30  31
ATOM     31  C   UNL     1     -20.273  26.591  43.080  1.00  0.00    -0.003 C 
ATOM     32  C   UNL     1     -21.086  25.568  43.870  1.00  0.00     0.004 C 
ENDBRANCH  30  31
ENDBRANCH  29  30
ENDBRANCH  28  29
ENDBRANCH  27  28
ENDBRANCH  26  27
ENDBRANCH  25  26
ENDBRANCH  24  25
ENDBRANCH  23  24
ENDBRANCH  22  23
ENDBRANCH  21  22
ENDBRANCH  20  21
ENDBRANCH  19  20
ENDBRANCH  18  19
ENDBRANCH   1  18
TORSDOF 28
ENDMDL
MODEL 5
REMARK VINA RESULT:    -3.302      2.613      5.038
REMARK INTER + INTRA:         -14.527
REMARK INTER:                  -8.878
REMARK INTRA:                  -5.650
REMARK UNBOUND:                -5.821
REMARK SMILES CCCCCCCCCCCCCCCCCCCCCCCCCCCCCC(=O)[O-]
REMARK SMILES IDX 16 1 17 2 18 3 19 4 20 5 21 6 22 7 23 8 24 9 25 10 26 11
REMARK SMILES IDX 27 12 28 13 29 14 30 15 31 16 32 17 15 18 14 19 13 20 12 21
REMARK SMILES IDX 11 22 10 23 9 24 8 25 7 26 6 27 5 28 4 29 3 30 2 31 1 32
REMARK H PARENT
REMARK Flexibility Score: inf
ROOT
ATOM      1  C   UNL     1     -18.161  23.582  47.060  1.00  0.00     0.000 C 
ENDROOT
BRANCH   1   2
ATOM      2  C   UNL     1     -17.283  24.393  46.093  1.00  0.00     0.000 C 
BRANCH   2   3
ATOM      3  C   UNL     1     -15.850  23.846  45.982  1.00  0.00     0.000 C 
BRANCH   3   4
ATOM      4  C   UNL     1     -15.522  22.749  47.016  1.00  0.00     0.000 C 
BRANCH   4   5
ATOM      5  C   UNL     1     -14.019  22.660  47.322  1.00  0.00     0.000 C 
BRANCH   5   6
ATOM      6  C   UNL     1     -13.638  21.254  47.808  1.00  0.00     0.000 C 
BRANCH   6   7
ATOM      7  C   UNL     1     -14.582  20.152  47.286  1.00  0.00     0.000 C 
BRANCH   7   8
ATOM      8  C   UNL     1     -13.975  19.196  46.238  1.00  0.00     0.000 C 
BRANCH   8   9
ATOM      9  C   UNL     1     -12.483  19.445  45.920  1.00  0.00     0.000 C 
BRANCH   9  10
ATOM     10  C   UNL     1     -12.214  19.845  44.456  1.00  0.00     0.000 C 
BRANCH  10  11
ATOM     11  C   UNL     1     -13.002  21.071  43.966  1.00  0.00     0.000 C 
BRANCH  11  12
ATOM     12  C   UNL     1     -12.209  22.383  44.104  1.00  0.00     0.000 C 
BRANCH  12  13
ATOM     13  C   UNL     1     -12.976  23.594  43.554  1.00  0.00     0.006 C 
BRANCH  13  14
ATOM     14  C   UNL     1     -13.759  23.263  42.277  1.00  0.00     0.053 C 
BRANCH  14  15
ATOM     15  C   UNL     1     -13.534  24.317  41.239  1.00  0.00     0.041 C 
ATOM     16  O   UNL     1     -13.558  25.535  41.557  1.00  0.00    -0.550 OA
ATOM     17  O   UNL     1     -13.249  23.953  39.930  1.00  0.00    -0.550 OA
ENDBRANCH  14  15
ENDBRANCH  13  14
ENDBRANCH  12  13
ENDBRANCH  11  12
ENDBRANCH  10  11
ENDBRANCH   9  10
ENDBRANCH   8   9
ENDBRANCH   7   8
ENDBRANCH   6   7
ENDBRANCH   5   6
ENDBRANCH   4   5
ENDBRANCH   3   4
ENDBRANCH   2   3
ENDBRANCH   1   2
BRANCH   1  18
ATOM     18  C   UNL     1     -19.320  22.872  46.342  1.00  0.00     0.000 C 
BRANCH  18  19
ATOM     19  C   UNL     1     -19.313  21.352  46.578  1.00  0.00     0.000 C 
BRANCH  19  20
ATOM     20  C   UNL     1     -18.969  20.555  45.306  1.00  0.00     0.000 C 
BRANCH  20  21
ATOM     21  C   UNL     1     -17.480  20.190  45.153  1.00  0.00     0.000 C 
BRANCH  21  22
ATOM     22  C   UNL     1     -16.729  20.960  44.047  1.00  0.00     0.000 C 
BRANCH  22  23
ATOM     23  C   UNL     1     -17.629  21.571  42.954  1.00  0.00     0.000 C 
BRANCH  23  24
ATOM     24  C   UNL     1     -17.365  23.059  42.658  1.00  0.00    -0.000 C 
BRANCH  24  25
ATOM     25  C   UNL     1     -18.655  23.898  42.654  1.00  0.00    -0.000 C 
BRANCH  25  26
ATOM     26  C   UNL     1     -18.374  25.410  42.679  1.00  0.00    -0.000 C 
BRANCH  26  27
ATOM     27  C   UNL     1     -19.472  26.224  41.972  1.00  0.00    -0.000 C 
BRANCH  27  28
ATOM     28  C   UNL     1     -20.224  27.160  42.931  1.00  0.00    -0.000 C 
BRANCH  28  29
ATOM     29  C   UNL     1     -19.982  26.809  44.410  1.00  0.00    -0.000 C 
BRANCH  29  30
ATOM     30  C   UNL     1     -20.901  25.683  44.907  1.00  0.00    -0.000 C 
BRANCH  30  31
ATOM     31  C   UNL     1     -22.391  26.020  44.753  1.00  0.00    -0.003 C 
ATOM     32  C   UNL     1     -23.185  24.799  44.294  1.00  0.00     0.004 C 
ENDBRANCH  30  31
ENDBRANCH  29  30
ENDBRANCH  28  29
ENDBRANCH  27  28
ENDBRANCH  26  27
ENDBRANCH  25  26
ENDBRANCH  24  25
ENDBRANCH  23  24
ENDBRANCH  22  23
ENDBRANCH  21  22
ENDBRANCH  20  21
ENDBRANCH  19  20
ENDBRANCH  18  19
ENDBRANCH   1  18
TORSDOF 28
ENDMDL
MODEL 6
REMARK VINA RESULT:    -3.279      4.123      7.949
REMARK INTER + INTRA:         -14.466
REMARK INTER:                  -8.500
REMARK INTRA:                  -5.966
REMARK UNBOUND:                -5.821
REMARK SMILES CCCCCCCCCCCCCCCCCCCCCCCCCCCCCC(=O)[O-]
REMARK SMILES IDX 16 1 17 2 18 3 19 4 20 5 21 6 22 7 23 8 24 9 25 10 26 11
REMARK SMILES IDX 27 12 28 13 29 14 30 15 31 16 32 17 15 18 14 19 13 20 12 21
REMARK SMILES IDX 11 22 10 23 9 24 8 25 7 26 6 27 5 28 4 29 3 30 2 31 1 32
REMARK H PARENT
REMARK Flexibility Score: inf
ROOT
ATOM      1  C   UNL     1     -19.033  21.028  45.394  1.00  0.00     0.000 C 
ENDROOT
BRANCH   1   2
ATOM      2  C   UNL     1     -19.568  21.000  46.835  1.00  0.00     0.000 C 
BRANCH   2   3
ATOM      3  C   UNL     1     -21.097  20.844  46.905  1.00  0.00     0.000 C 
BRANCH   3   4
ATOM      4  C   UNL     1     -21.852  22.181  47.053  1.00  0.00     0.000 C 
BRANCH   4   5
ATOM      5  C   UNL     1     -21.130  23.162  47.991  1.00  0.00     0.000 C 
BRANCH   5   6
ATOM      6  C   UNL     1     -21.398  24.617  47.576  1.00  0.00     0.000 C 
BRANCH   6   7
ATOM      7  C   UNL     1     -20.257  25.234  46.743  1.00  0.00     0.000 C 
BRANCH   7   8
ATOM      8  C   UNL     1     -20.690  25.941  45.442  1.00  0.00     0.000 C 
BRANCH   8   9
ATOM      9  C   UNL     1     -21.293  25.009  44.366  1.00  0.00     0.000 C 
BRANCH   9  10
ATOM     10  C   UNL     1     -22.795  25.238  44.110  1.00  0.00     0.000 C 
BRANCH  10  11
ATOM     11  C   UNL     1     -23.706  24.068  44.516  1.00  0.00     0.000 C 
BRANCH  11  12
ATOM     12  C   UNL     1     -24.620  24.410  45.707  1.00  0.00     0.000 C 
BRANCH  12  13
ATOM     13  C   UNL     1     -25.325  23.173  46.282  1.00  0.00     0.006 C 
BRANCH  13  14
ATOM     14  C   UNL     1     -25.099  21.918  45.429  1.00  0.00     0.053 C 
BRANCH  14  15
ATOM     15  C   UNL     1     -25.438  20.689  46.210  1.00  0.00     0.041 C 
ATOM     16  O   UNL     1     -24.527  19.904  46.585  1.00  0.00    -0.550 OA
ATOM     17  O   UNL     1     -26.755  20.435  46.568  1.00  0.00    -0.550 OA
ENDBRANCH  14  15
ENDBRANCH  13  14
ENDBRANCH  12  13
ENDBRANCH  11  12
ENDBRANCH  10  11
ENDBRANCH   9  10
ENDBRANCH   8   9
ENDBRANCH   7   8
ENDBRANCH   6   7
ENDBRANCH   5   6
ENDBRANCH   4   5
ENDBRANCH   3   4
ENDBRANCH   2   3
ENDBRANCH   1   2
BRANCH   1  18
ATOM     18  C   UNL     1     -19.085  22.435  44.777  1.00  0.00     0.000 C 
BRANCH  18  19
ATOM     19  C   UNL     1     -18.299  22.527  43.458  1.00  0.00     0.000 C 
BRANCH  19  20
ATOM     20  C   UNL     1     -17.309  21.362  43.273  1.00  0.00     0.000 C 
BRANCH  20  21
ATOM     21  C   UNL     1     -15.835  21.714  43.554  1.00  0.00     0.000 C 
BRANCH  21  22
ATOM     22  C   UNL     1     -15.289  21.207  44.905  1.00  0.00     0.000 C 
BRANCH  22  23
ATOM     23  C   UNL     1     -14.922  22.313  45.915  1.00  0.00     0.000 C 
BRANCH  23  24
ATOM     24  C   UNL     1     -16.031  22.660  46.924  1.00  0.00    -0.000 C 
BRANCH  24  25
ATOM     25  C   UNL     1     -16.570  24.090  46.742  1.00  0.00    -0.000 C 
BRANCH  25  26
ATOM     26  C   UNL     1     -15.840  24.857  45.627  1.00  0.00    -0.000 C 
BRANCH  26  27
ATOM     27  C   UNL     1     -16.807  25.405  44.561  1.00  0.00    -0.000 C 
BRANCH  27  28
ATOM     28  C   UNL     1     -16.121  25.639  43.206  1.00  0.00    -0.000 C 
BRANCH  28  29
ATOM     29  C   UNL     1     -14.618  25.311  43.240  1.00  0.00    -0.000 C 
BRANCH  29  30
ATOM     30  C   UNL     1     -14.122  24.683  41.928  1.00  0.00    -0.000 C 
BRANCH  30  31
ATOM     31  C   UNL     1     -13.190  23.485  42.157  1.00  0.00    -0.003 C 
ATOM     32  C   UNL     1     -12.414  23.636  43.464  1.00  0.00     0.004 C 
ENDBRANCH  30  31
ENDBRANCH  29  30
ENDBRANCH  28  29
ENDBRANCH  27  28
ENDBRANCH  26  27
ENDBRANCH  25  26
ENDBRANCH  24  25
ENDBRANCH  23  24
ENDBRANCH  22  23
ENDBRANCH  21  22
ENDBRANCH  20  21
ENDBRANCH  19  20
ENDBRANCH  18  19
ENDBRANCH   1  18
TORSDOF 28
ENDMDL
MODEL 7
REMARK VINA RESULT:    -3.276      1.940      6.141
REMARK INTER + INTRA:         -14.460
REMARK INTER:                  -8.470
REMARK INTRA:                  -5.990
REMARK UNBOUND:                -5.821
REMARK SMILES CCCCCCCCCCCCCCCCCCCCCCCCCCCCCC(=O)[O-]
REMARK SMILES IDX 16 1 17 2 18 3 19 4 20 5 21 6 22 7 23 8 24 9 25 10 26 11
REMARK SMILES IDX 27 12 28 13 29 14 30 15 31 16 32 17 15 18 14 19 13 20 12 21
REMARK SMILES IDX 11 22 10 23 9 24 8 25 7 26 6 27 5 28 4 29 3 30 2 31 1 32
REMARK H PARENT
REMARK Flexibility Score: inf
ROOT
ATOM      1  C   UNL     1     -20.790  21.947  47.006  1.00  0.00     0.000 C 
ENDROOT
BRANCH   1   2
ATOM      2  C   UNL     1     -22.285  21.838  46.662  1.00  0.00     0.000 C 
BRANCH   2   3
ATOM      3  C   UNL     1     -22.984  23.206  46.585  1.00  0.00     0.000 C 
BRANCH   3   4
ATOM      4  C   UNL     1     -23.167  23.730  45.146  1.00  0.00     0.000 C 
BRANCH   4   5
ATOM      5  C   UNL     1     -22.515  25.105  44.933  1.00  0.00     0.000 C 
BRANCH   5   6
ATOM      6  C   UNL     1     -21.654  25.498  46.143  1.00  0.00     0.000 C 
BRANCH   6   7
ATOM      7  C   UNL     1     -20.801  26.759  45.900  1.00  0.00     0.000 C 
BRANCH   7   8
ATOM      8  C   UNL     1     -19.275  26.535  45.866  1.00  0.00     0.000 C 
BRANCH   8   9
ATOM      9  C   UNL     1     -18.831  25.064  46.038  1.00  0.00     0.000 C 
BRANCH   9  10
ATOM     10  C   UNL     1     -18.231  24.439  44.764  1.00  0.00     0.000 C 
BRANCH  10  11
ATOM     11  C   UNL     1     -19.213  24.293  43.591  1.00  0.00     0.000 C 
BRANCH  11  12
ATOM     12  C   UNL     1     -18.657  24.862  42.274  1.00  0.00     0.000 C 
BRANCH  12  13
ATOM     13  C   UNL     1     -18.783  26.391  42.195  1.00  0.00     0.006 C 
BRANCH  13  14
ATOM     14  C   UNL     1     -20.237  26.868  42.311  1.00  0.00     0.053 C 
BRANCH  14  15
ATOM     15  C   UNL     1     -20.286  28.355  42.468  1.00  0.00     0.041 C 
ATOM     16  O   UNL     1     -21.326  28.913  42.907  1.00  0.00    -0.550 OA
ATOM     17  O   UNL     1     -19.165  29.121  42.176  1.00  0.00    -0.550 OA
ENDBRANCH  14  15
ENDBRANCH  13  14
ENDBRANCH  12  13
ENDBRANCH  11  12
ENDBRANCH  10  11
ENDBRANCH   9  10
ENDBRANCH   8   9
ENDBRANCH   7   8
ENDBRANCH   6   7
ENDBRANCH   5   6
ENDBRANCH   4   5
ENDBRANCH   3   4
ENDBRANCH   2   3
ENDBRANCH   1   2
BRANCH   1  18
ATOM     18  C   UNL     1     -19.889  21.464  45.859  1.00  0.00     0.000 C 
BRANCH  18  19
ATOM     19  C   UNL     1     -19.385  20.026  46.074  1.00  0.00     0.000 C 
BRANCH  19  20
ATOM     20  C   UNL     1     -18.197  19.670  45.161  1.00  0.00     0.000 C 
BRANCH  20  21
ATOM     21  C   UNL     1     -17.720  20.812  44.243  1.00  0.00     0.000 C 
BRANCH  21  22
ATOM     22  C   UNL     1     -16.231  21.189  44.389  1.00  0.00     0.000 C 
BRANCH  22  23
ATOM     23  C   UNL     1     -15.678  22.101  43.275  1.00  0.00     0.000 C 
BRANCH  23  24
ATOM     24  C   UNL     1     -14.144  22.101  43.144  1.00  0.00    -0.000 C 
BRANCH  24  25
ATOM     25  C   UNL     1     -13.605  23.399  42.518  1.00  0.00    -0.000 C 
BRANCH  25  26
ATOM     26  C   UNL     1     -14.724  24.394  42.168  1.00  0.00    -0.000 C 
BRANCH  26  27
ATOM     27  C   UNL     1     -14.461  25.799  42.739  1.00  0.00    -0.000 C 
BRANCH  27  28
ATOM     28  C   UNL     1     -15.338  26.114  43.961  1.00  0.00    -0.000 C 
BRANCH  28  29
ATOM     29  C   UNL     1     -14.595  25.905  45.292  1.00  0.00    -0.000 C 
BRANCH  29  30
ATOM     30  C   UNL     1     -14.921  24.553  45.944  1.00  0.00    -0.000 C 
BRANCH  30  31
ATOM     31  C   UNL     1     -13.690  23.883  46.571  1.00  0.00    -0.003 C 
ATOM     32  C   UNL     1     -12.414  24.279  45.832  1.00  0.00     0.004 C 
ENDBRANCH  30  31
ENDBRANCH  29  30
ENDBRANCH  28  29
ENDBRANCH  27  28
ENDBRANCH  26  27
ENDBRANCH  25  26
ENDBRANCH  24  25
ENDBRANCH  23  24
ENDBRANCH  22  23
ENDBRANCH  21  22
ENDBRANCH  20  21
ENDBRANCH  19  20
ENDBRANCH  18  19
ENDBRANCH   1  18
TORSDOF 28
ENDMDL
MODEL 8
REMARK VINA RESULT:    -3.218      1.259      2.729
REMARK INTER + INTRA:         -14.307
REMARK INTER:                  -8.112
REMARK INTRA:                  -6.195
REMARK UNBOUND:                -5.821
REMARK SMILES CCCCCCCCCCCCCCCCCCCCCCCCCCCCCC(=O)[O-]
REMARK SMILES IDX 16 1 17 2 18 3 19 4 20 5 21 6 22 7 23 8 24 9 25 10 26 11
REMARK SMILES IDX 27 12 28 13 29 14 30 15 31 16 32 17 15 18 14 19 13 20 12 21
REMARK SMILES IDX 11 22 10 23 9 24 8 25 7 26 6 27 5 28 4 29 3 30 2 31 1 32
REMARK H PARENT
REMARK Flexibility Score: inf
ROOT
ATOM      1  C   UNL     1     -17.569  24.682  46.237  1.00  0.00     0.000 C 
ENDROOT
BRANCH   1   2
ATOM      2  C   UNL     1     -16.326  23.804  46.452  1.00  0.00     0.000 C 
BRANCH   2   3
ATOM      3  C   UNL     1     -15.217  24.071  45.420  1.00  0.00     0.000 C 
BRANCH   3   4
ATOM      4  C   UNL     1     -13.953  23.212  45.631  1.00  0.00     0.000 C 
BRANCH   4   5
ATOM      5  C   UNL     1     -13.576  22.405  44.379  1.00  0.00     0.000 C 
BRANCH   5   6
ATOM      6  C   UNL     1     -12.846  23.287  43.355  1.00  0.00     0.000 C 
BRANCH   6   7
ATOM      7  C   UNL     1     -13.470  23.231  41.946  1.00  0.00     0.000 C 
BRANCH   7   8
ATOM      8  C   UNL     1     -13.673  24.594  41.253  1.00  0.00     0.000 C 
BRANCH   8   9
ATOM      9  C   UNL     1     -13.352  25.824  42.132  1.00  0.00     0.000 C 
BRANCH   9  10
ATOM     10  C   UNL     1     -14.592  26.468  42.781  1.00  0.00     0.000 C 
BRANCH  10  11
ATOM     11  C   UNL     1     -14.414  27.938  43.198  1.00  0.00     0.000 C 
BRANCH  11  12
ATOM     12  C   UNL     1     -15.723  28.743  43.116  1.00  0.00     0.000 C 
BRANCH  12  13
ATOM     13  C   UNL     1     -16.212  28.926  41.671  1.00  0.00     0.006 C 
BRANCH  13  14
ATOM     14  C   UNL     1     -17.709  28.631  41.515  1.00  0.00     0.053 C 
BRANCH  14  15
ATOM     15  C   UNL     1     -18.483  29.907  41.411  1.00  0.00     0.041 C 
ATOM     16  O   UNL     1     -19.704  29.936  41.718  1.00  0.00    -0.550 OA
ATOM     17  O   UNL     1     -17.843  31.076  41.021  1.00  0.00    -0.550 OA
ENDBRANCH  14  15
ENDBRANCH  13  14
ENDBRANCH  12  13
ENDBRANCH  11  12
ENDBRANCH  10  11
ENDBRANCH   9  10
ENDBRANCH   8   9
ENDBRANCH   7   8
ENDBRANCH   6   7
ENDBRANCH   5   6
ENDBRANCH   4   5
ENDBRANCH   3   4
ENDBRANCH   2   3
ENDBRANCH   1   2
BRANCH   1  18
ATOM     18  C   UNL     1     -18.846  24.038  46.801  1.00  0.00     0.000 C 
BRANCH  18  19
ATOM     19  C   UNL     1     -19.522  23.094  45.792  1.00  0.00     0.000 C 
BRANCH  19  20
ATOM     20  C   UNL     1     -19.394  21.612  46.186  1.00  0.00     0.000 C 
BRANCH  20  21
ATOM     21  C   UNL     1     -18.794  20.700  45.097  1.00  0.00     0.000 C 
BRANCH  21  22
ATOM     22  C   UNL     1     -17.298  20.933  44.803  1.00  0.00     0.000 C 
BRANCH  22  23
ATOM     23  C   UNL     1     -16.979  21.376  43.360  1.00  0.00     0.000 C 
BRANCH  23  24
ATOM     24  C   UNL     1     -17.908  22.467  42.800  1.00  0.00    -0.000 C 
BRANCH  24  25
ATOM     25  C   UNL     1     -17.145  23.739  42.389  1.00  0.00    -0.000 C 
BRANCH  25  26
ATOM     26  C   UNL     1     -17.882  25.025  42.797  1.00  0.00    -0.000 C 
BRANCH  26  27
ATOM     27  C   UNL     1     -19.317  25.082  42.244  1.00  0.00    -0.000 C 
BRANCH  27  28
ATOM     28  C   UNL     1     -20.092  26.315  42.737  1.00  0.00    -0.000 C 
BRANCH  28  29
ATOM     29  C   UNL     1     -20.868  26.044  44.037  1.00  0.00    -0.000 C 
BRANCH  29  30
ATOM     30  C   UNL     1     -20.430  26.964  45.187  1.00  0.00    -0.000 C 
BRANCH  30  31
ATOM     31  C   UNL     1     -19.435  28.044  44.739  1.00  0.00    -0.003 C 
ATOM     32  C   UNL     1     -18.299  28.196  45.747  1.00  0.00     0.004 C 
ENDBRANCH  30  31
ENDBRANCH  29  30
ENDBRANCH  28  29
ENDBRANCH  27  28
ENDBRANCH  26  27
ENDBRANCH  25  26
ENDBRANCH  24  25
ENDBRANCH  23  24
ENDBRANCH  22  23
ENDBRANCH  21  22
ENDBRANCH  20  21
ENDBRANCH  19  20
ENDBRANCH  18  19
ENDBRANCH   1  18
TORSDOF 28
ENDMDL
MODEL 9
REMARK VINA RESULT:    -3.198      1.283      5.436
REMARK INTER + INTRA:         -14.255
REMARK INTER:                  -7.880
REMARK INTRA:                  -6.374
REMARK UNBOUND:                -5.821
REMARK SMILES CCCCCCCCCCCCCCCCCCCCCCCCCCCCCC(=O)[O-]
REMARK SMILES IDX 16 1 17 2 18 3 19 4 20 5 21 6 22 7 23 8 24 9 25 10 26 11
REMARK SMILES IDX 27 12 28 13 29 14 30 15 31 16 32 17 15 18 14 19 13 20 12 21
REMARK SMILES IDX 11 22 10 23 9 24 8 25 7 26 6 27 5 28 4 29 3 30 2 31 1 32
REMARK H PARENT
REMARK Flexibility Score: inf
ROOT
ATOM      1  C   UNL     1     -18.010  22.325  43.384  1.00  0.00     0.000 C 
ENDROOT
BRANCH   1   2
ATOM      2  C   UNL     1     -17.308  21.065  43.916  1.00  0.00     0.000 C 
BRANCH   2   3
ATOM      3  C   UNL     1     -17.678  20.742  45.373  1.00  0.00     0.000 C 
BRANCH   3   4
ATOM      4  C   UNL     1     -19.104  20.181  45.543  1.00  0.00     0.000 C 
BRANCH   4   5
ATOM      5  C   UNL     1     -20.042  21.166  46.257  1.00  0.00     0.000 C 
BRANCH   5   6
ATOM      6  C   UNL     1     -19.247  22.295  46.928  1.00  0.00     0.000 C 
BRANCH   6   7
ATOM      7  C   UNL     1     -19.617  23.697  46.406  1.00  0.00     0.000 C 
BRANCH   7   8
ATOM      8  C   UNL     1     -20.889  23.769  45.535  1.00  0.00     0.000 C 
BRANCH   8   9
ATOM      9  C   UNL     1     -20.747  24.610  44.246  1.00  0.00     0.000 C 
BRANCH   9  10
ATOM     10  C   UNL     1     -21.665  25.846  44.203  1.00  0.00     0.000 C 
BRANCH  10  11
ATOM     11  C   UNL     1     -20.944  27.194  44.375  1.00  0.00     0.000 C 
BRANCH  11  12
ATOM     12  C   UNL     1     -19.468  27.138  43.942  1.00  0.00     0.000 C 
BRANCH  12  13
ATOM     13  C   UNL     1     -19.269  27.556  42.478  1.00  0.00     0.006 C 
BRANCH  13  14
ATOM     14  C   UNL     1     -20.001  28.860  42.134  1.00  0.00     0.053 C 
BRANCH  14  15
ATOM     15  C   UNL     1     -19.020  29.973  41.942  1.00  0.00     0.041 C 
ATOM     16  O   UNL     1     -18.696  30.341  40.782  1.00  0.00    -0.550 OA
ATOM     17  O   UNL     1     -18.500  30.638  43.045  1.00  0.00    -0.550 OA
ENDBRANCH  14  15
ENDBRANCH  13  14
ENDBRANCH  12  13
ENDBRANCH  11  12
ENDBRANCH  10  11
ENDBRANCH   9  10
ENDBRANCH   8   9
ENDBRANCH   7   8
ENDBRANCH   6   7
ENDBRANCH   5   6
ENDBRANCH   4   5
ENDBRANCH   3   4
ENDBRANCH   2   3
ENDBRANCH   1   2
BRANCH   1  18
ATOM     18  C   UNL     1     -17.099  23.162  42.472  1.00  0.00     0.000 C 
BRANCH  18  19
ATOM     19  C   UNL     1     -16.877  24.585  43.011  1.00  0.00     0.000 C 
BRANCH  19  20
ATOM     20  C   UNL     1     -16.834  24.639  44.549  1.00  0.00     0.000 C 
BRANCH  20  21
ATOM     21  C   UNL     1     -15.419  24.612  45.160  1.00  0.00     0.000 C 
BRANCH  21  22
ATOM     22  C   UNL     1     -15.027  23.285  45.842  1.00  0.00     0.000 C 
BRANCH  22  23
ATOM     23  C   UNL     1     -13.730  22.639  45.314  1.00  0.00     0.000 C 
BRANCH  23  24
ATOM     24  C   UNL     1     -13.775  22.216  43.835  1.00  0.00    -0.000 C 
BRANCH  24  25
ATOM     25  C   UNL     1     -12.845  23.065  42.950  1.00  0.00    -0.000 C 
BRANCH  25  26
ATOM     26  C   UNL     1     -13.525  23.518  41.647  1.00  0.00    -0.000 C 
BRANCH  26  27
ATOM     27  C   UNL     1     -13.480  25.046  41.462  1.00  0.00    -0.000 C 
BRANCH  27  28
ATOM     28  C   UNL     1     -12.659  25.750  42.554  1.00  0.00    -0.000 C 
BRANCH  28  29
ATOM     29  C   UNL     1     -13.452  26.861  43.266  1.00  0.00    -0.000 C 
BRANCH  29  30
ATOM     30  C   UNL     1     -14.088  27.854  42.282  1.00  0.00    -0.000 C 
BRANCH  30  31
ATOM     31  C   UNL     1     -15.598  28.024  42.501  1.00  0.00    -0.003 C 
ATOM     32  C   UNL     1     -15.911  28.289  43.972  1.00  0.00     0.004 C 
ENDBRANCH  30  31
ENDBRANCH  29  30
ENDBRANCH  28  29
ENDBRANCH  27  28
ENDBRANCH  26  27
ENDBRANCH  25  26
ENDBRANCH  24  25
ENDBRANCH  23  24
ENDBRANCH  22  23
ENDBRANCH  21  22
ENDBRANCH  20  21
ENDBRANCH  19  20
ENDBRANCH  18  19
ENDBRANCH   1  18
TORSDOF 28
ENDMDL
