MODEL 1
REMARK VINA RESULT:    -4.861      0.000      0.000
REMARK INTER + INTRA:          -4.861
REMARK INTER:                  -4.861
REMARK INTRA:                   0.000
REMARK UNBOUND:                 0.000
REMARK SMILES CC1(C)O[C@]2(C)CC[C@H]1CC2
REMARK SMILES IDX 1 1 2 2 9 3 10 4 11 5 5 6 4 7 7 8 8 9 6 10 3 11
REMARK H PARENT
REMARK Flexibility Score: inf
ROOT
ATOM      1  C   UNL     1       1.997   7.657   5.340  1.00  0.00     0.042 C 
ATOM      2  C   UNL     1       0.581   7.056   5.472  1.00  0.00     0.066 C 
ATOM      3  C   UNL     1      -0.515   8.188   5.391  1.00  0.00     0.021 C 
ATOM      4  C   UNL     1      -0.438   8.845   3.993  1.00  0.00     0.009 C 
ATOM      5  C   UNL     1      -0.491   7.741   2.909  1.00  0.00     0.035 C 
ATOM      6  C   UNL     1      -0.695   6.352   3.580  1.00  0.00     0.066 C 
ATOM      7  O   UNL     1       0.414   6.077   4.437  1.00  0.00    -0.369 OA
ATOM      8  C   UNL     1      -1.999   6.388   4.429  1.00  0.00     0.035 C 
ATOM      9  C   UNL     1      -1.911   7.524   5.477  1.00  0.00     0.009 C 
ATOM     10  C   UNL     1      -0.784   5.254   2.516  1.00  0.00     0.042 C 
ATOM     11  C   UNL     1       0.516   6.329   6.833  1.00  0.00     0.042 C 
ENDROOT
TORSDOF 0
ENDMDL
MODEL 2
REMARK VINA RESULT:    -4.255      1.145      2.729
REMARK INTER + INTRA:          -4.255
REMARK INTER:                  -4.255
REMARK INTRA:                   0.000
REMARK UNBOUND:                 0.000
REMARK SMILES CC1(C)O[C@]2(C)CC[C@H]1CC2
REMARK SMILES IDX 1 1 2 2 9 3 10 4 11 5 5 6 4 7 7 8 8 9 6 10 3 11
REMARK H PARENT
REMARK Flexibility Score: inf
ROOT
ATOM      1  C   UNL     1      -1.562  10.026   3.898  1.00  0.00     0.042 C 
ATOM      2  C   UNL     1      -0.420   8.995   4.025  1.00  0.00     0.066 C 
ATOM      3  C   UNL     1      -0.362   8.403   5.486  1.00  0.00     0.021 C 
ATOM      4  C   UNL     1      -1.682   7.643   5.758  1.00  0.00     0.009 C 
ATOM      5  C   UNL     1      -1.939   6.641   4.607  1.00  0.00     0.035 C 
ATOM      6  C   UNL     1      -0.743   6.665   3.611  1.00  0.00     0.066 C 
ATOM      7  O   UNL     1      -0.633   7.971   3.042  1.00  0.00    -0.369 OA
ATOM      8  C   UNL     1       0.566   6.332   4.383  1.00  0.00     0.035 C 
ATOM      9  C   UNL     1       0.763   7.341   5.540  1.00  0.00     0.009 C 
ATOM     10  C   UNL     1      -0.967   5.652   2.483  1.00  0.00     0.042 C 
ATOM     11  C   UNL     1       0.897   9.724   3.679  1.00  0.00     0.042 C 
ENDROOT
TORSDOF 0
ENDMDL
MODEL 3
REMARK VINA RESULT:    -4.192      1.381      3.152
REMARK INTER + INTRA:          -4.192
REMARK INTER:                  -4.192
REMARK INTRA:                   0.000
REMARK UNBOUND:                 0.000
REMARK SMILES CC1(C)O[C@]2(C)CC[C@H]1CC2
REMARK SMILES IDX 1 1 2 2 9 3 10 4 11 5 5 6 4 7 7 8 8 9 6 10 3 11
REMARK H PARENT
REMARK Flexibility Score: inf
ROOT
ATOM      1  C   UNL     1      -3.156   7.410   5.193  1.00  0.00     0.042 C 
ATOM      2  C   UNL     1      -1.657   7.640   5.484  1.00  0.00     0.066 C 
ATOM      3  C   UNL     1      -0.799   6.409   4.996  1.00  0.00     0.021 C 
ATOM      4  C   UNL     1      -0.943   6.291   3.460  1.00  0.00     0.009 C 
ATOM      5  C   UNL     1      -0.631   7.661   2.812  1.00  0.00     0.035 C 
ATOM      6  C   UNL     1      -0.189   8.673   3.909  1.00  0.00     0.066 C 
ATOM      7  O   UNL     1      -1.259   8.857   4.837  1.00  0.00    -0.369 OA
ATOM      8  C   UNL     1       1.046   8.097   4.661  1.00  0.00     0.035 C 
ATOM      9  C   UNL     1       0.694   6.716   5.264  1.00  0.00     0.009 C 
ATOM     10  C   UNL     1       0.157  10.026   3.278  1.00  0.00     0.042 C 
ATOM     11  C   UNL     1      -1.510   7.838   7.008  1.00  0.00     0.042 C 
ENDROOT
TORSDOF 0
ENDMDL
MODEL 4
REMARK VINA RESULT:    -3.961      1.178      2.483
REMARK INTER + INTRA:          -3.961
REMARK INTER:                  -3.961
REMARK INTRA:                   0.000
REMARK UNBOUND:                 0.000
REMARK SMILES CC1(C)O[C@]2(C)CC[C@H]1CC2
REMARK SMILES IDX 1 1 2 2 9 3 10 4 11 5 5 6 4 7 7 8 8 9 6 10 3 11
REMARK H PARENT
REMARK Flexibility Score: inf
ROOT
ATOM      1  C   UNL     1      -1.337   7.435   7.071  1.00  0.00     0.042 C 
ATOM      2  C   UNL     1      -1.481   7.920   5.612  1.00  0.00     0.066 C 
ATOM      3  C   UNL     1      -0.224   8.768   5.179  1.00  0.00     0.021 C 
ATOM      4  C   UNL     1       1.023   7.853   5.224  1.00  0.00     0.009 C 
ATOM      5  C   UNL     1       0.737   6.564   4.416  1.00  0.00     0.035 C 
ATOM      6  C   UNL     1      -0.669   6.658   3.755  1.00  0.00     0.066 C 
ATOM      7  O   UNL     1      -1.662   6.768   4.776  1.00  0.00    -0.369 OA
ATOM      8  C   UNL     1      -0.720   7.926   2.854  1.00  0.00     0.035 C 
ATOM      9  C   UNL     1      -0.399   9.182   3.698  1.00  0.00     0.009 C 
ATOM     10  C   UNL     1      -0.952   5.403   2.923  1.00  0.00     0.042 C 
ATOM     11  C   UNL     1      -2.767   8.772   5.537  1.00  0.00     0.042 C 
ENDROOT
TORSDOF 0
ENDMDL
MODEL 5
REMARK VINA RESULT:    -3.930      1.334      2.982
REMARK INTER + INTRA:          -3.930
REMARK INTER:                  -3.930
REMARK INTRA:                   0.000
REMARK UNBOUND:                 0.000
REMARK SMILES CC1(C)O[C@]2(C)CC[C@H]1CC2
REMARK SMILES IDX 1 1 2 2 9 3 10 4 11 5 5 6 4 7 7 8 8 9 6 10 3 11
REMARK H PARENT
REMARK Flexibility Score: inf
ROOT
ATOM      1  C   UNL     1      -2.185   9.619   5.478  1.00  0.00     0.042 C 
ATOM      2  C   UNL     1      -1.819   8.214   4.953  1.00  0.00     0.066 C 
ATOM      3  C   UNL     1      -1.362   8.284   3.444  1.00  0.00     0.021 C 
ATOM      4  C   UNL     1      -0.077   9.141   3.361  1.00  0.00     0.009 C 
ATOM      5  C   UNL     1       0.958   8.607   4.380  1.00  0.00     0.035 C 
ATOM      6  C   UNL     1       0.398   7.335   5.081  1.00  0.00     0.066 C 
ATOM      7  O   UNL     1      -0.790   7.677   5.797  1.00  0.00    -0.369 OA
ATOM      8  C   UNL     1       0.053   6.271   3.999  1.00  0.00     0.035 C 
ATOM      9  C   UNL     1      -0.960   6.861   2.988  1.00  0.00     0.009 C 
ATOM     10  C   UNL     1       1.426   6.774   6.069  1.00  0.00     0.042 C 
ATOM     11  C   UNL     1      -3.073   7.327   5.103  1.00  0.00     0.042 C 
ENDROOT
TORSDOF 0
ENDMDL
MODEL 6
REMARK VINA RESULT:    -3.908      1.443      3.116
REMARK INTER + INTRA:          -3.908
REMARK INTER:                  -3.908
REMARK INTRA:                   0.000
REMARK UNBOUND:                 0.000
REMARK SMILES CC1(C)O[C@]2(C)CC[C@H]1CC2
REMARK SMILES IDX 1 1 2 2 9 3 10 4 11 5 5 6 4 7 7 8 8 9 6 10 3 11
REMARK H PARENT
REMARK Flexibility Score: inf
ROOT
ATOM      1  C   UNL     1       1.286   9.560   5.495  1.00  0.00     0.042 C 
ATOM      2  C   UNL     1       0.323   8.685   4.663  1.00  0.00     0.066 C 
ATOM      3  C   UNL     1       0.799   7.181   4.658  1.00  0.00     0.021 C 
ATOM      4  C   UNL     1       0.746   6.646   6.109  1.00  0.00     0.009 C 
ATOM      5  C   UNL     1      -0.652   6.936   6.707  1.00  0.00     0.035 C 
ATOM      6  C   UNL     1      -1.564   7.582   5.625  1.00  0.00     0.066 C 
ATOM      7  O   UNL     1      -0.994   8.826   5.213  1.00  0.00    -0.369 OA
ATOM      8  C   UNL     1      -1.649   6.628   4.399  1.00  0.00     0.035 C 
ATOM      9  C   UNL     1      -0.228   6.345   3.855  1.00  0.00     0.009 C 
ATOM     10  C   UNL     1      -2.963   7.843   6.193  1.00  0.00     0.042 C 
ATOM     11  C   UNL     1       0.308   9.257   3.228  1.00  0.00     0.042 C 
ENDROOT
TORSDOF 0
ENDMDL
MODEL 7
REMARK VINA RESULT:    -3.880      1.025      3.443
REMARK INTER + INTRA:          -3.880
REMARK INTER:                  -3.880
REMARK INTRA:                   0.000
REMARK UNBOUND:                 0.000
REMARK SMILES CC1(C)O[C@]2(C)CC[C@H]1CC2
REMARK SMILES IDX 1 1 2 2 9 3 10 4 11 5 5 6 4 7 7 8 8 9 6 10 3 11
REMARK H PARENT
REMARK Flexibility Score: inf
ROOT
ATOM      1  C   UNL     1      -2.268   6.645   4.680  1.00  0.00     0.042 C 
ATOM      2  C   UNL     1      -0.728   6.724   4.592  1.00  0.00     0.066 C 
ATOM      3  C   UNL     1      -0.242   8.223   4.665  1.00  0.00     0.021 C 
ATOM      4  C   UNL     1      -0.640   8.800   6.045  1.00  0.00     0.009 C 
ATOM      5  C   UNL     1      -0.141   7.847   7.157  1.00  0.00     0.035 C 
ATOM      6  C   UNL     1       0.672   6.680   6.526  1.00  0.00     0.066 C 
ATOM      7  O   UNL     1      -0.179   5.933   5.656  1.00  0.00    -0.369 OA
ATOM      8  C   UNL     1       1.852   7.272   5.703  1.00  0.00     0.035 C 
ATOM      9  C   UNL     1       1.306   8.238   4.624  1.00  0.00     0.009 C 
ATOM     10  C   UNL     1       1.202   5.747   7.620  1.00  0.00     0.042 C 
ATOM     11  C   UNL     1      -0.312   6.080   3.252  1.00  0.00     0.042 C 
ENDROOT
TORSDOF 0
ENDMDL
MODEL 8
REMARK VINA RESULT:    -3.842      1.398      3.339
REMARK INTER + INTRA:          -3.842
REMARK INTER:                  -3.842
REMARK INTRA:                   0.000
REMARK UNBOUND:                 0.000
REMARK SMILES CC1(C)O[C@]2(C)CC[C@H]1CC2
REMARK SMILES IDX 1 1 2 2 9 3 10 4 11 5 5 6 4 7 7 8 8 9 6 10 3 11
REMARK H PARENT
REMARK Flexibility Score: inf
ROOT
ATOM      1  C   UNL     1      -0.504   5.883   3.244  1.00  0.00     0.042 C 
ATOM      2  C   UNL     1      -0.780   7.211   3.982  1.00  0.00     0.066 C 
ATOM      3  C   UNL     1      -0.845   6.981   5.541  1.00  0.00     0.021 C 
ATOM      4  C   UNL     1       0.540   6.484   6.020  1.00  0.00     0.009 C 
ATOM      5  C   UNL     1       1.634   7.447   5.500  1.00  0.00     0.035 C 
ATOM      6  C   UNL     1       0.972   8.640   4.751  1.00  0.00     0.066 C 
ATOM      7  O   UNL     1       0.250   8.143   3.623  1.00  0.00    -0.369 OA
ATOM      8  C   UNL     1      -0.016   9.357   5.715  1.00  0.00     0.035 C 
ATOM      9  C   UNL     1      -1.071   8.348   6.230  1.00  0.00     0.009 C 
ATOM     10  C   UNL     1       2.042   9.621   4.260  1.00  0.00     0.042 C 
ATOM     11  C   UNL     1      -2.125   7.758   3.455  1.00  0.00     0.042 C 
ENDROOT
TORSDOF 0
ENDMDL
MODEL 9
REMARK VINA RESULT:    -3.763      1.310      2.606
REMARK INTER + INTRA:          -3.763
REMARK INTER:                  -3.763
REMARK INTRA:                   0.000
REMARK UNBOUND:                 0.000
REMARK SMILES CC1(C)O[C@]2(C)CC[C@H]1CC2
REMARK SMILES IDX 1 1 2 2 9 3 10 4 11 5 5 6 4 7 7 8 8 9 6 10 3 11
REMARK H PARENT
REMARK Flexibility Score: inf
ROOT
ATOM      1  C   UNL     1       0.558   6.251   6.649  1.00  0.00     0.042 C 
ATOM      2  C   UNL     1       0.058   7.511   5.908  1.00  0.00     0.066 C 
ATOM      3  C   UNL     1       0.463   7.460   4.385  1.00  0.00     0.021 C 
ATOM      4  C   UNL     1      -0.242   6.249   3.731  1.00  0.00     0.009 C 
ATOM      5  C   UNL     1      -1.755   6.307   4.050  1.00  0.00     0.035 C 
ATOM      6  C   UNL     1      -2.076   7.608   4.842  1.00  0.00     0.066 C 
ATOM      7  O   UNL     1      -1.364   7.592   6.080  1.00  0.00    -0.369 OA
ATOM      8  C   UNL     1      -1.617   8.836   4.004  1.00  0.00     0.035 C 
ATOM      9  C   UNL     1      -0.107   8.718   3.685  1.00  0.00     0.009 C 
ATOM     10  C   UNL     1      -3.577   7.697   5.135  1.00  0.00     0.042 C 
ATOM     11  C   UNL     1       0.695   8.734   6.603  1.00  0.00     0.042 C 
ENDROOT
TORSDOF 0
ENDMDL
