MODEL 1
REMARK VINA RESULT:    -2.259      0.000      0.000
REMARK INTER + INTRA:          -6.249
REMARK INTER:                  -4.109
REMARK INTRA:                  -2.140
REMARK UNBOUND:                -2.140
REMARK SMILES CCCCCCCCCCCCCCCC(=O)[O-]
REMARK SMILES IDX 9 1 10 2 11 3 12 4 13 5 14 6 15 7 16 8 17 9 18 10 8 11 7 12
REMARK SMILES IDX 6 13 5 14 4 15 3 16 2 17 1 18
REMARK H PARENT
REMARK Flexibility Score: inf
ROOT
ATOM      1  C   UNL     1      87.203  91.648  78.606  1.00  0.00     0.000 C 
ENDROOT
BRANCH   1   2
ATOM      2  C   UNL     1      85.714  91.299  78.757  1.00  0.00     0.000 C 
BRANCH   2   3
ATOM      3  C   UNL     1      85.058  90.916  77.422  1.00  0.00     0.000 C 
BRANCH   3   4
ATOM      4  C   UNL     1      83.858  89.987  77.647  1.00  0.00     0.000 C 
BRANCH   4   5
ATOM      5  C   UNL     1      83.757  88.940  76.527  1.00  0.00     0.000 C 
BRANCH   5   6
ATOM      6  C   UNL     1      84.906  89.046  75.513  1.00  0.00     0.006 C 
BRANCH   6   7
ATOM      7  C   UNL     1      84.408  89.122  74.063  1.00  0.00     0.053 C 
BRANCH   7   8
ATOM      8  C   UNL     1      83.784  90.455  73.796  1.00  0.00     0.041 C 
ATOM      9  O   UNL     1      84.459  91.509  73.937  1.00  0.00    -0.550 OA
ATOM     10  O   UNL     1      82.444  90.537  73.438  1.00  0.00    -0.550 OA
ENDBRANCH   7   8
ENDBRANCH   6   7
ENDBRANCH   5   6
ENDBRANCH   4   5
ENDBRANCH   3   4
ENDBRANCH   2   3
ENDBRANCH   1   2
BRANCH   1  11
ATOM     11  C   UNL     1      88.066  91.067  79.741  1.00  0.00     0.000 C 
BRANCH  11  12
ATOM     12  C   UNL     1      89.496  90.736  79.285  1.00  0.00    -0.000 C 
BRANCH  12  13
ATOM     13  C   UNL     1      90.142  89.627  80.129  1.00  0.00    -0.000 C 
BRANCH  13  14
ATOM     14  C   UNL     1      90.772  88.553  79.233  1.00  0.00    -0.000 C 
BRANCH  14  15
ATOM     15  C   UNL     1      90.022  88.439  77.899  1.00  0.00    -0.000 C 
BRANCH  15  16
ATOM     16  C   UNL     1      89.005  87.288  77.938  1.00  0.00    -0.000 C 
BRANCH  16  17
ATOM     17  C   UNL     1      87.555  87.778  77.806  1.00  0.00    -0.003 C 
ATOM     18  C   UNL     1      86.775  87.680  79.117  1.00  0.00     0.004 C 
ENDBRANCH  16  17
ENDBRANCH  15  16
ENDBRANCH  14  15
ENDBRANCH  13  14
ENDBRANCH  12  13
ENDBRANCH  11  12
ENDBRANCH   1  11
TORSDOF 14
ENDMDL
MODEL 2
REMARK VINA RESULT:    -2.257     16.312     17.777
REMARK INTER + INTRA:          -6.245
REMARK INTER:                  -4.207
REMARK INTRA:                  -2.038
REMARK UNBOUND:                -2.140
REMARK SMILES CCCCCCCCCCCCCCCC(=O)[O-]
REMARK SMILES IDX 9 1 10 2 11 3 12 4 13 5 14 6 15 7 16 8 17 9 18 10 8 11 7 12
REMARK SMILES IDX 6 13 5 14 4 15 3 16 2 17 1 18
REMARK H PARENT
REMARK Flexibility Score: inf
ROOT
ATOM      1  C   UNL     1      74.125  89.680  92.440  1.00  0.00     0.000 C 
ENDROOT
BRANCH   1   2
ATOM      2  C   UNL     1      73.965  88.314  93.125  1.00  0.00     0.000 C 
BRANCH   2   3
ATOM      3  C   UNL     1      73.136  87.327  92.288  1.00  0.00     0.000 C 
BRANCH   3   4
ATOM      4  C   UNL     1      73.188  87.692  90.799  1.00  0.00     0.000 C 
BRANCH   4   5
ATOM      5  C   UNL     1      74.088  86.717  90.025  1.00  0.00     0.000 C 
BRANCH   5   6
ATOM      6  C   UNL     1      73.490  86.309  88.670  1.00  0.00     0.006 C 
BRANCH   6   7
ATOM      7  C   UNL     1      73.082  87.518  87.817  1.00  0.00     0.053 C 
BRANCH   7   8
ATOM      8  C   UNL     1      73.402  87.272  86.377  1.00  0.00     0.041 C 
ATOM      9  O   UNL     1      74.491  86.727  86.054  1.00  0.00    -0.550 OA
ATOM     10  O   UNL     1      72.520  87.688  85.387  1.00  0.00    -0.550 OA
ENDBRANCH   7   8
ENDBRANCH   6   7
ENDBRANCH   5   6
ENDBRANCH   4   5
ENDBRANCH   3   4
ENDBRANCH   2   3
ENDBRANCH   1   2
BRANCH   1  11
ATOM     11  C   UNL     1      75.220  90.544  93.093  1.00  0.00     0.000 C 
BRANCH  11  12
ATOM     12  C   UNL     1      76.334  90.928  92.107  1.00  0.00    -0.000 C 
BRANCH  12  13
ATOM     13  C   UNL     1      77.406  89.835  91.974  1.00  0.00    -0.000 C 
BRANCH  13  14
ATOM     14  C   UNL     1      77.275  89.099  90.634  1.00  0.00    -0.000 C 
BRANCH  14  15
ATOM     15  C   UNL     1      77.529  87.595  90.804  1.00  0.00    -0.000 C 
BRANCH  15  16
ATOM     16  C   UNL     1      77.201  87.141  92.234  1.00  0.00    -0.000 C 
BRANCH  16  17
ATOM     17  C   UNL     1      77.341  85.623  92.418  1.00  0.00    -0.003 C 
ATOM     18  C   UNL     1      76.010  84.937  92.721  1.00  0.00     0.004 C 
ENDBRANCH  16  17
ENDBRANCH  15  16
ENDBRANCH  14  15
ENDBRANCH  13  14
ENDBRANCH  12  13
ENDBRANCH  11  12
ENDBRANCH   1  11
TORSDOF 14
ENDMDL
MODEL 3
REMARK VINA RESULT:    -2.247     10.407     12.855
REMARK INTER + INTRA:          -6.226
REMARK INTER:                  -4.642
REMARK INTRA:                  -1.584
REMARK UNBOUND:                -2.140
REMARK SMILES CCCCCCCCCCCCCCCC(=O)[O-]
REMARK SMILES IDX 9 1 10 2 11 3 12 4 13 5 14 6 15 7 16 8 17 9 18 10 8 11 7 12
REMARK SMILES IDX 6 13 5 14 4 15 3 16 2 17 1 18
REMARK H PARENT
REMARK Flexibility Score: inf
ROOT
ATOM      1  C   UNL     1      77.540  89.637  75.972  1.00  0.00     0.000 C 
ENDROOT
BRANCH   1   2
ATOM      2  C   UNL     1      77.230  90.826  76.896  1.00  0.00     0.000 C 
BRANCH   2   3
ATOM      3  C   UNL     1      77.238  90.436  78.382  1.00  0.00     0.000 C 
BRANCH   3   4
ATOM      4  C   UNL     1      76.898  91.642  79.267  1.00  0.00     0.000 C 
BRANCH   4   5
ATOM      5  C   UNL     1      75.382  91.748  79.493  1.00  0.00     0.000 C 
BRANCH   5   6
ATOM      6  C   UNL     1      74.704  90.374  79.604  1.00  0.00     0.006 C 
BRANCH   6   7
ATOM      7  C   UNL     1      74.368  89.997  81.054  1.00  0.00     0.053 C 
BRANCH   7   8
ATOM      8  C   UNL     1      72.956  90.373  81.376  1.00  0.00     0.041 C 
ATOM      9  O   UNL     1      72.412  89.951  82.430  1.00  0.00    -0.550 OA
ATOM     10  O   UNL     1      72.223  91.150  80.486  1.00  0.00    -0.550 OA
ENDBRANCH   7   8
ENDBRANCH   6   7
ENDBRANCH   5   6
ENDBRANCH   4   5
ENDBRANCH   3   4
ENDBRANCH   2   3
ENDBRANCH   1   2
BRANCH   1  11
ATOM     11  C   UNL     1      76.983  88.307  76.512  1.00  0.00     0.000 C 
BRANCH  11  12
ATOM     12  C   UNL     1      75.611  87.957  75.914  1.00  0.00    -0.000 C 
BRANCH  12  13
ATOM     13  C   UNL     1      75.716  87.390  74.490  1.00  0.00    -0.000 C 
BRANCH  13  14
ATOM     14  C   UNL     1      74.555  87.882  73.617  1.00  0.00    -0.000 C 
BRANCH  14  15
ATOM     15  C   UNL     1      74.932  89.172  72.875  1.00  0.00    -0.000 C 
BRANCH  15  16
ATOM     16  C   UNL     1      73.948  90.304  73.208  1.00  0.00    -0.000 C 
BRANCH  16  17
ATOM     17  C   UNL     1      74.520  91.302  74.226  1.00  0.00    -0.003 C 
ATOM     18  C   UNL     1      75.741  92.054  73.697  1.00  0.00     0.004 C 
ENDBRANCH  16  17
ENDBRANCH  15  16
ENDBRANCH  14  15
ENDBRANCH  13  14
ENDBRANCH  12  13
ENDBRANCH  11  12
ENDBRANCH   1  11
TORSDOF 14
ENDMDL
MODEL 4
REMARK VINA RESULT:    -2.245     16.683     19.012
REMARK INTER + INTRA:          -6.223
REMARK INTER:                  -3.818
REMARK INTRA:                  -2.405
REMARK UNBOUND:                -2.140
REMARK SMILES CCCCCCCCCCCCCCCC(=O)[O-]
REMARK SMILES IDX 9 1 10 2 11 3 12 4 13 5 14 6 15 7 16 8 17 9 18 10 8 11 7 12
REMARK SMILES IDX 6 13 5 14 4 15 3 16 2 17 1 18
REMARK H PARENT
REMARK Flexibility Score: inf
ROOT
ATOM      1  C   UNL     1      75.338  77.316  74.252  1.00  0.00     0.000 C 
ENDROOT
BRANCH   1   2
ATOM      2  C   UNL     1      76.261  78.127  75.175  1.00  0.00     0.000 C 
BRANCH   2   3
ATOM      3  C   UNL     1      76.985  77.248  76.206  1.00  0.00     0.000 C 
BRANCH   3   4
ATOM      4  C   UNL     1      76.449  75.811  76.176  1.00  0.00     0.000 C 
BRANCH   4   5
ATOM      5  C   UNL     1      76.491  75.179  77.575  1.00  0.00     0.000 C 
BRANCH   5   6
ATOM      6  C   UNL     1      75.247  74.329  77.878  1.00  0.00     0.006 C 
BRANCH   6   7
ATOM      7  C   UNL     1      74.759  74.492  79.324  1.00  0.00     0.053 C 
BRANCH   7   8
ATOM      8  C   UNL     1      73.455  73.783  79.516  1.00  0.00     0.041 C 
ATOM      9  O   UNL     1      73.366  72.548  79.286  1.00  0.00    -0.550 OA
ATOM     10  O   UNL     1      72.326  74.496  79.901  1.00  0.00    -0.550 OA
ENDBRANCH   7   8
ENDBRANCH   6   7
ENDBRANCH   5   6
ENDBRANCH   4   5
ENDBRANCH   3   4
ENDBRANCH   2   3
ENDBRANCH   1   2
BRANCH   1  11
ATOM     11  C   UNL     1      74.356  78.206  73.468  1.00  0.00     0.000 C 
BRANCH  11  12
ATOM     12  C   UNL     1      72.894  77.766  73.642  1.00  0.00    -0.000 C 
BRANCH  12  13
ATOM     13  C   UNL     1      71.956  78.943  73.956  1.00  0.00    -0.000 C 
BRANCH  13  14
ATOM     14  C   UNL     1      72.569  79.863  75.019  1.00  0.00    -0.000 C 
BRANCH  14  15
ATOM     15  C   UNL     1      72.144  79.435  76.430  1.00  0.00    -0.000 C 
BRANCH  15  16
ATOM     16  C   UNL     1      73.367  79.064  77.283  1.00  0.00    -0.000 C 
BRANCH  16  17
ATOM     17  C   UNL     1      73.445  77.559  77.579  1.00  0.00    -0.003 C 
ATOM     18  C   UNL     1      72.158  76.817  77.220  1.00  0.00     0.004 C 
ENDBRANCH  16  17
ENDBRANCH  15  16
ENDBRANCH  14  15
ENDBRANCH  13  14
ENDBRANCH  12  13
ENDBRANCH  11  12
ENDBRANCH   1  11
TORSDOF 14
ENDMDL
MODEL 5
REMARK VINA RESULT:    -2.192     16.377     18.058
REMARK INTER + INTRA:          -6.126
REMARK INTER:                  -4.155
REMARK INTRA:                  -1.971
REMARK UNBOUND:                -2.140
REMARK SMILES CCCCCCCCCCCCCCCC(=O)[O-]
REMARK SMILES IDX 9 1 10 2 11 3 12 4 13 5 14 6 15 7 16 8 17 9 18 10 8 11 7 12
REMARK SMILES IDX 6 13 5 14 4 15 3 16 2 17 1 18
REMARK H PARENT
REMARK Flexibility Score: inf
ROOT
ATOM      1  C   UNL     1      73.390  86.538  92.739  1.00  0.00     0.000 C 
ENDROOT
BRANCH   1   2
ATOM      2  C   UNL     1      74.810  86.087  93.118  1.00  0.00     0.000 C 
BRANCH   2   3
ATOM      3  C   UNL     1      75.541  85.397  91.956  1.00  0.00     0.000 C 
BRANCH   3   4
ATOM      4  C   UNL     1      75.376  86.192  90.654  1.00  0.00     0.000 C 
BRANCH   4   5
ATOM      5  C   UNL     1      76.711  86.297  89.902  1.00  0.00     0.000 C 
BRANCH   5   6
ATOM      6  C   UNL     1      76.548  86.868  88.485  1.00  0.00     0.006 C 
BRANCH   6   7
ATOM      7  C   UNL     1      75.587  86.040  87.622  1.00  0.00     0.053 C 
BRANCH   7   8
ATOM      8  C   UNL     1      74.534  86.919  87.025  1.00  0.00     0.041 C 
ATOM      9  O   UNL     1      74.362  86.944  85.777  1.00  0.00    -0.550 OA
ATOM     10  O   UNL     1      73.776  87.750  87.842  1.00  0.00    -0.550 OA
ENDBRANCH   7   8
ENDBRANCH   6   7
ENDBRANCH   5   6
ENDBRANCH   4   5
ENDBRANCH   3   4
ENDBRANCH   2   3
ENDBRANCH   1   2
BRANCH   1  11
ATOM     11  C   UNL     1      73.144  88.028  93.037  1.00  0.00     0.000 C 
BRANCH  11  12
ATOM     12  C   UNL     1      74.021  88.954  92.180  1.00  0.00    -0.000 C 
BRANCH  12  13
ATOM     13  C   UNL     1      74.217  90.338  92.818  1.00  0.00    -0.000 C 
BRANCH  13  14
ATOM     14  C   UNL     1      75.682  90.783  92.725  1.00  0.00    -0.000 C 
BRANCH  14  15
ATOM     15  C   UNL     1      76.475  89.874  91.777  1.00  0.00    -0.000 C 
BRANCH  15  16
ATOM     16  C   UNL     1      77.853  89.535  92.365  1.00  0.00    -0.000 C 
BRANCH  16  17
ATOM     17  C   UNL     1      77.858  88.199  93.123  1.00  0.00    -0.003 C 
ATOM     18  C   UNL     1      78.996  87.275  92.689  1.00  0.00     0.004 C 
ENDBRANCH  16  17
ENDBRANCH  15  16
ENDBRANCH  14  15
ENDBRANCH  13  14
ENDBRANCH  12  13
ENDBRANCH  11  12
ENDBRANCH   1  11
TORSDOF 14
ENDMDL
MODEL 6
REMARK VINA RESULT:    -2.191     13.062     15.006
REMARK INTER + INTRA:          -6.124
REMARK INTER:                  -3.676
REMARK INTRA:                  -2.449
REMARK UNBOUND:                -2.140
REMARK SMILES CCCCCCCCCCCCCCCC(=O)[O-]
REMARK SMILES IDX 9 1 10 2 11 3 12 4 13 5 14 6 15 7 16 8 17 9 18 10 8 11 7 12
REMARK SMILES IDX 6 13 5 14 4 15 3 16 2 17 1 18
REMARK H PARENT
REMARK Flexibility Score: inf
ROOT
ATOM      1  C   UNL     1      86.168  76.639  78.780  1.00  0.00     0.000 C 
ENDROOT
BRANCH   1   2
ATOM      2  C   UNL     1      87.633  77.070  78.603  1.00  0.00     0.000 C 
BRANCH   2   3
ATOM      3  C   UNL     1      88.034  77.207  77.126  1.00  0.00     0.000 C 
BRANCH   3   4
ATOM      4  C   UNL     1      89.536  76.955  76.941  1.00  0.00     0.000 C 
BRANCH   4   5
ATOM      5  C   UNL     1      89.785  75.602  76.256  1.00  0.00     0.000 C 
BRANCH   5   6
ATOM      6  C   UNL     1      88.500  74.984  75.683  1.00  0.00     0.006 C 
BRANCH   6   7
ATOM      7  C   UNL     1      88.620  74.653  74.189  1.00  0.00     0.053 C 
BRANCH   7   8
ATOM      8  C   UNL     1      89.065  75.859  73.423  1.00  0.00     0.041 C 
ATOM      9  O   UNL     1      90.200  75.879  72.876  1.00  0.00    -0.550 OA
ATOM     10  O   UNL     1      88.247  76.980  73.353  1.00  0.00    -0.550 OA
ENDBRANCH   7   8
ENDBRANCH   6   7
ENDBRANCH   5   6
ENDBRANCH   4   5
ENDBRANCH   3   4
ENDBRANCH   2   3
ENDBRANCH   1   2
BRANCH   1  11
ATOM     11  C   UNL     1      86.035  75.263  79.457  1.00  0.00     0.000 C 
BRANCH  11  12
ATOM     12  C   UNL     1      86.185  74.100  78.463  1.00  0.00    -0.000 C 
BRANCH  12  13
ATOM     13  C   UNL     1      86.983  72.924  79.048  1.00  0.00    -0.000 C 
BRANCH  13  14
ATOM     14  C   UNL     1      88.442  72.961  78.572  1.00  0.00    -0.000 C 
BRANCH  14  15
ATOM     15  C   UNL     1      89.404  73.111  79.758  1.00  0.00    -0.000 C 
BRANCH  15  16
ATOM     16  C   UNL     1      90.436  74.217  79.491  1.00  0.00    -0.000 C 
BRANCH  16  17
ATOM     17  C   UNL     1      90.562  75.202  80.664  1.00  0.00    -0.003 C 
ATOM     18  C   UNL     1      89.235  75.436  81.386  1.00  0.00     0.004 C 
ENDBRANCH  16  17
ENDBRANCH  15  16
ENDBRANCH  14  15
ENDBRANCH  13  14
ENDBRANCH  12  13
ENDBRANCH  11  12
ENDBRANCH   1  11
TORSDOF 14
ENDMDL
MODEL 7
REMARK VINA RESULT:    -2.180      3.021      6.114
REMARK INTER + INTRA:          -6.103
REMARK INTER:                  -3.637
REMARK INTRA:                  -2.467
REMARK UNBOUND:                -2.140
REMARK SMILES CCCCCCCCCCCCCCCC(=O)[O-]
REMARK SMILES IDX 9 1 10 2 11 3 12 4 13 5 14 6 15 7 16 8 17 9 18 10 8 11 7 12
REMARK SMILES IDX 6 13 5 14 4 15 3 16 2 17 1 18
REMARK H PARENT
REMARK Flexibility Score: inf
ROOT
ATOM      1  C   UNL     1      84.228  91.358  74.562  1.00  0.00     0.000 C 
ENDROOT
BRANCH   1   2
ATOM      2  C   UNL     1      83.027  91.650  75.475  1.00  0.00     0.000 C 
BRANCH   2   3
ATOM      3  C   UNL     1      83.330  91.375  76.956  1.00  0.00     0.000 C 
BRANCH   3   4
ATOM      4  C   UNL     1      84.801  90.985  77.152  1.00  0.00     0.000 C 
BRANCH   4   5
ATOM      5  C   UNL     1      84.976  90.112  78.404  1.00  0.00     0.000 C 
BRANCH   5   6
ATOM      6  C   UNL     1      86.248  89.253  78.352  1.00  0.00     0.006 C 
BRANCH   6   7
ATOM      7  C   UNL     1      87.296  89.686  79.387  1.00  0.00     0.053 C 
BRANCH   7   8
ATOM      8  C   UNL     1      88.672  89.353  78.905  1.00  0.00     0.041 C 
ATOM      9  O   UNL     1      89.621  90.161  79.089  1.00  0.00    -0.550 OA
ATOM     10  O   UNL     1      88.899  88.172  78.208  1.00  0.00    -0.550 OA
ENDBRANCH   7   8
ENDBRANCH   6   7
ENDBRANCH   5   6
ENDBRANCH   4   5
ENDBRANCH   3   4
ENDBRANCH   2   3
ENDBRANCH   1   2
BRANCH   1  11
ATOM     11  C   UNL     1      83.813  90.711  73.228  1.00  0.00     0.000 C 
BRANCH  11  12
ATOM     12  C   UNL     1      83.873  89.176  73.274  1.00  0.00    -0.000 C 
BRANCH  12  13
ATOM     13  C   UNL     1      84.938  88.656  74.251  1.00  0.00    -0.000 C 
BRANCH  13  14
ATOM     14  C   UNL     1      84.312  87.738  75.308  1.00  0.00    -0.000 C 
BRANCH  14  15
ATOM     15  C   UNL     1      82.783  87.865  75.312  1.00  0.00    -0.000 C 
BRANCH  15  16
ATOM     16  C   UNL     1      82.231  87.810  76.745  1.00  0.00    -0.000 C 
BRANCH  16  17
ATOM     17  C   UNL     1      83.132  87.006  77.694  1.00  0.00    -0.003 C 
ATOM     18  C   UNL     1      82.807  87.250  79.168  1.00  0.00     0.004 C 
ENDBRANCH  16  17
ENDBRANCH  15  16
ENDBRANCH  14  15
ENDBRANCH  13  14
ENDBRANCH  12  13
ENDBRANCH  11  12
ENDBRANCH   1  11
TORSDOF 14
ENDMDL
MODEL 8
REMARK VINA RESULT:    -2.172     13.515     15.748
REMARK INTER + INTRA:          -6.090
REMARK INTER:                  -3.340
REMARK INTRA:                  -2.750
REMARK UNBOUND:                -2.140
REMARK SMILES CCCCCCCCCCCCCCCC(=O)[O-]
REMARK SMILES IDX 9 1 10 2 11 3 12 4 13 5 14 6 15 7 16 8 17 9 18 10 8 11 7 12
REMARK SMILES IDX 6 13 5 14 4 15 3 16 2 17 1 18
REMARK H PARENT
REMARK Flexibility Score: inf
ROOT
ATOM      1  C   UNL     1      86.177  76.216  78.497  1.00  0.00     0.000 C 
ENDROOT
BRANCH   1   2
ATOM      2  C   UNL     1      86.254  74.751  78.038  1.00  0.00     0.000 C 
BRANCH   2   3
ATOM      3  C   UNL     1      86.948  73.846  79.067  1.00  0.00     0.000 C 
BRANCH   3   4
ATOM      4  C   UNL     1      88.000  72.955  78.393  1.00  0.00     0.000 C 
BRANCH   4   5
ATOM      5  C   UNL     1      89.390  73.189  79.002  1.00  0.00     0.000 C 
BRANCH   5   6
ATOM      6  C   UNL     1      89.374  74.235  80.128  1.00  0.00     0.006 C 
BRANCH   6   7
ATOM      7  C   UNL     1      90.677  75.043  80.202  1.00  0.00     0.053 C 
BRANCH   7   8
ATOM      8  C   UNL     1      91.244  74.992  81.585  1.00  0.00     0.041 C 
ATOM      9  O   UNL     1      91.700  73.912  82.044  1.00  0.00    -0.550 OA
ATOM     10  O   UNL     1      91.224  76.128  82.387  1.00  0.00    -0.550 OA
ENDBRANCH   7   8
ENDBRANCH   6   7
ENDBRANCH   5   6
ENDBRANCH   4   5
ENDBRANCH   3   4
ENDBRANCH   2   3
ENDBRANCH   1   2
BRANCH   1  11
ATOM     11  C   UNL     1      87.045  77.152  77.636  1.00  0.00     0.000 C 
BRANCH  11  12
ATOM     12  C   UNL     1      88.488  77.258  78.153  1.00  0.00    -0.000 C 
BRANCH  12  13
ATOM     13  C   UNL     1      89.522  77.266  77.016  1.00  0.00    -0.000 C 
BRANCH  13  14
ATOM     14  C   UNL     1      89.885  75.836  76.595  1.00  0.00    -0.000 C 
BRANCH  14  15
ATOM     15  C   UNL     1      89.539  75.591  75.121  1.00  0.00    -0.000 C 
BRANCH  15  16
ATOM     16  C   UNL     1      88.374  74.599  74.988  1.00  0.00    -0.000 C 
BRANCH  16  17
ATOM     17  C   UNL     1      87.094  75.259  74.455  1.00  0.00    -0.003 C 
ATOM     18  C   UNL     1      87.329  76.678  73.940  1.00  0.00     0.004 C 
ENDBRANCH  16  17
ENDBRANCH  15  16
ENDBRANCH  14  15
ENDBRANCH  13  14
ENDBRANCH  12  13
ENDBRANCH  11  12
ENDBRANCH   1  11
TORSDOF 14
ENDMDL
MODEL 9
REMARK VINA RESULT:    -2.171     16.870     18.952
REMARK INTER + INTRA:          -6.088
REMARK INTER:                  -3.956
REMARK INTRA:                  -2.132
REMARK UNBOUND:                -2.140
REMARK SMILES CCCCCCCCCCCCCCCC(=O)[O-]
REMARK SMILES IDX 9 1 10 2 11 3 12 4 13 5 14 6 15 7 16 8 17 9 18 10 8 11 7 12
REMARK SMILES IDX 6 13 5 14 4 15 3 16 2 17 1 18
REMARK H PARENT
REMARK Flexibility Score: inf
ROOT
ATOM      1  C   UNL     1      73.970  85.392  89.721  1.00  0.00     0.000 C 
ENDROOT
BRANCH   1   2
ATOM      2  C   UNL     1      75.343  86.069  89.853  1.00  0.00     0.000 C 
BRANCH   2   3
ATOM      3  C   UNL     1      75.392  87.445  89.172  1.00  0.00     0.000 C 
BRANCH   3   4
ATOM      4  C   UNL     1      76.839  87.929  89.017  1.00  0.00     0.000 C 
BRANCH   4   5
ATOM      5  C   UNL     1      77.150  89.059  90.011  1.00  0.00     0.000 C 
BRANCH   5   6
ATOM      6  C   UNL     1      77.865  88.555  91.275  1.00  0.00     0.006 C 
BRANCH   6   7
ATOM      7  C   UNL     1      78.886  87.449  90.973  1.00  0.00     0.053 C 
BRANCH   7   8
ATOM      8  C   UNL     1      79.669  87.114  92.203  1.00  0.00     0.041 C 
ATOM      9  O   UNL     1      79.489  86.013  92.789  1.00  0.00    -0.550 OA
ATOM     10  O   UNL     1      80.562  88.039  92.733  1.00  0.00    -0.550 OA
ENDBRANCH   7   8
ENDBRANCH   6   7
ENDBRANCH   5   6
ENDBRANCH   4   5
ENDBRANCH   3   4
ENDBRANCH   2   3
ENDBRANCH   1   2
BRANCH   1  11
ATOM     11  C   UNL     1      72.888  86.349  89.186  1.00  0.00     0.000 C 
BRANCH  11  12
ATOM     12  C   UNL     1      72.059  86.988  90.311  1.00  0.00    -0.000 C 
BRANCH  12  13
ATOM     13  C   UNL     1      72.090  86.164  91.608  1.00  0.00    -0.000 C 
BRANCH  13  14
ATOM     14  C   UNL     1      72.540  87.026  92.794  1.00  0.00    -0.000 C 
BRANCH  14  15
ATOM     15  C   UNL     1      74.025  86.800  93.108  1.00  0.00    -0.000 C 
BRANCH  15  16
ATOM     16  C   UNL     1      74.791  88.131  93.125  1.00  0.00    -0.000 C 
BRANCH  16  17
ATOM     17  C   UNL     1      74.135  89.201  92.239  1.00  0.00    -0.003 C 
ATOM     18  C   UNL     1      74.141  90.588  92.883  1.00  0.00     0.004 C 
ENDBRANCH  16  17
ENDBRANCH  15  16
ENDBRANCH  14  15
ENDBRANCH  13  14
ENDBRANCH  12  13
ENDBRANCH  11  12
ENDBRANCH   1  11
TORSDOF 14
ENDMDL
