MODEL 1
REMARK VINA RESULT:    19.155      0.000      0.000
REMARK INTER + INTRA:          36.216
REMARK INTER:                  37.072
REMARK INTRA:                  -0.856
REMARK UNBOUND:                -0.856
REMARK SMILES CCCCCCCCCCCCCCCCCC(=O)[O-]
REMARK SMILES IDX 10 1 11 2 12 3 13 4 14 5 15 6 16 7 17 8 18 9 19 10 20 11
REMARK SMILES IDX 9 12 8 13 7 14 6 15 5 16 4 17 3 18 2 19 1 20
REMARK H PARENT
REMARK Flexibility Score: inf
ROOT
ATOM      1  C   UNL     1      57.349  46.999  21.921  1.00  0.00     0.000 C 
ENDROOT
BRANCH   1   2
ATOM      2  C   UNL     1      56.594  45.698  22.250  1.00  0.00     0.000 C 
BRANCH   2   3
ATOM      3  C   UNL     1      56.902  44.507  21.324  1.00  0.00     0.000 C 
BRANCH   3   4
ATOM      4  C   UNL     1      55.787  44.243  20.297  1.00  0.00     0.000 C 
BRANCH   4   5
ATOM      5  C   UNL     1      55.451  42.750  20.159  1.00  0.00     0.000 C 
BRANCH   5   6
ATOM      6  C   UNL     1      55.353  42.031  21.517  1.00  0.00     0.000 C 
BRANCH   6   7
ATOM      7  C   UNL     1      55.113  40.520  21.371  1.00  0.00     0.006 C 
BRANCH   7   8
ATOM      8  C   UNL     1      56.092  39.859  20.394  1.00  0.00     0.053 C 
BRANCH   8   9
ATOM      9  C   UNL     1      56.878  38.789  21.084  1.00  0.00     0.041 C 
ATOM     10  O   UNL     1      58.119  38.693  20.897  1.00  0.00    -0.550 OA
ATOM     11  O   UNL     1      56.248  37.927  21.974  1.00  0.00    -0.550 OA
ENDBRANCH   8   9
ENDBRANCH   7   8
ENDBRANCH   6   7
ENDBRANCH   5   6
ENDBRANCH   4   5
ENDBRANCH   3   4
ENDBRANCH   2   3
ENDBRANCH   1   2
BRANCH   1  12
ATOM     12  C   UNL     1      56.443  48.076  21.300  1.00  0.00     0.000 C 
BRANCH  12  13
ATOM     13  C   UNL     1      55.980  47.715  19.880  1.00  0.00    -0.000 C 
BRANCH  13  14
ATOM     14  C   UNL     1      57.121  47.173  18.999  1.00  0.00    -0.000 C 
BRANCH  14  15
ATOM     15  C   UNL     1      57.408  48.089  17.790  1.00  0.00    -0.000 C 
BRANCH  15  16
ATOM     16  C   UNL     1      56.162  48.825  17.270  1.00  0.00    -0.000 C 
BRANCH  16  17
ATOM     17  C   UNL     1      56.458  49.709  16.048  1.00  0.00    -0.000 C 
BRANCH  17  18
ATOM     18  C   UNL     1      55.257  50.578  15.641  1.00  0.00    -0.000 C 
BRANCH  18  19
ATOM     19  C   UNL     1      54.058  49.744  15.166  1.00  0.00    -0.003 C 
ATOM     20  C   UNL     1      52.755  50.526  15.305  1.00  0.00     0.004 C 
ENDBRANCH  18  19
ENDBRANCH  17  18
ENDBRANCH  16  17
ENDBRANCH  15  16
ENDBRANCH  14  15
ENDBRANCH  13  14
ENDBRANCH  12  13
ENDBRANCH   1  12
TORSDOF 16
ENDMDL
MODEL 2
REMARK VINA RESULT:    20.564      7.350     10.161
REMARK INTER + INTRA:          38.942
REMARK INTER:                  39.866
REMARK INTRA:                  -0.923
REMARK UNBOUND:                -0.856
REMARK SMILES CCCCCCCCCCCCCCCCCC(=O)[O-]
REMARK SMILES IDX 10 1 11 2 12 3 13 4 14 5 15 6 16 7 17 8 18 9 19 10 20 11
REMARK SMILES IDX 9 12 8 13 7 14 6 15 5 16 4 17 3 18 2 19 1 20
REMARK H PARENT
REMARK Flexibility Score: inf
ROOT
ATOM      1  C   UNL     1      55.053  50.446  19.944  1.00  0.00     0.000 C 
ENDROOT
BRANCH   1   2
ATOM      2  C   UNL     1      55.528  51.443  21.017  1.00  0.00     0.000 C 
BRANCH   2   3
ATOM      3  C   UNL     1      54.854  52.827  20.973  1.00  0.00     0.000 C 
BRANCH   3   4
ATOM      4  C   UNL     1      53.642  52.933  21.914  1.00  0.00     0.000 C 
BRANCH   4   5
ATOM      5  C   UNL     1      53.368  54.375  22.367  1.00  0.00     0.000 C 
BRANCH   5   6
ATOM      6  C   UNL     1      53.689  54.605  23.855  1.00  0.00     0.000 C 
BRANCH   6   7
ATOM      7  C   UNL     1      53.664  56.092  24.244  1.00  0.00     0.006 C 
BRANCH   7   8
ATOM      8  C   UNL     1      54.744  56.452  25.271  1.00  0.00     0.053 C 
BRANCH   8   9
ATOM      9  C   UNL     1      56.107  56.271  24.681  1.00  0.00     0.041 C 
ATOM     10  O   UNL     1      57.091  56.022  25.426  1.00  0.00    -0.550 OA
ATOM     11  O   UNL     1      56.282  56.328  23.305  1.00  0.00    -0.550 OA
ENDBRANCH   8   9
ENDBRANCH   7   8
ENDBRANCH   6   7
ENDBRANCH   5   6
ENDBRANCH   4   5
ENDBRANCH   3   4
ENDBRANCH   2   3
ENDBRANCH   1   2
BRANCH   1  12
ATOM     12  C   UNL     1      55.073  48.988  20.433  1.00  0.00     0.000 C 
BRANCH  12  13
ATOM     13  C   UNL     1      56.463  48.342  20.315  1.00  0.00    -0.000 C 
BRANCH  13  14
ATOM     14  C   UNL     1      56.580  47.391  19.110  1.00  0.00    -0.000 C 
BRANCH  14  15
ATOM     15  C   UNL     1      57.336  48.037  17.929  1.00  0.00    -0.000 C 
BRANCH  15  16
ATOM     16  C   UNL     1      56.415  48.465  16.774  1.00  0.00    -0.000 C 
BRANCH  16  17
ATOM     17  C   UNL     1      56.777  49.845  16.202  1.00  0.00    -0.000 C 
BRANCH  17  18
ATOM     18  C   UNL     1      55.541  50.715  15.926  1.00  0.00    -0.000 C 
BRANCH  18  19
ATOM     19  C   UNL     1      54.527  50.025  15.002  1.00  0.00    -0.003 C 
ATOM     20  C   UNL     1      53.130  50.031  15.617  1.00  0.00     0.004 C 
ENDBRANCH  18  19
ENDBRANCH  17  18
ENDBRANCH  16  17
ENDBRANCH  15  16
ENDBRANCH  14  15
ENDBRANCH  13  14
ENDBRANCH  12  13
ENDBRANCH   1  12
TORSDOF 16
ENDMDL
MODEL 3
REMARK VINA RESULT:    20.751      5.948      8.611
REMARK INTER + INTRA:          39.304
REMARK INTER:                  40.110
REMARK INTRA:                  -0.806
REMARK UNBOUND:                -0.856
REMARK SMILES CCCCCCCCCCCCCCCCCC(=O)[O-]
REMARK SMILES IDX 10 1 11 2 12 3 13 4 14 5 15 6 16 7 17 8 18 9 19 10 20 11
REMARK SMILES IDX 9 12 8 13 7 14 6 15 5 16 4 17 3 18 2 19 1 20
REMARK H PARENT
REMARK Flexibility Score: inf
ROOT
ATOM      1  C   UNL     1      55.636  52.291  18.132  1.00  0.00     0.000 C 
ENDROOT
BRANCH   1   2
ATOM      2  C   UNL     1      54.930  51.676  16.910  1.00  0.00     0.000 C 
BRANCH   2   3
ATOM      3  C   UNL     1      55.673  50.503  16.244  1.00  0.00     0.000 C 
BRANCH   3   4
ATOM      4  C   UNL     1      55.636  49.216  17.086  1.00  0.00     0.000 C 
BRANCH   4   5
ATOM      5  C   UNL     1      56.989  48.488  17.113  1.00  0.00     0.000 C 
BRANCH   5   6
ATOM      6  C   UNL     1      57.222  47.707  18.419  1.00  0.00     0.000 C 
BRANCH   6   7
ATOM      7  C   UNL     1      56.203  48.066  19.513  1.00  0.00     0.006 C 
BRANCH   7   8
ATOM      8  C   UNL     1      56.079  46.976  20.584  1.00  0.00     0.053 C 
BRANCH   8   9
ATOM      9  C   UNL     1      56.858  47.351  21.805  1.00  0.00     0.041 C 
ATOM     10  O   UNL     1      57.772  48.215  21.733  1.00  0.00    -0.550 OA
ATOM     11  O   UNL     1      56.543  46.784  23.033  1.00  0.00    -0.550 OA
ENDBRANCH   8   9
ENDBRANCH   7   8
ENDBRANCH   6   7
ENDBRANCH   5   6
ENDBRANCH   4   5
ENDBRANCH   3   4
ENDBRANCH   2   3
ENDBRANCH   1   2
BRANCH   1  12
ATOM     12  C   UNL     1      54.689  53.127  19.011  1.00  0.00     0.000 C 
BRANCH  12  13
ATOM     13  C   UNL     1      54.979  52.968  20.511  1.00  0.00    -0.000 C 
BRANCH  13  14
ATOM     14  C   UNL     1      53.913  53.632  21.401  1.00  0.00    -0.000 C 
BRANCH  14  15
ATOM     15  C   UNL     1      54.520  54.244  22.681  1.00  0.00    -0.000 C 
BRANCH  15  16
ATOM     16  C   UNL     1      53.479  54.920  23.590  1.00  0.00    -0.000 C 
BRANCH  16  17
ATOM     17  C   UNL     1      54.046  56.130  24.350  1.00  0.00    -0.000 C 
BRANCH  17  18
ATOM     18  C   UNL     1      55.573  56.248  24.220  1.00  0.00    -0.000 C 
BRANCH  18  19
ATOM     19  C   UNL     1      56.215  56.951  25.424  1.00  0.00    -0.003 C 
ATOM     20  C   UNL     1      57.524  56.274  25.823  1.00  0.00     0.004 C 
ENDBRANCH  18  19
ENDBRANCH  17  18
ENDBRANCH  16  17
ENDBRANCH  15  16
ENDBRANCH  14  15
ENDBRANCH  13  14
ENDBRANCH  12  13
ENDBRANCH   1  12
TORSDOF 16
ENDMDL
MODEL 4
REMARK VINA RESULT:    20.943      1.252      1.917
REMARK INTER + INTRA:          39.676
REMARK INTER:                  40.492
REMARK INTRA:                  -0.816
REMARK UNBOUND:                -0.856
REMARK SMILES CCCCCCCCCCCCCCCCCC(=O)[O-]
REMARK SMILES IDX 10 1 11 2 12 3 13 4 14 5 15 6 16 7 17 8 18 9 19 10 20 11
REMARK SMILES IDX 9 12 8 13 7 14 6 15 5 16 4 17 3 18 2 19 1 20
REMARK H PARENT
REMARK Flexibility Score: inf
ROOT
ATOM      1  C   UNL     1      57.591  47.317  22.598  1.00  0.00     0.000 C 
ENDROOT
BRANCH   1   2
ATOM      2  C   UNL     1      56.604  46.328  23.246  1.00  0.00     0.000 C 
BRANCH   2   3
ATOM      3  C   UNL     1      57.208  44.974  23.663  1.00  0.00     0.000 C 
BRANCH   3   4
ATOM      4  C   UNL     1      57.338  43.990  22.489  1.00  0.00     0.000 C 
BRANCH   4   5
ATOM      5  C   UNL     1      56.473  44.390  21.283  1.00  0.00     0.000 C 
BRANCH   5   6
ATOM      6  C   UNL     1      56.290  43.243  20.272  1.00  0.00     0.000 C 
BRANCH   6   7
ATOM      7  C   UNL     1      54.975  42.475  20.481  1.00  0.00     0.006 C 
BRANCH   7   8
ATOM      8  C   UNL     1      55.119  41.318  21.478  1.00  0.00     0.053 C 
BRANCH   8   9
ATOM      9  C   UNL     1      55.152  40.008  20.756  1.00  0.00     0.041 C 
ATOM     10  O   UNL     1      54.187  39.662  20.026  1.00  0.00    -0.550 OA
ATOM     11  O   UNL     1      56.271  39.190  20.850  1.00  0.00    -0.550 OA
ENDBRANCH   8   9
ENDBRANCH   7   8
ENDBRANCH   6   7
ENDBRANCH   5   6
ENDBRANCH   4   5
ENDBRANCH   3   4
ENDBRANCH   2   3
ENDBRANCH   1   2
BRANCH   1  12
ATOM     12  C   UNL     1      56.997  48.725  22.420  1.00  0.00     0.000 C 
BRANCH  12  13
ATOM     13  C   UNL     1      56.207  48.872  21.110  1.00  0.00    -0.000 C 
BRANCH  13  14
ATOM     14  C   UNL     1      56.426  47.695  20.143  1.00  0.00    -0.000 C 
BRANCH  14  15
ATOM     15  C   UNL     1      56.045  48.055  18.691  1.00  0.00    -0.000 C 
BRANCH  15  16
ATOM     16  C   UNL     1      57.241  48.040  17.723  1.00  0.00    -0.000 C 
BRANCH  16  17
ATOM     17  C   UNL     1      56.926  48.707  16.375  1.00  0.00    -0.000 C 
BRANCH  17  18
ATOM     18  C   UNL     1      55.749  49.692  16.462  1.00  0.00    -0.000 C 
BRANCH  18  19
ATOM     19  C   UNL     1      54.879  49.685  15.197  1.00  0.00    -0.003 C 
ATOM     20  C   UNL     1      53.606  50.502  15.401  1.00  0.00     0.004 C 
ENDBRANCH  18  19
ENDBRANCH  17  18
ENDBRANCH  16  17
ENDBRANCH  15  16
ENDBRANCH  14  15
ENDBRANCH  13  14
ENDBRANCH  12  13
ENDBRANCH   1  12
TORSDOF 16
ENDMDL
MODEL 5
REMARK VINA RESULT:    20.988      0.866      1.379
REMARK INTER + INTRA:          39.764
REMARK INTER:                  40.060
REMARK INTRA:                  -0.296
REMARK UNBOUND:                -0.856
REMARK SMILES CCCCCCCCCCCCCCCCCC(=O)[O-]
REMARK SMILES IDX 10 1 11 2 12 3 13 4 14 5 15 6 16 7 17 8 18 9 19 10 20 11
REMARK SMILES IDX 9 12 8 13 7 14 6 15 5 16 4 17 3 18 2 19 1 20
REMARK H PARENT
REMARK Flexibility Score: inf
ROOT
ATOM      1  C   UNL     1      57.229  46.604  22.723  1.00  0.00     0.000 C 
ENDROOT
BRANCH   1   2
ATOM      2  C   UNL     1      56.458  45.327  22.339  1.00  0.00     0.000 C 
BRANCH   2   3
ATOM      3  C   UNL     1      56.967  44.606  21.077  1.00  0.00     0.000 C 
BRANCH   3   4
ATOM      4  C   UNL     1      55.926  43.649  20.474  1.00  0.00     0.000 C 
BRANCH   4   5
ATOM      5  C   UNL     1      56.220  42.175  20.795  1.00  0.00     0.000 C 
BRANCH   5   6
ATOM      6  C   UNL     1      55.020  41.451  21.431  1.00  0.00     0.000 C 
BRANCH   6   7
ATOM      7  C   UNL     1      54.762  40.070  20.806  1.00  0.00     0.006 C 
BRANCH   7   8
ATOM      8  C   UNL     1      56.039  39.426  20.252  1.00  0.00     0.053 C 
BRANCH   8   9
ATOM      9  C   UNL     1      56.748  38.663  21.326  1.00  0.00     0.041 C 
ATOM     10  O   UNL     1      56.232  38.549  22.468  1.00  0.00    -0.550 OA
ATOM     11  O   UNL     1      57.956  38.035  21.051  1.00  0.00    -0.550 OA
ENDBRANCH   8   9
ENDBRANCH   7   8
ENDBRANCH   6   7
ENDBRANCH   5   6
ENDBRANCH   4   5
ENDBRANCH   3   4
ENDBRANCH   2   3
ENDBRANCH   1   2
BRANCH   1  12
ATOM     12  C   UNL     1      56.694  47.861  22.015  1.00  0.00     0.000 C 
BRANCH  12  13
ATOM     13  C   UNL     1      57.168  47.965  20.557  1.00  0.00    -0.000 C 
BRANCH  13  14
ATOM     14  C   UNL     1      56.035  47.729  19.541  1.00  0.00    -0.000 C 
BRANCH  14  15
ATOM     15  C   UNL     1      54.953  48.828  19.609  1.00  0.00    -0.000 C 
BRANCH  15  16
ATOM     16  C   UNL     1      54.740  49.560  18.274  1.00  0.00    -0.000 C 
BRANCH  16  17
ATOM     17  C   UNL     1      55.641  49.025  17.150  1.00  0.00    -0.000 C 
BRANCH  17  18
ATOM     18  C   UNL     1      56.018  50.108  16.126  1.00  0.00    -0.000 C 
BRANCH  18  19
ATOM     19  C   UNL     1      54.842  50.500  15.221  1.00  0.00    -0.003 C 
ATOM     20  C   UNL     1      53.632  49.605  15.473  1.00  0.00     0.004 C 
ENDBRANCH  18  19
ENDBRANCH  17  18
ENDBRANCH  16  17
ENDBRANCH  15  16
ENDBRANCH  14  15
ENDBRANCH  13  14
ENDBRANCH  12  13
ENDBRANCH   1  12
TORSDOF 16
ENDMDL
MODEL 6
REMARK VINA RESULT:    21.161      4.181      9.053
REMARK INTER + INTRA:          40.097
REMARK INTER:                  41.038
REMARK INTRA:                  -0.941
REMARK UNBOUND:                -0.856
REMARK SMILES CCCCCCCCCCCCCCCCCC(=O)[O-]
REMARK SMILES IDX 10 1 11 2 12 3 13 4 14 5 15 6 16 7 17 8 18 9 19 10 20 11
REMARK SMILES IDX 9 12 8 13 7 14 6 15 5 16 4 17 3 18 2 19 1 20
REMARK H PARENT
REMARK Flexibility Score: inf
ROOT
ATOM      1  C   UNL     1      57.310  47.007  22.461  1.00  0.00     0.000 C 
ENDROOT
BRANCH   1   2
ATOM      2  C   UNL     1      56.760  48.312  21.856  1.00  0.00     0.000 C 
BRANCH   2   3
ATOM      3  C   UNL     1      55.896  48.138  20.594  1.00  0.00     0.000 C 
BRANCH   3   4
ATOM      4  C   UNL     1      56.728  47.847  19.334  1.00  0.00     0.000 C 
BRANCH   4   5
ATOM      5  C   UNL     1      56.081  48.401  18.055  1.00  0.00     0.000 C 
BRANCH   5   6
ATOM      6  C   UNL     1      57.082  48.552  16.896  1.00  0.00     0.000 C 
BRANCH   6   7
ATOM      7  C   UNL     1      56.670  49.646  15.896  1.00  0.00     0.006 C 
BRANCH   7   8
ATOM      8  C   UNL     1      55.422  50.415  16.345  1.00  0.00     0.053 C 
BRANCH   8   9
ATOM      9  C   UNL     1      54.204  49.878  15.663  1.00  0.00     0.041 C 
ATOM     10  O   UNL     1      53.103  50.482  15.764  1.00  0.00    -0.550 OA
ATOM     11  O   UNL     1      54.293  48.738  14.875  1.00  0.00    -0.550 OA
ENDBRANCH   8   9
ENDBRANCH   7   8
ENDBRANCH   6   7
ENDBRANCH   5   6
ENDBRANCH   4   5
ENDBRANCH   3   4
ENDBRANCH   2   3
ENDBRANCH   1   2
BRANCH   1  12
ATOM     12  C   UNL     1      56.307  45.843  22.384  1.00  0.00     0.000 C 
BRANCH  12  13
ATOM     13  C   UNL     1      56.785  44.710  21.462  1.00  0.00    -0.000 C 
BRANCH  13  14
ATOM     14  C   UNL     1      55.819  44.443  20.293  1.00  0.00    -0.000 C 
BRANCH  14  15
ATOM     15  C   UNL     1      55.549  42.936  20.094  1.00  0.00    -0.000 C 
BRANCH  15  16
ATOM     16  C   UNL     1      55.938  42.079  21.311  1.00  0.00    -0.000 C 
BRANCH  16  17
ATOM     17  C   UNL     1      55.070  40.818  21.455  1.00  0.00    -0.000 C 
BRANCH  17  18
ATOM     18  C   UNL     1      55.392  39.753  20.395  1.00  0.00    -0.000 C 
BRANCH  18  19
ATOM     19  C   UNL     1      56.152  38.552  20.976  1.00  0.00    -0.003 C 
ATOM     20  C   UNL     1      57.642  38.857  21.108  1.00  0.00     0.004 C 
ENDBRANCH  18  19
ENDBRANCH  17  18
ENDBRANCH  16  17
ENDBRANCH  15  16
ENDBRANCH  14  15
ENDBRANCH  13  14
ENDBRANCH  12  13
ENDBRANCH   1  12
TORSDOF 16
ENDMDL
MODEL 7
REMARK VINA RESULT:    21.281      5.296      6.779
REMARK INTER + INTRA:          40.331
REMARK INTER:                  40.784
REMARK INTRA:                  -0.453
REMARK UNBOUND:                -0.856
REMARK SMILES CCCCCCCCCCCCCCCCCC(=O)[O-]
REMARK SMILES IDX 10 1 11 2 12 3 13 4 14 5 15 6 16 7 17 8 18 9 19 10 20 11
REMARK SMILES IDX 9 12 8 13 7 14 6 15 5 16 4 17 3 18 2 19 1 20
REMARK H PARENT
REMARK Flexibility Score: inf
ROOT
ATOM      1  C   UNL     1      55.755  50.386  21.119  1.00  0.00     0.000 C 
ENDROOT
BRANCH   1   2
ATOM      2  C   UNL     1      55.448  48.971  20.597  1.00  0.00     0.000 C 
BRANCH   2   3
ATOM      3  C   UNL     1      56.305  47.845  21.205  1.00  0.00     0.000 C 
BRANCH   3   4
ATOM      4  C   UNL     1      56.593  46.708  20.210  1.00  0.00     0.000 C 
BRANCH   4   5
ATOM      5  C   UNL     1      55.567  45.568  20.303  1.00  0.00     0.000 C 
BRANCH   5   6
ATOM      6  C   UNL     1      56.209  44.174  20.178  1.00  0.00     0.000 C 
BRANCH   6   7
ATOM      7  C   UNL     1      55.186  43.035  20.316  1.00  0.00     0.006 C 
BRANCH   7   8
ATOM      8  C   UNL     1      55.644  41.946  21.294  1.00  0.00     0.053 C 
BRANCH   8   9
ATOM      9  C   UNL     1      55.225  40.595  20.804  1.00  0.00     0.041 C 
ATOM     10  O   UNL     1      56.081  39.685  20.650  1.00  0.00    -0.550 OA
ATOM     11  O   UNL     1      53.884  40.327  20.565  1.00  0.00    -0.550 OA
ENDBRANCH   8   9
ENDBRANCH   7   8
ENDBRANCH   6   7
ENDBRANCH   5   6
ENDBRANCH   4   5
ENDBRANCH   3   4
ENDBRANCH   2   3
ENDBRANCH   1   2
BRANCH   1  12
ATOM     12  C   UNL     1      54.857  51.464  20.488  1.00  0.00     0.000 C 
BRANCH  12  13
ATOM     13  C   UNL     1      54.858  52.777  21.286  1.00  0.00    -0.000 C 
BRANCH  13  14
ATOM     14  C   UNL     1      53.534  53.024  22.033  1.00  0.00    -0.000 C 
BRANCH  14  15
ATOM     15  C   UNL     1      53.369  54.500  22.454  1.00  0.00    -0.000 C 
BRANCH  15  16
ATOM     16  C   UNL     1      53.994  54.820  23.822  1.00  0.00    -0.000 C 
BRANCH  16  17
ATOM     17  C   UNL     1      53.959  56.320  24.158  1.00  0.00    -0.000 C 
BRANCH  17  18
ATOM     18  C   UNL     1      55.020  56.720  25.195  1.00  0.00    -0.000 C 
BRANCH  18  19
ATOM     19  C   UNL     1      56.439  56.305  24.779  1.00  0.00    -0.003 C 
ATOM     20  C   UNL     1      57.434  56.535  25.913  1.00  0.00     0.004 C 
ENDBRANCH  18  19
ENDBRANCH  17  18
ENDBRANCH  16  17
ENDBRANCH  15  16
ENDBRANCH  14  15
ENDBRANCH  13  14
ENDBRANCH  12  13
ENDBRANCH   1  12
TORSDOF 16
ENDMDL
MODEL 8
REMARK VINA RESULT:    21.610      7.065      9.365
REMARK INTER + INTRA:          40.967
REMARK INTER:                  40.623
REMARK INTRA:                   0.345
REMARK UNBOUND:                -0.856
REMARK SMILES CCCCCCCCCCCCCCCCCC(=O)[O-]
REMARK SMILES IDX 10 1 11 2 12 3 13 4 14 5 15 6 16 7 17 8 18 9 19 10 20 11
REMARK SMILES IDX 9 12 8 13 7 14 6 15 5 16 4 17 3 18 2 19 1 20
REMARK H PARENT
REMARK Flexibility Score: inf
ROOT
ATOM      1  C   UNL     1      53.545  52.865  21.872  1.00  0.00     0.000 C 
ENDROOT
BRANCH   1   2
ATOM      2  C   UNL     1      54.834  52.894  21.031  1.00  0.00     0.000 C 
BRANCH   2   3
ATOM      3  C   UNL     1      55.465  51.518  20.747  1.00  0.00     0.000 C 
BRANCH   3   4
ATOM      4  C   UNL     1      54.468  50.516  20.142  1.00  0.00     0.000 C 
BRANCH   4   5
ATOM      5  C   UNL     1      55.153  49.248  19.609  1.00  0.00     0.000 C 
BRANCH   5   6
ATOM      6  C   UNL     1      56.015  48.542  20.672  1.00  0.00     0.000 C 
BRANCH   6   7
ATOM      7  C   UNL     1      56.376  47.100  20.279  1.00  0.00     0.006 C 
BRANCH   7   8
ATOM      8  C   UNL     1      56.498  46.171  21.493  1.00  0.00     0.053 C 
BRANCH   8   9
ATOM      9  C   UNL     1      57.187  46.873  22.621  1.00  0.00     0.041 C 
ATOM     10  O   UNL     1      56.713  46.816  23.786  1.00  0.00    -0.550 OA
ATOM     11  O   UNL     1      58.379  47.548  22.395  1.00  0.00    -0.550 OA
ENDBRANCH   8   9
ENDBRANCH   7   8
ENDBRANCH   6   7
ENDBRANCH   5   6
ENDBRANCH   4   5
ENDBRANCH   3   4
ENDBRANCH   2   3
ENDBRANCH   1   2
BRANCH   1  12
ATOM     12  C   UNL     1      53.020  54.270  22.212  1.00  0.00     0.000 C 
BRANCH  12  13
ATOM     13  C   UNL     1      53.719  54.882  23.436  1.00  0.00    -0.000 C 
BRANCH  13  14
ATOM     14  C   UNL     1      52.989  56.122  23.983  1.00  0.00    -0.000 C 
BRANCH  14  15
ATOM     15  C   UNL     1      53.219  56.313  25.498  1.00  0.00    -0.000 C 
BRANCH  15  16
ATOM     16  C   UNL     1      54.693  56.555  25.867  1.00  0.00    -0.000 C 
BRANCH  16  17
ATOM     17  C   UNL     1      55.640  56.410  24.665  1.00  0.00    -0.000 C 
BRANCH  17  18
ATOM     18  C   UNL     1      57.005  55.820  25.054  1.00  0.00    -0.000 C 
BRANCH  18  19
ATOM     19  C   UNL     1      58.025  56.899  25.445  1.00  0.00    -0.003 C 
ATOM     20  C   UNL     1      58.035  57.125  26.955  1.00  0.00     0.004 C 
ENDBRANCH  18  19
ENDBRANCH  17  18
ENDBRANCH  16  17
ENDBRANCH  15  16
ENDBRANCH  14  15
ENDBRANCH  13  14
ENDBRANCH  12  13
ENDBRANCH   1  12
TORSDOF 16
ENDMDL
MODEL 9
REMARK VINA RESULT:    21.822      4.144      9.153
REMARK INTER + INTRA:          41.377
REMARK INTER:                  41.800
REMARK INTRA:                  -0.423
REMARK UNBOUND:                -0.856
REMARK SMILES CCCCCCCCCCCCCCCCCC(=O)[O-]
REMARK SMILES IDX 10 1 11 2 12 3 13 4 14 5 15 6 16 7 17 8 18 9 19 10 20 11
REMARK SMILES IDX 9 12 8 13 7 14 6 15 5 16 4 17 3 18 2 19 1 20
REMARK H PARENT
REMARK Flexibility Score: inf
ROOT
ATOM      1  C   UNL     1      56.709  46.448  22.754  1.00  0.00     0.000 C 
ENDROOT
BRANCH   1   2
ATOM      2  C   UNL     1      56.747  47.584  21.716  1.00  0.00     0.000 C 
BRANCH   2   3
ATOM      3  C   UNL     1      56.308  47.190  20.293  1.00  0.00     0.000 C 
BRANCH   3   4
ATOM      4  C   UNL     1      56.137  48.403  19.362  1.00  0.00     0.000 C 
BRANCH   4   5
ATOM      5  C   UNL     1      54.662  48.732  19.085  1.00  0.00     0.000 C 
BRANCH   5   6
ATOM      6  C   UNL     1      54.485  49.886  18.081  1.00  0.00     0.000 C 
BRANCH   6   7
ATOM      7  C   UNL     1      54.037  49.400  16.693  1.00  0.00     0.006 C 
BRANCH   7   8
ATOM      8  C   UNL     1      54.828  50.055  15.555  1.00  0.00     0.053 C 
BRANCH   8   9
ATOM      9  C   UNL     1      56.274  50.172  15.923  1.00  0.00     0.041 C 
ATOM     10  O   UNL     1      56.931  49.147  16.243  1.00  0.00    -0.550 OA
ATOM     11  O   UNL     1      56.909  51.407  15.865  1.00  0.00    -0.550 OA
ENDBRANCH   8   9
ENDBRANCH   7   8
ENDBRANCH   6   7
ENDBRANCH   5   6
ENDBRANCH   4   5
ENDBRANCH   3   4
ENDBRANCH   2   3
ENDBRANCH   1   2
BRANCH   1  12
ATOM     12  C   UNL     1      57.516  45.213  22.319  1.00  0.00     0.000 C 
BRANCH  12  13
ATOM     13  C   UNL     1      56.631  43.980  22.079  1.00  0.00    -0.000 C 
BRANCH  13  14
ATOM     14  C   UNL     1      56.393  43.696  20.585  1.00  0.00    -0.000 C 
BRANCH  14  15
ATOM     15  C   UNL     1      54.946  43.237  20.302  1.00  0.00    -0.000 C 
BRANCH  15  16
ATOM     16  C   UNL     1      54.690  41.764  20.665  1.00  0.00    -0.000 C 
BRANCH  16  17
ATOM     17  C   UNL     1      55.968  41.024  21.091  1.00  0.00    -0.000 C 
BRANCH  17  18
ATOM     18  C   UNL     1      55.780  39.499  21.141  1.00  0.00    -0.000 C 
BRANCH  18  19
ATOM     19  C   UNL     1      57.100  38.736  20.961  1.00  0.00    -0.003 C 
ATOM     20  C   UNL     1      56.941  37.265  21.339  1.00  0.00     0.004 C 
ENDBRANCH  18  19
ENDBRANCH  17  18
ENDBRANCH  16  17
ENDBRANCH  15  16
ENDBRANCH  14  15
ENDBRANCH  13  14
ENDBRANCH  12  13
ENDBRANCH   1  12
TORSDOF 16
ENDMDL
