MODEL 1
REMARK VINA RESULT:    -5.669      0.000      0.000
REMARK INTER + INTRA:          -7.023
REMARK INTER:                  -6.828
REMARK INTRA:                  -0.195
REMARK UNBOUND:                -0.195
REMARK SMILES O=c1c(O)c(-c2ccc(O)cc2O)oc2cc(O)cc(O)c12
REMARK SMILES IDX 5 1 3 2 2 3 1 4 22 5 20 6 19 7 17 8 16 9 15 10 14 11 6 12
REMARK SMILES IDX 8 13 7 14 9 15 11 16 12 17 10 18 13 20 4 22 21 24 18 26
REMARK H PARENT 10 19 13 21 4 23 21 25 18 27
REMARK Flexibility Score: inf
ROOT
ATOM      1  C   UNL     1      20.561  -5.639 -37.539  1.00  0.00     0.184 A 
ATOM      2  C   UNL     1      20.627  -4.406 -36.870  1.00  0.00     0.208 A 
ATOM      3  C   UNL     1      19.846  -4.213 -35.719  1.00  0.00     0.238 A 
ATOM      4  O   UNL     1      19.869  -3.089 -35.155  1.00  0.00    -0.285 OA
ATOM      5  C   UNL     1      19.022  -5.261 -35.244  1.00  0.00     0.111 A 
ATOM      6  C   UNL     1      18.219  -5.191 -34.066  1.00  0.00     0.134 A 
ATOM      7  C   UNL     1      17.344  -6.242 -33.764  1.00  0.00     0.093 A 
ATOM      8  C   UNL     1      17.291  -7.389 -34.560  1.00  0.00     0.123 A 
ATOM      9  C   UNL     1      18.114  -7.492 -35.679  1.00  0.00     0.094 A 
ATOM     10  C   UNL     1      18.971  -6.445 -36.027  1.00  0.00     0.146 A 
ATOM     11  O   UNL     1      19.730  -6.580 -37.108  1.00  0.00    -0.451 OA
ENDROOT
BRANCH   1  12
ATOM     12  C   UNL     1      21.369  -5.912 -38.744  1.00  0.00     0.063 A 
ATOM     13  C   UNL     1      23.537  -5.871 -39.846  1.00  0.00     0.047 A 
ATOM     14  C   UNL     1      22.744  -5.630 -38.721  1.00  0.00     0.020 A 
ATOM     15  C   UNL     1      22.964  -6.384 -41.013  1.00  0.00     0.119 A 
ATOM     16  C   UNL     1      21.588  -6.646 -41.055  1.00  0.00     0.093 A 
ATOM     17  C   UNL     1      20.785  -6.402 -39.932  1.00  0.00     0.130 A 
BRANCH  15  18
ATOM     18  O   UNL     1      23.767  -6.623 -42.125  1.00  0.00    -0.508 OA
ATOM     19  H   UNL     1      24.011  -5.883 -42.772  1.00  0.00     0.293 HD
ENDBRANCH  15  18
BRANCH  17  20
ATOM     20  O   UNL     1      19.409  -6.622 -40.002  1.00  0.00    -0.507 OA
ATOM     21  H   UNL     1      19.016  -7.555 -39.952  1.00  0.00     0.293 HD
ENDBRANCH  17  20
ENDBRANCH   1  12
BRANCH   2  22
ATOM     22  O   UNL     1      21.436  -3.382 -37.371  1.00  0.00    -0.502 OA
ATOM     23  H   UNL     1      21.907  -2.718 -36.768  1.00  0.00     0.293 HD
ENDBRANCH   2  22
BRANCH   6  24
ATOM     24  O   UNL     1      18.264  -4.133 -33.154  1.00  0.00    -0.507 OA
ATOM     25  H   UNL     1      18.395  -4.236 -32.160  1.00  0.00     0.293 HD
ENDBRANCH   6  24
BRANCH   8  26
ATOM     26  O   UNL     1      16.428  -8.435 -34.241  1.00  0.00    -0.508 OA
ATOM     27  H   UNL     1      16.421  -8.855 -33.320  1.00  0.00     0.293 HD
ENDBRANCH   8  26
TORSDOF 6
ENDMDL
MODEL 2
REMARK VINA RESULT:    -5.657      1.698      7.020
REMARK INTER + INTRA:          -7.009
REMARK INTER:                  -6.600
REMARK INTRA:                  -0.408
REMARK UNBOUND:                -0.195
REMARK SMILES O=c1c(O)c(-c2ccc(O)cc2O)oc2cc(O)cc(O)c12
REMARK SMILES IDX 5 1 3 2 2 3 1 4 22 5 20 6 19 7 17 8 16 9 15 10 14 11 6 12
REMARK SMILES IDX 8 13 7 14 9 15 11 16 12 17 10 18 13 20 4 22 21 24 18 26
REMARK H PARENT 10 19 13 21 4 23 21 25 18 27
REMARK Flexibility Score: inf
ROOT
ATOM      1  C   UNL     1      20.245  -5.686 -37.586  1.00  0.00     0.184 A 
ATOM      2  C   UNL     1      19.546  -6.407 -38.567  1.00  0.00     0.208 A 
ATOM      3  C   UNL     1      20.203  -6.741 -39.762  1.00  0.00     0.238 A 
ATOM      4  O   UNL     1      19.556  -7.340 -40.660  1.00  0.00    -0.285 OA
ATOM      5  C   UNL     1      21.554  -6.364 -39.952  1.00  0.00     0.111 A 
ATOM      6  C   UNL     1      22.331  -6.685 -41.106  1.00  0.00     0.134 A 
ATOM      7  C   UNL     1      23.618  -6.149 -41.243  1.00  0.00     0.093 A 
ATOM      8  C   UNL     1      24.181  -5.359 -40.237  1.00  0.00     0.123 A 
ATOM      9  C   UNL     1      23.453  -5.089 -39.080  1.00  0.00     0.094 A 
ATOM     10  C   UNL     1      22.153  -5.579 -38.931  1.00  0.00     0.146 A 
ATOM     11  O   UNL     1      21.490  -5.289 -37.818  1.00  0.00    -0.451 OA
ENDROOT
BRANCH   1  12
ATOM     12  C   UNL     1      19.618  -5.317 -36.300  1.00  0.00     0.063 A 
ATOM     13  C   UNL     1      18.477  -3.648 -34.949  1.00  0.00     0.047 A 
ATOM     14  C   UNL     1      19.072  -4.032 -36.152  1.00  0.00     0.020 A 
ATOM     15  C   UNL     1      18.432  -4.537 -33.871  1.00  0.00     0.119 A 
ATOM     16  C   UNL     1      18.996  -5.814 -34.000  1.00  0.00     0.093 A 
ATOM     17  C   UNL     1      19.600  -6.204 -35.204  1.00  0.00     0.130 A 
BRANCH  15  18
ATOM     18  O   UNL     1      17.831  -4.143 -32.678  1.00  0.00    -0.508 OA
ATOM     19  H   UNL     1      17.230  -4.769 -32.156  1.00  0.00     0.293 HD
ENDBRANCH  15  18
BRANCH  17  20
ATOM     20  O   UNL     1      20.200  -7.460 -35.303  1.00  0.00    -0.507 OA
ATOM     21  H   UNL     1      20.132  -8.017 -36.147  1.00  0.00     0.293 HD
ENDBRANCH  17  20
ENDBRANCH   1  12
BRANCH   2  22
ATOM     22  O   UNL     1      18.207  -6.750 -38.361  1.00  0.00    -0.502 OA
ATOM     23  H   UNL     1      17.564  -6.147 -37.862  1.00  0.00     0.293 HD
ENDBRANCH   2  22
BRANCH   6  24
ATOM     24  O   UNL     1      21.899  -7.539 -42.124  1.00  0.00    -0.507 OA
ATOM     25  H   UNL     1      21.637  -8.504 -41.992  1.00  0.00     0.293 HD
ENDBRANCH   6  24
BRANCH   8  26
ATOM     26  O   UNL     1      25.468  -4.844 -40.376  1.00  0.00    -0.508 OA
ATOM     27  H   UNL     1      25.812  -4.107 -39.773  1.00  0.00     0.293 HD
ENDBRANCH   8  26
TORSDOF 6
ENDMDL
MODEL 3
REMARK VINA RESULT:    -5.566      2.919      7.554
REMARK INTER + INTRA:          -6.900
REMARK INTER:                  -6.524
REMARK INTRA:                  -0.376
REMARK UNBOUND:                -0.195
REMARK SMILES O=c1c(O)c(-c2ccc(O)cc2O)oc2cc(O)cc(O)c12
REMARK SMILES IDX 5 1 3 2 2 3 1 4 22 5 20 6 19 7 17 8 16 9 15 10 14 11 6 12
REMARK SMILES IDX 8 13 7 14 9 15 11 16 12 17 10 18 13 20 4 22 21 24 18 26
REMARK H PARENT 10 19 13 21 4 23 21 25 18 27
REMARK Flexibility Score: inf
ROOT
ATOM      1  C   UNL     1      16.712  -7.268 -35.737  1.00  0.00     0.184 A 
ATOM      2  C   UNL     1      18.093  -7.221 -35.485  1.00  0.00     0.208 A 
ATOM      3  C   UNL     1      18.982  -7.204 -36.571  1.00  0.00     0.238 A 
ATOM      4  O   UNL     1      20.219  -7.217 -36.340  1.00  0.00    -0.285 OA
ATOM      5  C   UNL     1      18.477  -7.218 -37.894  1.00  0.00     0.111 A 
ATOM      6  C   UNL     1      19.284  -7.163 -39.070  1.00  0.00     0.134 A 
ATOM      7  C   UNL     1      18.684  -7.314 -40.327  1.00  0.00     0.093 A 
ATOM      8  C   UNL     1      17.300  -7.451 -40.453  1.00  0.00     0.123 A 
ATOM      9  C   UNL     1      16.497  -7.447 -39.315  1.00  0.00     0.094 A 
ATOM     10  C   UNL     1      17.070  -7.335 -38.045  1.00  0.00     0.146 A 
ATOM     11  O   UNL     1      16.270  -7.347 -36.986  1.00  0.00    -0.451 OA
ENDROOT
BRANCH   1  12
ATOM     12  C   UNL     1      15.723  -7.271 -34.639  1.00  0.00     0.063 A 
ATOM     13  C   UNL     1      14.169  -8.520 -33.247  1.00  0.00     0.047 A 
ATOM     14  C   UNL     1      15.113  -8.482 -34.276  1.00  0.00     0.020 A 
ATOM     15  C   UNL     1      13.811  -7.347 -32.577  1.00  0.00     0.119 A 
ATOM     16  C   UNL     1      14.396  -6.129 -32.949  1.00  0.00     0.093 A 
ATOM     17  C   UNL     1      15.340  -6.082 -33.984  1.00  0.00     0.130 A 
BRANCH  15  18
ATOM     18  O   UNL     1      12.872  -7.400 -31.550  1.00  0.00    -0.508 OA
ATOM     19  H   UNL     1      12.605  -6.571 -31.033  1.00  0.00     0.293 HD
ENDBRANCH  15  18
BRANCH  17  20
ATOM     20  O   UNL     1      15.879  -4.856 -34.377  1.00  0.00    -0.507 OA
ATOM     21  H   UNL     1      15.378  -4.228 -34.995  1.00  0.00     0.293 HD
ENDBRANCH  17  20
ENDBRANCH   1  12
BRANCH   2  22
ATOM     22  O   UNL     1      18.563  -7.227 -34.169  1.00  0.00    -0.502 OA
ATOM     23  H   UNL     1      18.705  -8.084 -33.648  1.00  0.00     0.293 HD
ENDBRANCH   2  22
BRANCH   6  24
ATOM     24  O   UNL     1      20.663  -6.936 -39.060  1.00  0.00    -0.507 OA
ATOM     25  H   UNL     1      21.123  -6.164 -39.517  1.00  0.00     0.293 HD
ENDBRANCH   6  24
BRANCH   8  26
ATOM     26  O   UNL     1      16.711  -7.585 -41.709  1.00  0.00    -0.508 OA
ATOM     27  H   UNL     1      16.403  -6.778 -42.238  1.00  0.00     0.293 HD
ENDBRANCH   8  26
TORSDOF 6
ENDMDL
MODEL 4
REMARK VINA RESULT:    -5.342      2.706      7.805
REMARK INTER + INTRA:          -6.629
REMARK INTER:                  -6.208
REMARK INTRA:                  -0.422
REMARK UNBOUND:                -0.195
REMARK SMILES O=c1c(O)c(-c2ccc(O)cc2O)oc2cc(O)cc(O)c12
REMARK SMILES IDX 5 1 3 2 2 3 1 4 22 5 20 6 19 7 17 8 16 9 15 10 14 11 6 12
REMARK SMILES IDX 8 13 7 14 9 15 11 16 12 17 10 18 13 20 4 22 21 24 18 26
REMARK H PARENT 10 19 13 21 4 23 21 25 18 27
REMARK Flexibility Score: inf
ROOT
ATOM      1  C   UNL     1      16.276  -7.242 -36.012  1.00  0.00     0.184 A 
ATOM      2  C   UNL     1      15.703  -7.443 -37.278  1.00  0.00     0.208 A 
ATOM      3  C   UNL     1      16.522  -7.364 -38.415  1.00  0.00     0.238 A 
ATOM      4  O   UNL     1      15.995  -7.491 -39.550  1.00  0.00    -0.285 OA
ATOM      5  C   UNL     1      17.906  -7.101 -38.269  1.00  0.00     0.111 A 
ATOM      6  C   UNL     1      18.838  -7.038 -39.348  1.00  0.00     0.134 A 
ATOM      7  C   UNL     1      20.158  -6.643 -39.099  1.00  0.00     0.093 A 
ATOM      8  C   UNL     1      20.597  -6.372 -37.800  1.00  0.00     0.123 A 
ATOM      9  C   UNL     1      19.710  -6.488 -36.733  1.00  0.00     0.094 A 
ATOM     10  C   UNL     1      18.377  -6.845 -36.954  1.00  0.00     0.146 A 
ATOM     11  O   UNL     1      17.563  -6.932 -35.909  1.00  0.00    -0.451 OA
ENDROOT
BRANCH   1  12
ATOM     12  C   UNL     1      15.473  -7.328 -34.774  1.00  0.00     0.063 A 
ATOM     13  C   UNL     1      14.277  -8.704 -33.166  1.00  0.00     0.047 A 
ATOM     14  C   UNL     1      15.042  -8.587 -34.328  1.00  0.00     0.020 A 
ATOM     15  C   UNL     1      13.920  -7.564 -32.441  1.00  0.00     0.119 A 
ATOM     16  C   UNL     1      14.325  -6.300 -32.891  1.00  0.00     0.093 A 
ATOM     17  C   UNL     1      15.089  -6.174 -34.060  1.00  0.00     0.130 A 
BRANCH  15  18
ATOM     18  O   UNL     1      13.161  -7.696 -31.281  1.00  0.00    -0.508 OA
ATOM     19  H   UNL     1      13.398  -8.375 -30.567  1.00  0.00     0.293 HD
ENDBRANCH  15  18
BRANCH  17  20
ATOM     20  O   UNL     1      15.444  -4.906 -34.523  1.00  0.00    -0.507 OA
ATOM     21  H   UNL     1      16.031  -4.286 -33.977  1.00  0.00     0.293 HD
ENDBRANCH  17  20
ENDBRANCH   1  12
BRANCH   2  22
ATOM     22  O   UNL     1      14.332  -7.683 -37.394  1.00  0.00    -0.502 OA
ATOM     23  H   UNL     1      13.650  -6.933 -37.420  1.00  0.00     0.293 HD
ENDBRANCH   2  22
BRANCH   6  24
ATOM     24  O   UNL     1      18.527  -7.378 -40.668  1.00  0.00    -0.507 OA
ATOM     25  H   UNL     1      17.605  -7.621 -40.997  1.00  0.00     0.293 HD
ENDBRANCH   6  24
BRANCH   8  26
ATOM     26  O   UNL     1      21.916  -5.995 -37.561  1.00  0.00    -0.508 OA
ATOM     27  H   UNL     1      22.375  -5.286 -38.120  1.00  0.00     0.293 HD
ENDBRANCH   8  26
TORSDOF 6
ENDMDL
MODEL 5
REMARK VINA RESULT:    -5.263      2.090      3.433
REMARK INTER + INTRA:          -6.535
REMARK INTER:                  -6.221
REMARK INTRA:                  -0.314
REMARK UNBOUND:                -0.195
REMARK SMILES O=c1c(O)c(-c2ccc(O)cc2O)oc2cc(O)cc(O)c12
REMARK SMILES IDX 5 1 3 2 2 3 1 4 22 5 20 6 19 7 17 8 16 9 15 10 14 11 6 12
REMARK SMILES IDX 8 13 7 14 9 15 11 16 12 17 10 18 13 20 4 22 21 24 18 26
REMARK H PARENT 10 19 13 21 4 23 21 25 18 27
REMARK Flexibility Score: inf
ROOT
ATOM      1  C   UNL     1      20.909  -4.685 -37.798  1.00  0.00     0.184 A 
ATOM      2  C   UNL     1      20.626  -6.061 -37.792  1.00  0.00     0.208 A 
ATOM      3  C   UNL     1      19.908  -6.603 -36.715  1.00  0.00     0.238 A 
ATOM      4  O   UNL     1      19.704  -7.844 -36.688  1.00  0.00    -0.285 OA
ATOM      5  C   UNL     1      19.468  -5.759 -35.667  1.00  0.00     0.111 A 
ATOM      6  C   UNL     1      18.698  -6.193 -34.546  1.00  0.00     0.134 A 
ATOM      7  C   UNL     1      18.429  -5.297 -33.504  1.00  0.00     0.093 A 
ATOM      8  C   UNL     1      18.846  -3.965 -33.573  1.00  0.00     0.123 A 
ATOM      9  C   UNL     1      19.547  -3.516 -34.690  1.00  0.00     0.094 A 
ATOM     10  C   UNL     1      19.862  -4.396 -35.729  1.00  0.00     0.146 A 
ATOM     11  O   UNL     1      20.541  -3.930 -36.770  1.00  0.00    -0.451 OA
ENDROOT
BRANCH   1  12
ATOM     12  C   UNL     1      21.646  -4.049 -38.909  1.00  0.00     0.063 A 
ATOM     13  C   UNL     1      21.621  -2.583 -40.849  1.00  0.00     0.047 A 
ATOM     14  C   UNL     1      20.956  -3.196 -39.785  1.00  0.00     0.020 A 
ATOM     15  C   UNL     1      22.981  -2.824 -41.061  1.00  0.00     0.119 A 
ATOM     16  C   UNL     1      23.674  -3.692 -40.207  1.00  0.00     0.093 A 
ATOM     17  C   UNL     1      23.012  -4.316 -39.140  1.00  0.00     0.130 A 
BRANCH  15  18
ATOM     18  O   UNL     1      23.632  -2.202 -42.123  1.00  0.00    -0.508 OA
ATOM     19  H   UNL     1      23.230  -2.184 -43.053  1.00  0.00     0.293 HD
ENDBRANCH  15  18
BRANCH  17  20
ATOM     20  O   UNL     1      23.702  -5.216 -38.327  1.00  0.00    -0.507 OA
ATOM     21  H   UNL     1      23.672  -5.150 -37.316  1.00  0.00     0.293 HD
ENDBRANCH  17  20
ENDBRANCH   1  12
BRANCH   2  22
ATOM     22  O   UNL     1      21.089  -6.873 -38.831  1.00  0.00    -0.502 OA
ATOM     23  H   UNL     1      21.270  -7.862 -38.707  1.00  0.00     0.293 HD
ENDBRANCH   2  22
BRANCH   6  24
ATOM     24  O   UNL     1      18.155  -7.475 -34.422  1.00  0.00    -0.507 OA
ATOM     25  H   UNL     1      17.418  -7.846 -35.003  1.00  0.00     0.293 HD
ENDBRANCH   6  24
BRANCH   8  26
ATOM     26  O   UNL     1      18.560  -3.077 -32.539  1.00  0.00    -0.508 OA
ATOM     27  H   UNL     1      19.106  -2.236 -32.395  1.00  0.00     0.293 HD
ENDBRANCH   8  26
TORSDOF 6
ENDMDL
MODEL 6
REMARK VINA RESULT:    -5.239      2.503      4.995
REMARK INTER + INTRA:          -6.505
REMARK INTER:                  -6.152
REMARK INTRA:                  -0.354
REMARK UNBOUND:                -0.195
REMARK SMILES O=c1c(O)c(-c2ccc(O)cc2O)oc2cc(O)cc(O)c12
REMARK SMILES IDX 5 1 3 2 2 3 1 4 22 5 20 6 19 7 17 8 16 9 15 10 14 11 6 12
REMARK SMILES IDX 8 13 7 14 9 15 11 16 12 17 10 18 13 20 4 22 21 24 18 26
REMARK H PARENT 10 19 13 21 4 23 21 25 18 27
REMARK Flexibility Score: inf
ROOT
ATOM      1  C   UNL     1      17.239  -6.192 -35.247  1.00  0.00     0.184 A 
ATOM      2  C   UNL     1      16.151  -7.058 -35.053  1.00  0.00     0.208 A 
ATOM      3  C   UNL     1      15.290  -6.836 -33.967  1.00  0.00     0.238 A 
ATOM      4  O   UNL     1      14.349  -7.646 -33.766  1.00  0.00    -0.285 OA
ATOM      5  C   UNL     1      15.520  -5.741 -33.099  1.00  0.00     0.111 A 
ATOM      6  C   UNL     1      14.689  -5.397 -31.991  1.00  0.00     0.134 A 
ATOM      7  C   UNL     1      15.084  -4.370 -31.124  1.00  0.00     0.093 A 
ATOM      8  C   UNL     1      16.246  -3.632 -31.363  1.00  0.00     0.123 A 
ATOM      9  C   UNL     1      17.032  -3.921 -32.475  1.00  0.00     0.094 A 
ATOM     10  C   UNL     1      16.684  -4.963 -33.338  1.00  0.00     0.146 A 
ATOM     11  O   UNL     1      17.468  -5.213 -34.380  1.00  0.00    -0.451 OA
ENDROOT
BRANCH   1  12
ATOM     12  C   UNL     1      18.173  -6.360 -36.379  1.00  0.00     0.063 A 
ATOM     13  C   UNL     1      18.532  -6.425 -38.783  1.00  0.00     0.047 A 
ATOM     14  C   UNL     1      17.678  -6.265 -37.690  1.00  0.00     0.020 A 
ATOM     15  C   UNL     1      19.889  -6.695 -38.583  1.00  0.00     0.119 A 
ATOM     16  C   UNL     1      20.388  -6.816 -37.279  1.00  0.00     0.093 A 
ATOM     17  C   UNL     1      19.536  -6.662 -36.176  1.00  0.00     0.130 A 
BRANCH  15  18
ATOM     18  O   UNL     1      20.730  -6.847 -39.682  1.00  0.00    -0.508 OA
ATOM     19  H   UNL     1      20.768  -7.715 -40.204  1.00  0.00     0.293 HD
ENDBRANCH  15  18
BRANCH  17  20
ATOM     20  O   UNL     1      20.036  -6.833 -34.884  1.00  0.00    -0.507 OA
ATOM     21  H   UNL     1      19.942  -7.713 -34.389  1.00  0.00     0.293 HD
ENDBRANCH  17  20
ENDBRANCH   1  12
BRANCH   2  22
ATOM     22  O   UNL     1      15.959  -8.142 -35.914  1.00  0.00    -0.502 OA
ATOM     23  H   UNL     1      16.704  -8.789 -36.146  1.00  0.00     0.293 HD
ENDBRANCH   2  22
BRANCH   6  24
ATOM     24  O   UNL     1      13.463  -6.008 -31.716  1.00  0.00    -0.507 OA
ATOM     25  H   UNL     1      12.832  -6.372 -32.414  1.00  0.00     0.293 HD
ENDBRANCH   6  24
BRANCH   8  26
ATOM     26  O   UNL     1      16.622  -2.602 -30.503  1.00  0.00    -0.508 OA
ATOM     27  H   UNL     1      17.542  -2.572 -30.082  1.00  0.00     0.293 HD
ENDBRANCH   8  26
TORSDOF 6
ENDMDL
MODEL 7
REMARK VINA RESULT:    -5.144      2.463      6.769
REMARK INTER + INTRA:          -6.391
REMARK INTER:                  -6.061
REMARK INTRA:                  -0.330
REMARK UNBOUND:                -0.195
REMARK SMILES O=c1c(O)c(-c2ccc(O)cc2O)oc2cc(O)cc(O)c12
REMARK SMILES IDX 5 1 3 2 2 3 1 4 22 5 20 6 19 7 17 8 16 9 15 10 14 11 6 12
REMARK SMILES IDX 8 13 7 14 9 15 11 16 12 17 10 18 13 20 4 22 21 24 18 26
REMARK H PARENT 10 19 13 21 4 23 21 25 18 27
REMARK Flexibility Score: inf
ROOT
ATOM      1  C   UNL     1      16.884  -7.001 -35.716  1.00  0.00     0.184 A 
ATOM      2  C   UNL     1      17.219  -5.925 -34.878  1.00  0.00     0.208 A 
ATOM      3  C   UNL     1      18.357  -5.159 -35.178  1.00  0.00     0.238 A 
ATOM      4  O   UNL     1      18.684  -4.230 -34.395  1.00  0.00    -0.285 OA
ATOM      5  C   UNL     1      19.134  -5.470 -36.320  1.00  0.00     0.111 A 
ATOM      6  C   UNL     1      20.284  -4.737 -36.742  1.00  0.00     0.134 A 
ATOM      7  C   UNL     1      21.050  -5.213 -37.813  1.00  0.00     0.093 A 
ATOM      8  C   UNL     1      20.672  -6.357 -38.519  1.00  0.00     0.123 A 
ATOM      9  C   UNL     1      19.518  -7.046 -38.152  1.00  0.00     0.094 A 
ATOM     10  C   UNL     1      18.752  -6.617 -37.065  1.00  0.00     0.146 A 
ATOM     11  O   UNL     1      17.667  -7.310 -36.742  1.00  0.00    -0.451 OA
ENDROOT
BRANCH   1  12
ATOM     12  C   UNL     1      15.690  -7.836 -35.466  1.00  0.00     0.063 A 
ATOM     13  C   UNL     1      14.499  -9.374 -34.007  1.00  0.00     0.047 A 
ATOM     14  C   UNL     1      15.610  -8.570 -34.272  1.00  0.00     0.020 A 
ATOM     15  C   UNL     1      13.460  -9.467 -34.937  1.00  0.00     0.119 A 
ATOM     16  C   UNL     1      13.542  -8.757 -36.143  1.00  0.00     0.093 A 
ATOM     17  C   UNL     1      14.656  -7.952 -36.418  1.00  0.00     0.130 A 
BRANCH  15  18
ATOM     18  O   UNL     1      12.357 -10.268 -34.657  1.00  0.00    -0.508 OA
ATOM     19  H   UNL     1      12.242 -11.180 -35.084  1.00  0.00     0.293 HD
ENDBRANCH  15  18
BRANCH  17  20
ATOM     20  O   UNL     1      14.747  -7.289 -37.643  1.00  0.00    -0.507 OA
ATOM     21  H   UNL     1      15.570  -7.368 -38.230  1.00  0.00     0.293 HD
ENDBRANCH  17  20
ENDBRANCH   1  12
BRANCH   2  22
ATOM     22  O   UNL     1      16.445  -5.652 -33.747  1.00  0.00    -0.502 OA
ATOM     23  H   UNL     1      15.753  -6.302 -33.394  1.00  0.00     0.293 HD
ENDBRANCH   2  22
BRANCH   6  24
ATOM     24  O   UNL     1      20.695  -3.533 -36.166  1.00  0.00    -0.507 OA
ATOM     25  H   UNL     1      20.861  -2.678 -36.675  1.00  0.00     0.293 HD
ENDBRANCH   6  24
BRANCH   8  26
ATOM     26  O   UNL     1      21.432  -6.813 -39.594  1.00  0.00    -0.508 OA
ATOM     27  H   UNL     1      21.174  -7.644 -40.111  1.00  0.00     0.293 HD
ENDBRANCH   8  26
TORSDOF 6
ENDMDL
MODEL 8
REMARK VINA RESULT:    -5.140      1.453      6.470
REMARK INTER + INTRA:          -6.386
REMARK INTER:                  -5.996
REMARK INTRA:                  -0.390
REMARK UNBOUND:                -0.195
REMARK SMILES O=c1c(O)c(-c2ccc(O)cc2O)oc2cc(O)cc(O)c12
REMARK SMILES IDX 5 1 3 2 2 3 1 4 22 5 20 6 19 7 17 8 16 9 15 10 14 11 6 12
REMARK SMILES IDX 8 13 7 14 9 15 11 16 12 17 10 18 13 20 4 22 21 24 18 26
REMARK H PARENT 10 19 13 21 4 23 21 25 18 27
REMARK Flexibility Score: inf
ROOT
ATOM      1  C   UNL     1      19.963  -5.427 -37.490  1.00  0.00     0.184 A 
ATOM      2  C   UNL     1      20.518  -4.156 -37.267  1.00  0.00     0.208 A 
ATOM      3  C   UNL     1      21.545  -3.705 -38.111  1.00  0.00     0.238 A 
ATOM      4  O   UNL     1      22.076  -2.589 -37.874  1.00  0.00    -0.285 OA
ATOM      5  C   UNL     1      21.992  -4.525 -39.176  1.00  0.00     0.111 A 
ATOM      6  C   UNL     1      22.999  -4.153 -40.117  1.00  0.00     0.134 A 
ATOM      7  C   UNL     1      23.453  -5.094 -41.050  1.00  0.00     0.093 A 
ATOM      8  C   UNL     1      22.890  -6.371 -41.118  1.00  0.00     0.123 A 
ATOM      9  C   UNL     1      21.866  -6.723 -40.243  1.00  0.00     0.094 A 
ATOM     10  C   UNL     1      21.416  -5.819 -39.277  1.00  0.00     0.146 A 
ATOM     11  O   UNL     1      20.447  -6.200 -38.455  1.00  0.00    -0.451 OA
ENDROOT
BRANCH   1  12
ATOM     12  C   UNL     1      18.868  -5.954 -36.650  1.00  0.00     0.063 A 
ATOM     13  C   UNL     1      16.561  -5.788 -35.899  1.00  0.00     0.047 A 
ATOM     14  C   UNL     1      17.616  -5.319 -36.685  1.00  0.00     0.020 A 
ATOM     15  C   UNL     1      16.746  -6.887 -35.057  1.00  0.00     0.119 A 
ATOM     16  C   UNL     1      17.998  -7.513 -34.995  1.00  0.00     0.093 A 
ATOM     17  C   UNL     1      19.064  -7.045 -35.778  1.00  0.00     0.130 A 
BRANCH  15  18
ATOM     18  O   UNL     1      15.684  -7.346 -34.282  1.00  0.00    -0.508 OA
ATOM     19  H   UNL     1      15.578  -8.328 -34.056  1.00  0.00     0.293 HD
ENDBRANCH  15  18
BRANCH  17  20
ATOM     20  O   UNL     1      20.319  -7.646 -35.672  1.00  0.00    -0.507 OA
ATOM     21  H   UNL     1      20.842  -7.637 -34.803  1.00  0.00     0.293 HD
ENDBRANCH  17  20
ENDBRANCH   1  12
BRANCH   2  22
ATOM     22  O   UNL     1      20.070  -3.376 -36.198  1.00  0.00    -0.502 OA
ATOM     23  H   UNL     1      20.707  -2.934 -35.545  1.00  0.00     0.293 HD
ENDBRANCH   2  22
BRANCH   6  24
ATOM     24  O   UNL     1      23.560  -2.876 -40.195  1.00  0.00    -0.507 OA
ATOM     25  H   UNL     1      24.304  -2.537 -39.603  1.00  0.00     0.293 HD
ENDBRANCH   6  24
BRANCH   8  26
ATOM     26  O   UNL     1      23.338  -7.295 -42.061  1.00  0.00    -0.508 OA
ATOM     27  H   UNL     1      23.256  -8.292 -41.906  1.00  0.00     0.293 HD
ENDBRANCH   8  26
TORSDOF 6
ENDMDL
MODEL 9
REMARK VINA RESULT:    -5.097      2.318      3.852
REMARK INTER + INTRA:          -6.334
REMARK INTER:                  -5.917
REMARK INTRA:                  -0.417
REMARK UNBOUND:                -0.195
REMARK SMILES O=c1c(O)c(-c2ccc(O)cc2O)oc2cc(O)cc(O)c12
REMARK SMILES IDX 5 1 3 2 2 3 1 4 22 5 20 6 19 7 17 8 16 9 15 10 14 11 6 12
REMARK SMILES IDX 8 13 7 14 9 15 11 16 12 17 10 18 13 20 4 22 21 24 18 26
REMARK H PARENT 10 19 13 21 4 23 21 25 18 27
REMARK Flexibility Score: inf
ROOT
ATOM      1  C   UNL     1      17.536  -5.938 -35.714  1.00  0.00     0.184 A 
ATOM      2  C   UNL     1      17.220  -4.823 -34.922  1.00  0.00     0.208 A 
ATOM      3  C   UNL     1      16.227  -4.947 -33.937  1.00  0.00     0.238 A 
ATOM      4  O   UNL     1      15.910  -3.931 -33.267  1.00  0.00    -0.285 OA
ATOM      5  C   UNL     1      15.576  -6.190 -33.748  1.00  0.00     0.111 A 
ATOM      6  C   UNL     1      14.583  -6.442 -32.753  1.00  0.00     0.134 A 
ATOM      7  C   UNL     1      13.913  -7.672 -32.742  1.00  0.00     0.093 A 
ATOM      8  C   UNL     1      14.247  -8.683 -33.647  1.00  0.00     0.123 A 
ATOM      9  C   UNL     1      15.255  -8.468 -34.584  1.00  0.00     0.094 A 
ATOM     10  C   UNL     1      15.917  -7.239 -34.643  1.00  0.00     0.146 A 
ATOM     11  O   UNL     1      16.863  -7.072 -35.559  1.00  0.00    -0.451 OA
ENDROOT
BRANCH   1  12
ATOM     12  C   UNL     1      18.582  -5.879 -36.756  1.00  0.00     0.063 A 
ATOM     13  C   UNL     1      19.251  -5.195 -38.991  1.00  0.00     0.047 A 
ATOM     14  C   UNL     1      18.287  -5.263 -37.983  1.00  0.00     0.020 A 
ATOM     15  C   UNL     1      20.517  -5.753 -38.794  1.00  0.00     0.119 A 
ATOM     16  C   UNL     1      20.813  -6.391 -37.582  1.00  0.00     0.093 A 
ATOM     17  C   UNL     1      19.849  -6.469 -36.567  1.00  0.00     0.130 A 
BRANCH  15  18
ATOM     18  O   UNL     1      21.469  -5.673 -39.807  1.00  0.00    -0.508 OA
ATOM     19  H   UNL     1      22.204  -4.976 -39.788  1.00  0.00     0.293 HD
ENDBRANCH  15  18
BRANCH  17  20
ATOM     20  O   UNL     1      20.141  -7.149 -35.384  1.00  0.00    -0.507 OA
ATOM     21  H   UNL     1      20.289  -6.657 -34.510  1.00  0.00     0.293 HD
ENDBRANCH  17  20
ENDBRANCH   1  12
BRANCH   2  22
ATOM     22  O   UNL     1      17.866  -3.604 -35.143  1.00  0.00    -0.502 OA
ATOM     23  H   UNL     1      17.521  -2.730 -34.763  1.00  0.00     0.293 HD
ENDBRANCH   2  22
BRANCH   6  24
ATOM     24  O   UNL     1      14.241  -5.536 -31.746  1.00  0.00    -0.507 OA
ATOM     25  H   UNL     1      14.722  -4.668 -31.565  1.00  0.00     0.293 HD
ENDBRANCH   6  24
BRANCH   8  26
ATOM     26  O   UNL     1      13.585  -9.909 -33.618  1.00  0.00    -0.508 OA
ATOM     27  H   UNL     1      13.329 -10.352 -32.744  1.00  0.00     0.293 HD
ENDBRANCH   8  26
TORSDOF 6
ENDMDL
