MODEL 1
REMARK VINA RESULT:    -4.756      0.000      0.000
REMARK INTER + INTRA:         -10.381
REMARK INTER:                  -8.926
REMARK INTRA:                  -1.454
REMARK UNBOUND:                -1.454
REMARK SMILES CCCCCCCCC=CCCCCCCCC(=O)[O-]
REMARK SMILES IDX 10 1 9 2 11 3 12 4 13 5 14 6 15 7 16 8 17 9 18 10 19 11
REMARK SMILES IDX 20 12 8 13 7 14 6 15 5 16 4 17 3 18 2 19 1 20
REMARK H PARENT
REMARK Flexibility Score: inf
ROOT
ATOM      1  C   UNL     1      -2.830  -7.672   1.180  1.00  0.00    -0.031 C 
ATOM      2  C   UNL     1      -1.680  -6.982   1.063  1.00  0.00    -0.031 C 
ENDROOT
BRANCH   1   3
ATOM      3  C   UNL     1      -3.645  -8.185   0.019  1.00  0.00     0.027 C 
BRANCH   3   4
ATOM      4  C   UNL     1      -3.143  -9.563  -0.424  1.00  0.00     0.004 C 
BRANCH   4   5
ATOM      5  C   UNL     1      -3.135  -9.678  -1.955  1.00  0.00     0.000 C 
BRANCH   5   6
ATOM      6  C   UNL     1      -3.286  -8.316  -2.658  1.00  0.00     0.000 C 
BRANCH   6   7
ATOM      7  C   UNL     1      -2.188  -7.987  -3.690  1.00  0.00     0.000 C 
BRANCH   7   8
ATOM      8  C   UNL     1      -2.664  -7.187  -4.916  1.00  0.00     0.006 C 
BRANCH   8   9
ATOM      9  C   UNL     1      -3.879  -6.301  -4.612  1.00  0.00     0.053 C 
BRANCH   9  10
ATOM     10  C   UNL     1      -3.449  -4.885  -4.390  1.00  0.00     0.041 C 
ATOM     11  O   UNL     1      -2.895  -4.238  -5.317  1.00  0.00    -0.550 OA
ATOM     12  O   UNL     1      -3.705  -4.263  -3.175  1.00  0.00    -0.550 OA
ENDBRANCH   9  10
ENDBRANCH   8   9
ENDBRANCH   7   8
ENDBRANCH   6   7
ENDBRANCH   5   6
ENDBRANCH   4   5
ENDBRANCH   3   4
ENDBRANCH   1   3
BRANCH   2  13
ATOM     13  C   UNL     1      -1.078  -6.539  -0.250  1.00  0.00     0.027 C 
BRANCH  13  14
ATOM     14  C   UNL     1      -1.397  -5.067  -0.575  1.00  0.00     0.004 C 
BRANCH  14  15
ATOM     15  C   UNL     1      -0.367  -4.070  -0.015  1.00  0.00     0.000 C 
BRANCH  15  16
ATOM     16  C   UNL     1      -0.765  -3.504   1.355  1.00  0.00     0.000 C 
BRANCH  16  17
ATOM     17  C   UNL     1       0.184  -2.374   1.781  1.00  0.00    -0.000 C 
BRANCH  17  18
ATOM     18  C   UNL     1      -0.362  -0.974   1.446  1.00  0.00    -0.000 C 
BRANCH  18  19
ATOM     19  C   UNL     1      -0.188  -0.547  -0.023  1.00  0.00    -0.003 C 
ATOM     20  C   UNL     1      -0.042   0.964  -0.192  1.00  0.00     0.004 C 
ENDBRANCH  18  19
ENDBRANCH  17  18
ENDBRANCH  16  17
ENDBRANCH  15  16
ENDBRANCH  14  15
ENDBRANCH  13  14
ENDBRANCH   2  13
TORSDOF 15
ENDMDL
MODEL 2
REMARK VINA RESULT:    -4.737      4.654      6.967
REMARK INTER + INTRA:         -10.346
REMARK INTER:                  -8.943
REMARK INTRA:                  -1.402
REMARK UNBOUND:                -1.454
REMARK SMILES CCCCCCCCC=CCCCCCCCC(=O)[O-]
REMARK SMILES IDX 10 1 9 2 11 3 12 4 13 5 14 6 15 7 16 8 17 9 18 10 19 11
REMARK SMILES IDX 20 12 8 13 7 14 6 15 5 16 4 17 3 18 2 19 1 20
REMARK H PARENT
REMARK Flexibility Score: inf
ROOT
ATOM      1  C   UNL     1      -3.523  -8.218   2.609  1.00  0.00    -0.031 C 
ATOM      2  C   UNL     1      -3.837  -7.601   1.454  1.00  0.00    -0.031 C 
ENDROOT
BRANCH   1   3
ATOM      3  C   UNL     1      -2.126  -8.611   3.018  1.00  0.00     0.027 C 
BRANCH   3   4
ATOM      4  C   UNL     1      -2.137  -9.962   3.741  1.00  0.00     0.004 C 
BRANCH   4   5
ATOM      5  C   UNL     1      -1.333  -9.893   5.047  1.00  0.00     0.000 C 
BRANCH   5   6
ATOM      6  C   UNL     1      -0.855  -8.468   5.380  1.00  0.00     0.000 C 
BRANCH   6   7
ATOM      7  C   UNL     1      -1.426  -7.874   6.684  1.00  0.00     0.000 C 
BRANCH   7   8
ATOM      8  C   UNL     1      -2.827  -8.380   7.072  1.00  0.00     0.006 C 
BRANCH   8   9
ATOM      9  C   UNL     1      -3.954  -7.576   6.412  1.00  0.00     0.053 C 
BRANCH   9  10
ATOM     10  C   UNL     1      -5.214  -8.381   6.371  1.00  0.00     0.041 C 
ATOM     11  O   UNL     1      -5.597  -8.905   5.291  1.00  0.00    -0.550 OA
ATOM     12  O   UNL     1      -5.940  -8.596   7.535  1.00  0.00    -0.550 OA
ENDBRANCH   9  10
ENDBRANCH   8   9
ENDBRANCH   7   8
ENDBRANCH   6   7
ENDBRANCH   5   6
ENDBRANCH   4   5
ENDBRANCH   3   4
ENDBRANCH   1   3
BRANCH   2  13
ATOM     13  C   UNL     1      -2.850  -7.288   0.355  1.00  0.00     0.027 C 
BRANCH  13  14
ATOM     14  C   UNL     1      -2.380  -5.821   0.388  1.00  0.00     0.004 C 
BRANCH  14  15
ATOM     15  C   UNL     1      -1.072  -5.570  -0.381  1.00  0.00     0.000 C 
BRANCH  15  16
ATOM     16  C   UNL     1      -0.519  -4.153  -0.176  1.00  0.00     0.000 C 
BRANCH  16  17
ATOM     17  C   UNL     1      -0.674  -3.707   1.285  1.00  0.00    -0.000 C 
BRANCH  17  18
ATOM     18  C   UNL     1       0.151  -2.451   1.621  1.00  0.00    -0.000 C 
BRANCH  18  19
ATOM     19  C   UNL     1      -0.621  -1.123   1.512  1.00  0.00    -0.003 C 
ATOM     20  C   UNL     1      -0.167  -0.262   0.335  1.00  0.00     0.004 C 
ENDBRANCH  18  19
ENDBRANCH  17  18
ENDBRANCH  16  17
ENDBRANCH  15  16
ENDBRANCH  14  15
ENDBRANCH  13  14
ENDBRANCH   2  13
TORSDOF 15
ENDMDL
MODEL 3
REMARK VINA RESULT:    -4.724      5.878      8.582
REMARK INTER + INTRA:         -10.321
REMARK INTER:                  -9.279
REMARK INTRA:                  -1.041
REMARK UNBOUND:                -1.454
REMARK SMILES CCCCCCCCC=CCCCCCCCC(=O)[O-]
REMARK SMILES IDX 10 1 9 2 11 3 12 4 13 5 14 6 15 7 16 8 17 9 18 10 19 11
REMARK SMILES IDX 20 12 8 13 7 14 6 15 5 16 4 17 3 18 2 19 1 20
REMARK H PARENT
REMARK Flexibility Score: inf
ROOT
ATOM      1  C   UNL     1      -4.505  -8.310   4.439  1.00  0.00    -0.031 C 
ATOM      2  C   UNL     1      -4.061  -8.080   3.189  1.00  0.00    -0.031 C 
ENDROOT
BRANCH   1   3
ATOM      3  C   UNL     1      -3.714  -9.009   5.515  1.00  0.00     0.027 C 
BRANCH   3   4
ATOM      4  C   UNL     1      -2.830  -8.010   6.268  1.00  0.00     0.004 C 
BRANCH   4   5
ATOM      5  C   UNL     1      -1.346  -8.383   6.138  1.00  0.00     0.000 C 
BRANCH   5   6
ATOM      6  C   UNL     1      -0.478  -7.786   7.260  1.00  0.00     0.000 C 
BRANCH   6   7
ATOM      7  C   UNL     1       0.611  -6.799   6.791  1.00  0.00     0.000 C 
BRANCH   7   8
ATOM      8  C   UNL     1       1.828  -6.680   7.725  1.00  0.00     0.006 C 
BRANCH   8   9
ATOM      9  C   UNL     1       2.800  -5.572   7.298  1.00  0.00     0.053 C 
BRANCH   9  10
ATOM     10  C   UNL     1       2.644  -4.373   8.180  1.00  0.00     0.041 C 
ATOM     11  O   UNL     1       3.117  -4.379   9.347  1.00  0.00    -0.550 OA
ATOM     12  O   UNL     1       2.022  -3.231   7.695  1.00  0.00    -0.550 OA
ENDBRANCH   9  10
ENDBRANCH   8   9
ENDBRANCH   7   8
ENDBRANCH   6   7
ENDBRANCH   5   6
ENDBRANCH   4   5
ENDBRANCH   3   4
ENDBRANCH   1   3
BRANCH   2  13
ATOM     13  C   UNL     1      -2.738  -8.566   2.647  1.00  0.00     0.027 C 
BRANCH  13  14
ATOM     14  C   UNL     1      -2.116  -7.576   1.642  1.00  0.00     0.004 C 
BRANCH  14  15
ATOM     15  C   UNL     1      -3.133  -6.961   0.667  1.00  0.00     0.000 C 
BRANCH  15  16
ATOM     16  C   UNL     1      -2.529  -5.855  -0.210  1.00  0.00     0.000 C 
BRANCH  16  17
ATOM     17  C   UNL     1      -1.012  -5.752   0.001  1.00  0.00    -0.000 C 
BRANCH  17  18
ATOM     18  C   UNL     1      -0.512  -4.297   0.068  1.00  0.00    -0.000 C 
BRANCH  18  19
ATOM     19  C   UNL     1      -0.663  -3.625   1.445  1.00  0.00    -0.003 C 
ATOM     20  C   UNL     1      -0.194  -2.171   1.454  1.00  0.00     0.004 C 
ENDBRANCH  18  19
ENDBRANCH  17  18
ENDBRANCH  16  17
ENDBRANCH  15  16
ENDBRANCH  14  15
ENDBRANCH  13  14
ENDBRANCH   2  13
TORSDOF 15
ENDMDL
MODEL 4
REMARK VINA RESULT:    -4.684      5.697      8.130
REMARK INTER + INTRA:         -10.246
REMARK INTER:                  -9.189
REMARK INTRA:                  -1.057
REMARK UNBOUND:                -1.454
REMARK SMILES CCCCCCCCC=CCCCCCCCC(=O)[O-]
REMARK SMILES IDX 10 1 9 2 11 3 12 4 13 5 14 6 15 7 16 8 17 9 18 10 19 11
REMARK SMILES IDX 20 12 8 13 7 14 6 15 5 16 4 17 3 18 2 19 1 20
REMARK H PARENT
REMARK Flexibility Score: inf
ROOT
ATOM      1  C   UNL     1      -1.587  -8.095   2.833  1.00  0.00    -0.031 C 
ATOM      2  C   UNL     1      -1.714  -7.649   1.569  1.00  0.00    -0.031 C 
ENDROOT
BRANCH   1   3
ATOM      3  C   UNL     1      -2.694  -8.734   3.632  1.00  0.00     0.027 C 
BRANCH   3   4
ATOM      4  C   UNL     1      -2.152  -9.295   4.950  1.00  0.00     0.004 C 
BRANCH   4   5
ATOM      5  C   UNL     1      -2.516  -8.380   6.128  1.00  0.00     0.000 C 
BRANCH   5   6
ATOM      6  C   UNL     1      -1.286  -7.924   6.934  1.00  0.00     0.000 C 
BRANCH   6   7
ATOM      7  C   UNL     1      -0.063  -7.514   6.087  1.00  0.00     0.000 C 
BRANCH   7   8
ATOM      8  C   UNL     1       0.833  -6.434   6.716  1.00  0.00     0.006 C 
BRANCH   8   9
ATOM      9  C   UNL     1       1.489  -6.894   8.025  1.00  0.00     0.053 C 
BRANCH   9  10
ATOM     10  C   UNL     1       2.980  -6.832   7.911  1.00  0.00     0.041 C 
ATOM     11  O   UNL     1       3.701  -7.581   8.621  1.00  0.00    -0.550 OA
ATOM     12  O   UNL     1       3.571  -5.985   6.984  1.00  0.00    -0.550 OA
ENDBRANCH   9  10
ENDBRANCH   8   9
ENDBRANCH   7   8
ENDBRANCH   6   7
ENDBRANCH   5   6
ENDBRANCH   4   5
ENDBRANCH   3   4
ENDBRANCH   1   3
BRANCH   2  13
ATOM     13  C   UNL     1      -3.009  -7.640   0.791  1.00  0.00     0.027 C 
BRANCH  13  14
ATOM     14  C   UNL     1      -2.777  -7.618  -0.733  1.00  0.00     0.004 C 
BRANCH  14  15
ATOM     15  C   UNL     1      -1.560  -6.782  -1.164  1.00  0.00     0.000 C 
BRANCH  15  16
ATOM     16  C   UNL     1      -1.752  -5.278  -0.926  1.00  0.00     0.000 C 
BRANCH  16  17
ATOM     17  C   UNL     1      -0.559  -4.684  -0.164  1.00  0.00    -0.000 C 
BRANCH  17  18
ATOM     18  C   UNL     1      -0.984  -3.757   0.989  1.00  0.00    -0.000 C 
BRANCH  18  19
ATOM     19  C   UNL     1       0.081  -2.733   1.422  1.00  0.00    -0.003 C 
ATOM     20  C   UNL     1      -0.466  -1.311   1.527  1.00  0.00     0.004 C 
ENDBRANCH  18  19
ENDBRANCH  17  18
ENDBRANCH  16  17
ENDBRANCH  15  16
ENDBRANCH  14  15
ENDBRANCH  13  14
ENDBRANCH   2  13
TORSDOF 15
ENDMDL
MODEL 5
REMARK VINA RESULT:    -4.610      2.594      5.702
REMARK INTER + INTRA:         -10.108
REMARK INTER:                  -8.236
REMARK INTRA:                  -1.871
REMARK UNBOUND:                -1.454
REMARK SMILES CCCCCCCCC=CCCCCCCCC(=O)[O-]
REMARK SMILES IDX 10 1 9 2 11 3 12 4 13 5 14 6 15 7 16 8 17 9 18 10 19 11
REMARK SMILES IDX 20 12 8 13 7 14 6 15 5 16 4 17 3 18 2 19 1 20
REMARK H PARENT
REMARK Flexibility Score: inf
ROOT
ATOM      1  C   UNL     1      -3.065  -6.386   0.466  1.00  0.00    -0.031 C 
ATOM      2  C   UNL     1      -3.597  -7.556   0.065  1.00  0.00    -0.031 C 
ENDROOT
BRANCH   1   3
ATOM      3  C   UNL     1      -1.628  -6.194   0.878  1.00  0.00     0.027 C 
BRANCH   3   4
ATOM      4  C   UNL     1      -1.119  -4.820   0.432  1.00  0.00     0.004 C 
BRANCH   4   5
ATOM      5  C   UNL     1      -0.119  -4.954  -0.726  1.00  0.00     0.000 C 
BRANCH   5   6
ATOM      6  C   UNL     1      -0.501  -4.099  -1.948  1.00  0.00     0.000 C 
BRANCH   6   7
ATOM      7  C   UNL     1      -0.938  -4.897  -3.194  1.00  0.00     0.000 C 
BRANCH   7   8
ATOM      8  C   UNL     1      -2.212  -5.742  -3.013  1.00  0.00     0.006 C 
BRANCH   8   9
ATOM      9  C   UNL     1      -3.488  -4.989  -3.410  1.00  0.00     0.053 C 
BRANCH   9  10
ATOM     10  C   UNL     1      -3.746  -5.137  -4.877  1.00  0.00     0.041 C 
ATOM     11  O   UNL     1      -3.241  -4.323  -5.695  1.00  0.00    -0.550 OA
ATOM     12  O   UNL     1      -4.503  -6.202  -5.345  1.00  0.00    -0.550 OA
ENDBRANCH   9  10
ENDBRANCH   8   9
ENDBRANCH   7   8
ENDBRANCH   6   7
ENDBRANCH   5   6
ENDBRANCH   4   5
ENDBRANCH   3   4
ENDBRANCH   1   3
BRANCH   2  13
ATOM     13  C   UNL     1      -2.857  -8.873   0.052  1.00  0.00     0.027 C 
BRANCH  13  14
ATOM     14  C   UNL     1      -3.290  -9.801   1.205  1.00  0.00     0.004 C 
BRANCH  14  15
ATOM     15  C   UNL     1      -2.245  -9.927   2.326  1.00  0.00     0.000 C 
BRANCH  15  16
ATOM     16  C   UNL     1      -2.336  -8.796   3.360  1.00  0.00     0.000 C 
BRANCH  16  17
ATOM     17  C   UNL     1      -3.795  -8.527   3.755  1.00  0.00    -0.000 C 
BRANCH  17  18
ATOM     18  C   UNL     1      -4.180  -9.165   5.102  1.00  0.00    -0.000 C 
BRANCH  18  19
ATOM     19  C   UNL     1      -4.659  -8.170   6.175  1.00  0.00    -0.003 C 
ATOM     20  C   UNL     1      -3.510  -7.451   6.879  1.00  0.00     0.004 C 
ENDBRANCH  18  19
ENDBRANCH  17  18
ENDBRANCH  16  17
ENDBRANCH  15  16
ENDBRANCH  14  15
ENDBRANCH  13  14
ENDBRANCH   2  13
TORSDOF 15
ENDMDL
MODEL 6
REMARK VINA RESULT:    -4.584      2.901      6.548
REMARK INTER + INTRA:         -10.058
REMARK INTER:                  -6.781
REMARK INTRA:                  -3.277
REMARK UNBOUND:                -1.454
REMARK SMILES CCCCCCCCC=CCCCCCCCC(=O)[O-]
REMARK SMILES IDX 10 1 9 2 11 3 12 4 13 5 14 6 15 7 16 8 17 9 18 10 19 11
REMARK SMILES IDX 20 12 8 13 7 14 6 15 5 16 4 17 3 18 2 19 1 20
REMARK H PARENT
REMARK Flexibility Score: inf
ROOT
ATOM      1  C   UNL     1      -2.404  -4.243  -2.613  1.00  0.00    -0.031 C 
ATOM      2  C   UNL     1      -3.466  -4.499  -3.401  1.00  0.00    -0.031 C 
ENDROOT
BRANCH   1   3
ATOM      3  C   UNL     1      -0.997  -4.706  -2.895  1.00  0.00     0.027 C 
BRANCH   3   4
ATOM      4  C   UNL     1      -0.284  -5.082  -1.592  1.00  0.00     0.004 C 
BRANCH   4   5
ATOM      5  C   UNL     1      -0.679  -4.129  -0.455  1.00  0.00     0.000 C 
BRANCH   5   6
ATOM      6  C   UNL     1      -1.108  -4.869   0.825  1.00  0.00     0.000 C 
BRANCH   6   7
ATOM      7  C   UNL     1      -1.626  -6.306   0.607  1.00  0.00     0.000 C 
BRANCH   7   8
ATOM      8  C   UNL     1      -3.135  -6.418   0.322  1.00  0.00     0.006 C 
BRANCH   8   9
ATOM      9  C   UNL     1      -3.827  -7.477   1.190  1.00  0.00     0.053 C 
BRANCH   9  10
ATOM     10  C   UNL     1      -4.047  -8.732   0.405  1.00  0.00     0.041 C 
ATOM     11  O   UNL     1      -3.143  -9.606   0.342  1.00  0.00    -0.550 OA
ATOM     12  O   UNL     1      -5.268  -8.959  -0.214  1.00  0.00    -0.550 OA
ENDBRANCH   9  10
ENDBRANCH   8   9
ENDBRANCH   7   8
ENDBRANCH   6   7
ENDBRANCH   5   6
ENDBRANCH   4   5
ENDBRANCH   3   4
ENDBRANCH   1   3
BRANCH   2  13
ATOM     13  C   UNL     1      -3.425  -5.362  -4.639  1.00  0.00     0.027 C 
BRANCH  13  14
ATOM     14  C   UNL     1      -4.367  -6.579  -4.537  1.00  0.00     0.004 C 
BRANCH  14  15
ATOM     15  C   UNL     1      -4.177  -7.405  -3.254  1.00  0.00     0.000 C 
BRANCH  15  16
ATOM     16  C   UNL     1      -3.187  -8.565  -3.430  1.00  0.00     0.000 C 
BRANCH  16  17
ATOM     17  C   UNL     1      -1.882  -8.297  -2.665  1.00  0.00    -0.000 C 
BRANCH  17  18
ATOM     18  C   UNL     1      -0.645  -8.268  -3.580  1.00  0.00    -0.000 C 
BRANCH  18  19
ATOM     19  C   UNL     1      -0.956  -8.175  -5.085  1.00  0.00    -0.003 C 
ATOM     20  C   UNL     1      -0.287  -6.980  -5.761  1.00  0.00     0.004 C 
ENDBRANCH  18  19
ENDBRANCH  17  18
ENDBRANCH  16  17
ENDBRANCH  15  16
ENDBRANCH  14  15
ENDBRANCH  13  14
ENDBRANCH   2  13
TORSDOF 15
ENDMDL
MODEL 7
REMARK VINA RESULT:    -4.578      4.793      7.119
REMARK INTER + INTRA:         -10.046
REMARK INTER:                  -8.585
REMARK INTRA:                  -1.461
REMARK UNBOUND:                -1.454
REMARK SMILES CCCCCCCCC=CCCCCCCCC(=O)[O-]
REMARK SMILES IDX 10 1 9 2 11 3 12 4 13 5 14 6 15 7 16 8 17 9 18 10 19 11
REMARK SMILES IDX 20 12 8 13 7 14 6 15 5 16 4 17 3 18 2 19 1 20
REMARK H PARENT
REMARK Flexibility Score: inf
ROOT
ATOM      1  C   UNL     1      -5.538  -8.023   2.026  1.00  0.00    -0.031 C 
ATOM      2  C   UNL     1      -4.429  -7.488   1.484  1.00  0.00    -0.031 C 
ENDROOT
BRANCH   1   3
ATOM      3  C   UNL     1      -5.635  -9.425   2.573  1.00  0.00     0.027 C 
BRANCH   3   4
ATOM      4  C   UNL     1      -6.197  -9.409   3.999  1.00  0.00     0.004 C 
BRANCH   4   5
ATOM      5  C   UNL     1      -5.261  -8.646   4.949  1.00  0.00     0.000 C 
BRANCH   5   6
ATOM      6  C   UNL     1      -3.917  -9.363   5.168  1.00  0.00     0.000 C 
BRANCH   6   7
ATOM      7  C   UNL     1      -2.668  -8.542   4.787  1.00  0.00     0.000 C 
BRANCH   7   8
ATOM      8  C   UNL     1      -1.395  -8.887   5.581  1.00  0.00     0.006 C 
BRANCH   8   9
ATOM      9  C   UNL     1      -1.193  -7.982   6.803  1.00  0.00     0.053 C 
BRANCH   9  10
ATOM     10  C   UNL     1       0.219  -7.490   6.861  1.00  0.00     0.041 C 
ATOM     11  O   UNL     1       0.848  -7.495   7.951  1.00  0.00    -0.550 OA
ATOM     12  O   UNL     1       0.858  -7.074   5.700  1.00  0.00    -0.550 OA
ENDBRANCH   9  10
ENDBRANCH   8   9
ENDBRANCH   7   8
ENDBRANCH   6   7
ENDBRANCH   5   6
ENDBRANCH   4   5
ENDBRANCH   3   4
ENDBRANCH   1   3
BRANCH   2  13
ATOM     13  C   UNL     1      -3.137  -8.239   1.260  1.00  0.00     0.027 C 
BRANCH  13  14
ATOM     14  C   UNL     1      -1.901  -7.324   1.363  1.00  0.00     0.004 C 
BRANCH  14  15
ATOM     15  C   UNL     1      -2.077  -5.962   0.669  1.00  0.00     0.000 C 
BRANCH  15  16
ATOM     16  C   UNL     1      -0.867  -5.566  -0.188  1.00  0.00     0.000 C 
BRANCH  16  17
ATOM     17  C   UNL     1      -0.538  -4.075  -0.022  1.00  0.00    -0.000 C 
BRANCH  17  18
ATOM     18  C   UNL     1      -0.635  -3.597   1.438  1.00  0.00    -0.000 C 
BRANCH  18  19
ATOM     19  C   UNL     1       0.146  -2.308   1.749  1.00  0.00    -0.003 C 
ATOM     20  C   UNL     1      -0.466  -1.068   1.099  1.00  0.00     0.004 C 
ENDBRANCH  18  19
ENDBRANCH  17  18
ENDBRANCH  16  17
ENDBRANCH  15  16
ENDBRANCH  14  15
ENDBRANCH  13  14
ENDBRANCH   2  13
TORSDOF 15
ENDMDL
MODEL 8
REMARK VINA RESULT:    -4.547      3.431      6.528
REMARK INTER + INTRA:          -9.989
REMARK INTER:                  -7.053
REMARK INTRA:                  -2.936
REMARK UNBOUND:                -1.454
REMARK SMILES CCCCCCCCC=CCCCCCCCC(=O)[O-]
REMARK SMILES IDX 10 1 9 2 11 3 12 4 13 5 14 6 15 7 16 8 17 9 18 10 19 11
REMARK SMILES IDX 20 12 8 13 7 14 6 15 5 16 4 17 3 18 2 19 1 20
REMARK H PARENT
REMARK Flexibility Score: inf
ROOT
ATOM      1  C   UNL     1      -3.506  -5.222  -3.497  1.00  0.00    -0.031 C 
ATOM      2  C   UNL     1      -4.055  -6.412  -3.807  1.00  0.00    -0.031 C 
ENDROOT
BRANCH   1   3
ATOM      3  C   UNL     1      -2.915  -4.875  -2.154  1.00  0.00     0.027 C 
BRANCH   3   4
ATOM      4  C   UNL     1      -1.418  -4.576  -2.286  1.00  0.00     0.004 C 
BRANCH   4   5
ATOM      5  C   UNL     1      -0.629  -5.201  -1.125  1.00  0.00     0.000 C 
BRANCH   5   6
ATOM      6  C   UNL     1      -1.436  -5.258   0.184  1.00  0.00     0.000 C 
BRANCH   6   7
ATOM      7  C   UNL     1      -1.561  -6.661   0.815  1.00  0.00     0.000 C 
BRANCH   7   8
ATOM      8  C   UNL     1      -2.999  -7.198   0.930  1.00  0.00     0.006 C 
BRANCH   8   9
ATOM      9  C   UNL     1      -3.156  -8.246   2.039  1.00  0.00     0.053 C 
BRANCH   9  10
ATOM     10  C   UNL     1      -4.500  -8.125   2.685  1.00  0.00     0.041 C 
ATOM     11  O   UNL     1      -4.775  -8.805   3.709  1.00  0.00    -0.550 OA
ATOM     12  O   UNL     1      -5.432  -7.224   2.187  1.00  0.00    -0.550 OA
ENDBRANCH   9  10
ENDBRANCH   8   9
ENDBRANCH   7   8
ENDBRANCH   6   7
ENDBRANCH   5   6
ENDBRANCH   4   5
ENDBRANCH   3   4
ENDBRANCH   1   3
BRANCH   2  13
ATOM     13  C   UNL     1      -4.243  -7.549  -2.831  1.00  0.00     0.027 C 
BRANCH  13  14
ATOM     14  C   UNL     1      -3.241  -8.696  -3.068  1.00  0.00     0.004 C 
BRANCH  14  15
ATOM     15  C   UNL     1      -1.864  -8.462  -2.423  1.00  0.00     0.000 C 
BRANCH  15  16
ATOM     16  C   UNL     1      -0.699  -8.860  -3.339  1.00  0.00     0.000 C 
BRANCH  16  17
ATOM     17  C   UNL     1       0.017  -7.619  -3.892  1.00  0.00    -0.000 C 
BRANCH  17  18
ATOM     18  C   UNL     1      -0.637  -7.071  -5.173  1.00  0.00    -0.000 C 
BRANCH  18  19
ATOM     19  C   UNL     1      -0.087  -5.714  -5.649  1.00  0.00    -0.003 C 
ATOM     20  C   UNL     1      -1.186  -4.732  -6.050  1.00  0.00     0.004 C 
ENDBRANCH  18  19
ENDBRANCH  17  18
ENDBRANCH  16  17
ENDBRANCH  15  16
ENDBRANCH  14  15
ENDBRANCH  13  14
ENDBRANCH   2  13
TORSDOF 15
ENDMDL
MODEL 9
REMARK VINA RESULT:    -4.430      3.302      6.272
REMARK INTER + INTRA:          -9.770
REMARK INTER:                  -7.702
REMARK INTRA:                  -2.068
REMARK UNBOUND:                -1.454
REMARK SMILES CCCCCCCCC=CCCCCCCCC(=O)[O-]
REMARK SMILES IDX 10 1 9 2 11 3 12 4 13 5 14 6 15 7 16 8 17 9 18 10 19 11
REMARK SMILES IDX 20 12 8 13 7 14 6 15 5 16 4 17 3 18 2 19 1 20
REMARK H PARENT
REMARK Flexibility Score: inf
ROOT
ATOM      1  C   UNL     1      -1.383  -5.202   0.691  1.00  0.00    -0.031 C 
ATOM      2  C   UNL     1      -0.703  -4.727  -0.369  1.00  0.00    -0.031 C 
ENDROOT
BRANCH   1   3
ATOM      3  C   UNL     1      -2.654  -6.008   0.603  1.00  0.00     0.027 C 
BRANCH   3   4
ATOM      4  C   UNL     1      -2.362  -7.498   0.804  1.00  0.00     0.004 C 
BRANCH   4   5
ATOM      5  C   UNL     1      -1.733  -7.754   2.181  1.00  0.00     0.000 C 
BRANCH   5   6
ATOM      6  C   UNL     1      -2.317  -8.992   2.885  1.00  0.00     0.000 C 
BRANCH   6   7
ATOM      7  C   UNL     1      -3.257  -8.689   4.070  1.00  0.00     0.000 C 
BRANCH   7   8
ATOM      8  C   UNL     1      -4.684  -8.267   3.677  1.00  0.00     0.006 C 
BRANCH   8   9
ATOM      9  C   UNL     1      -5.281  -9.144   2.570  1.00  0.00     0.053 C 
BRANCH   9  10
ATOM     10  C   UNL     1      -6.172  -8.332   1.683  1.00  0.00     0.041 C 
ATOM     11  O   UNL     1      -6.290  -8.624   0.464  1.00  0.00    -0.550 OA
ATOM     12  O   UNL     1      -6.909  -7.282   2.214  1.00  0.00    -0.550 OA
ENDBRANCH   9  10
ENDBRANCH   8   9
ENDBRANCH   7   8
ENDBRANCH   6   7
ENDBRANCH   5   6
ENDBRANCH   4   5
ENDBRANCH   3   4
ENDBRANCH   1   3
BRANCH   2  13
ATOM     13  C   UNL     1      -1.158  -4.851  -1.804  1.00  0.00     0.027 C 
BRANCH  13  14
ATOM     14  C   UNL     1      -0.655  -6.148  -2.468  1.00  0.00     0.004 C 
BRANCH  14  15
ATOM     15  C   UNL     1      -1.778  -7.130  -2.844  1.00  0.00     0.000 C 
BRANCH  15  16
ATOM     16  C   UNL     1      -3.162  -6.468  -2.888  1.00  0.00     0.000 C 
BRANCH  16  17
ATOM     17  C   UNL     1      -3.961  -6.943  -4.110  1.00  0.00    -0.000 C 
BRANCH  17  18
ATOM     18  C   UNL     1      -4.008  -5.899  -5.240  1.00  0.00    -0.000 C 
BRANCH  18  19
ATOM     19  C   UNL     1      -3.229  -4.602  -4.955  1.00  0.00    -0.003 C 
ATOM     20  C   UNL     1      -1.908  -4.519  -5.719  1.00  0.00     0.004 C 
ENDBRANCH  18  19
ENDBRANCH  17  18
ENDBRANCH  16  17
ENDBRANCH  15  16
ENDBRANCH  14  15
ENDBRANCH  13  14
ENDBRANCH   2  13
TORSDOF 15
ENDMDL
