MODEL 1
REMARK VINA RESULT:    -7.334      0.000      0.000
REMARK INTER + INTRA:          -9.228
REMARK INTER:                  -8.834
REMARK INTRA:                  -0.394
REMARK UNBOUND:                -0.394
REMARK SMILES O=c1c(O)c(-c2ccc(O)cc2O)oc2cc(O)cc(O)c12
REMARK SMILES IDX 5 1 3 2 2 3 1 4 22 5 20 6 19 7 17 8 16 9 15 10 14 11 6 12
REMARK SMILES IDX 8 13 7 14 9 15 11 16 12 17 10 18 13 20 4 22 21 24 18 26
REMARK H PARENT 10 19 13 21 4 23 21 25 18 27
REMARK Flexibility Score: inf
ROOT
ATOM      1  C   UNL     1      17.969  44.439  57.033  1.00  0.00     0.184 A 
ATOM      2  C   UNL     1      18.081  43.370  56.132  1.00  0.00     0.208 A 
ATOM      3  C   UNL     1      19.359  42.897  55.793  1.00  0.00     0.238 A 
ATOM      4  O   UNL     1      19.455  41.978  54.938  1.00  0.00    -0.285 OA
ATOM      5  C   UNL     1      20.506  43.482  56.383  1.00  0.00     0.111 A 
ATOM      6  C   UNL     1      21.848  43.057  56.143  1.00  0.00     0.134 A 
ATOM      7  C   UNL     1      22.911  43.789  56.686  1.00  0.00     0.093 A 
ATOM      8  C   UNL     1      22.680  44.891  57.512  1.00  0.00     0.123 A 
ATOM      9  C   UNL     1      21.373  45.278  57.800  1.00  0.00     0.094 A 
ATOM     10  C   UNL     1      20.292  44.591  57.243  1.00  0.00     0.146 A 
ATOM     11  O   UNL     1      19.062  45.002  57.532  1.00  0.00    -0.451 OA
ENDROOT
BRANCH   1  12
ATOM     12  C   UNL     1      16.649  44.963  57.445  1.00  0.00     0.063 A 
ATOM     13  C   UNL     1      14.601  44.677  58.728  1.00  0.00     0.047 A 
ATOM     14  C   UNL     1      15.827  44.183  58.279  1.00  0.00     0.020 A 
ATOM     15  C   UNL     1      14.180  45.958  58.358  1.00  0.00     0.119 A 
ATOM     16  C   UNL     1      14.991  46.742  57.531  1.00  0.00     0.093 A 
ATOM     17  C   UNL     1      16.217  46.255  57.066  1.00  0.00     0.130 A 
BRANCH  15  18
ATOM     18  O   UNL     1      12.961  46.463  58.804  1.00  0.00    -0.508 OA
ATOM     19  H   UNL     1      12.216  45.849  59.114  1.00  0.00     0.293 HD
ENDBRANCH  15  18
BRANCH  17  20
ATOM     20  O   UNL     1      16.969  47.067  56.213  1.00  0.00    -0.507 OA
ATOM     21  H   UNL     1      16.628  47.395  55.319  1.00  0.00     0.293 HD
ENDBRANCH  17  20
ENDBRANCH   1  12
BRANCH   2  22
ATOM     22  O   UNL     1      16.932  42.808  55.569  1.00  0.00    -0.502 OA
ATOM     23  H   UNL     1      15.999  43.109  55.823  1.00  0.00     0.293 HD
ENDBRANCH   2  22
BRANCH   6  24
ATOM     24  O   UNL     1      22.187  41.918  55.407  1.00  0.00    -0.507 OA
ATOM     25  H   UNL     1      22.907  41.260  55.664  1.00  0.00     0.293 HD
ENDBRANCH   6  24
BRANCH   8  26
ATOM     26  O   UNL     1      23.743  45.603  58.062  1.00  0.00    -0.508 OA
ATOM     27  H   UNL     1      23.751  45.875  59.038  1.00  0.00     0.293 HD
ENDBRANCH   8  26
TORSDOF 6
ENDMDL
MODEL 2
REMARK VINA RESULT:    -7.186      2.077      6.642
REMARK INTER + INTRA:          -9.051
REMARK INTER:                  -9.277
REMARK INTRA:                   0.226
REMARK UNBOUND:                -0.394
REMARK SMILES O=c1c(O)c(-c2ccc(O)cc2O)oc2cc(O)cc(O)c12
REMARK SMILES IDX 5 1 3 2 2 3 1 4 22 5 20 6 19 7 17 8 16 9 15 10 14 11 6 12
REMARK SMILES IDX 8 13 7 14 9 15 11 16 12 17 10 18 13 20 4 22 21 24 18 26
REMARK H PARENT 10 19 13 21 4 23 21 25 18 27
REMARK Flexibility Score: inf
ROOT
ATOM      1  C   UNL     1      21.643  43.853  57.643  1.00  0.00     0.184 A 
ATOM      2  C   UNL     1      21.240  42.658  57.031  1.00  0.00     0.208 A 
ATOM      3  C   UNL     1      19.993  42.609  56.386  1.00  0.00     0.238 A 
ATOM      4  O   UNL     1      19.611  41.517  55.892  1.00  0.00    -0.285 OA
ATOM      5  C   UNL     1      19.180  43.768  56.339  1.00  0.00     0.111 A 
ATOM      6  C   UNL     1      17.916  43.845  55.680  1.00  0.00     0.134 A 
ATOM      7  C   UNL     1      17.143  45.006  55.803  1.00  0.00     0.093 A 
ATOM      8  C   UNL     1      17.616  46.116  56.508  1.00  0.00     0.123 A 
ATOM      9  C   UNL     1      18.873  46.071  57.106  1.00  0.00     0.094 A 
ATOM     10  C   UNL     1      19.652  44.914  57.032  1.00  0.00     0.146 A 
ATOM     11  O   UNL     1      20.838  44.909  57.629  1.00  0.00    -0.451 OA
ENDROOT
BRANCH   1  12
ATOM     12  C   UNL     1      22.954  43.970  58.316  1.00  0.00     0.063 A 
ATOM     13  C   UNL     1      24.824  42.890  59.439  1.00  0.00     0.047 A 
ATOM     14  C   UNL     1      23.561  42.818  58.848  1.00  0.00     0.020 A 
ATOM     15  C   UNL     1      25.503  44.112  59.501  1.00  0.00     0.119 A 
ATOM     16  C   UNL     1      24.909  45.262  58.973  1.00  0.00     0.093 A 
ATOM     17  C   UNL     1      23.639  45.205  58.388  1.00  0.00     0.130 A 
BRANCH  15  18
ATOM     18  O   UNL     1      26.765  44.194  60.084  1.00  0.00    -0.508 OA
ATOM     19  H   UNL     1      27.308  43.364  60.290  1.00  0.00     0.293 HD
ENDBRANCH  15  18
BRANCH  17  20
ATOM     20  O   UNL     1      23.079  46.392  57.910  1.00  0.00    -0.507 OA
ATOM     21  H   UNL     1      22.470  46.431  57.103  1.00  0.00     0.293 HD
ENDBRANCH  17  20
ENDBRANCH   1  12
BRANCH   2  22
ATOM     22  O   UNL     1      22.065  41.531  57.088  1.00  0.00    -0.502 OA
ATOM     23  H   UNL     1      21.695  40.589  57.143  1.00  0.00     0.293 HD
ENDBRANCH   2  22
BRANCH   6  24
ATOM     24  O   UNL     1      17.390  42.829  54.876  1.00  0.00    -0.507 OA
ATOM     25  H   UNL     1      17.901  42.015  54.570  1.00  0.00     0.293 HD
ENDBRANCH   6  24
BRANCH   8  26
ATOM     26  O   UNL     1      16.847  47.272  56.612  1.00  0.00    -0.508 OA
ATOM     27  H   UNL     1      16.342  47.499  57.461  1.00  0.00     0.293 HD
ENDBRANCH   8  26
TORSDOF 6
ENDMDL
MODEL 3
REMARK VINA RESULT:    -7.021      0.942      1.002
REMARK INTER + INTRA:          -8.852
REMARK INTER:                  -8.537
REMARK INTRA:                  -0.315
REMARK UNBOUND:                -0.394
REMARK SMILES O=c1c(O)c(-c2ccc(O)cc2O)oc2cc(O)cc(O)c12
REMARK SMILES IDX 5 1 3 2 2 3 1 4 22 5 20 6 19 7 17 8 16 9 15 10 14 11 6 12
REMARK SMILES IDX 8 13 7 14 9 15 11 16 12 17 10 18 13 20 4 22 21 24 18 26
REMARK H PARENT 10 19 13 21 4 23 21 25 18 27
REMARK Flexibility Score: inf
ROOT
ATOM      1  C   UNL     1      18.469  44.549  56.802  1.00  0.00     0.184 A 
ATOM      2  C   UNL     1      18.537  43.483  55.892  1.00  0.00     0.208 A 
ATOM      3  C   UNL     1      19.738  42.764  55.773  1.00  0.00     0.238 A 
ATOM      4  O   UNL     1      19.811  41.849  54.913  1.00  0.00    -0.285 OA
ATOM      5  C   UNL     1      20.845  43.104  56.588  1.00  0.00     0.111 A 
ATOM      6  C   UNL     1      22.098  42.419  56.582  1.00  0.00     0.134 A 
ATOM      7  C   UNL     1      23.162  42.920  57.341  1.00  0.00     0.093 A 
ATOM      8  C   UNL     1      23.001  44.042  58.157  1.00  0.00     0.123 A 
ATOM      9  C   UNL     1      21.765  44.683  58.216  1.00  0.00     0.094 A 
ATOM     10  C   UNL     1      20.695  44.229  57.441  1.00  0.00     0.146 A 
ATOM     11  O   UNL     1      19.538  44.878  57.516  1.00  0.00    -0.451 OA
ENDROOT
BRANCH   1  12
ATOM     12  C   UNL     1      17.225  45.325  56.986  1.00  0.00     0.063 A 
ATOM     13  C   UNL     1      14.882  45.384  57.642  1.00  0.00     0.047 A 
ATOM     14  C   UNL     1      16.056  44.666  57.406  1.00  0.00     0.020 A 
ATOM     15  C   UNL     1      14.859  46.772  57.468  1.00  0.00     0.119 A 
ATOM     16  C   UNL     1      16.017  47.437  57.052  1.00  0.00     0.093 A 
ATOM     17  C   UNL     1      17.197  46.728  56.803  1.00  0.00     0.130 A 
BRANCH  15  18
ATOM     18  O   UNL     1      13.695  47.498  57.705  1.00  0.00    -0.508 OA
ATOM     19  H   UNL     1      13.225  48.002  56.961  1.00  0.00     0.293 HD
ENDBRANCH  15  18
BRANCH  17  20
ATOM     20  O   UNL     1      18.312  47.439  56.355  1.00  0.00    -0.507 OA
ATOM     21  H   UNL     1      18.388  47.817  55.419  1.00  0.00     0.293 HD
ENDBRANCH  17  20
ENDBRANCH   1  12
BRANCH   2  22
ATOM     22  O   UNL     1      17.427  43.166  55.104  1.00  0.00    -0.502 OA
ATOM     23  H   UNL     1      17.489  42.551  54.301  1.00  0.00     0.293 HD
ENDBRANCH   2  22
BRANCH   6  24
ATOM     24  O   UNL     1      22.339  41.239  55.873  1.00  0.00    -0.507 OA
ATOM     25  H   UNL     1      22.741  40.402  56.268  1.00  0.00     0.293 HD
ENDBRANCH   6  24
BRANCH   8  26
ATOM     26  O   UNL     1      24.060  44.523  58.922  1.00  0.00    -0.508 OA
ATOM     27  H   UNL     1      24.352  45.493  58.874  1.00  0.00     0.293 HD
ENDBRANCH   8  26
TORSDOF 6
ENDMDL
MODEL 4
REMARK VINA RESULT:    -7.015      1.476      2.883
REMARK INTER + INTRA:          -8.845
REMARK INTER:                  -8.490
REMARK INTRA:                  -0.355
REMARK UNBOUND:                -0.394
REMARK SMILES O=c1c(O)c(-c2ccc(O)cc2O)oc2cc(O)cc(O)c12
REMARK SMILES IDX 5 1 3 2 2 3 1 4 22 5 20 6 19 7 17 8 16 9 15 10 14 11 6 12
REMARK SMILES IDX 8 13 7 14 9 15 11 16 12 17 10 18 13 20 4 22 21 24 18 26
REMARK H PARENT 10 19 13 21 4 23 21 25 18 27
REMARK Flexibility Score: inf
ROOT
ATOM      1  C   UNL     1      18.216  45.358  57.417  1.00  0.00     0.184 A 
ATOM      2  C   UNL     1      19.109  46.438  57.476  1.00  0.00     0.208 A 
ATOM      3  C   UNL     1      20.454  46.230  57.130  1.00  0.00     0.238 A 
ATOM      4  O   UNL     1      21.262  47.188  57.244  1.00  0.00    -0.285 OA
ATOM      5  C   UNL     1      20.880  44.950  56.701  1.00  0.00     0.111 A 
ATOM      6  C   UNL     1      22.210  44.634  56.288  1.00  0.00     0.134 A 
ATOM      7  C   UNL     1      22.546  43.305  56.002  1.00  0.00     0.093 A 
ATOM      8  C   UNL     1      21.586  42.292  56.051  1.00  0.00     0.123 A 
ATOM      9  C   UNL     1      20.272  42.600  56.395  1.00  0.00     0.094 A 
ATOM     10  C   UNL     1      19.914  43.909  56.723  1.00  0.00     0.146 A 
ATOM     11  O   UNL     1      18.653  44.157  57.061  1.00  0.00    -0.451 OA
ENDROOT
BRANCH   1  12
ATOM     12  C   UNL     1      16.784  45.524  57.747  1.00  0.00     0.063 A 
ATOM     13  C   UNL     1      15.070  46.009  59.404  1.00  0.00     0.047 A 
ATOM     14  C   UNL     1      16.410  45.793  59.075  1.00  0.00     0.020 A 
ATOM     15  C   UNL     1      14.086  45.965  58.411  1.00  0.00     0.119 A 
ATOM     16  C   UNL     1      14.448  45.699  57.087  1.00  0.00     0.093 A 
ATOM     17  C   UNL     1      15.786  45.471  56.746  1.00  0.00     0.130 A 
BRANCH  15  18
ATOM     18  O   UNL     1      12.747  46.183  58.728  1.00  0.00    -0.508 OA
ATOM     19  H   UNL     1      12.430  47.068  59.106  1.00  0.00     0.293 HD
ENDBRANCH  15  18
BRANCH  17  20
ATOM     20  O   UNL     1      16.085  45.174  55.414  1.00  0.00    -0.507 OA
ATOM     21  H   UNL     1      15.489  45.440  54.641  1.00  0.00     0.293 HD
ENDBRANCH  17  20
ENDBRANCH   1  12
BRANCH   2  22
ATOM     22  O   UNL     1      18.659  47.693  57.898  1.00  0.00    -0.502 OA
ATOM     23  H   UNL     1      19.074  48.183  58.681  1.00  0.00     0.293 HD
ENDBRANCH   2  22
BRANCH   6  24
ATOM     24  O   UNL     1      23.222  45.583  56.119  1.00  0.00    -0.507 OA
ATOM     25  H   UNL     1      23.601  46.157  56.857  1.00  0.00     0.293 HD
ENDBRANCH   6  24
BRANCH   8  26
ATOM     26  O   UNL     1      21.925  40.976  55.748  1.00  0.00    -0.508 OA
ATOM     27  H   UNL     1      22.145  40.689  54.801  1.00  0.00     0.293 HD
ENDBRANCH   8  26
TORSDOF 6
ENDMDL
MODEL 5
REMARK VINA RESULT:    -6.821      1.635      6.323
REMARK INTER + INTRA:          -8.611
REMARK INTER:                  -8.576
REMARK INTRA:                  -0.035
REMARK UNBOUND:                -0.394
REMARK SMILES O=c1c(O)c(-c2ccc(O)cc2O)oc2cc(O)cc(O)c12
REMARK SMILES IDX 5 1 3 2 2 3 1 4 22 5 20 6 19 7 17 8 16 9 15 10 14 11 6 12
REMARK SMILES IDX 8 13 7 14 9 15 11 16 12 17 10 18 13 20 4 22 21 24 18 26
REMARK H PARENT 10 19 13 21 4 23 21 25 18 27
REMARK Flexibility Score: inf
ROOT
ATOM      1  C   UNL     1      18.449  44.311  56.626  1.00  0.00     0.184 A 
ATOM      2  C   UNL     1      17.315  43.946  55.885  1.00  0.00     0.208 A 
ATOM      3  C   UNL     1      16.118  44.656  56.078  1.00  0.00     0.238 A 
ATOM      4  O   UNL     1      15.089  44.285  55.456  1.00  0.00    -0.285 OA
ATOM      5  C   UNL     1      16.082  45.740  56.989  1.00  0.00     0.111 A 
ATOM      6  C   UNL     1      14.936  46.555  57.235  1.00  0.00     0.134 A 
ATOM      7  C   UNL     1      14.980  47.521  58.248  1.00  0.00     0.093 A 
ATOM      8  C   UNL     1      16.149  47.746  58.979  1.00  0.00     0.123 A 
ATOM      9  C   UNL     1      17.290  46.996  58.706  1.00  0.00     0.094 A 
ATOM     10  C   UNL     1      17.266  45.999  57.728  1.00  0.00     0.146 A 
ATOM     11  O   UNL     1      18.373  45.297  57.510  1.00  0.00    -0.451 OA
ENDROOT
BRANCH   1  12
ATOM     12  C   UNL     1      19.741  43.615  56.448  1.00  0.00     0.063 A 
ATOM     13  C   UNL     1      20.959  41.537  56.097  1.00  0.00     0.047 A 
ATOM     14  C   UNL     1      19.758  42.214  56.322  1.00  0.00     0.020 A 
ATOM     15  C   UNL     1      22.158  42.249  55.988  1.00  0.00     0.119 A 
ATOM     16  C   UNL     1      22.151  43.642  56.109  1.00  0.00     0.093 A 
ATOM     17  C   UNL     1      20.956  44.331  56.345  1.00  0.00     0.130 A 
BRANCH  15  18
ATOM     18  O   UNL     1      23.360  41.584  55.759  1.00  0.00    -0.508 OA
ATOM     19  H   UNL     1      23.717  41.444  54.820  1.00  0.00     0.293 HD
ENDBRANCH  15  18
BRANCH  17  20
ATOM     20  O   UNL     1      21.014  45.719  56.495  1.00  0.00    -0.507 OA
ATOM     21  H   UNL     1      20.956  46.362  55.716  1.00  0.00     0.293 HD
ENDBRANCH  17  20
ENDBRANCH   1  12
BRANCH   2  22
ATOM     22  O   UNL     1      17.380  42.876  54.989  1.00  0.00    -0.502 OA
ATOM     23  H   UNL     1      18.069  42.138  55.074  1.00  0.00     0.293 HD
ENDBRANCH   2  22
BRANCH   6  24
ATOM     24  O   UNL     1      13.748  46.475  56.502  1.00  0.00    -0.507 OA
ATOM     25  H   UNL     1      13.624  46.831  55.566  1.00  0.00     0.293 HD
ENDBRANCH   6  24
BRANCH   8  26
ATOM     26  O   UNL     1      16.189  48.720  59.973  1.00  0.00    -0.508 OA
ATOM     27  H   UNL     1      17.066  49.033  60.374  1.00  0.00     0.293 HD
ENDBRANCH   8  26
TORSDOF 6
ENDMDL
MODEL 6
REMARK VINA RESULT:    -6.797      1.506      6.857
REMARK INTER + INTRA:          -8.582
REMARK INTER:                  -8.372
REMARK INTRA:                  -0.210
REMARK UNBOUND:                -0.394
REMARK SMILES O=c1c(O)c(-c2ccc(O)cc2O)oc2cc(O)cc(O)c12
REMARK SMILES IDX 5 1 3 2 2 3 1 4 22 5 20 6 19 7 17 8 16 9 15 10 14 11 6 12
REMARK SMILES IDX 8 13 7 14 9 15 11 16 12 17 10 18 13 20 4 22 21 24 18 26
REMARK H PARENT 10 19 13 21 4 23 21 25 18 27
REMARK Flexibility Score: inf
ROOT
ATOM      1  C   UNL     1      18.662  44.910  57.045  1.00  0.00     0.184 A 
ATOM      2  C   UNL     1      19.032  46.263  57.032  1.00  0.00     0.208 A 
ATOM      3  C   UNL     1      18.072  47.235  57.357  1.00  0.00     0.238 A 
ATOM      4  O   UNL     1      18.393  48.449  57.284  1.00  0.00    -0.285 OA
ATOM      5  C   UNL     1      16.762  46.837  57.721  1.00  0.00     0.111 A 
ATOM      6  C   UNL     1      15.720  47.732  58.108  1.00  0.00     0.134 A 
ATOM      7  C   UNL     1      14.429  47.236  58.327  1.00  0.00     0.093 A 
ATOM      8  C   UNL     1      14.157  45.869  58.236  1.00  0.00     0.123 A 
ATOM      9  C   UNL     1      15.181  44.980  57.916  1.00  0.00     0.094 A 
ATOM     10  C   UNL     1      16.471  45.448  57.655  1.00  0.00     0.146 A 
ATOM     11  O   UNL     1      17.414  44.568  57.339  1.00  0.00    -0.451 OA
ENDROOT
BRANCH   1  12
ATOM     12  C   UNL     1      19.636  43.842  56.734  1.00  0.00     0.063 A 
ATOM     13  C   UNL     1      21.788  42.792  57.170  1.00  0.00     0.047 A 
ATOM     14  C   UNL     1      20.872  43.821  57.404  1.00  0.00     0.020 A 
ATOM     15  C   UNL     1      21.479  41.767  56.269  1.00  0.00     0.119 A 
ATOM     16  C   UNL     1      20.252  41.779  55.600  1.00  0.00     0.093 A 
ATOM     17  C   UNL     1      19.330  42.809  55.818  1.00  0.00     0.130 A 
BRANCH  15  18
ATOM     18  O   UNL     1      22.383  40.734  56.032  1.00  0.00    -0.508 OA
ATOM     19  H   UNL     1      23.032  40.767  55.255  1.00  0.00     0.293 HD
ENDBRANCH  15  18
BRANCH  17  20
ATOM     20  O   UNL     1      18.135  42.789  55.095  1.00  0.00    -0.507 OA
ATOM     21  H   UNL     1      17.542  41.972  55.029  1.00  0.00     0.293 HD
ENDBRANCH  17  20
ENDBRANCH   1  12
BRANCH   2  22
ATOM     22  O   UNL     1      20.333  46.627  56.674  1.00  0.00    -0.502 OA
ATOM     23  H   UNL     1      20.693  47.564  56.814  1.00  0.00     0.293 HD
ENDBRANCH   2  22
BRANCH   6  24
ATOM     24  O   UNL     1      15.904  49.102  58.315  1.00  0.00    -0.507 OA
ATOM     25  H   UNL     1      15.205  49.727  58.687  1.00  0.00     0.293 HD
ENDBRANCH   6  24
BRANCH   8  26
ATOM     26  O   UNL     1      12.875  45.382  58.472  1.00  0.00    -0.508 OA
ATOM     27  H   UNL     1      12.138  45.469  57.780  1.00  0.00     0.293 HD
ENDBRANCH   8  26
TORSDOF 6
ENDMDL
MODEL 7
REMARK VINA RESULT:    -6.737      2.122      6.999
REMARK INTER + INTRA:          -8.510
REMARK INTER:                  -8.232
REMARK INTRA:                  -0.277
REMARK UNBOUND:                -0.394
REMARK SMILES O=c1c(O)c(-c2ccc(O)cc2O)oc2cc(O)cc(O)c12
REMARK SMILES IDX 5 1 3 2 2 3 1 4 22 5 20 6 19 7 17 8 16 9 15 10 14 11 6 12
REMARK SMILES IDX 8 13 7 14 9 15 11 16 12 17 10 18 13 20 4 22 21 24 18 26
REMARK H PARENT 10 19 13 21 4 23 21 25 18 27
REMARK Flexibility Score: inf
ROOT
ATOM      1  C   UNL     1      19.895  45.437  57.681  1.00  0.00     0.184 A 
ATOM      2  C   UNL     1      20.246  46.217  58.793  1.00  0.00     0.208 A 
ATOM      3  C   UNL     1      19.301  47.110  59.324  1.00  0.00     0.238 A 
ATOM      4  O   UNL     1      19.642  47.850  60.283  1.00  0.00    -0.285 OA
ATOM      5  C   UNL     1      18.008  47.188  58.753  1.00  0.00     0.111 A 
ATOM      6  C   UNL     1      16.957  48.028  59.233  1.00  0.00     0.134 A 
ATOM      7  C   UNL     1      15.759  48.114  58.515  1.00  0.00     0.093 A 
ATOM      8  C   UNL     1      15.548  47.343  57.369  1.00  0.00     0.123 A 
ATOM      9  C   UNL     1      16.544  46.477  56.925  1.00  0.00     0.094 A 
ATOM     10  C   UNL     1      17.765  46.396  57.599  1.00  0.00     0.146 A 
ATOM     11  O   UNL     1      18.693  45.568  57.134  1.00  0.00    -0.451 OA
ENDROOT
BRANCH   1  12
ATOM     12  C   UNL     1      20.840  44.464  57.094  1.00  0.00     0.063 A 
ATOM     13  C   UNL     1      21.365  42.161  56.509  1.00  0.00     0.047 A 
ATOM     14  C   UNL     1      20.517  43.096  57.106  1.00  0.00     0.020 A 
ATOM     15  C   UNL     1      22.546  42.580  55.886  1.00  0.00     0.119 A 
ATOM     16  C   UNL     1      22.875  43.938  55.867  1.00  0.00     0.093 A 
ATOM     17  C   UNL     1      22.039  44.884  56.470  1.00  0.00     0.130 A 
BRANCH  15  18
ATOM     18  O   UNL     1      23.397  41.656  55.283  1.00  0.00    -0.508 OA
ATOM     19  H   UNL     1      24.396  41.816  55.227  1.00  0.00     0.293 HD
ENDBRANCH  15  18
BRANCH  17  20
ATOM     20  O   UNL     1      22.436  46.223  56.453  1.00  0.00    -0.507 OA
ATOM     21  H   UNL     1      22.044  46.908  55.820  1.00  0.00     0.293 HD
ENDBRANCH  17  20
ENDBRANCH   1  12
BRANCH   2  22
ATOM     22  O   UNL     1      21.528  46.116  59.340  1.00  0.00    -0.502 OA
ATOM     23  H   UNL     1      22.334  45.843  58.790  1.00  0.00     0.293 HD
ENDBRANCH   2  22
BRANCH   6  24
ATOM     24  O   UNL     1      17.030  48.771  60.415  1.00  0.00    -0.507 OA
ATOM     25  H   UNL     1      16.368  49.480  60.691  1.00  0.00     0.293 HD
ENDBRANCH   6  24
BRANCH   8  26
ATOM     26  O   UNL     1      14.346  47.423  56.670  1.00  0.00    -0.508 OA
ATOM     27  H   UNL     1      13.896  46.597  56.293  1.00  0.00     0.293 HD
ENDBRANCH   8  26
TORSDOF 6
ENDMDL
MODEL 8
REMARK VINA RESULT:    -6.604      4.488      6.960
REMARK INTER + INTRA:          -8.349
REMARK INTER:                  -8.034
REMARK INTRA:                  -0.316
REMARK UNBOUND:                -0.394
REMARK SMILES O=c1c(O)c(-c2ccc(O)cc2O)oc2cc(O)cc(O)c12
REMARK SMILES IDX 5 1 3 2 2 3 1 4 22 5 20 6 19 7 17 8 16 9 15 10 14 11 6 12
REMARK SMILES IDX 8 13 7 14 9 15 11 16 12 17 10 18 13 20 4 22 21 24 18 26
REMARK H PARENT 10 19 13 21 4 23 21 25 18 27
REMARK Flexibility Score: inf
ROOT
ATOM      1  C   UNL     1      16.475  46.191  60.347  1.00  0.00     0.184 A 
ATOM      2  C   UNL     1      15.305  46.623  60.988  1.00  0.00     0.208 A 
ATOM      3  C   UNL     1      15.367  47.000  62.340  1.00  0.00     0.238 A 
ATOM      4  O   UNL     1      14.303  47.327  62.925  1.00  0.00    -0.285 OA
ATOM      5  C   UNL     1      16.608  46.968  63.022  1.00  0.00     0.111 A 
ATOM      6  C   UNL     1      16.797  47.366  64.380  1.00  0.00     0.134 A 
ATOM      7  C   UNL     1      18.044  47.176  64.988  1.00  0.00     0.093 A 
ATOM      8  C   UNL     1      19.126  46.662  64.269  1.00  0.00     0.123 A 
ATOM      9  C   UNL     1      18.967  46.326  62.926  1.00  0.00     0.094 A 
ATOM     10  C   UNL     1      17.726  46.469  62.302  1.00  0.00     0.146 A 
ATOM     11  O   UNL     1      17.614  46.122  61.025  1.00  0.00    -0.451 OA
ENDROOT
BRANCH   1  12
ATOM     12  C   UNL     1      16.474  45.805  58.920  1.00  0.00     0.063 A 
ATOM     13  C   UNL     1      17.259  46.204  56.652  1.00  0.00     0.047 A 
ATOM     14  C   UNL     1      17.198  46.578  57.996  1.00  0.00     0.020 A 
ATOM     15  C   UNL     1      16.604  45.049  56.213  1.00  0.00     0.119 A 
ATOM     16  C   UNL     1      15.883  44.272  57.125  1.00  0.00     0.093 A 
ATOM     17  C   UNL     1      15.805  44.641  58.472  1.00  0.00     0.130 A 
BRANCH  15  18
ATOM     18  O   UNL     1      16.662  44.663  54.875  1.00  0.00    -0.508 OA
ATOM     19  H   UNL     1      16.042  45.064  54.182  1.00  0.00     0.293 HD
ENDBRANCH  15  18
BRANCH  17  20
ATOM     20  O   UNL     1      15.040  43.848  59.331  1.00  0.00    -0.507 OA
ATOM     21  H   UNL     1      14.029  43.874  59.353  1.00  0.00     0.293 HD
ENDBRANCH  17  20
ENDBRANCH   1  12
BRANCH   2  22
ATOM     22  O   UNL     1      14.095  46.649  60.289  1.00  0.00    -0.502 OA
ATOM     23  H   UNL     1      13.226  46.948  60.716  1.00  0.00     0.293 HD
ENDBRANCH   2  22
BRANCH   6  24
ATOM     24  O   UNL     1      15.809  47.972  65.162  1.00  0.00    -0.507 OA
ATOM     25  H   UNL     1      14.853  48.115  64.872  1.00  0.00     0.293 HD
ENDBRANCH   6  24
BRANCH   8  26
ATOM     26  O   UNL     1      20.367  46.492  64.877  1.00  0.00    -0.508 OA
ATOM     27  H   UNL     1      20.826  47.251  65.368  1.00  0.00     0.293 HD
ENDBRANCH   8  26
TORSDOF 6
ENDMDL
MODEL 9
REMARK VINA RESULT:    -6.535      2.049      6.717
REMARK INTER + INTRA:          -8.266
REMARK INTER:                  -7.861
REMARK INTRA:                  -0.405
REMARK UNBOUND:                -0.394
REMARK SMILES O=c1c(O)c(-c2ccc(O)cc2O)oc2cc(O)cc(O)c12
REMARK SMILES IDX 5 1 3 2 2 3 1 4 22 5 20 6 19 7 17 8 16 9 15 10 14 11 6 12
REMARK SMILES IDX 8 13 7 14 9 15 11 16 12 17 10 18 13 20 4 22 21 24 18 26
REMARK H PARENT 10 19 13 21 4 23 21 25 18 27
REMARK Flexibility Score: inf
ROOT
ATOM      1  C   UNL     1      17.695  45.162  57.488  1.00  0.00     0.184 A 
ATOM      2  C   UNL     1      17.350  46.408  56.943  1.00  0.00     0.208 A 
ATOM      3  C   UNL     1      16.527  47.271  57.683  1.00  0.00     0.238 A 
ATOM      4  O   UNL     1      16.172  48.361  57.163  1.00  0.00    -0.285 OA
ATOM      5  C   UNL     1      16.084  46.888  58.973  1.00  0.00     0.111 A 
ATOM      6  C   UNL     1      15.280  47.699  59.829  1.00  0.00     0.134 A 
ATOM      7  C   UNL     1      14.799  47.167  61.032  1.00  0.00     0.093 A 
ATOM      8  C   UNL     1      15.147  45.877  61.440  1.00  0.00     0.123 A 
ATOM      9  C   UNL     1      15.979  45.099  60.639  1.00  0.00     0.094 A 
ATOM     10  C   UNL     1      16.444  45.588  59.416  1.00  0.00     0.146 A 
ATOM     11  O   UNL     1      17.224  44.807  58.676  1.00  0.00    -0.451 OA
ENDROOT
BRANCH   1  12
ATOM     12  C   UNL     1      18.577  44.222  56.764  1.00  0.00     0.063 A 
ATOM     13  C   UNL     1      20.826  43.427  56.280  1.00  0.00     0.047 A 
ATOM     14  C   UNL     1      19.971  44.336  56.908  1.00  0.00     0.020 A 
ATOM     15  C   UNL     1      20.300  42.388  55.505  1.00  0.00     0.119 A 
ATOM     16  C   UNL     1      18.915  42.265  55.357  1.00  0.00     0.093 A 
ATOM     17  C   UNL     1      18.049  43.175  55.973  1.00  0.00     0.130 A 
BRANCH  15  18
ATOM     18  O   UNL     1      21.143  41.473  54.878  1.00  0.00    -0.508 OA
ATOM     19  H   UNL     1      21.929  41.777  54.315  1.00  0.00     0.293 HD
ENDBRANCH  15  18
BRANCH  17  20
ATOM     20  O   UNL     1      16.676  43.026  55.761  1.00  0.00    -0.507 OA
ATOM     21  H   UNL     1      16.001  43.748  55.979  1.00  0.00     0.293 HD
ENDBRANCH  17  20
ENDBRANCH   1  12
BRANCH   2  22
ATOM     22  O   UNL     1      17.806  46.763  55.670  1.00  0.00    -0.502 OA
ATOM     23  H   UNL     1      18.775  46.662  55.392  1.00  0.00     0.293 HD
ENDBRANCH   2  22
BRANCH   6  24
ATOM     24  O   UNL     1      14.949  49.030  59.560  1.00  0.00    -0.507 OA
ATOM     25  H   UNL     1      14.810  49.413  58.637  1.00  0.00     0.293 HD
ENDBRANCH   6  24
BRANCH   8  26
ATOM     26  O   UNL     1      14.677  45.363  62.646  1.00  0.00    -0.508 OA
ATOM     27  H   UNL     1      13.748  45.580  62.990  1.00  0.00     0.293 HD
ENDBRANCH   8  26
TORSDOF 6
ENDMDL
