MODEL 1
REMARK VINA RESULT:    -6.181      0.000      0.000
REMARK INTER + INTRA:          -6.455
REMARK INTER:                  -6.723
REMARK INTRA:                   0.268
REMARK UNBOUND:                 0.268
REMARK SMILES C[C@@H]1[C@H]2C3=CC[C@@H]4[C@@]5(C)CC[C@H](O)C(C)(C)[C@H]5CC[C@@]4(C)[C@]3(C)CC[C@]2(C(=O)[O-])CC[C@@H]1C
REMARK SMILES IDX 26 1 30 2 25 3 3 4 31 5 24 6 4 7 2 8 32 9 22 10 5 11 1 12
REMARK SMILES IDX 33 13 23 14 20 15 6 16 7 17 19 18 21 19 8 20 18 21 17 22
REMARK SMILES IDX 10 23 9 24 14 25 11 26 12 27 15 28 16 29 27 30 28 31 29 32
REMARK SMILES IDX 13 33
REMARK H PARENT 13 34
REMARK Flexibility Score: inf
ROOT
ATOM      1  C   UNL     1     145.320   9.216  83.948  1.00  0.00     0.017 C 
ATOM      2  C   UNL     1     144.716  10.428  83.157  1.00  0.00     0.014 C 
ATOM      3  C   UNL     1     146.455   9.762  84.890  1.00  0.00     0.014 C 
ATOM      4  C   UNL     1     144.164   8.536  84.762  1.00  0.00     0.030 C 
ATOM      5  C   UNL     1     143.322  10.199  82.537  1.00  0.00     0.004 C 
ATOM      6  C   UNL     1     146.306   9.397  86.378  1.00  0.00     0.013 C 
ATOM      7  C   UNL     1     144.702   7.525  85.809  1.00  0.00    -0.063 C 
ATOM      8  C   UNL     1     142.977   8.030  83.847  1.00  0.00    -0.003 C 
ATOM      9  C   UNL     1     142.945   8.717  82.442  1.00  0.00    -0.011 C 
ATOM     10  C   UNL     1     145.939   7.898  86.638  1.00  0.00    -0.006 C 
ATOM     11  C   UNL     1     144.002   6.412  86.152  1.00  0.00    -0.027 C 
ATOM     12  C   UNL     1     141.633   8.190  84.600  1.00  0.00     0.008 C 
ATOM     13  C   UNL     1     141.616   8.539  81.687  1.00  0.00     0.008 C 
ATOM     14  C   UNL     1     147.126   7.032  86.101  1.00  0.00     0.017 C 
ATOM     15  C   UNL     1     145.625   7.644  88.200  1.00  0.00    -0.020 C 
ATOM     16  C   UNL     1     144.067   5.742  87.503  1.00  0.00     0.032 C 
ATOM     17  C   UNL     1     145.261   6.139  88.421  1.00  0.00     0.006 C 
ATOM     18  C   UNL     1     146.876   7.918  89.069  1.00  0.00     0.008 C 
ATOM     19  C   UNL     1     144.438   8.568  88.652  1.00  0.00     0.012 C 
ATOM     20  C   UNL     1     145.207   5.620  89.962  1.00  0.00    -0.025 C 
ATOM     21  C   UNL     1     146.688   7.693  90.572  1.00  0.00     0.005 C 
ATOM     22  C   UNL     1     145.524   6.761  91.028  1.00  0.00     0.003 C 
ATOM     23  C   UNL     1     146.283   4.500  90.132  1.00  0.00     0.010 C 
ATOM     24  C   UNL     1     143.805   4.997  90.248  1.00  0.00     0.012 C 
ATOM     25  C   UNL     1     145.758   6.261  92.534  1.00  0.00    -0.006 C 
ATOM     26  C   UNL     1     146.446   3.971  91.563  1.00  0.00     0.033 C 
ATOM     27  C   UNL     1     146.790   5.087  92.559  1.00  0.00     0.120 C 
ATOM     28  C   UNL     1     146.320   7.423  93.413  1.00  0.00     0.014 C 
ATOM     29  C   UNL     1     144.420   5.838  93.227  1.00  0.00     0.014 C 
ENDROOT
BRANCH   1  30
ATOM     30  C   UNL     1     145.965   8.241  82.962  1.00  0.00     0.048 C 
ATOM     31  O   UNL     1     145.909   6.995  83.143  1.00  0.00    -0.550 OA
ATOM     32  O   UNL     1     146.674   8.726  81.869  1.00  0.00    -0.550 OA
ENDBRANCH   1  30
BRANCH  27  33
ATOM     33  O   UNL     1     146.874   4.524  93.846  1.00  0.00    -0.393 OA
ATOM     34  H   UNL     1     147.331   5.185  94.429  1.00  0.00     0.210 HD
ENDBRANCH  27  33
TORSDOF 2
ENDMDL
MODEL 2
REMARK VINA RESULT:    -6.108     12.890     16.720
REMARK INTER + INTRA:          -6.376
REMARK INTER:                  -6.679
REMARK INTRA:                   0.303
REMARK UNBOUND:                 0.268
REMARK SMILES C[C@@H]1[C@H]2C3=CC[C@@H]4[C@@]5(C)CC[C@H](O)C(C)(C)[C@H]5CC[C@@]4(C)[C@]3(C)CC[C@]2(C(=O)[O-])CC[C@@H]1C
REMARK SMILES IDX 26 1 30 2 25 3 3 4 31 5 24 6 4 7 2 8 32 9 22 10 5 11 1 12
REMARK SMILES IDX 33 13 23 14 20 15 6 16 7 17 19 18 21 19 8 20 18 21 17 22
REMARK SMILES IDX 10 23 9 24 14 25 11 26 12 27 15 28 16 29 27 30 28 31 29 32
REMARK SMILES IDX 13 33
REMARK H PARENT 13 34
REMARK Flexibility Score: inf
ROOT
ATOM      1  C   UNL     1     135.456   3.535  80.541  1.00  0.00     0.017 C 
ATOM      2  C   UNL     1     136.031   4.529  81.610  1.00  0.00     0.014 C 
ATOM      3  C   UNL     1     136.147   2.138  80.750  1.00  0.00     0.014 C 
ATOM      4  C   UNL     1     133.902   3.451  80.735  1.00  0.00     0.030 C 
ATOM      5  C   UNL     1     135.184   5.791  81.878  1.00  0.00     0.004 C 
ATOM      6  C   UNL     1     135.185   0.952  80.941  1.00  0.00     0.013 C 
ATOM      7  C   UNL     1     133.275   2.275  79.940  1.00  0.00    -0.063 C 
ATOM      8  C   UNL     1     133.183   4.853  80.591  1.00  0.00    -0.003 C 
ATOM      9  C   UNL     1     134.154   6.066  80.779  1.00  0.00    -0.011 C 
ATOM     10  C   UNL     1     133.996   0.920  79.924  1.00  0.00    -0.006 C 
ATOM     11  C   UNL     1     132.021   2.350  79.425  1.00  0.00    -0.027 C 
ATOM     12  C   UNL     1     131.977   4.923  81.560  1.00  0.00     0.008 C 
ATOM     13  C   UNL     1     133.441   7.408  81.022  1.00  0.00     0.008 C 
ATOM     14  C   UNL     1     134.612   0.747  78.496  1.00  0.00     0.017 C 
ATOM     15  C   UNL     1     132.943  -0.242  80.304  1.00  0.00    -0.020 C 
ATOM     16  C   UNL     1     131.106   1.166  79.220  1.00  0.00     0.032 C 
ATOM     17  C   UNL     1     131.769  -0.242  79.270  1.00  0.00     0.006 C 
ATOM     18  C   UNL     1     133.602  -1.640  80.211  1.00  0.00     0.008 C 
ATOM     19  C   UNL     1     132.396   0.002  81.756  1.00  0.00     0.012 C 
ATOM     20  C   UNL     1     130.769  -1.525  79.302  1.00  0.00    -0.025 C 
ATOM     21  C   UNL     1     132.681  -2.818  80.541  1.00  0.00     0.005 C 
ATOM     22  C   UNL     1     131.142  -2.595  80.423  1.00  0.00     0.003 C 
ATOM     23  C   UNL     1     130.856  -2.240  77.917  1.00  0.00     0.010 C 
ATOM     24  C   UNL     1     129.303  -1.030  79.505  1.00  0.00     0.012 C 
ATOM     25  C   UNL     1     130.373  -3.999  80.329  1.00  0.00    -0.006 C 
ATOM     26  C   UNL     1     130.053  -3.543  77.809  1.00  0.00     0.033 C 
ATOM     27  C   UNL     1     130.463  -4.567  78.876  1.00  0.00     0.120 C 
ATOM     28  C   UNL     1     131.016  -5.039  81.300  1.00  0.00     0.014 C 
ATOM     29  C   UNL     1     128.881  -3.883  80.787  1.00  0.00     0.014 C 
ENDROOT
BRANCH   1  30
ATOM     30  C   UNL     1     135.825   4.029  79.142  1.00  0.00     0.048 C 
ATOM     31  O   UNL     1     134.972   4.065  78.215  1.00  0.00    -0.550 OA
ATOM     32  O   UNL     1     137.135   4.401  78.859  1.00  0.00    -0.550 OA
ENDBRANCH   1  30
BRANCH  27  33
ATOM     33  O   UNL     1     129.649  -5.707  78.735  1.00  0.00    -0.393 OA
ATOM     34  H   UNL     1     129.038  -5.733  79.518  1.00  0.00     0.210 HD
ENDBRANCH  27  33
TORSDOF 2
ENDMDL
MODEL 3
REMARK VINA RESULT:    -6.057      1.855      3.102
REMARK INTER + INTRA:          -6.320
REMARK INTER:                  -6.612
REMARK INTRA:                   0.292
REMARK UNBOUND:                 0.268
REMARK SMILES C[C@@H]1[C@H]2C3=CC[C@@H]4[C@@]5(C)CC[C@H](O)C(C)(C)[C@H]5CC[C@@]4(C)[C@]3(C)CC[C@]2(C(=O)[O-])CC[C@@H]1C
REMARK SMILES IDX 26 1 30 2 25 3 3 4 31 5 24 6 4 7 2 8 32 9 22 10 5 11 1 12
REMARK SMILES IDX 33 13 23 14 20 15 6 16 7 17 19 18 21 19 8 20 18 21 17 22
REMARK SMILES IDX 10 23 9 24 14 25 11 26 12 27 15 28 16 29 27 30 28 31 29 32
REMARK SMILES IDX 13 33
REMARK H PARENT 13 34
REMARK Flexibility Score: inf
ROOT
ATOM      1  C   UNL     1     146.167   6.243  85.112  1.00  0.00     0.017 C 
ATOM      2  C   UNL     1     146.905   6.810  83.849  1.00  0.00     0.014 C 
ATOM      3  C   UNL     1     147.227   5.499  86.005  1.00  0.00     0.014 C 
ATOM      4  C   UNL     1     145.504   7.444  85.873  1.00  0.00     0.030 C 
ATOM      5  C   UNL     1     146.171   7.936  83.091  1.00  0.00     0.004 C 
ATOM      6  C   UNL     1     147.299   5.971  87.468  1.00  0.00     0.013 C 
ATOM      7  C   UNL     1     145.014   7.041  87.289  1.00  0.00    -0.063 C 
ATOM      8  C   UNL     1     144.477   8.252  84.981  1.00  0.00    -0.003 C 
ATOM      9  C   UNL     1     144.683   8.027  83.446  1.00  0.00    -0.011 C 
ATOM     10  C   UNL     1     145.905   6.143  88.157  1.00  0.00    -0.006 C 
ATOM     11  C   UNL     1     143.920   7.614  87.855  1.00  0.00    -0.027 C 
ATOM     12  C   UNL     1     144.526   9.753  85.357  1.00  0.00     0.008 C 
ATOM     13  C   UNL     1     143.973   9.065  82.560  1.00  0.00     0.008 C 
ATOM     14  C   UNL     1     145.231   4.731  88.194  1.00  0.00     0.017 C 
ATOM     15  C   UNL     1     146.061   6.808  89.619  1.00  0.00    -0.020 C 
ATOM     16  C   UNL     1     143.721   7.796  89.341  1.00  0.00     0.032 C 
ATOM     17  C   UNL     1     144.650   6.965  90.275  1.00  0.00     0.006 C 
ATOM     18  C   UNL     1     146.877   5.890  90.562  1.00  0.00     0.008 C 
ATOM     19  C   UNL     1     146.763   8.206  89.484  1.00  0.00     0.012 C 
ATOM     20  C   UNL     1     144.619   7.334  91.859  1.00  0.00    -0.025 C 
ATOM     21  C   UNL     1     147.073   6.425  91.983  1.00  0.00     0.005 C 
ATOM     22  C   UNL     1     146.068   7.499  92.502  1.00  0.00     0.003 C 
ATOM     23  C   UNL     1     143.896   6.172  92.611  1.00  0.00     0.010 C 
ATOM     24  C   UNL     1     143.792   8.641  92.068  1.00  0.00     0.012 C 
ATOM     25  C   UNL     1     146.114   7.588  94.103  1.00  0.00    -0.006 C 
ATOM     26  C   UNL     1     143.875   6.305  94.140  1.00  0.00     0.033 C 
ATOM     27  C   UNL     1     145.286   6.420  94.732  1.00  0.00     0.120 C 
ATOM     28  C   UNL     1     147.585   7.473  94.614  1.00  0.00     0.014 C 
ATOM     29  C   UNL     1     145.607   8.972  94.629  1.00  0.00     0.014 C 
ENDROOT
BRANCH   1  30
ATOM     30  C   UNL     1     145.128   5.213  84.670  1.00  0.00     0.048 C 
ATOM     31  O   UNL     1     145.375   4.387  83.750  1.00  0.00    -0.550 OA
ATOM     32  O   UNL     1     143.864   5.208  85.251  1.00  0.00    -0.550 OA
ENDBRANCH   1  30
BRANCH  27  33
ATOM     33  O   UNL     1     145.172   6.585  96.125  1.00  0.00    -0.393 OA
ATOM     34  H   UNL     1     145.921   7.168  96.417  1.00  0.00     0.210 HD
ENDBRANCH  27  33
TORSDOF 2
ENDMDL
MODEL 4
REMARK VINA RESULT:    -5.901     14.810     18.024
REMARK INTER + INTRA:          -6.151
REMARK INTER:                  -6.570
REMARK INTRA:                   0.419
REMARK UNBOUND:                 0.268
REMARK SMILES C[C@@H]1[C@H]2C3=CC[C@@H]4[C@@]5(C)CC[C@H](O)C(C)(C)[C@H]5CC[C@@]4(C)[C@]3(C)CC[C@]2(C(=O)[O-])CC[C@@H]1C
REMARK SMILES IDX 26 1 30 2 25 3 3 4 31 5 24 6 4 7 2 8 32 9 22 10 5 11 1 12
REMARK SMILES IDX 33 13 23 14 20 15 6 16 7 17 19 18 21 19 8 20 18 21 17 22
REMARK SMILES IDX 10 23 9 24 14 25 11 26 12 27 15 28 16 29 27 30 28 31 29 32
REMARK SMILES IDX 13 33
REMARK H PARENT 13 34
REMARK Flexibility Score: inf
ROOT
ATOM      1  C   UNL     1     131.602   2.920  92.841  1.00  0.00     0.017 C 
ATOM      2  C   UNL     1     132.481   4.199  92.612  1.00  0.00     0.014 C 
ATOM      3  C   UNL     1     130.613   2.782  91.627  1.00  0.00     0.014 C 
ATOM      4  C   UNL     1     132.558   1.681  92.957  1.00  0.00     0.030 C 
ATOM      5  C   UNL     1     133.792   4.267  93.424  1.00  0.00     0.004 C 
ATOM      6  C   UNL     1     130.654   1.428  90.896  1.00  0.00     0.013 C 
ATOM      7  C   UNL     1     131.787   0.337  92.878  1.00  0.00    -0.063 C 
ATOM      8  C   UNL     1     133.607   1.817  94.133  1.00  0.00    -0.003 C 
ATOM      9  C   UNL     1     133.816   3.294  94.607  1.00  0.00    -0.011 C 
ATOM     10  C   UNL     1     130.660   0.185  91.847  1.00  0.00    -0.006 C 
ATOM     11  C   UNL     1     132.206  -0.766  93.551  1.00  0.00    -0.027 C 
ATOM     12  C   UNL     1     134.942   1.148  93.722  1.00  0.00     0.008 C 
ATOM     13  C   UNL     1     135.077   3.506  95.463  1.00  0.00     0.008 C 
ATOM     14  C   UNL     1     129.311   0.204  92.640  1.00  0.00     0.017 C 
ATOM     15  C   UNL     1     130.886  -1.178  91.014  1.00  0.00    -0.020 C 
ATOM     16  C   UNL     1     131.969  -2.187  93.097  1.00  0.00     0.032 C 
ATOM     17  C   UNL     1     130.888  -2.395  91.996  1.00  0.00     0.006 C 
ATOM     18  C   UNL     1     129.722  -1.423  90.024  1.00  0.00     0.008 C 
ATOM     19  C   UNL     1     132.249  -1.096  90.238  1.00  0.00     0.012 C 
ATOM     20  C   UNL     1     130.800  -3.875  91.324  1.00  0.00    -0.025 C 
ATOM     21  C   UNL     1     129.833  -2.702  89.190  1.00  0.00     0.005 C 
ATOM     22  C   UNL     1     130.743  -3.848  89.732  1.00  0.00     0.003 C 
ATOM     23  C   UNL     1     129.492  -4.559  91.834  1.00  0.00     0.010 C 
ATOM     24  C   UNL     1     132.016  -4.730  91.799  1.00  0.00     0.012 C 
ATOM     25  C   UNL     1     130.379  -5.240  89.024  1.00  0.00    -0.006 C 
ATOM     26  C   UNL     1     129.193  -5.928  91.209  1.00  0.00     0.033 C 
ATOM     27  C   UNL     1     129.103  -5.861  89.678  1.00  0.00     0.120 C 
ATOM     28  C   UNL     1     130.091  -5.021  87.505  1.00  0.00     0.014 C 
ATOM     29  C   UNL     1     131.574  -6.250  89.069  1.00  0.00     0.014 C 
ENDROOT
BRANCH   1  30
ATOM     30  C   UNL     1     130.762   3.104  94.105  1.00  0.00     0.048 C 
ATOM     31  O   UNL     1     130.201   2.125  94.666  1.00  0.00    -0.550 OA
ATOM     32  O   UNL     1     130.560   4.378  94.626  1.00  0.00    -0.550 OA
ENDBRANCH   1  30
BRANCH  27  33
ATOM     33  O   UNL     1     128.875  -7.161  89.189  1.00  0.00    -0.393 OA
ATOM     34  H   UNL     1     129.267  -7.797  89.843  1.00  0.00     0.210 HD
ENDBRANCH  27  33
TORSDOF 2
ENDMDL
MODEL 5
REMARK VINA RESULT:    -5.887     13.830     18.064
REMARK INTER + INTRA:          -6.135
REMARK INTER:                  -7.113
REMARK INTRA:                   0.978
REMARK UNBOUND:                 0.268
REMARK SMILES C[C@@H]1[C@H]2C3=CC[C@@H]4[C@@]5(C)CC[C@H](O)C(C)(C)[C@H]5CC[C@@]4(C)[C@]3(C)CC[C@]2(C(=O)[O-])CC[C@@H]1C
REMARK SMILES IDX 26 1 30 2 25 3 3 4 31 5 24 6 4 7 2 8 32 9 22 10 5 11 1 12
REMARK SMILES IDX 33 13 23 14 20 15 6 16 7 17 19 18 21 19 8 20 18 21 17 22
REMARK SMILES IDX 10 23 9 24 14 25 11 26 12 27 15 28 16 29 27 30 28 31 29 32
REMARK SMILES IDX 13 33
REMARK H PARENT 13 34
REMARK Flexibility Score: inf
ROOT
ATOM      1  C   UNL     1     130.813  -3.048  79.634  1.00  0.00     0.017 C 
ATOM      2  C   UNL     1     129.427  -3.754  79.830  1.00  0.00     0.014 C 
ATOM      3  C   UNL     1     130.976  -2.706  78.107  1.00  0.00     0.014 C 
ATOM      4  C   UNL     1     130.838  -1.758  80.526  1.00  0.00     0.030 C 
ATOM      5  C   UNL     1     128.875  -3.761  81.272  1.00  0.00     0.004 C 
ATOM      6  C   UNL     1     131.282  -1.230  77.794  1.00  0.00     0.013 C 
ATOM      7  C   UNL     1     132.030  -0.828  80.177  1.00  0.00    -0.063 C 
ATOM      8  C   UNL     1     130.616  -2.062  82.062  1.00  0.00    -0.003 C 
ATOM      9  C   UNL     1     129.944  -3.451  82.324  1.00  0.00    -0.011 C 
ATOM     10  C   UNL     1     132.388  -0.597  78.702  1.00  0.00    -0.006 C 
ATOM     11  C   UNL     1     132.638  -0.063  81.120  1.00  0.00    -0.027 C 
ATOM     12  C   UNL     1     129.822  -0.904  82.715  1.00  0.00     0.008 C 
ATOM     13  C   UNL     1     129.376  -3.614  83.745  1.00  0.00     0.008 C 
ATOM     14  C   UNL     1     133.715  -1.378  78.427  1.00  0.00     0.017 C 
ATOM     15  C   UNL     1     132.519   0.989  78.432  1.00  0.00    -0.020 C 
ATOM     16  C   UNL     1     133.311   1.262  80.847  1.00  0.00     0.032 C 
ATOM     17  C   UNL     1     133.630   1.586  79.357  1.00  0.00     0.006 C 
ATOM     18  C   UNL     1     132.970   1.268  76.978  1.00  0.00     0.008 C 
ATOM     19  C   UNL     1     131.139   1.682  78.713  1.00  0.00     0.012 C 
ATOM     20  C   UNL     1     134.120   3.101  79.024  1.00  0.00    -0.025 C 
ATOM     21  C   UNL     1     133.138   2.748  76.621  1.00  0.00     0.005 C 
ATOM     22  C   UNL     1     133.358   3.758  77.788  1.00  0.00     0.003 C 
ATOM     23  C   UNL     1     135.640   3.049  78.670  1.00  0.00     0.010 C 
ATOM     24  C   UNL     1     133.944   3.991  80.294  1.00  0.00     0.012 C 
ATOM     25  C   UNL     1     133.978   5.131  77.237  1.00  0.00    -0.006 C 
ATOM     26  C   UNL     1     136.245   4.385  78.219  1.00  0.00     0.033 C 
ATOM     27  C   UNL     1     135.516   4.972  77.003  1.00  0.00     0.120 C 
ATOM     28  C   UNL     1     133.316   5.522  75.879  1.00  0.00     0.014 C 
ATOM     29  C   UNL     1     133.684   6.334  78.194  1.00  0.00     0.014 C 
ENDROOT
BRANCH   1  30
ATOM     30  C   UNL     1     131.932  -4.018  80.013  1.00  0.00     0.048 C 
ATOM     31  O   UNL     1     133.119  -3.829  79.631  1.00  0.00    -0.550 OA
ATOM     32  O   UNL     1     131.641  -5.161  80.748  1.00  0.00    -0.550 OA
ENDBRANCH   1  30
BRANCH  27  33
ATOM     33  O   UNL     1     136.102   6.213  76.689  1.00  0.00    -0.393 OA
ATOM     34  H   UNL     1     136.140   6.744  77.527  1.00  0.00     0.210 HD
ENDBRANCH  27  33
TORSDOF 2
ENDMDL
MODEL 6
REMARK VINA RESULT:    -5.780      2.216      4.341
REMARK INTER + INTRA:          -6.019
REMARK INTER:                  -6.308
REMARK INTRA:                   0.289
REMARK UNBOUND:                 0.268
REMARK SMILES C[C@@H]1[C@H]2C3=CC[C@@H]4[C@@]5(C)CC[C@H](O)C(C)(C)[C@H]5CC[C@@]4(C)[C@]3(C)CC[C@]2(C(=O)[O-])CC[C@@H]1C
REMARK SMILES IDX 26 1 30 2 25 3 3 4 31 5 24 6 4 7 2 8 32 9 22 10 5 11 1 12
REMARK SMILES IDX 33 13 23 14 20 15 6 16 7 17 19 18 21 19 8 20 18 21 17 22
REMARK SMILES IDX 10 23 9 24 14 25 11 26 12 27 15 28 16 29 27 30 28 31 29 32
REMARK SMILES IDX 13 33
REMARK H PARENT 13 34
REMARK Flexibility Score: inf
ROOT
ATOM      1  C   UNL     1     145.000   6.392  85.321  1.00  0.00     0.017 C 
ATOM      2  C   UNL     1     145.361   5.302  84.253  1.00  0.00     0.014 C 
ATOM      3  C   UNL     1     143.798   5.854  86.182  1.00  0.00     0.014 C 
ATOM      4  C   UNL     1     146.272   6.659  86.200  1.00  0.00     0.030 C 
ATOM      5  C   UNL     1     146.765   5.420  83.622  1.00  0.00     0.004 C 
ATOM      6  C   UNL     1     144.033   5.842  87.703  1.00  0.00     0.013 C 
ATOM      7  C   UNL     1     145.942   7.485  87.471  1.00  0.00    -0.063 C 
ATOM      8  C   UNL     1     147.518   7.143  85.355  1.00  0.00    -0.003 C 
ATOM      9  C   UNL     1     147.404   6.795  83.833  1.00  0.00    -0.011 C 
ATOM     10  C   UNL     1     144.670   7.156  88.264  1.00  0.00    -0.006 C 
ATOM     11  C   UNL     1     146.838   8.352  88.010  1.00  0.00    -0.027 C 
ATOM     12  C   UNL     1     148.821   6.585  85.979  1.00  0.00     0.008 C 
ATOM     13  C   UNL     1     148.732   6.905  83.064  1.00  0.00     0.008 C 
ATOM     14  C   UNL     1     143.653   8.314  87.996  1.00  0.00     0.017 C 
ATOM     15  C   UNL     1     145.048   6.993  89.825  1.00  0.00    -0.020 C 
ATOM     16  C   UNL     1     146.916   8.702  89.478  1.00  0.00     0.032 C 
ATOM     17  C   UNL     1     145.683   8.322  90.350  1.00  0.00     0.006 C 
ATOM     18  C   UNL     1     143.780   6.752  90.680  1.00  0.00     0.008 C 
ATOM     19  C   UNL     1     146.053   5.799  89.997  1.00  0.00     0.012 C 
ATOM     20  C   UNL     1     145.852   8.463  91.962  1.00  0.00    -0.025 C 
ATOM     21  C   UNL     1     144.028   6.596  92.183  1.00  0.00     0.005 C 
ATOM     22  C   UNL     1     145.349   7.185  92.768  1.00  0.00     0.003 C 
ATOM     23  C   UNL     1     145.001   9.685  92.432  1.00  0.00     0.010 C 
ATOM     24  C   UNL     1     147.348   8.752  92.300  1.00  0.00     0.012 C 
ATOM     25  C   UNL     1     145.231   7.365  94.358  1.00  0.00    -0.006 C 
ATOM     26  C   UNL     1     144.958   9.898  93.951  1.00  0.00     0.033 C 
ATOM     27  C   UNL     1     144.431   8.664  94.695  1.00  0.00     0.120 C 
ATOM     28  C   UNL     1     144.480   6.151  94.990  1.00  0.00     0.014 C 
ATOM     29  C   UNL     1     146.634   7.381  95.052  1.00  0.00     0.014 C 
ENDROOT
BRANCH   1  30
ATOM     30  C   UNL     1     144.529   7.661  84.610  1.00  0.00     0.048 C 
ATOM     31  O   UNL     1     143.820   7.603  83.569  1.00  0.00    -0.550 OA
ATOM     32  O   UNL     1     144.925   8.908  85.080  1.00  0.00    -0.550 OA
ENDBRANCH   1  30
BRANCH  27  33
ATOM     33  O   UNL     1     144.470   8.928  96.077  1.00  0.00    -0.393 OA
ATOM     34  H   UNL     1     144.080   8.140  96.540  1.00  0.00     0.210 HD
ENDBRANCH  27  33
TORSDOF 2
ENDMDL
MODEL 7
REMARK VINA RESULT:    -5.575      2.589      4.186
REMARK INTER + INTRA:          -5.797
REMARK INTER:                  -6.113
REMARK INTRA:                   0.316
REMARK UNBOUND:                 0.268
REMARK SMILES C[C@@H]1[C@H]2C3=CC[C@@H]4[C@@]5(C)CC[C@H](O)C(C)(C)[C@H]5CC[C@@]4(C)[C@]3(C)CC[C@]2(C(=O)[O-])CC[C@@H]1C
REMARK SMILES IDX 26 1 30 2 25 3 3 4 31 5 24 6 4 7 2 8 32 9 22 10 5 11 1 12
REMARK SMILES IDX 33 13 23 14 20 15 6 16 7 17 19 18 21 19 8 20 18 21 17 22
REMARK SMILES IDX 10 23 9 24 14 25 11 26 12 27 15 28 16 29 27 30 28 31 29 32
REMARK SMILES IDX 13 33
REMARK H PARENT 13 34
REMARK Flexibility Score: inf
ROOT
ATOM      1  C   UNL     1     146.514   6.060  85.510  1.00  0.00     0.017 C 
ATOM      2  C   UNL     1     147.821   6.079  84.643  1.00  0.00     0.014 C 
ATOM      3  C   UNL     1     146.803   5.226  86.812  1.00  0.00     0.014 C 
ATOM      4  C   UNL     1     146.124   7.543  85.841  1.00  0.00     0.030 C 
ATOM      5  C   UNL     1     147.903   7.191  83.575  1.00  0.00     0.004 C 
ATOM      6  C   UNL     1     146.502   5.952  88.136  1.00  0.00     0.013 C 
ATOM      7  C   UNL     1     145.032   7.629  86.941  1.00  0.00    -0.063 C 
ATOM      8  C   UNL     1     145.886   8.424  84.550  1.00  0.00    -0.003 C 
ATOM      9  C   UNL     1     146.544   7.824  83.263  1.00  0.00    -0.011 C 
ATOM     10  C   UNL     1     145.128   6.701  88.159  1.00  0.00    -0.006 C 
ATOM     11  C   UNL     1     144.111   8.627  86.955  1.00  0.00    -0.027 C 
ATOM     12  C   UNL     1     146.356   9.876  84.815  1.00  0.00     0.008 C 
ATOM     13  C   UNL     1     146.660   8.819  82.095  1.00  0.00     0.008 C 
ATOM     14  C   UNL     1     144.009   5.619  87.998  1.00  0.00     0.017 C 
ATOM     15  C   UNL     1     144.972   7.578  89.505  1.00  0.00    -0.020 C 
ATOM     16  C   UNL     1     143.461   9.175  88.203  1.00  0.00     0.032 C 
ATOM     17  C   UNL     1     143.591   8.312  89.492  1.00  0.00     0.006 C 
ATOM     18  C   UNL     1     144.969   6.672  90.760  1.00  0.00     0.008 C 
ATOM     19  C   UNL     1     146.146   8.617  89.590  1.00  0.00     0.012 C 
ATOM     20  C   UNL     1     143.118   9.001  90.889  1.00  0.00    -0.025 C 
ATOM     21  C   UNL     1     144.813   7.407  92.094  1.00  0.00     0.005 C 
ATOM     22  C   UNL     1     144.173   8.830  92.071  1.00  0.00     0.003 C 
ATOM     23  C   UNL     1     141.788   8.318  91.338  1.00  0.00     0.010 C 
ATOM     24  C   UNL     1     142.832  10.516  90.645  1.00  0.00     0.012 C 
ATOM     25  C   UNL     1     143.654   9.239  93.532  1.00  0.00    -0.006 C 
ATOM     26  C   UNL     1     141.255   8.774  92.702  1.00  0.00     0.033 C 
ATOM     27  C   UNL     1     142.278   8.559  93.826  1.00  0.00     0.120 C 
ATOM     28  C   UNL     1     144.671   8.775  94.622  1.00  0.00     0.014 C 
ATOM     29  C   UNL     1     143.553  10.792  93.705  1.00  0.00     0.014 C 
ENDROOT
BRANCH   1  30
ATOM     30  C   UNL     1     145.406   5.344  84.738  1.00  0.00     0.048 C 
ATOM     31  O   UNL     1     144.189   5.576  84.973  1.00  0.00    -0.550 OA
ATOM     32  O   UNL     1     145.731   4.378  83.792  1.00  0.00    -0.550 OA
ENDBRANCH   1  30
BRANCH  27  33
ATOM     33  O   UNL     1     141.728   9.045  95.027  1.00  0.00    -0.393 OA
ATOM     34  H   UNL     1     142.233   9.864  95.274  1.00  0.00     0.210 HD
ENDBRANCH  27  33
TORSDOF 2
ENDMDL
MODEL 8
REMARK VINA RESULT:    -5.459      1.653      8.371
REMARK INTER + INTRA:          -5.670
REMARK INTER:                  -5.940
REMARK INTRA:                   0.270
REMARK UNBOUND:                 0.268
REMARK SMILES C[C@@H]1[C@H]2C3=CC[C@@H]4[C@@]5(C)CC[C@H](O)C(C)(C)[C@H]5CC[C@@]4(C)[C@]3(C)CC[C@]2(C(=O)[O-])CC[C@@H]1C
REMARK SMILES IDX 26 1 30 2 25 3 3 4 31 5 24 6 4 7 2 8 32 9 22 10 5 11 1 12
REMARK SMILES IDX 33 13 23 14 20 15 6 16 7 17 19 18 21 19 8 20 18 21 17 22
REMARK SMILES IDX 10 23 9 24 14 25 11 26 12 27 15 28 16 29 27 30 28 31 29 32
REMARK SMILES IDX 13 33
REMARK H PARENT 13 34
REMARK Flexibility Score: inf
ROOT
ATOM      1  C   UNL     1     145.628   7.373  92.020  1.00  0.00     0.017 C 
ATOM      2  C   UNL     1     146.673   7.419  93.189  1.00  0.00     0.014 C 
ATOM      3  C   UNL     1     145.271   8.853  91.625  1.00  0.00     0.014 C 
ATOM      4  C   UNL     1     146.266   6.587  90.822  1.00  0.00     0.030 C 
ATOM      5  C   UNL     1     147.485   6.126  93.416  1.00  0.00     0.004 C 
ATOM      6  C   UNL     1     145.459   9.197  90.136  1.00  0.00     0.013 C 
ATOM      7  C   UNL     1     145.445   6.745  89.515  1.00  0.00    -0.063 C 
ATOM      8  C   UNL     1     146.693   5.113  91.205  1.00  0.00    -0.003 C 
ATOM      9  C   UNL     1     146.858   4.899  92.747  1.00  0.00    -0.011 C 
ATOM     10  C   UNL     1     144.883   8.126  89.152  1.00  0.00    -0.006 C 
ATOM     11  C   UNL     1     145.377   5.751  88.591  1.00  0.00    -0.027 C 
ATOM     12  C   UNL     1     147.974   4.720  90.428  1.00  0.00     0.008 C 
ATOM     13  C   UNL     1     147.624   3.619  93.124  1.00  0.00     0.008 C 
ATOM     14  C   UNL     1     143.337   8.065  89.387  1.00  0.00     0.017 C 
ATOM     15  C   UNL     1     145.278   8.472  87.626  1.00  0.00    -0.020 C 
ATOM     16  C   UNL     1     145.186   5.972  87.109  1.00  0.00     0.032 C 
ATOM     17  C   UNL     1     144.688   7.381  86.673  1.00  0.00     0.006 C 
ATOM     18  C   UNL     1     144.653   9.817  87.183  1.00  0.00     0.008 C 
ATOM     19  C   UNL     1     146.841   8.532  87.492  1.00  0.00     0.012 C 
ATOM     20  C   UNL     1     144.718   7.711  85.080  1.00  0.00    -0.025 C 
ATOM     21  C   UNL     1     144.957  10.234  85.741  1.00  0.00     0.005 C 
ATOM     22  C   UNL     1     145.377   9.119  84.734  1.00  0.00     0.003 C 
ATOM     23  C   UNL     1     143.244   7.737  84.565  1.00  0.00     0.010 C 
ATOM     24  C   UNL     1     145.476   6.570  84.332  1.00  0.00     0.012 C 
ATOM     25  C   UNL     1     145.190   9.624  83.223  1.00  0.00    -0.006 C 
ATOM     26  C   UNL     1     143.080   8.145  83.094  1.00  0.00     0.033 C 
ATOM     27  C   UNL     1     143.688   9.523  82.803  1.00  0.00     0.120 C 
ATOM     28  C   UNL     1     145.636  11.114  83.087  1.00  0.00     0.014 C 
ATOM     29  C   UNL     1     146.100   8.835  82.224  1.00  0.00     0.014 C 
ENDROOT
BRANCH   1  30
ATOM     30  C   UNL     1     144.346   6.704  92.515  1.00  0.00     0.048 C 
ATOM     31  O   UNL     1     143.667   5.954  91.764  1.00  0.00    -0.550 OA
ATOM     32  O   UNL     1     143.880   6.960  93.800  1.00  0.00    -0.550 OA
ENDBRANCH   1  30
BRANCH  27  33
ATOM     33  O   UNL     1     143.536   9.795  81.430  1.00  0.00    -0.393 OA
ATOM     34  H   UNL     1     142.768   9.256  81.104  1.00  0.00     0.210 HD
ENDBRANCH  27  33
TORSDOF 2
ENDMDL
