MODEL 1
REMARK VINA RESULT:    -5.338      0.000      0.000
REMARK INTER + INTRA:         -18.507
REMARK INTER:                 -13.452
REMARK INTRA:                  -5.055
REMARK UNBOUND:                -5.055
REMARK SMILES CCCCCCCCCCCCCCCCCCCCCCCCCCCC(=O)[O-]
REMARK SMILES IDX 15 1 16 2 17 3 18 4 19 5 20 6 21 7 22 8 23 9 24 10 25 11
REMARK SMILES IDX 26 12 27 13 28 14 29 15 30 16 14 17 13 18 12 19 11 20 10 21
REMARK SMILES IDX 9 22 8 23 7 24 6 25 5 26 4 27 3 28 2 29 1 30
REMARK H PARENT
REMARK Flexibility Score: inf
ROOT
ATOM      1  C   UNL     1      16.484  12.613  35.801  1.00  0.00     0.000 C 
ENDROOT
BRANCH   1   2
ATOM      2  C   UNL     1      17.051  13.719  34.897  1.00  0.00     0.000 C 
BRANCH   2   3
ATOM      3  C   UNL     1      18.316  14.376  35.476  1.00  0.00     0.000 C 
BRANCH   3   4
ATOM      4  C   UNL     1      18.674  13.888  36.896  1.00  0.00     0.000 C 
BRANCH   4   5
ATOM      5  C   UNL     1      19.984  13.081  36.915  1.00  0.00     0.000 C 
BRANCH   5   6
ATOM      6  C   UNL     1      19.765  11.603  37.298  1.00  0.00     0.000 C 
BRANCH   6   7
ATOM      7  C   UNL     1      19.959  10.622  36.130  1.00  0.00     0.000 C 
BRANCH   7   8
ATOM      8  C   UNL     1      20.603  11.277  34.896  1.00  0.00     0.000 C 
BRANCH   8   9
ATOM      9  C   UNL     1      19.725  11.140  33.635  1.00  0.00     0.000 C 
BRANCH   9  10
ATOM     10  C   UNL     1      19.788  12.357  32.690  1.00  0.00     0.000 C 
BRANCH  10  11
ATOM     11  C   UNL     1      20.887  13.379  33.045  1.00  0.00     0.000 C 
BRANCH  11  12
ATOM     12  C   UNL     1      20.711  14.714  32.301  1.00  0.00     0.006 C 
BRANCH  12  13
ATOM     13  C   UNL     1      21.045  15.920  33.188  1.00  0.00     0.053 C 
BRANCH  13  14
ATOM     14  C   UNL     1      20.044  17.023  33.022  1.00  0.00     0.041 C 
ATOM     15  O   UNL     1      19.818  17.821  33.969  1.00  0.00    -0.550 OA
ATOM     16  O   UNL     1      19.390  17.194  31.809  1.00  0.00    -0.550 OA
ENDBRANCH  13  14
ENDBRANCH  12  13
ENDBRANCH  11  12
ENDBRANCH  10  11
ENDBRANCH   9  10
ENDBRANCH   8   9
ENDBRANCH   7   8
ENDBRANCH   6   7
ENDBRANCH   5   6
ENDBRANCH   4   5
ENDBRANCH   3   4
ENDBRANCH   2   3
ENDBRANCH   1   2
BRANCH   1  17
ATOM     17  C   UNL     1      16.428  11.248  35.096  1.00  0.00     0.000 C 
BRANCH  17  18
ATOM     18  C   UNL     1      15.995  11.365  33.627  1.00  0.00     0.000 C 
BRANCH  18  19
ATOM     19  C   UNL     1      14.750  10.508  33.349  1.00  0.00     0.000 C 
BRANCH  19  20
ATOM     20  C   UNL     1      13.575  11.334  32.783  1.00  0.00     0.000 C 
BRANCH  20  21
ATOM     21  C   UNL     1      13.627  12.830  33.146  1.00  0.00     0.000 C 
BRANCH  21  22
ATOM     22  C   UNL     1      12.559  13.301  34.151  1.00  0.00    -0.000 C 
BRANCH  22  23
ATOM     23  C   UNL     1      13.103  14.090  35.356  1.00  0.00    -0.000 C 
BRANCH  23  24
ATOM     24  C   UNL     1      13.149  13.254  36.647  1.00  0.00    -0.000 C 
BRANCH  24  25
ATOM     25  C   UNL     1      12.902  11.757  36.393  1.00  0.00    -0.000 C 
BRANCH  25  26
ATOM     26  C   UNL     1      13.144  10.842  37.612  1.00  0.00    -0.000 C 
BRANCH  26  27
ATOM     27  C   UNL     1      12.130  11.007  38.763  1.00  0.00    -0.000 C 
BRANCH  27  28
ATOM     28  C   UNL     1      10.751  10.364  38.514  1.00  0.00    -0.000 C 
BRANCH  28  29
ATOM     29  C   UNL     1       9.562  11.338  38.580  1.00  0.00    -0.003 C 
ATOM     30  C   UNL     1       9.956  12.782  38.268  1.00  0.00     0.004 C 
ENDBRANCH  28  29
ENDBRANCH  27  28
ENDBRANCH  26  27
ENDBRANCH  25  26
ENDBRANCH  24  25
ENDBRANCH  23  24
ENDBRANCH  22  23
ENDBRANCH  21  22
ENDBRANCH  20  21
ENDBRANCH  19  20
ENDBRANCH  18  19
ENDBRANCH  17  18
ENDBRANCH   1  17
TORSDOF 26
ENDMDL
MODEL 2
REMARK VINA RESULT:    -5.061      3.308      7.953
REMARK INTER + INTRA:         -17.809
REMARK INTER:                 -13.095
REMARK INTRA:                  -4.714
REMARK UNBOUND:                -5.055
REMARK SMILES CCCCCCCCCCCCCCCCCCCCCCCCCCCC(=O)[O-]
REMARK SMILES IDX 15 1 16 2 17 3 18 4 19 5 20 6 21 7 22 8 23 9 24 10 25 11
REMARK SMILES IDX 26 12 27 13 28 14 29 15 30 16 14 17 13 18 12 19 11 20 10 21
REMARK SMILES IDX 9 22 8 23 7 24 6 25 5 26 4 27 3 28 2 29 1 30
REMARK H PARENT
REMARK Flexibility Score: inf
ROOT
ATOM      1  C   UNL     1      17.080  13.293  35.373  1.00  0.00     0.000 C 
ENDROOT
BRANCH   1   2
ATOM      2  C   UNL     1      16.085  12.633  36.342  1.00  0.00     0.000 C 
BRANCH   2   3
ATOM      3  C   UNL     1      16.399  11.150  36.604  1.00  0.00     0.000 C 
BRANCH   3   4
ATOM      4  C   UNL     1      15.176  10.330  37.066  1.00  0.00     0.000 C 
BRANCH   4   5
ATOM      5  C   UNL     1      14.161  10.118  35.928  1.00  0.00     0.000 C 
BRANCH   5   6
ATOM      6  C   UNL     1      14.833  10.019  34.544  1.00  0.00     0.000 C 
BRANCH   6   7
ATOM      7  C   UNL     1      13.844  10.062  33.367  1.00  0.00     0.000 C 
BRANCH   7   8
ATOM      8  C   UNL     1      13.874  11.396  32.604  1.00  0.00     0.000 C 
BRANCH   8   9
ATOM      9  C   UNL     1      12.964  12.461  33.250  1.00  0.00     0.000 C 
BRANCH   9  10
ATOM     10  C   UNL     1      13.711  13.463  34.154  1.00  0.00     0.000 C 
BRANCH  10  11
ATOM     11  C   UNL     1      12.806  14.212  35.153  1.00  0.00     0.000 C 
BRANCH  11  12
ATOM     12  C   UNL     1      11.904  13.259  35.957  1.00  0.00     0.006 C 
BRANCH  12  13
ATOM     13  C   UNL     1      12.578  12.773  37.246  1.00  0.00     0.053 C 
BRANCH  13  14
ATOM     14  C   UNL     1      11.605  12.087  38.155  1.00  0.00     0.041 C 
ATOM     15  O   UNL     1      11.973  11.104  38.851  1.00  0.00    -0.550 OA
ATOM     16  O   UNL     1      10.303  12.557  38.266  1.00  0.00    -0.550 OA
ENDBRANCH  13  14
ENDBRANCH  12  13
ENDBRANCH  11  12
ENDBRANCH  10  11
ENDBRANCH   9  10
ENDBRANCH   8   9
ENDBRANCH   7   8
ENDBRANCH   6   7
ENDBRANCH   5   6
ENDBRANCH   4   5
ENDBRANCH   3   4
ENDBRANCH   2   3
ENDBRANCH   1   2
BRANCH   1  17
ATOM     17  C   UNL     1      18.104  12.294  34.811  1.00  0.00     0.000 C 
BRANCH  17  18
ATOM     18  C   UNL     1      17.795  11.891  33.361  1.00  0.00     0.000 C 
BRANCH  18  19
ATOM     19  C   UNL     1      19.078  11.492  32.615  1.00  0.00     0.000 C 
BRANCH  19  20
ATOM     20  C   UNL     1      20.344  11.652  33.483  1.00  0.00     0.000 C 
BRANCH  20  21
ATOM     21  C   UNL     1      21.387  12.624  32.899  1.00  0.00     0.000 C 
BRANCH  21  22
ATOM     22  C   UNL     1      20.825  13.704  31.956  1.00  0.00    -0.000 C 
BRANCH  22  23
ATOM     23  C   UNL     1      20.990  15.152  32.453  1.00  0.00    -0.000 C 
BRANCH  23  24
ATOM     24  C   UNL     1      19.771  15.657  33.243  1.00  0.00    -0.000 C 
BRANCH  24  25
ATOM     25  C   UNL     1      19.959  15.540  34.765  1.00  0.00    -0.000 C 
BRANCH  25  26
ATOM     26  C   UNL     1      21.427  15.534  35.240  1.00  0.00    -0.000 C 
BRANCH  26  27
ATOM     27  C   UNL     1      21.668  14.860  36.605  1.00  0.00    -0.000 C 
BRANCH  27  28
ATOM     28  C   UNL     1      20.825  13.596  36.867  1.00  0.00    -0.000 C 
BRANCH  28  29
ATOM     29  C   UNL     1      19.690  13.775  37.890  1.00  0.00    -0.003 C 
ATOM     30  C   UNL     1      19.547  12.585  38.838  1.00  0.00     0.004 C 
ENDBRANCH  28  29
ENDBRANCH  27  28
ENDBRANCH  26  27
ENDBRANCH  25  26
ENDBRANCH  24  25
ENDBRANCH  23  24
ENDBRANCH  22  23
ENDBRANCH  21  22
ENDBRANCH  20  21
ENDBRANCH  19  20
ENDBRANCH  18  19
ENDBRANCH  17  18
ENDBRANCH   1  17
TORSDOF 26
ENDMDL
MODEL 3
REMARK VINA RESULT:    -5.013      3.478      8.859
REMARK INTER + INTRA:         -17.688
REMARK INTER:                 -12.336
REMARK INTRA:                  -5.351
REMARK UNBOUND:                -5.055
REMARK SMILES CCCCCCCCCCCCCCCCCCCCCCCCCCCC(=O)[O-]
REMARK SMILES IDX 15 1 16 2 17 3 18 4 19 5 20 6 21 7 22 8 23 9 24 10 25 11
REMARK SMILES IDX 26 12 27 13 28 14 29 15 30 16 14 17 13 18 12 19 11 20 10 21
REMARK SMILES IDX 9 22 8 23 7 24 6 25 5 26 4 27 3 28 2 29 1 30
REMARK H PARENT
REMARK Flexibility Score: inf
ROOT
ATOM      1  C   UNL     1      17.109  14.000  34.697  1.00  0.00     0.000 C 
ENDROOT
BRANCH   1   2
ATOM      2  C   UNL     1      16.923  12.899  35.755  1.00  0.00     0.000 C 
BRANCH   2   3
ATOM      3  C   UNL     1      16.656  11.515  35.138  1.00  0.00     0.000 C 
BRANCH   3   4
ATOM      4  C   UNL     1      16.107  11.575  33.696  1.00  0.00     0.000 C 
BRANCH   4   5
ATOM      5  C   UNL     1      14.958  10.575  33.475  1.00  0.00     0.000 C 
BRANCH   5   6
ATOM      6  C   UNL     1      13.687  11.246  32.914  1.00  0.00     0.000 C 
BRANCH   6   7
ATOM      7  C   UNL     1      13.648  12.770  33.117  1.00  0.00     0.000 C 
BRANCH   7   8
ATOM      8  C   UNL     1      12.644  13.207  34.197  1.00  0.00     0.000 C 
BRANCH   8   9
ATOM      9  C   UNL     1      13.324  13.960  35.358  1.00  0.00     0.000 C 
BRANCH   9  10
ATOM     10  C   UNL     1      13.246  13.229  36.714  1.00  0.00     0.000 C 
BRANCH  10  11
ATOM     11  C   UNL     1      12.929  11.724  36.604  1.00  0.00     0.000 C 
BRANCH  11  12
ATOM     12  C   UNL     1      14.054  10.843  37.177  1.00  0.00     0.006 C 
BRANCH  12  13
ATOM     13  C   UNL     1      13.702   9.351  37.131  1.00  0.00     0.053 C 
BRANCH  13  14
ATOM     14  C   UNL     1      13.872   8.701  38.470  1.00  0.00     0.041 C 
ATOM     15  O   UNL     1      13.735   9.377  39.524  1.00  0.00    -0.550 OA
ATOM     16  O   UNL     1      14.142   7.341  38.557  1.00  0.00    -0.550 OA
ENDBRANCH  13  14
ENDBRANCH  12  13
ENDBRANCH  11  12
ENDBRANCH  10  11
ENDBRANCH   9  10
ENDBRANCH   8   9
ENDBRANCH   7   8
ENDBRANCH   6   7
ENDBRANCH   5   6
ENDBRANCH   4   5
ENDBRANCH   3   4
ENDBRANCH   2   3
ENDBRANCH   1   2
BRANCH   1  17
ATOM     17  C   UNL     1      18.348  14.869  34.965  1.00  0.00     0.000 C 
BRANCH  17  18
ATOM     18  C   UNL     1      18.660  15.820  33.800  1.00  0.00     0.000 C 
BRANCH  18  19
ATOM     19  C   UNL     1      19.825  16.759  34.152  1.00  0.00     0.000 C 
BRANCH  19  20
ATOM     20  C   UNL     1      20.871  16.089  35.068  1.00  0.00     0.000 C 
BRANCH  20  21
ATOM     21  C   UNL     1      22.264  15.941  34.426  1.00  0.00     0.000 C 
BRANCH  21  22
ATOM     22  C   UNL     1      22.267  15.452  32.967  1.00  0.00    -0.000 C 
BRANCH  22  23
ATOM     23  C   UNL     1      23.042  14.144  32.720  1.00  0.00    -0.000 C 
BRANCH  23  24
ATOM     24  C   UNL     1      22.139  12.997  32.232  1.00  0.00    -0.000 C 
BRANCH  24  25
ATOM     25  C   UNL     1      20.663  13.199  32.615  1.00  0.00    -0.000 C 
BRANCH  25  26
ATOM     26  C   UNL     1      19.907  11.909  32.994  1.00  0.00    -0.000 C 
BRANCH  26  27
ATOM     27  C   UNL     1      20.218  11.360  34.401  1.00  0.00    -0.000 C 
BRANCH  27  28
ATOM     28  C   UNL     1      20.776  12.397  35.397  1.00  0.00    -0.000 C 
BRANCH  28  29
ATOM     29  C   UNL     1      22.002  11.927  36.201  1.00  0.00    -0.003 C 
ATOM     30  C   UNL     1      23.083  13.001  36.321  1.00  0.00     0.004 C 
ENDBRANCH  28  29
ENDBRANCH  27  28
ENDBRANCH  26  27
ENDBRANCH  25  26
ENDBRANCH  24  25
ENDBRANCH  23  24
ENDBRANCH  22  23
ENDBRANCH  21  22
ENDBRANCH  20  21
ENDBRANCH  19  20
ENDBRANCH  18  19
ENDBRANCH  17  18
ENDBRANCH   1  17
TORSDOF 26
ENDMDL
MODEL 4
REMARK VINA RESULT:    -5.001      3.352      9.033
REMARK INTER + INTRA:         -17.656
REMARK INTER:                 -13.026
REMARK INTRA:                  -4.630
REMARK UNBOUND:                -5.055
REMARK SMILES CCCCCCCCCCCCCCCCCCCCCCCCCCCC(=O)[O-]
REMARK SMILES IDX 15 1 16 2 17 3 18 4 19 5 20 6 21 7 22 8 23 9 24 10 25 11
REMARK SMILES IDX 26 12 27 13 28 14 29 15 30 16 14 17 13 18 12 19 11 20 10 21
REMARK SMILES IDX 9 22 8 23 7 24 6 25 5 26 4 27 3 28 2 29 1 30
REMARK H PARENT
REMARK Flexibility Score: inf
ROOT
ATOM      1  C   UNL     1      17.187  13.345  35.974  1.00  0.00     0.000 C 
ENDROOT
BRANCH   1   2
ATOM      2  C   UNL     1      16.962  13.366  34.453  1.00  0.00     0.000 C 
BRANCH   2   3
ATOM      3  C   UNL     1      17.191  11.994  33.796  1.00  0.00     0.000 C 
BRANCH   3   4
ATOM      4  C   UNL     1      15.987  11.493  32.970  1.00  0.00     0.000 C 
BRANCH   4   5
ATOM      5  C   UNL     1      14.973  10.724  33.837  1.00  0.00     0.000 C 
BRANCH   5   6
ATOM      6  C   UNL     1      13.516  11.152  33.566  1.00  0.00     0.000 C 
BRANCH   6   7
ATOM      7  C   UNL     1      13.352  12.654  33.281  1.00  0.00     0.000 C 
BRANCH   7   8
ATOM      8  C   UNL     1      12.532  13.384  34.358  1.00  0.00     0.000 C 
BRANCH   8   9
ATOM      9  C   UNL     1      13.420  13.972  35.473  1.00  0.00     0.000 C 
BRANCH   9  10
ATOM     10  C   UNL     1      13.576  13.054  36.703  1.00  0.00     0.000 C 
BRANCH  10  11
ATOM     11  C   UNL     1      12.278  12.338  37.128  1.00  0.00     0.000 C 
BRANCH  11  12
ATOM     12  C   UNL     1      12.356  10.814  36.931  1.00  0.00     0.006 C 
BRANCH  12  13
ATOM     13  C   UNL     1      13.754  10.261  37.236  1.00  0.00     0.053 C 
BRANCH  13  14
ATOM     14  C   UNL     1      13.755   9.412  38.471  1.00  0.00     0.041 C 
ATOM     15  O   UNL     1      14.122   8.208  38.411  1.00  0.00    -0.550 OA
ATOM     16  O   UNL     1      13.392   9.959  39.694  1.00  0.00    -0.550 OA
ENDBRANCH  13  14
ENDBRANCH  12  13
ENDBRANCH  11  12
ENDBRANCH  10  11
ENDBRANCH   9  10
ENDBRANCH   8   9
ENDBRANCH   7   8
ENDBRANCH   6   7
ENDBRANCH   5   6
ENDBRANCH   4   5
ENDBRANCH   3   4
ENDBRANCH   2   3
ENDBRANCH   1   2
BRANCH   1  17
ATOM     17  C   UNL     1      18.448  14.119  36.392  1.00  0.00     0.000 C 
BRANCH  17  18
ATOM     18  C   UNL     1      19.623  13.188  36.726  1.00  0.00     0.000 C 
BRANCH  18  19
ATOM     19  C   UNL     1      20.699  13.244  35.631  1.00  0.00     0.000 C 
BRANCH  19  20
ATOM     20  C   UNL     1      20.912  11.881  34.937  1.00  0.00     0.000 C 
BRANCH  20  21
ATOM     21  C   UNL     1      20.924  11.956  33.399  1.00  0.00     0.000 C 
BRANCH  21  22
ATOM     22  C   UNL     1      20.297  13.226  32.797  1.00  0.00    -0.000 C 
BRANCH  22  23
ATOM     23  C   UNL     1      21.251  14.081  31.941  1.00  0.00    -0.000 C 
BRANCH  23  24
ATOM     24  C   UNL     1      22.720  13.641  32.063  1.00  0.00    -0.000 C 
BRANCH  24  25
ATOM     25  C   UNL     1      23.579  14.650  32.844  1.00  0.00    -0.000 C 
BRANCH  25  26
ATOM     26  C   UNL     1      22.843  15.390  33.980  1.00  0.00    -0.000 C 
BRANCH  26  27
ATOM     27  C   UNL     1      22.670  16.907  33.767  1.00  0.00    -0.000 C 
BRANCH  27  28
ATOM     28  C   UNL     1      21.340  17.491  34.285  1.00  0.00    -0.000 C 
BRANCH  28  29
ATOM     29  C   UNL     1      20.160  17.383  33.305  1.00  0.00    -0.003 C 
ATOM     30  C   UNL     1      19.045  16.468  33.811  1.00  0.00     0.004 C 
ENDBRANCH  28  29
ENDBRANCH  27  28
ENDBRANCH  26  27
ENDBRANCH  25  26
ENDBRANCH  24  25
ENDBRANCH  23  24
ENDBRANCH  22  23
ENDBRANCH  21  22
ENDBRANCH  20  21
ENDBRANCH  19  20
ENDBRANCH  18  19
ENDBRANCH  17  18
ENDBRANCH   1  17
TORSDOF 26
ENDMDL
MODEL 5
REMARK VINA RESULT:    -4.997      1.230      4.036
REMARK INTER + INTRA:         -17.648
REMARK INTER:                 -12.537
REMARK INTRA:                  -5.111
REMARK UNBOUND:                -5.055
REMARK SMILES CCCCCCCCCCCCCCCCCCCCCCCCCCCC(=O)[O-]
REMARK SMILES IDX 15 1 16 2 17 3 18 4 19 5 20 6 21 7 22 8 23 9 24 10 25 11
REMARK SMILES IDX 26 12 27 13 28 14 29 15 30 16 14 17 13 18 12 19 11 20 10 21
REMARK SMILES IDX 9 22 8 23 7 24 6 25 5 26 4 27 3 28 2 29 1 30
REMARK H PARENT
REMARK Flexibility Score: inf
ROOT
ATOM      1  C   UNL     1      21.259  12.550  36.559  1.00  0.00     0.000 C 
ENDROOT
BRANCH   1   2
ATOM      2  C   UNL     1      20.625  11.208  36.962  1.00  0.00     0.000 C 
BRANCH   2   3
ATOM      3  C   UNL     1      20.321  10.303  35.756  1.00  0.00     0.000 C 
BRANCH   3   4
ATOM      4  C   UNL     1      20.752  10.908  34.403  1.00  0.00     0.000 C 
BRANCH   4   5
ATOM      5  C   UNL     1      19.612  10.879  33.368  1.00  0.00     0.000 C 
BRANCH   5   6
ATOM      6  C   UNL     1      19.490  12.200  32.582  1.00  0.00     0.000 C 
BRANCH   6   7
ATOM      7  C   UNL     1      20.509  13.272  33.006  1.00  0.00     0.000 C 
BRANCH   7   8
ATOM      8  C   UNL     1      21.389  13.758  31.842  1.00  0.00     0.000 C 
BRANCH   8   9
ATOM      9  C   UNL     1      22.813  14.131  32.302  1.00  0.00     0.000 C 
BRANCH   9  10
ATOM     10  C   UNL     1      22.871  14.805  33.688  1.00  0.00     0.000 C 
BRANCH  10  11
ATOM     11  C   UNL     1      23.518  16.205  33.685  1.00  0.00     0.000 C 
BRANCH  11  12
ATOM     12  C   UNL     1      22.478  17.334  33.799  1.00  0.00     0.006 C 
BRANCH  12  13
ATOM     13  C   UNL     1      21.117  16.820  34.286  1.00  0.00     0.053 C 
BRANCH  13  14
ATOM     14  C   UNL     1      20.002  17.285  33.400  1.00  0.00     0.041 C 
ATOM     15  O   UNL     1      19.804  16.729  32.287  1.00  0.00    -0.550 OA
ATOM     16  O   UNL     1      19.156  18.304  33.819  1.00  0.00    -0.550 OA
ENDBRANCH  13  14
ENDBRANCH  12  13
ENDBRANCH  11  12
ENDBRANCH  10  11
ENDBRANCH   9  10
ENDBRANCH   8   9
ENDBRANCH   7   8
ENDBRANCH   6   7
ENDBRANCH   5   6
ENDBRANCH   4   5
ENDBRANCH   3   4
ENDBRANCH   2   3
ENDBRANCH   1   2
BRANCH   1  17
ATOM     17  C   UNL     1      20.255  13.713  36.607  1.00  0.00     0.000 C 
BRANCH  17  18
ATOM     18  C   UNL     1      19.030  13.394  37.478  1.00  0.00     0.000 C 
BRANCH  18  19
ATOM     19  C   UNL     1      17.725  13.724  36.736  1.00  0.00     0.000 C 
BRANCH  19  20
ATOM     20  C   UNL     1      17.414  12.718  35.607  1.00  0.00     0.000 C 
BRANCH  20  21
ATOM     21  C   UNL     1      16.733  11.424  36.089  1.00  0.00     0.000 C 
BRANCH  21  22
ATOM     22  C   UNL     1      15.835  10.727  35.051  1.00  0.00    -0.000 C 
BRANCH  22  23
ATOM     23  C   UNL     1      15.545  11.550  33.782  1.00  0.00    -0.000 C 
BRANCH  23  24
ATOM     24  C   UNL     1      14.050  11.590  33.424  1.00  0.00    -0.000 C 
BRANCH  24  25
ATOM     25  C   UNL     1      13.450  13.002  33.535  1.00  0.00    -0.000 C 
BRANCH  25  26
ATOM     26  C   UNL     1      13.800  13.757  34.834  1.00  0.00    -0.000 C 
BRANCH  26  27
ATOM     27  C   UNL     1      12.811  13.547  35.998  1.00  0.00    -0.000 C 
BRANCH  27  28
ATOM     28  C   UNL     1      13.206  12.443  36.999  1.00  0.00    -0.000 C 
BRANCH  28  29
ATOM     29  C   UNL     1      12.133  11.364  37.229  1.00  0.00    -0.003 C 
ATOM     30  C   UNL     1      12.354  10.112  36.380  1.00  0.00     0.004 C 
ENDBRANCH  28  29
ENDBRANCH  27  28
ENDBRANCH  26  27
ENDBRANCH  25  26
ENDBRANCH  24  25
ENDBRANCH  23  24
ENDBRANCH  22  23
ENDBRANCH  21  22
ENDBRANCH  20  21
ENDBRANCH  19  20
ENDBRANCH  18  19
ENDBRANCH  17  18
ENDBRANCH   1  17
TORSDOF 26
ENDMDL
MODEL 6
REMARK VINA RESULT:    -4.972      1.183      2.346
REMARK INTER + INTRA:         -17.584
REMARK INTER:                 -12.699
REMARK INTRA:                  -4.885
REMARK UNBOUND:                -5.055
REMARK SMILES CCCCCCCCCCCCCCCCCCCCCCCCCCCC(=O)[O-]
REMARK SMILES IDX 15 1 16 2 17 3 18 4 19 5 20 6 21 7 22 8 23 9 24 10 25 11
REMARK SMILES IDX 26 12 27 13 28 14 29 15 30 16 14 17 13 18 12 19 11 20 10 21
REMARK SMILES IDX 9 22 8 23 7 24 6 25 5 26 4 27 3 28 2 29 1 30
REMARK H PARENT
REMARK Flexibility Score: inf
ROOT
ATOM      1  C   UNL     1      17.380  14.120  35.206  1.00  0.00     0.000 C 
ENDROOT
BRANCH   1   2
ATOM      2  C   UNL     1      17.877  13.285  36.397  1.00  0.00     0.000 C 
BRANCH   2   3
ATOM      3  C   UNL     1      19.173  13.836  37.017  1.00  0.00     0.000 C 
BRANCH   3   4
ATOM      4  C   UNL     1      20.378  12.880  36.885  1.00  0.00     0.000 C 
BRANCH   4   5
ATOM      5  C   UNL     1      20.037  11.634  36.048  1.00  0.00     0.000 C 
BRANCH   5   6
ATOM      6  C   UNL     1      20.961  11.472  34.822  1.00  0.00     0.000 C 
BRANCH   6   7
ATOM      7  C   UNL     1      20.214  11.455  33.479  1.00  0.00     0.000 C 
BRANCH   7   8
ATOM      8  C   UNL     1      20.441  12.728  32.648  1.00  0.00     0.000 C 
BRANCH   8   9
ATOM      9  C   UNL     1      21.869  13.287  32.811  1.00  0.00     0.000 C 
BRANCH   9  10
ATOM     10  C   UNL     1      21.921  14.748  33.304  1.00  0.00     0.000 C 
BRANCH  10  11
ATOM     11  C   UNL     1      20.584  15.275  33.863  1.00  0.00     0.000 C 
BRANCH  11  12
ATOM     12  C   UNL     1      19.910  16.287  32.919  1.00  0.00     0.006 C 
BRANCH  12  13
ATOM     13  C   UNL     1      19.695  17.650  33.589  1.00  0.00     0.053 C 
BRANCH  13  14
ATOM     14  C   UNL     1      20.156  18.775  32.714  1.00  0.00     0.041 C 
ATOM     15  O   UNL     1      21.357  19.153  32.749  1.00  0.00    -0.550 OA
ATOM     16  O   UNL     1      19.272  19.380  31.831  1.00  0.00    -0.550 OA
ENDBRANCH  13  14
ENDBRANCH  12  13
ENDBRANCH  11  12
ENDBRANCH  10  11
ENDBRANCH   9  10
ENDBRANCH   8   9
ENDBRANCH   7   8
ENDBRANCH   6   7
ENDBRANCH   5   6
ENDBRANCH   4   5
ENDBRANCH   3   4
ENDBRANCH   2   3
ENDBRANCH   1   2
BRANCH   1  17
ATOM     17  C   UNL     1      17.079  13.259  33.969  1.00  0.00     0.000 C 
BRANCH  17  18
ATOM     18  C   UNL     1      16.644  11.833  34.339  1.00  0.00     0.000 C 
BRANCH  18  19
ATOM     19  C   UNL     1      15.830  11.193  33.203  1.00  0.00     0.000 C 
BRANCH  19  20
ATOM     20  C   UNL     1      14.340  11.018  33.566  1.00  0.00     0.000 C 
BRANCH  20  21
ATOM     21  C   UNL     1      13.415  12.086  32.952  1.00  0.00     0.000 C 
BRANCH  21  22
ATOM     22  C   UNL     1      12.718  13.013  33.965  1.00  0.00    -0.000 C 
BRANCH  22  23
ATOM     23  C   UNL     1      13.658  13.711  34.964  1.00  0.00    -0.000 C 
BRANCH  23  24
ATOM     24  C   UNL     1      13.211  13.541  36.426  1.00  0.00    -0.000 C 
BRANCH  24  25
ATOM     25  C   UNL     1      11.820  12.897  36.550  1.00  0.00    -0.000 C 
BRANCH  25  26
ATOM     26  C   UNL     1      11.511  12.276  37.928  1.00  0.00    -0.000 C 
BRANCH  26  27
ATOM     27  C   UNL     1      11.853  10.778  38.060  1.00  0.00    -0.000 C 
BRANCH  27  28
ATOM     28  C   UNL     1      12.280  10.089  36.749  1.00  0.00    -0.000 C 
BRANCH  28  29
ATOM     29  C   UNL     1      13.659   9.407  36.796  1.00  0.00    -0.003 C 
ATOM     30  C   UNL     1      14.784  10.364  37.188  1.00  0.00     0.004 C 
ENDBRANCH  28  29
ENDBRANCH  27  28
ENDBRANCH  26  27
ENDBRANCH  25  26
ENDBRANCH  24  25
ENDBRANCH  23  24
ENDBRANCH  22  23
ENDBRANCH  21  22
ENDBRANCH  20  21
ENDBRANCH  19  20
ENDBRANCH  18  19
ENDBRANCH  17  18
ENDBRANCH   1  17
TORSDOF 26
ENDMDL
MODEL 7
REMARK VINA RESULT:    -4.882      1.920      4.071
REMARK INTER + INTRA:         -17.358
REMARK INTER:                 -12.572
REMARK INTRA:                  -4.786
REMARK UNBOUND:                -5.055
REMARK SMILES CCCCCCCCCCCCCCCCCCCCCCCCCCCC(=O)[O-]
REMARK SMILES IDX 15 1 16 2 17 3 18 4 19 5 20 6 21 7 22 8 23 9 24 10 25 11
REMARK SMILES IDX 26 12 27 13 28 14 29 15 30 16 14 17 13 18 12 19 11 20 10 21
REMARK SMILES IDX 9 22 8 23 7 24 6 25 5 26 4 27 3 28 2 29 1 30
REMARK H PARENT
REMARK Flexibility Score: inf
ROOT
ATOM      1  C   UNL     1      20.182  14.487  35.902  1.00  0.00     0.000 C 
ENDROOT
BRANCH   1   2
ATOM      2  C   UNL     1      20.606  14.128  37.335  1.00  0.00     0.000 C 
BRANCH   2   3
ATOM      3  C   UNL     1      21.902  13.301  37.387  1.00  0.00     0.000 C 
BRANCH   3   4
ATOM      4  C   UNL     1      22.037  12.287  36.231  1.00  0.00     0.000 C 
BRANCH   4   5
ATOM      5  C   UNL     1      21.404  10.927  36.578  1.00  0.00     0.000 C 
BRANCH   5   6
ATOM      6  C   UNL     1      20.203  10.583  35.673  1.00  0.00     0.000 C 
BRANCH   6   7
ATOM      7  C   UNL     1      20.490  10.747  34.172  1.00  0.00     0.000 C 
BRANCH   7   8
ATOM      8  C   UNL     1      19.381  11.510  33.428  1.00  0.00     0.000 C 
BRANCH   8   9
ATOM      9  C   UNL     1      19.943  12.615  32.511  1.00  0.00     0.000 C 
BRANCH   9  10
ATOM     10  C   UNL     1      21.466  12.826  32.641  1.00  0.00     0.000 C 
BRANCH  10  11
ATOM     11  C   UNL     1      21.949  14.227  32.216  1.00  0.00     0.000 C 
BRANCH  11  12
ATOM     12  C   UNL     1      23.205  14.675  32.985  1.00  0.00     0.006 C 
BRANCH  12  13
ATOM     13  C   UNL     1      23.009  16.031  33.675  1.00  0.00     0.053 C 
BRANCH  13  14
ATOM     14  C   UNL     1      24.297  16.789  33.779  1.00  0.00     0.041 C 
ATOM     15  O   UNL     1      25.359  16.193  34.100  1.00  0.00    -0.550 OA
ATOM     16  O   UNL     1      24.334  18.145  33.482  1.00  0.00    -0.550 OA
ENDBRANCH  13  14
ENDBRANCH  12  13
ENDBRANCH  11  12
ENDBRANCH  10  11
ENDBRANCH   9  10
ENDBRANCH   8   9
ENDBRANCH   7   8
ENDBRANCH   6   7
ENDBRANCH   5   6
ENDBRANCH   4   5
ENDBRANCH   3   4
ENDBRANCH   2   3
ENDBRANCH   1   2
BRANCH   1  17
ATOM     17  C   UNL     1      18.673  14.307  35.672  1.00  0.00     0.000 C 
BRANCH  17  18
ATOM     18  C   UNL     1      18.005  13.484  36.783  1.00  0.00     0.000 C 
BRANCH  18  19
ATOM     19  C   UNL     1      16.618  12.988  36.345  1.00  0.00     0.000 C 
BRANCH  19  20
ATOM     20  C   UNL     1      16.646  11.539  35.813  1.00  0.00     0.000 C 
BRANCH  20  21
ATOM     21  C   UNL     1      16.035  10.505  36.777  1.00  0.00     0.000 C 
BRANCH  21  22
ATOM     22  C   UNL     1      14.504  10.355  36.697  1.00  0.00    -0.000 C 
BRANCH  22  23
ATOM     23  C   UNL     1      13.722  11.048  37.828  1.00  0.00    -0.000 C 
BRANCH  23  24
ATOM     24  C   UNL     1      12.279  11.402  37.428  1.00  0.00    -0.000 C 
BRANCH  24  25
ATOM     25  C   UNL     1      12.185  12.004  36.016  1.00  0.00    -0.000 C 
BRANCH  25  26
ATOM     26  C   UNL     1      12.904  13.357  35.837  1.00  0.00    -0.000 C 
BRANCH  26  27
ATOM     27  C   UNL     1      13.566  13.567  34.460  1.00  0.00    -0.000 C 
BRANCH  27  28
ATOM     28  C   UNL     1      13.229  12.495  33.403  1.00  0.00    -0.000 C 
BRANCH  28  29
ATOM     29  C   UNL     1      14.370  11.511  33.093  1.00  0.00    -0.003 C 
ATOM     30  C   UNL     1      13.952  10.048  33.237  1.00  0.00     0.004 C 
ENDBRANCH  28  29
ENDBRANCH  27  28
ENDBRANCH  26  27
ENDBRANCH  25  26
ENDBRANCH  24  25
ENDBRANCH  23  24
ENDBRANCH  22  23
ENDBRANCH  21  22
ENDBRANCH  20  21
ENDBRANCH  19  20
ENDBRANCH  18  19
ENDBRANCH  17  18
ENDBRANCH   1  17
TORSDOF 26
ENDMDL
MODEL 8
REMARK VINA RESULT:    -4.876      1.297      3.228
REMARK INTER + INTRA:         -17.342
REMARK INTER:                 -12.208
REMARK INTRA:                  -5.133
REMARK UNBOUND:                -5.055
REMARK SMILES CCCCCCCCCCCCCCCCCCCCCCCCCCCC(=O)[O-]
REMARK SMILES IDX 15 1 16 2 17 3 18 4 19 5 20 6 21 7 22 8 23 9 24 10 25 11
REMARK SMILES IDX 26 12 27 13 28 14 29 15 30 16 14 17 13 18 12 19 11 20 10 21
REMARK SMILES IDX 9 22 8 23 7 24 6 25 5 26 4 27 3 28 2 29 1 30
REMARK H PARENT
REMARK Flexibility Score: inf
ROOT
ATOM      1  C   UNL     1      20.212  14.056  37.232  1.00  0.00     0.000 C 
ENDROOT
BRANCH   1   2
ATOM      2  C   UNL     1      20.140  12.999  38.346  1.00  0.00     0.000 C 
BRANCH   2   3
ATOM      3  C   UNL     1      20.981  11.748  38.040  1.00  0.00     0.000 C 
BRANCH   3   4
ATOM      4  C   UNL     1      20.191  10.631  37.324  1.00  0.00     0.000 C 
BRANCH   4   5
ATOM      5  C   UNL     1      21.100   9.756  36.443  1.00  0.00     0.000 C 
BRANCH   5   6
ATOM      6  C   UNL     1      20.814   9.933  34.937  1.00  0.00     0.000 C 
BRANCH   6   7
ATOM      7  C   UNL     1      19.852  11.089  34.619  1.00  0.00     0.000 C 
BRANCH   7   8
ATOM      8  C   UNL     1      19.745  11.385  33.114  1.00  0.00     0.000 C 
BRANCH   8   9
ATOM      9  C   UNL     1      20.224  12.808  32.761  1.00  0.00     0.000 C 
BRANCH   9  10
ATOM     10  C   UNL     1      21.245  13.394  33.758  1.00  0.00     0.000 C 
BRANCH  10  11
ATOM     11  C   UNL     1      21.446  14.918  33.636  1.00  0.00     0.000 C 
BRANCH  11  12
ATOM     12  C   UNL     1      20.363  15.587  32.772  1.00  0.00     0.006 C 
BRANCH  12  13
ATOM     13  C   UNL     1      19.451  16.506  33.595  1.00  0.00     0.053 C 
BRANCH  13  14
ATOM     14  C   UNL     1      19.839  17.946  33.447  1.00  0.00     0.041 C 
ATOM     15  O   UNL     1      19.098  18.852  33.911  1.00  0.00    -0.550 OA
ATOM     16  O   UNL     1      21.038  18.286  32.835  1.00  0.00    -0.550 OA
ENDBRANCH  13  14
ENDBRANCH  12  13
ENDBRANCH  11  12
ENDBRANCH  10  11
ENDBRANCH   9  10
ENDBRANCH   8   9
ENDBRANCH   7   8
ENDBRANCH   6   7
ENDBRANCH   5   6
ENDBRANCH   4   5
ENDBRANCH   3   4
ENDBRANCH   2   3
ENDBRANCH   1   2
BRANCH   1  17
ATOM     17  C   UNL     1      18.896  14.173  36.445  1.00  0.00     0.000 C 
BRANCH  17  18
ATOM     18  C   UNL     1      17.749  13.390  37.103  1.00  0.00     0.000 C 
BRANCH  18  19
ATOM     19  C   UNL     1      16.983  12.559  36.063  1.00  0.00     0.000 C 
BRANCH  19  20
ATOM     20  C   UNL     1      16.861  13.277  34.702  1.00  0.00     0.000 C 
BRANCH  20  21
ATOM     21  C   UNL     1      16.361  12.374  33.558  1.00  0.00     0.000 C 
BRANCH  21  22
ATOM     22  C   UNL     1      15.592  11.116  34.002  1.00  0.00    -0.000 C 
BRANCH  22  23
ATOM     23  C   UNL     1      14.126  11.050  33.535  1.00  0.00    -0.000 C 
BRANCH  23  24
ATOM     24  C   UNL     1      13.556  12.428  33.158  1.00  0.00    -0.000 C 
BRANCH  24  25
ATOM     25  C   UNL     1      12.606  12.991  34.230  1.00  0.00    -0.000 C 
BRANCH  25  26
ATOM     26  C   UNL     1      13.291  13.824  35.333  1.00  0.00    -0.000 C 
BRANCH  26  27
ATOM     27  C   UNL     1      13.070  13.311  36.770  1.00  0.00    -0.000 C 
BRANCH  27  28
ATOM     28  C   UNL     1      13.617  11.896  37.049  1.00  0.00    -0.000 C 
BRANCH  28  29
ATOM     29  C   UNL     1      12.568  10.883  37.539  1.00  0.00    -0.003 C 
ATOM     30  C   UNL     1      11.952  10.065  36.404  1.00  0.00     0.004 C 
ENDBRANCH  28  29
ENDBRANCH  27  28
ENDBRANCH  26  27
ENDBRANCH  25  26
ENDBRANCH  24  25
ENDBRANCH  23  24
ENDBRANCH  22  23
ENDBRANCH  21  22
ENDBRANCH  20  21
ENDBRANCH  19  20
ENDBRANCH  18  19
ENDBRANCH  17  18
ENDBRANCH   1  17
TORSDOF 26
ENDMDL
MODEL 9
REMARK VINA RESULT:    -4.872      3.144      8.300
REMARK INTER + INTRA:         -17.332
REMARK INTER:                 -11.537
REMARK INTRA:                  -5.795
REMARK UNBOUND:                -5.055
REMARK SMILES CCCCCCCCCCCCCCCCCCCCCCCCCCCC(=O)[O-]
REMARK SMILES IDX 15 1 16 2 17 3 18 4 19 5 20 6 21 7 22 8 23 9 24 10 25 11
REMARK SMILES IDX 26 12 27 13 28 14 29 15 30 16 14 17 13 18 12 19 11 20 10 21
REMARK SMILES IDX 9 22 8 23 7 24 6 25 5 26 4 27 3 28 2 29 1 30
REMARK H PARENT
REMARK Flexibility Score: inf
ROOT
ATOM      1  C   UNL     1      18.539  14.487  36.090  1.00  0.00     0.000 C 
ENDROOT
BRANCH   1   2
ATOM      2  C   UNL     1      19.135  13.401  37.000  1.00  0.00     0.000 C 
BRANCH   2   3
ATOM      3  C   UNL     1      18.254  12.143  37.088  1.00  0.00     0.000 C 
BRANCH   3   4
ATOM      4  C   UNL     1      18.995  10.840  36.719  1.00  0.00     0.000 C 
BRANCH   4   5
ATOM      5  C   UNL     1      20.274  11.114  35.908  1.00  0.00     0.000 C 
BRANCH   5   6
ATOM      6  C   UNL     1      20.348  10.276  34.615  1.00  0.00     0.000 C 
BRANCH   6   7
ATOM      7  C   UNL     1      20.253  11.110  33.327  1.00  0.00     0.000 C 
BRANCH   7   8
ATOM      8  C   UNL     1      19.059  12.080  33.326  1.00  0.00     0.000 C 
BRANCH   8   9
ATOM      9  C   UNL     1      17.753  11.400  32.867  1.00  0.00     0.000 C 
BRANCH   9  10
ATOM     10  C   UNL     1      16.535  11.708  33.762  1.00  0.00     0.000 C 
BRANCH  10  11
ATOM     11  C   UNL     1      16.270  13.212  33.975  1.00  0.00     0.000 C 
BRANCH  11  12
ATOM     12  C   UNL     1      14.886  13.485  34.590  1.00  0.00     0.006 C 
BRANCH  12  13
ATOM     13  C   UNL     1      14.806  13.042  36.056  1.00  0.00     0.053 C 
BRANCH  13  14
ATOM     14  C   UNL     1      13.390  12.822  36.492  1.00  0.00     0.041 C 
ATOM     15  O   UNL     1      13.136  12.053  37.457  1.00  0.00    -0.550 OA
ATOM     16  O   UNL     1      12.353  13.496  35.860  1.00  0.00    -0.550 OA
ENDBRANCH  13  14
ENDBRANCH  12  13
ENDBRANCH  11  12
ENDBRANCH  10  11
ENDBRANCH   9  10
ENDBRANCH   8   9
ENDBRANCH   7   8
ENDBRANCH   6   7
ENDBRANCH   5   6
ENDBRANCH   4   5
ENDBRANCH   3   4
ENDBRANCH   2   3
ENDBRANCH   1   2
BRANCH   1  17
ATOM     17  C   UNL     1      19.600  15.156  35.200  1.00  0.00     0.000 C 
BRANCH  17  18
ATOM     18  C   UNL     1      18.997  15.765  33.925  1.00  0.00     0.000 C 
BRANCH  18  19
ATOM     19  C   UNL     1      19.968  16.767  33.281  1.00  0.00     0.000 C 
BRANCH  19  20
ATOM     20  C   UNL     1      21.007  17.315  34.283  1.00  0.00     0.000 C 
BRANCH  20  21
ATOM     21  C   UNL     1      22.392  17.584  33.665  1.00  0.00     0.000 C 
BRANCH  21  22
ATOM     22  C   UNL     1      23.544  17.741  34.675  1.00  0.00    -0.000 C 
BRANCH  22  23
ATOM     23  C   UNL     1      23.141  17.574  36.153  1.00  0.00    -0.000 C 
BRANCH  23  24
ATOM     24  C   UNL     1      23.776  16.336  36.809  1.00  0.00    -0.000 C 
BRANCH  24  25
ATOM     25  C   UNL     1      22.733  15.405  37.453  1.00  0.00    -0.000 C 
BRANCH  25  26
ATOM     26  C   UNL     1      22.657  13.992  36.839  1.00  0.00    -0.000 C 
BRANCH  26  27
ATOM     27  C   UNL     1      23.391  13.824  35.493  1.00  0.00    -0.000 C 
BRANCH  27  28
ATOM     28  C   UNL     1      22.473  13.649  34.267  1.00  0.00    -0.000 C 
BRANCH  28  29
ATOM     29  C   UNL     1      23.058  14.168  32.942  1.00  0.00    -0.003 C 
ATOM     30  C   UNL     1      22.083  14.046  31.771  1.00  0.00     0.004 C 
ENDBRANCH  28  29
ENDBRANCH  27  28
ENDBRANCH  26  27
ENDBRANCH  25  26
ENDBRANCH  24  25
ENDBRANCH  23  24
ENDBRANCH  22  23
ENDBRANCH  21  22
ENDBRANCH  20  21
ENDBRANCH  19  20
ENDBRANCH  18  19
ENDBRANCH  17  18
ENDBRANCH   1  17
TORSDOF 26
ENDMDL
