MODEL 1
REMARK VINA RESULT:    -1.656      0.000      0.000
REMARK INTER + INTRA:          -4.453
REMARK INTER:                  -3.592
REMARK INTRA:                  -0.861
REMARK UNBOUND:                -0.861
REMARK SMILES CCCCCCCCCCCCCCCCCCCCCC(=O)[O-]
REMARK SMILES IDX 12 1 11 2 10 3 9 4 8 5 7 6 6 7 5 8 4 9 3 10 2 11 1 12 13 13
REMARK SMILES IDX 14 14 15 15 16 16 17 17 18 18 19 19 20 20 21 21 22 22 23 23
REMARK SMILES IDX 24 24
REMARK H PARENT
REMARK Flexibility Score: inf
ROOT
ATOM      1  C   UNL     1     -13.889 -22.871  13.759  1.00  0.00     0.000 C 
ENDROOT
BRANCH   1   2
ATOM      2  C   UNL     1     -14.227 -22.843  15.259  1.00  0.00     0.000 C 
BRANCH   2   3
ATOM      3  C   UNL     1     -14.459 -21.418  15.791  1.00  0.00     0.000 C 
BRANCH   3   4
ATOM      4  C   UNL     1     -13.388 -20.383  15.389  1.00  0.00    -0.000 C 
BRANCH   4   5
ATOM      5  C   UNL     1     -12.039 -20.512  16.120  1.00  0.00    -0.000 C 
BRANCH   5   6
ATOM      6  C   UNL     1     -11.032 -21.393  15.363  1.00  0.00    -0.000 C 
BRANCH   6   7
ATOM      7  C   UNL     1      -9.613 -20.794  15.335  1.00  0.00    -0.000 C 
BRANCH   7   8
ATOM      8  C   UNL     1      -9.548 -19.259  15.230  1.00  0.00    -0.000 C 
BRANCH   8   9
ATOM      9  C   UNL     1     -10.095 -18.724  13.898  1.00  0.00    -0.000 C 
BRANCH   9  10
ATOM     10  C   UNL     1      -9.861 -17.210  13.777  1.00  0.00    -0.000 C 
BRANCH  10  11
ATOM     11  C   UNL     1     -11.055 -16.386  14.283  1.00  0.00    -0.003 C 
ATOM     12  C   UNL     1     -11.521 -16.811  15.675  1.00  0.00     0.004 C 
ENDBRANCH  10  11
ENDBRANCH   9  10
ENDBRANCH   8   9
ENDBRANCH   7   8
ENDBRANCH   6   7
ENDBRANCH   5   6
ENDBRANCH   4   5
ENDBRANCH   3   4
ENDBRANCH   2   3
ENDBRANCH   1   2
BRANCH   1  13
ATOM     13  C   UNL     1     -12.384 -23.057  13.500  1.00  0.00     0.000 C 
BRANCH  13  14
ATOM     14  C   UNL     1     -11.962 -22.562  12.106  1.00  0.00     0.000 C 
BRANCH  14  15
ATOM     15  C   UNL     1     -10.593 -23.112  11.674  1.00  0.00     0.000 C 
BRANCH  15  16
ATOM     16  C   UNL     1      -9.449 -22.647  12.592  1.00  0.00     0.000 C 
BRANCH  16  17
ATOM     17  C   UNL     1      -8.131 -22.414  11.822  1.00  0.00     0.000 C 
BRANCH  17  18
ATOM     18  C   UNL     1      -7.956 -20.970  11.313  1.00  0.00     0.000 C 
BRANCH  18  19
ATOM     19  C   UNL     1      -8.735 -20.634  10.027  1.00  0.00     0.000 C 
BRANCH  19  20
ATOM     20  C   UNL     1      -8.114 -19.519   9.159  1.00  0.00     0.006 C 
BRANCH  20  21
ATOM     21  C   UNL     1      -8.885 -18.191   9.180  1.00  0.00     0.053 C 
BRANCH  21  22
ATOM     22  C   UNL     1      -8.248 -17.184  10.088  1.00  0.00     0.041 C 
ATOM     23  O   UNL     1      -7.973 -16.032   9.662  1.00  0.00    -0.550 OA
ATOM     24  O   UNL     1      -7.927 -17.530  11.395  1.00  0.00    -0.550 OA
ENDBRANCH  21  22
ENDBRANCH  20  21
ENDBRANCH  19  20
ENDBRANCH  18  19
ENDBRANCH  17  18
ENDBRANCH  16  17
ENDBRANCH  15  16
ENDBRANCH  14  15
ENDBRANCH  13  14
ENDBRANCH   1  13
TORSDOF 20
ENDMDL
MODEL 2
REMARK VINA RESULT:    -1.486      2.920      5.650
REMARK INTER + INTRA:          -4.083
REMARK INTER:                  -2.788
REMARK INTRA:                  -1.296
REMARK UNBOUND:                -0.861
REMARK SMILES CCCCCCCCCCCCCCCCCCCCCC(=O)[O-]
REMARK SMILES IDX 12 1 11 2 10 3 9 4 8 5 7 6 6 7 5 8 4 9 3 10 2 11 1 12 13 13
REMARK SMILES IDX 14 14 15 15 16 16 17 17 18 18 19 19 20 20 21 21 22 22 23 23
REMARK SMILES IDX 24 24
REMARK H PARENT
REMARK Flexibility Score: inf
ROOT
ATOM      1  C   UNL     1      -9.292 -18.999  11.421  1.00  0.00     0.000 C 
ENDROOT
BRANCH   1   2
ATOM      2  C   UNL     1      -9.911 -17.904  10.535  1.00  0.00     0.000 C 
BRANCH   2   3
ATOM      3  C   UNL     1     -10.483 -16.731  11.350  1.00  0.00     0.000 C 
BRANCH   3   4
ATOM      4  C   UNL     1      -9.978 -16.632  12.805  1.00  0.00    -0.000 C 
BRANCH   4   5
ATOM      5  C   UNL     1      -8.465 -16.848  12.994  1.00  0.00    -0.000 C 
BRANCH   5   6
ATOM      6  C   UNL     1      -8.079 -17.111  14.459  1.00  0.00    -0.000 C 
BRANCH   6   7
ATOM      7  C   UNL     1      -8.034 -18.610  14.808  1.00  0.00    -0.000 C 
BRANCH   7   8
ATOM      8  C   UNL     1      -9.391 -19.337  14.765  1.00  0.00    -0.000 C 
BRANCH   8   9
ATOM      9  C   UNL     1     -10.107 -19.353  16.123  1.00  0.00    -0.000 C 
BRANCH   9  10
ATOM     10  C   UNL     1     -11.584 -18.956  15.970  1.00  0.00    -0.000 C 
BRANCH  10  11
ATOM     11  C   UNL     1     -11.772 -17.713  15.086  1.00  0.00    -0.003 C 
ATOM     12  C   UNL     1     -11.561 -16.406  15.849  1.00  0.00     0.004 C 
ENDBRANCH  10  11
ENDBRANCH   9  10
ENDBRANCH   8   9
ENDBRANCH   7   8
ENDBRANCH   6   7
ENDBRANCH   5   6
ENDBRANCH   4   5
ENDBRANCH   3   4
ENDBRANCH   2   3
ENDBRANCH   1   2
BRANCH   1  13
ATOM     13  C   UNL     1      -8.037 -19.625  10.790  1.00  0.00     0.000 C 
BRANCH  13  14
ATOM     14  C   UNL     1      -7.893 -21.119  11.128  1.00  0.00     0.000 C 
BRANCH  14  15
ATOM     15  C   UNL     1      -9.171 -21.710  11.745  1.00  0.00     0.000 C 
BRANCH  15  16
ATOM     16  C   UNL     1      -8.957 -23.124  12.315  1.00  0.00     0.000 C 
BRANCH  16  17
ATOM     17  C   UNL     1      -8.158 -23.114  13.636  1.00  0.00     0.000 C 
BRANCH  17  18
ATOM     18  C   UNL     1      -8.747 -22.182  14.712  1.00  0.00     0.000 C 
BRANCH  18  19
ATOM     19  C   UNL     1      -9.240 -22.890  15.988  1.00  0.00     0.000 C 
BRANCH  19  20
ATOM     20  C   UNL     1     -10.765 -23.117  16.062  1.00  0.00     0.006 C 
BRANCH  20  21
ATOM     21  C   UNL     1     -11.480 -23.090  14.703  1.00  0.00     0.053 C 
BRANCH  21  22
ATOM     22  C   UNL     1     -12.839 -22.466  14.794  1.00  0.00     0.041 C 
ATOM     23  O   UNL     1     -13.570 -22.389  13.772  1.00  0.00    -0.550 OA
ATOM     24  O   UNL     1     -13.283 -21.938  16.000  1.00  0.00    -0.550 OA
ENDBRANCH  21  22
ENDBRANCH  20  21
ENDBRANCH  19  20
ENDBRANCH  18  19
ENDBRANCH  17  18
ENDBRANCH  16  17
ENDBRANCH  15  16
ENDBRANCH  14  15
ENDBRANCH  13  14
ENDBRANCH   1  13
TORSDOF 20
ENDMDL
MODEL 3
REMARK VINA RESULT:    -0.473      2.332      6.596
REMARK INTER + INTRA:          -1.886
REMARK INTER:                  -0.175
REMARK INTRA:                  -1.711
REMARK UNBOUND:                -0.861
REMARK SMILES CCCCCCCCCCCCCCCCCCCCCC(=O)[O-]
REMARK SMILES IDX 12 1 11 2 10 3 9 4 8 5 7 6 6 7 5 8 4 9 3 10 2 11 1 12 13 13
REMARK SMILES IDX 14 14 15 15 16 16 17 17 18 18 19 19 20 20 21 21 22 22 23 23
REMARK SMILES IDX 24 24
REMARK H PARENT
REMARK Flexibility Score: inf
ROOT
ATOM      1  C   UNL     1      -8.429 -16.953   9.861  1.00  0.00     0.000 C 
ENDROOT
BRANCH   1   2
ATOM      2  C   UNL     1      -7.875 -18.382   9.730  1.00  0.00     0.000 C 
BRANCH   2   3
ATOM      3  C   UNL     1      -8.065 -19.214  11.011  1.00  0.00     0.000 C 
BRANCH   3   4
ATOM      4  C   UNL     1      -8.020 -20.744  10.814  1.00  0.00    -0.000 C 
BRANCH   4   5
ATOM      5  C   UNL     1      -7.905 -21.572  12.107  1.00  0.00    -0.000 C 
BRANCH   5   6
ATOM      6  C   UNL     1      -8.660 -22.909  12.028  1.00  0.00    -0.000 C 
BRANCH   6   7
ATOM      7  C   UNL     1      -9.625 -23.125  13.208  1.00  0.00    -0.000 C 
BRANCH   7   8
ATOM      8  C   UNL     1     -11.103 -22.805  12.917  1.00  0.00    -0.000 C 
BRANCH   8   9
ATOM      9  C   UNL     1     -11.705 -21.796  13.907  1.00  0.00    -0.000 C 
BRANCH   9  10
ATOM     10  C   UNL     1     -12.488 -22.516  15.016  1.00  0.00    -0.000 C 
BRANCH  10  11
ATOM     11  C   UNL     1     -13.992 -22.608  14.712  1.00  0.00    -0.003 C 
ATOM     12  C   UNL     1     -14.861 -22.350  15.942  1.00  0.00     0.004 C 
ENDBRANCH  10  11
ENDBRANCH   9  10
ENDBRANCH   8   9
ENDBRANCH   7   8
ENDBRANCH   6   7
ENDBRANCH   5   6
ENDBRANCH   4   5
ENDBRANCH   3   4
ENDBRANCH   2   3
ENDBRANCH   1   2
BRANCH   1  13
ATOM     13  C   UNL     1      -9.806 -16.794   9.194  1.00  0.00     0.000 C 
BRANCH  13  14
ATOM     14  C   UNL     1     -10.688 -15.755   9.908  1.00  0.00     0.000 C 
BRANCH  14  15
ATOM     15  C   UNL     1     -10.556 -15.821  11.438  1.00  0.00     0.000 C 
BRANCH  15  16
ATOM     16  C   UNL     1     -10.717 -17.249  11.988  1.00  0.00     0.000 C 
BRANCH  16  17
ATOM     17  C   UNL     1     -10.268 -17.370  13.460  1.00  0.00     0.000 C 
BRANCH  17  18
ATOM     18  C   UNL     1      -8.783 -17.030  13.688  1.00  0.00     0.000 C 
BRANCH  18  19
ATOM     19  C   UNL     1      -8.443 -16.505  15.096  1.00  0.00     0.000 C 
BRANCH  19  20
ATOM     20  C   UNL     1      -8.044 -17.590  16.118  1.00  0.00     0.006 C 
BRANCH  20  21
ATOM     21  C   UNL     1      -7.915 -19.003  15.530  1.00  0.00     0.053 C 
BRANCH  21  22
ATOM     22  C   UNL     1      -9.068 -19.880  15.912  1.00  0.00     0.041 C 
ATOM     23  O   UNL     1      -8.909 -21.124  16.021  1.00  0.00    -0.550 OA
ATOM     24  O   UNL     1     -10.326 -19.326  16.114  1.00  0.00    -0.550 OA
ENDBRANCH  21  22
ENDBRANCH  20  21
ENDBRANCH  19  20
ENDBRANCH  18  19
ENDBRANCH  17  18
ENDBRANCH  16  17
ENDBRANCH  15  16
ENDBRANCH  14  15
ENDBRANCH  13  14
ENDBRANCH   1  13
TORSDOF 20
ENDMDL
MODEL 4
REMARK VINA RESULT:     0.724      2.708      6.057
REMARK INTER + INTRA:           0.710
REMARK INTER:                  -1.810
REMARK INTRA:                   2.521
REMARK UNBOUND:                -0.861
REMARK SMILES CCCCCCCCCCCCCCCCCCCCCC(=O)[O-]
REMARK SMILES IDX 12 1 11 2 10 3 9 4 8 5 7 6 6 7 5 8 4 9 3 10 2 11 1 12 13 13
REMARK SMILES IDX 14 14 15 15 16 16 17 17 18 18 19 19 20 20 21 21 22 22 23 23
REMARK SMILES IDX 24 24
REMARK H PARENT
REMARK Flexibility Score: inf
ROOT
ATOM      1  C   UNL     1      -9.542 -18.647  10.849  1.00  0.00     0.000 C 
ENDROOT
BRANCH   1   2
ATOM      2  C   UNL     1      -9.631 -18.561   9.316  1.00  0.00     0.000 C 
BRANCH   2   3
ATOM      3  C   UNL     1      -9.734 -17.113   8.804  1.00  0.00     0.000 C 
BRANCH   3   4
ATOM      4  C   UNL     1      -9.758 -16.029   9.902  1.00  0.00    -0.000 C 
BRANCH   4   5
ATOM      5  C   UNL     1      -9.683 -16.552  11.348  1.00  0.00    -0.000 C 
BRANCH   5   6
ATOM      6  C   UNL     1     -11.067 -16.704  12.000  1.00  0.00    -0.000 C 
BRANCH   6   7
ATOM      7  C   UNL     1     -10.993 -17.177  13.463  1.00  0.00    -0.000 C 
BRANCH   7   8
ATOM      8  C   UNL     1      -9.571 -17.303  14.043  1.00  0.00    -0.000 C 
BRANCH   8   9
ATOM      9  C   UNL     1      -9.372 -16.484  15.327  1.00  0.00    -0.000 C 
BRANCH   9  10
ATOM     10  C   UNL     1      -8.135 -16.968  16.100  1.00  0.00    -0.000 C 
BRANCH  10  11
ATOM     11  C   UNL     1      -7.977 -18.496  16.063  1.00  0.00    -0.003 C 
ATOM     12  C   UNL     1      -9.317 -19.230  16.054  1.00  0.00     0.004 C 
ENDBRANCH  10  11
ENDBRANCH   9  10
ENDBRANCH   8   9
ENDBRANCH   7   8
ENDBRANCH   6   7
ENDBRANCH   5   6
ENDBRANCH   4   5
ENDBRANCH   3   4
ENDBRANCH   2   3
ENDBRANCH   1   2
BRANCH   1  13
ATOM     13  C   UNL     1      -8.179 -19.172  11.330  1.00  0.00     0.000 C 
BRANCH  13  14
ATOM     14  C   UNL     1      -8.288 -20.542  12.022  1.00  0.00     0.000 C 
BRANCH  14  15
ATOM     15  C   UNL     1      -8.127 -21.713  11.040  1.00  0.00     0.000 C 
BRANCH  15  16
ATOM     16  C   UNL     1      -9.179 -22.817  11.253  1.00  0.00     0.000 C 
BRANCH  16  17
ATOM     17  C   UNL     1      -9.860 -22.724  12.636  1.00  0.00     0.000 C 
BRANCH  17  18
ATOM     18  C   UNL     1     -11.172 -21.918  12.630  1.00  0.00     0.000 C 
BRANCH  18  19
ATOM     19  C   UNL     1     -12.413 -22.691  13.116  1.00  0.00     0.000 C 
BRANCH  19  20
ATOM     20  C   UNL     1     -12.377 -23.120  14.598  1.00  0.00     0.006 C 
BRANCH  20  21
ATOM     21  C   UNL     1     -12.035 -21.991  15.580  1.00  0.00     0.053 C 
BRANCH  21  22
ATOM     22  C   UNL     1     -13.175 -21.036  15.761  1.00  0.00     0.041 C 
ATOM     23  O   UNL     1     -12.956 -19.850  16.122  1.00  0.00    -0.550 OA
ATOM     24  O   UNL     1     -14.481 -21.467  15.564  1.00  0.00    -0.550 OA
ENDBRANCH  21  22
ENDBRANCH  20  21
ENDBRANCH  19  20
ENDBRANCH  18  19
ENDBRANCH  17  18
ENDBRANCH  16  17
ENDBRANCH  15  16
ENDBRANCH  14  15
ENDBRANCH  13  14
ENDBRANCH   1  13
TORSDOF 20
ENDMDL
