MODEL 1
REMARK VINA RESULT:    -6.243      0.000      0.000
REMARK INTER + INTRA:          -7.797
REMARK INTER:                  -7.520
REMARK INTRA:                  -0.277
REMARK UNBOUND:                -0.277
REMARK SMILES O=c1c(O)c(-c2ccc(O)c(O)c2)oc2cc(O)cc(O)c12
REMARK SMILES IDX 5 1 3 2 2 3 1 4 22 5 20 6 19 7 17 8 16 9 15 10 14 11 6 12
REMARK SMILES IDX 7 13 8 14 9 15 13 16 11 17 10 18 12 20 4 22 21 24 18 26
REMARK H PARENT 10 19 12 21 4 23 21 25 18 27
REMARK Flexibility Score: inf
ROOT
ATOM      1  C   UNL     1      28.855  58.140   7.022  1.00  0.00     0.180 A 
ATOM      2  C   UNL     1      30.181  57.706   7.211  1.00  0.00     0.208 A 
ATOM      3  C   UNL     1      31.074  57.762   6.129  1.00  0.00     0.238 A 
ATOM      4  O   UNL     1      32.261  57.366   6.283  1.00  0.00    -0.285 OA
ATOM      5  C   UNL     1      30.634  58.268   4.888  1.00  0.00     0.111 A 
ATOM      6  C   UNL     1      31.472  58.363   3.750  1.00  0.00     0.134 A 
ATOM      7  C   UNL     1      30.961  58.887   2.553  1.00  0.00     0.093 A 
ATOM      8  C   UNL     1      29.635  59.317   2.472  1.00  0.00     0.123 A 
ATOM      9  C   UNL     1      28.803  59.226   3.592  1.00  0.00     0.094 A 
ATOM     10  C   UNL     1      29.293  58.705   4.794  1.00  0.00     0.146 A 
ATOM     11  O   UNL     1      28.480  58.625   5.841  1.00  0.00    -0.452 OA
ENDROOT
BRANCH   1  12
ATOM     12  C   UNL     1      27.849  58.094   8.108  1.00  0.00     0.025 A 
ATOM     13  C   UNL     1      26.841  57.115   8.131  1.00  0.00     0.016 A 
ATOM     14  C   UNL     1      25.888  57.106   9.153  1.00  0.00     0.051 A 
ATOM     15  C   UNL     1      25.919  58.077  10.157  1.00  0.00     0.157 A 
ATOM     16  C   UNL     1      27.865  59.082   9.106  1.00  0.00     0.062 A 
ATOM     17  C   UNL     1      26.909  59.073  10.134  1.00  0.00     0.158 A 
BRANCH  15  18
ATOM     18  O   UNL     1      24.956  58.042  11.165  1.00  0.00    -0.504 OA
ATOM     19  H   UNL     1      25.144  58.378  12.102  1.00  0.00     0.293 HD
ENDBRANCH  15  18
BRANCH  17  20
ATOM     20  O   UNL     1      26.942  60.050  11.128  1.00  0.00    -0.504 OA
ATOM     21  H   UNL     1      27.503  60.888  11.030  1.00  0.00     0.293 HD
ENDBRANCH  17  20
ENDBRANCH   1  12
BRANCH   2  22
ATOM     22  O   UNL     1      30.605  57.255   8.464  1.00  0.00    -0.502 OA
ATOM     23  H   UNL     1      30.555  57.834   9.293  1.00  0.00     0.293 HD
ENDBRANCH   2  22
BRANCH   6  24
ATOM     24  O   UNL     1      32.801  57.941   3.800  1.00  0.00    -0.507 OA
ATOM     25  H   UNL     1      33.555  58.582   4.018  1.00  0.00     0.293 HD
ENDBRANCH   6  24
BRANCH   8  26
ATOM     26  O   UNL     1      29.154  59.834   1.271  1.00  0.00    -0.508 OA
ATOM     27  H   UNL     1      29.588  59.607   0.384  1.00  0.00     0.293 HD
ENDBRANCH   8  26
TORSDOF 6
ENDMDL
MODEL 2
REMARK VINA RESULT:    -6.065      3.802      6.938
REMARK INTER + INTRA:          -7.583
REMARK INTER:                  -7.381
REMARK INTRA:                  -0.202
REMARK UNBOUND:                -0.277
REMARK SMILES O=c1c(O)c(-c2ccc(O)c(O)c2)oc2cc(O)cc(O)c12
REMARK SMILES IDX 5 1 3 2 2 3 1 4 22 5 20 6 19 7 17 8 16 9 15 10 14 11 6 12
REMARK SMILES IDX 7 13 8 14 9 15 13 16 11 17 10 18 12 20 4 22 21 24 18 26
REMARK H PARENT 10 19 12 21 4 23 21 25 18 27
REMARK Flexibility Score: inf
ROOT
ATOM      1  C   UNL     1      29.596  59.407   1.479  1.00  0.00     0.180 A 
ATOM      2  C   UNL     1      28.765  60.543   1.532  1.00  0.00     0.208 A 
ATOM      3  C   UNL     1      28.178  61.010   0.346  1.00  0.00     0.238 A 
ATOM      4  O   UNL     1      27.440  62.032   0.380  1.00  0.00    -0.285 OA
ATOM      5  C   UNL     1      28.413  60.325  -0.865  1.00  0.00     0.111 A 
ATOM      6  C   UNL     1      27.855  60.728  -2.102  1.00  0.00     0.134 A 
ATOM      7  C   UNL     1      28.130  59.988  -3.262  1.00  0.00     0.093 A 
ATOM      8  C   UNL     1      28.947  58.856  -3.208  1.00  0.00     0.123 A 
ATOM      9  C   UNL     1      29.501  58.454  -1.989  1.00  0.00     0.094 A 
ATOM     10  C   UNL     1      29.241  59.180  -0.823  1.00  0.00     0.146 A 
ATOM     11  O   UNL     1      29.783  58.778   0.322  1.00  0.00    -0.452 OA
ENDROOT
BRANCH   1  12
ATOM     12  C   UNL     1      30.267  58.865   2.683  1.00  0.00     0.025 A 
ATOM     13  C   UNL     1      31.664  58.914   2.827  1.00  0.00     0.016 A 
ATOM     14  C   UNL     1      32.277  58.375   3.961  1.00  0.00     0.051 A 
ATOM     15  C   UNL     1      31.509  57.769   4.960  1.00  0.00     0.157 A 
ATOM     16  C   UNL     1      29.499  58.238   3.678  1.00  0.00     0.062 A 
ATOM     17  C   UNL     1      30.113  57.697   4.818  1.00  0.00     0.158 A 
BRANCH  15  18
ATOM     18  O   UNL     1      32.148  57.241   6.080  1.00  0.00    -0.504 OA
ATOM     19  H   UNL     1      31.895  57.513   7.023  1.00  0.00     0.293 HD
ENDBRANCH  15  18
BRANCH  17  20
ATOM     20  O   UNL     1      29.341  57.088   5.806  1.00  0.00    -0.504 OA
ATOM     21  H   UNL     1      29.419  56.098   6.005  1.00  0.00     0.293 HD
ENDBRANCH  17  20
ENDBRANCH   1  12
BRANCH   2  22
ATOM     22  O   UNL     1      28.509  61.174   2.753  1.00  0.00    -0.502 OA
ATOM     23  H   UNL     1      28.286  62.160   2.817  1.00  0.00     0.293 HD
ENDBRANCH   2  22
BRANCH   6  24
ATOM     24  O   UNL     1      27.034  61.853  -2.188  1.00  0.00    -0.507 OA
ATOM     25  H   UNL     1      26.209  61.867  -2.776  1.00  0.00     0.293 HD
ENDBRANCH   6  24
BRANCH   8  26
ATOM     26  O   UNL     1      29.203  58.139  -4.375  1.00  0.00    -0.508 OA
ATOM     27  H   UNL     1      29.390  58.607  -5.254  1.00  0.00     0.293 HD
ENDBRANCH   8  26
TORSDOF 6
ENDMDL
MODEL 3
REMARK VINA RESULT:    -5.949      4.382      6.831
REMARK INTER + INTRA:          -7.444
REMARK INTER:                  -7.142
REMARK INTRA:                  -0.302
REMARK UNBOUND:                -0.277
REMARK SMILES O=c1c(O)c(-c2ccc(O)c(O)c2)oc2cc(O)cc(O)c12
REMARK SMILES IDX 5 1 3 2 2 3 1 4 22 5 20 6 19 7 17 8 16 9 15 10 14 11 6 12
REMARK SMILES IDX 7 13 8 14 9 15 13 16 11 17 10 18 12 20 4 22 21 24 18 26
REMARK H PARENT 10 19 12 21 4 23 21 25 18 27
REMARK Flexibility Score: inf
ROOT
ATOM      1  C   UNL     1      31.256  59.112   3.935  1.00  0.00     0.180 A 
ATOM      2  C   UNL     1      31.532  57.961   4.697  1.00  0.00     0.208 A 
ATOM      3  C   UNL     1      32.152  58.107   5.948  1.00  0.00     0.238 A 
ATOM      4  O   UNL     1      32.414  57.082   6.634  1.00  0.00    -0.285 OA
ATOM      5  C   UNL     1      32.466  59.398   6.424  1.00  0.00     0.111 A 
ATOM      6  C   UNL     1      33.086  59.632   7.674  1.00  0.00     0.134 A 
ATOM      7  C   UNL     1      33.357  60.947   8.080  1.00  0.00     0.093 A 
ATOM      8  C   UNL     1      33.020  62.029   7.263  1.00  0.00     0.123 A 
ATOM      9  C   UNL     1      32.408  61.804   6.027  1.00  0.00     0.094 A 
ATOM     10  C   UNL     1      32.131  60.500   5.603  1.00  0.00     0.146 A 
ATOM     11  O   UNL     1      31.553  60.314   4.422  1.00  0.00    -0.452 OA
ENDROOT
BRANCH   1  12
ATOM     12  C   UNL     1      30.622  59.039   2.598  1.00  0.00     0.025 A 
ATOM     13  C   UNL     1      31.385  59.127   1.421  1.00  0.00     0.016 A 
ATOM     14  C   UNL     1      30.763  59.079   0.171  1.00  0.00     0.051 A 
ATOM     15  C   UNL     1      29.373  58.956   0.077  1.00  0.00     0.157 A 
ATOM     16  C   UNL     1      29.225  58.936   2.501  1.00  0.00     0.062 A 
ATOM     17  C   UNL     1      28.599  58.887   1.247  1.00  0.00     0.158 A 
BRANCH  15  18
ATOM     18  O   UNL     1      28.781  58.910  -1.184  1.00  0.00    -0.504 OA
ATOM     19  H   UNL     1      28.084  59.585  -1.477  1.00  0.00     0.293 HD
ENDBRANCH  15  18
BRANCH  17  20
ATOM     20  O   UNL     1      27.213  58.771   1.161  1.00  0.00    -0.504 OA
ATOM     21  H   UNL     1      26.737  57.907   1.390  1.00  0.00     0.293 HD
ENDBRANCH  17  20
ENDBRANCH   1  12
BRANCH   2  22
ATOM     22  O   UNL     1      31.166  56.697   4.225  1.00  0.00    -0.502 OA
ATOM     23  H   UNL     1      31.831  56.067   3.792  1.00  0.00     0.293 HD
ENDBRANCH   2  22
BRANCH   6  24
ATOM     24  O   UNL     1      33.434  58.573   8.513  1.00  0.00    -0.507 OA
ATOM     25  H   UNL     1      33.890  57.740   8.159  1.00  0.00     0.293 HD
ENDBRANCH   6  24
BRANCH   8  26
ATOM     26  O   UNL     1      33.301  63.325   7.691  1.00  0.00    -0.508 OA
ATOM     27  H   UNL     1      32.893  64.133   7.235  1.00  0.00     0.293 HD
ENDBRANCH   8  26
TORSDOF 6
ENDMDL
MODEL 4
REMARK VINA RESULT:    -5.927      0.601      1.459
REMARK INTER + INTRA:          -7.417
REMARK INTER:                  -7.180
REMARK INTRA:                  -0.237
REMARK UNBOUND:                -0.277
REMARK SMILES O=c1c(O)c(-c2ccc(O)c(O)c2)oc2cc(O)cc(O)c12
REMARK SMILES IDX 5 1 3 2 2 3 1 4 22 5 20 6 19 7 17 8 16 9 15 10 14 11 6 12
REMARK SMILES IDX 7 13 8 14 9 15 13 16 11 17 10 18 12 20 4 22 21 24 18 26
REMARK H PARENT 10 19 12 21 4 23 21 25 18 27
REMARK Flexibility Score: inf
ROOT
ATOM      1  C   UNL     1      28.874  58.231   7.025  1.00  0.00     0.180 A 
ATOM      2  C   UNL     1      30.195  57.787   7.229  1.00  0.00     0.208 A 
ATOM      3  C   UNL     1      31.096  57.824   6.154  1.00  0.00     0.238 A 
ATOM      4  O   UNL     1      32.279  57.419   6.321  1.00  0.00    -0.285 OA
ATOM      5  C   UNL     1      30.671  58.323   4.904  1.00  0.00     0.111 A 
ATOM      6  C   UNL     1      31.518  58.399   3.773  1.00  0.00     0.134 A 
ATOM      7  C   UNL     1      31.022  58.916   2.567  1.00  0.00     0.093 A 
ATOM      8  C   UNL     1      29.701  59.358   2.471  1.00  0.00     0.123 A 
ATOM      9  C   UNL     1      28.859  59.285   3.585  1.00  0.00     0.094 A 
ATOM     10  C   UNL     1      29.334  58.771   4.796  1.00  0.00     0.146 A 
ATOM     11  O   UNL     1      28.513  58.708   5.838  1.00  0.00    -0.452 OA
ENDROOT
BRANCH   1  12
ATOM     12  C   UNL     1      27.860  58.205   8.104  1.00  0.00     0.025 A 
ATOM     13  C   UNL     1      27.921  59.096   9.189  1.00  0.00     0.016 A 
ATOM     14  C   UNL     1      26.967  59.038  10.207  1.00  0.00     0.051 A 
ATOM     15  C   UNL     1      25.947  58.083  10.166  1.00  0.00     0.157 A 
ATOM     16  C   UNL     1      26.846  57.233   8.076  1.00  0.00     0.062 A 
ATOM     17  C   UNL     1      25.887  57.173   9.098  1.00  0.00     0.158 A 
BRANCH  15  18
ATOM     18  O   UNL     1      25.008  58.049  11.196  1.00  0.00    -0.504 OA
ATOM     19  H   UNL     1      24.013  58.130  11.021  1.00  0.00     0.293 HD
ENDBRANCH  15  18
BRANCH  17  20
ATOM     20  O   UNL     1      24.877  56.213   9.053  1.00  0.00    -0.504 OA
ATOM     21  H   UNL     1      24.109  56.219   9.715  1.00  0.00     0.293 HD
ENDBRANCH  17  20
ENDBRANCH   1  12
BRANCH   2  22
ATOM     22  O   UNL     1      30.604  57.344   8.489  1.00  0.00    -0.502 OA
ATOM     23  H   UNL     1      31.553  57.462   8.823  1.00  0.00     0.293 HD
ENDBRANCH   2  22
BRANCH   6  24
ATOM     24  O   UNL     1      32.843  57.966   3.837  1.00  0.00    -0.507 OA
ATOM     25  H   UNL     1      33.613  58.618   3.934  1.00  0.00     0.293 HD
ENDBRANCH   6  24
BRANCH   8  26
ATOM     26  O   UNL     1      29.234  59.868   1.261  1.00  0.00    -0.508 OA
ATOM     27  H   UNL     1      28.913  59.258   0.518  1.00  0.00     0.293 HD
ENDBRANCH   8  26
TORSDOF 6
ENDMDL
MODEL 5
REMARK VINA RESULT:    -5.923      2.705      7.888
REMARK INTER + INTRA:          -7.412
REMARK INTER:                  -7.437
REMARK INTRA:                   0.025
REMARK UNBOUND:                -0.277
REMARK SMILES O=c1c(O)c(-c2ccc(O)c(O)c2)oc2cc(O)cc(O)c12
REMARK SMILES IDX 5 1 3 2 2 3 1 4 22 5 20 6 19 7 17 8 16 9 15 10 14 11 6 12
REMARK SMILES IDX 7 13 8 14 9 15 13 16 11 17 10 18 12 20 4 22 21 24 18 26
REMARK H PARENT 10 19 12 21 4 23 21 25 18 27
REMARK Flexibility Score: inf
ROOT
ATOM      1  C   UNL     1      29.693  58.930   1.695  1.00  0.00     0.180 A 
ATOM      2  C   UNL     1      31.058  58.906   2.041  1.00  0.00     0.208 A 
ATOM      3  C   UNL     1      31.416  58.641   3.372  1.00  0.00     0.238 A 
ATOM      4  O   UNL     1      32.635  58.628   3.696  1.00  0.00    -0.285 OA
ATOM      5  C   UNL     1      30.410  58.386   4.327  1.00  0.00     0.111 A 
ATOM      6  C   UNL     1      30.687  58.106   5.687  1.00  0.00     0.134 A 
ATOM      7  C   UNL     1      29.629  57.853   6.574  1.00  0.00     0.093 A 
ATOM      8  C   UNL     1      28.306  57.873   6.129  1.00  0.00     0.123 A 
ATOM      9  C   UNL     1      28.026  58.149   4.787  1.00  0.00     0.094 A 
ATOM     10  C   UNL     1      29.066  58.406   3.888  1.00  0.00     0.146 A 
ATOM     11  O   UNL     1      28.772  58.669   2.620  1.00  0.00    -0.452 OA
ENDROOT
BRANCH   1  12
ATOM     12  C   UNL     1      29.235  59.221   0.317  1.00  0.00     0.025 A 
ATOM     13  C   UNL     1      28.231  60.172   0.065  1.00  0.00     0.016 A 
ATOM     14  C   UNL     1      27.798  60.412  -1.241  1.00  0.00     0.051 A 
ATOM     15  C   UNL     1      28.348  59.701  -2.311  1.00  0.00     0.157 A 
ATOM     16  C   UNL     1      29.771  58.492  -0.757  1.00  0.00     0.062 A 
ATOM     17  C   UNL     1      29.337  58.733  -2.069  1.00  0.00     0.158 A 
BRANCH  15  18
ATOM     18  O   UNL     1      27.897  59.963  -3.604  1.00  0.00    -0.504 OA
ATOM     19  H   UNL     1      27.796  59.232  -4.298  1.00  0.00     0.293 HD
ENDBRANCH  15  18
BRANCH  17  20
ATOM     20  O   UNL     1      29.886  58.014  -3.130  1.00  0.00    -0.504 OA
ATOM     21  H   UNL     1      29.323  57.723  -3.921  1.00  0.00     0.293 HD
ENDBRANCH  17  20
ENDBRANCH   1  12
BRANCH   2  22
ATOM     22  O   UNL     1      32.037  59.114   1.066  1.00  0.00    -0.502 OA
ATOM     23  H   UNL     1      32.217  58.444   0.327  1.00  0.00     0.293 HD
ENDBRANCH   2  22
BRANCH   6  24
ATOM     24  O   UNL     1      31.998  58.078   6.162  1.00  0.00    -0.507 OA
ATOM     25  H   UNL     1      32.627  57.312   5.948  1.00  0.00     0.293 HD
ENDBRANCH   6  24
BRANCH   8  26
ATOM     26  O   UNL     1      27.275  57.618   7.031  1.00  0.00    -0.508 OA
ATOM     27  H   UNL     1      27.317  56.839   7.678  1.00  0.00     0.293 HD
ENDBRANCH   8  26
TORSDOF 6
ENDMDL
MODEL 6
REMARK VINA RESULT:    -5.873      4.256      7.245
REMARK INTER + INTRA:          -7.351
REMARK INTER:                  -7.059
REMARK INTRA:                  -0.293
REMARK UNBOUND:                -0.277
REMARK SMILES O=c1c(O)c(-c2ccc(O)c(O)c2)oc2cc(O)cc(O)c12
REMARK SMILES IDX 5 1 3 2 2 3 1 4 22 5 20 6 19 7 17 8 16 9 15 10 14 11 6 12
REMARK SMILES IDX 7 13 8 14 9 15 13 16 11 17 10 18 12 20 4 22 21 24 18 26
REMARK H PARENT 10 19 12 21 4 23 21 25 18 27
REMARK Flexibility Score: inf
ROOT
ATOM      1  C   UNL     1      31.185  59.503   3.400  1.00  0.00     0.180 A 
ATOM      2  C   UNL     1      31.667  60.760   3.813  1.00  0.00     0.208 A 
ATOM      3  C   UNL     1      32.244  60.880   5.086  1.00  0.00     0.238 A 
ATOM      4  O   UNL     1      32.670  62.003   5.471  1.00  0.00    -0.285 OA
ATOM      5  C   UNL     1      32.348  59.743   5.915  1.00  0.00     0.111 A 
ATOM      6  C   UNL     1      32.920  59.779   7.210  1.00  0.00     0.134 A 
ATOM      7  C   UNL     1      32.995  58.601   7.969  1.00  0.00     0.093 A 
ATOM      8  C   UNL     1      32.512  57.394   7.461  1.00  0.00     0.123 A 
ATOM      9  C   UNL     1      31.945  57.352   6.183  1.00  0.00     0.094 A 
ATOM     10  C   UNL     1      31.860  58.515   5.411  1.00  0.00     0.146 A 
ATOM     11  O   UNL     1      31.313  58.449   4.202  1.00  0.00    -0.452 OA
ENDROOT
BRANCH   1  12
ATOM     12  C   UNL     1      30.546  59.299   2.079  1.00  0.00     0.025 A 
ATOM     13  C   UNL     1      31.313  59.164   0.909  1.00  0.00     0.016 A 
ATOM     14  C   UNL     1      30.688  58.997  -0.329  1.00  0.00     0.051 A 
ATOM     15  C   UNL     1      29.293  58.976  -0.421  1.00  0.00     0.157 A 
ATOM     16  C   UNL     1      29.145  59.299   1.982  1.00  0.00     0.062 A 
ATOM     17  C   UNL     1      28.516  59.131   0.739  1.00  0.00     0.158 A 
BRANCH  15  18
ATOM     18  O   UNL     1      28.698  58.806  -1.670  1.00  0.00    -0.504 OA
ATOM     19  H   UNL     1      29.125  58.245  -2.398  1.00  0.00     0.293 HD
ENDBRANCH  15  18
BRANCH  17  20
ATOM     20  O   UNL     1      27.125  59.118   0.655  1.00  0.00    -0.504 OA
ATOM     21  H   UNL     1      26.555  58.661   1.357  1.00  0.00     0.293 HD
ENDBRANCH  17  20
ENDBRANCH   1  12
BRANCH   2  22
ATOM     22  O   UNL     1      31.597  61.860   2.953  1.00  0.00    -0.502 OA
ATOM     23  H   UNL     1      30.942  62.618   3.096  1.00  0.00     0.293 HD
ENDBRANCH   2  22
BRANCH   6  24
ATOM     24  O   UNL     1      33.412  60.970   7.745  1.00  0.00    -0.507 OA
ATOM     25  H   UNL     1      34.407  61.143   7.835  1.00  0.00     0.293 HD
ENDBRANCH   6  24
BRANCH   8  26
ATOM     26  O   UNL     1      32.599  56.239   8.236  1.00  0.00    -0.508 OA
ATOM     27  H   UNL     1      33.420  55.647   8.214  1.00  0.00     0.293 HD
ENDBRANCH   8  26
TORSDOF 6
ENDMDL
MODEL 7
REMARK VINA RESULT:    -5.832      3.510      5.347
REMARK INTER + INTRA:          -7.303
REMARK INTER:                  -7.064
REMARK INTRA:                  -0.239
REMARK UNBOUND:                -0.277
REMARK SMILES O=c1c(O)c(-c2ccc(O)c(O)c2)oc2cc(O)cc(O)c12
REMARK SMILES IDX 5 1 3 2 2 3 1 4 22 5 20 6 19 7 17 8 16 9 15 10 14 11 6 12
REMARK SMILES IDX 7 13 8 14 9 15 13 16 11 17 10 18 12 20 4 22 21 24 18 26
REMARK H PARENT 10 19 12 21 4 23 21 25 18 27
REMARK Flexibility Score: inf
ROOT
ATOM      1  C   UNL     1      30.318  58.922   4.404  1.00  0.00     0.180 A 
ATOM      2  C   UNL     1      28.928  58.834   4.613  1.00  0.00     0.208 A 
ATOM      3  C   UNL     1      28.070  58.921   3.506  1.00  0.00     0.238 A 
ATOM      4  O   UNL     1      26.823  58.855   3.682  1.00  0.00    -0.285 OA
ATOM      5  C   UNL     1      28.612  59.073   2.213  1.00  0.00     0.111 A 
ATOM      6  C   UNL     1      27.817  59.164   1.045  1.00  0.00     0.134 A 
ATOM      7  C   UNL     1      28.434  59.304  -0.207  1.00  0.00     0.093 A 
ATOM      8  C   UNL     1      29.825  59.355  -0.314  1.00  0.00     0.123 A 
ATOM      9  C   UNL     1      30.616  59.266   0.835  1.00  0.00     0.094 A 
ATOM     10  C   UNL     1      30.020  59.127   2.093  1.00  0.00     0.146 A 
ATOM     11  O   UNL     1      30.795  59.050   3.169  1.00  0.00    -0.452 OA
ENDROOT
BRANCH   1  12
ATOM     12  C   UNL     1      31.287  58.858   5.523  1.00  0.00     0.025 A 
ATOM     13  C   UNL     1      32.004  59.994   5.936  1.00  0.00     0.016 A 
ATOM     14  C   UNL     1      32.931  59.905   6.977  1.00  0.00     0.051 A 
ATOM     15  C   UNL     1      33.166  58.682   7.612  1.00  0.00     0.157 A 
ATOM     16  C   UNL     1      31.541  57.626   6.148  1.00  0.00     0.062 A 
ATOM     17  C   UNL     1      32.471  57.535   7.194  1.00  0.00     0.158 A 
BRANCH  15  18
ATOM     18  O   UNL     1      34.096  58.624   8.649  1.00  0.00    -0.504 OA
ATOM     19  H   UNL     1      34.029  59.218   9.467  1.00  0.00     0.293 HD
ENDBRANCH  15  18
BRANCH  17  20
ATOM     20  O   UNL     1      32.705  56.310   7.817  1.00  0.00    -0.504 OA
ATOM     21  H   UNL     1      32.081  55.948   8.529  1.00  0.00     0.293 HD
ENDBRANCH  17  20
ENDBRANCH   1  12
BRANCH   2  22
ATOM     22  O   UNL     1      28.418  58.634   5.898  1.00  0.00    -0.502 OA
ATOM     23  H   UNL     1      28.759  59.147   6.703  1.00  0.00     0.293 HD
ENDBRANCH   2  22
BRANCH   6  24
ATOM     24  O   UNL     1      26.424  59.116   1.119  1.00  0.00    -0.507 OA
ATOM     25  H   UNL     1      25.906  58.281   0.871  1.00  0.00     0.293 HD
ENDBRANCH   6  24
BRANCH   8  26
ATOM     26  O   UNL     1      30.412  59.495  -1.570  1.00  0.00    -0.508 OA
ATOM     27  H   UNL     1      30.400  58.742  -2.248  1.00  0.00     0.293 HD
ENDBRANCH   8  26
TORSDOF 6
ENDMDL
MODEL 8
REMARK VINA RESULT:    -5.769      6.558      8.247
REMARK INTER + INTRA:          -7.227
REMARK INTER:                  -7.009
REMARK INTRA:                  -0.218
REMARK UNBOUND:                -0.277
REMARK SMILES O=c1c(O)c(-c2ccc(O)c(O)c2)oc2cc(O)cc(O)c12
REMARK SMILES IDX 5 1 3 2 2 3 1 4 22 5 20 6 19 7 17 8 16 9 15 10 14 11 6 12
REMARK SMILES IDX 7 13 8 14 9 15 13 16 11 17 10 18 12 20 4 22 21 24 18 26
REMARK H PARENT 10 19 12 21 4 23 21 25 18 27
REMARK Flexibility Score: inf
ROOT
ATOM      1  C   UNL     1      30.781  65.191   4.828  1.00  0.00     0.180 A 
ATOM      2  C   UNL     1      29.839  65.306   3.787  1.00  0.00     0.208 A 
ATOM      3  C   UNL     1      29.654  64.220   2.917  1.00  0.00     0.238 A 
ATOM      4  O   UNL     1      28.821  64.316   1.975  1.00  0.00    -0.285 OA
ATOM      5  C   UNL     1      30.394  63.035   3.113  1.00  0.00     0.111 A 
ATOM      6  C   UNL     1      30.263  61.895   2.284  1.00  0.00     0.134 A 
ATOM      7  C   UNL     1      31.029  60.750   2.552  1.00  0.00     0.093 A 
ATOM      8  C   UNL     1      31.919  60.723   3.627  1.00  0.00     0.123 A 
ATOM      9  C   UNL     1      32.053  61.847   4.449  1.00  0.00     0.094 A 
ATOM     10  C   UNL     1      31.300  62.998   4.198  1.00  0.00     0.146 A 
ATOM     11  O   UNL     1      31.450  64.053   4.991  1.00  0.00    -0.452 OA
ENDROOT
BRANCH   1  12
ATOM     12  C   UNL     1      31.047  66.299   5.774  1.00  0.00     0.025 A 
ATOM     13  C   UNL     1      31.655  67.493   5.351  1.00  0.00     0.016 A 
ATOM     14  C   UNL     1      31.918  68.515   6.266  1.00  0.00     0.051 A 
ATOM     15  C   UNL     1      31.592  68.357   7.616  1.00  0.00     0.157 A 
ATOM     16  C   UNL     1      30.740  66.134   7.135  1.00  0.00     0.062 A 
ATOM     17  C   UNL     1      31.003  67.160   8.055  1.00  0.00     0.158 A 
BRANCH  15  18
ATOM     18  O   UNL     1      31.866  69.395   8.506  1.00  0.00    -0.504 OA
ATOM     19  H   UNL     1      32.731  69.921   8.470  1.00  0.00     0.293 HD
ENDBRANCH  15  18
BRANCH  17  20
ATOM     20  O   UNL     1      30.682  66.991   9.401  1.00  0.00    -0.504 OA
ATOM     21  H   UNL     1      31.351  66.617  10.064  1.00  0.00     0.293 HD
ENDBRANCH  17  20
ENDBRANCH   1  12
BRANCH   2  22
ATOM     22  O   UNL     1      29.083  66.473   3.644  1.00  0.00    -0.502 OA
ATOM     23  H   UNL     1      29.340  67.343   4.094  1.00  0.00     0.293 HD
ENDBRANCH   2  22
BRANCH   6  24
ATOM     24  O   UNL     1      29.382  61.890   1.203  1.00  0.00    -0.507 OA
ATOM     25  H   UNL     1      29.356  61.124   0.540  1.00  0.00     0.293 HD
ENDBRANCH   6  24
BRANCH   8  26
ATOM     26  O   UNL     1      32.668  59.574   3.870  1.00  0.00    -0.508 OA
ATOM     27  H   UNL     1      32.270  58.774   4.348  1.00  0.00     0.293 HD
ENDBRANCH   8  26
TORSDOF 6
ENDMDL
MODEL 9
REMARK VINA RESULT:    -5.720      1.809      7.247
REMARK INTER + INTRA:          -7.168
REMARK INTER:                  -6.849
REMARK INTRA:                  -0.319
REMARK UNBOUND:                -0.277
REMARK SMILES O=c1c(O)c(-c2ccc(O)c(O)c2)oc2cc(O)cc(O)c12
REMARK SMILES IDX 5 1 3 2 2 3 1 4 22 5 20 6 19 7 17 8 16 9 15 10 14 11 6 12
REMARK SMILES IDX 7 13 8 14 9 15 13 16 11 17 10 18 12 20 4 22 21 24 18 26
REMARK H PARENT 10 19 12 21 4 23 21 25 18 27
REMARK Flexibility Score: inf
ROOT
ATOM      1  C   UNL     1      28.619  57.633   7.870  1.00  0.00     0.180 A 
ATOM      2  C   UNL     1      28.281  58.736   8.678  1.00  0.00     0.208 A 
ATOM      3  C   UNL     1      27.284  58.583   9.653  1.00  0.00     0.238 A 
ATOM      4  O   UNL     1      26.966  59.567  10.375  1.00  0.00    -0.285 OA
ATOM      5  C   UNL     1      26.658  57.330   9.819  1.00  0.00     0.111 A 
ATOM      6  C   UNL     1      25.647  57.091  10.782  1.00  0.00     0.134 A 
ATOM      7  C   UNL     1      25.080  55.813  10.891  1.00  0.00     0.093 A 
ATOM      8  C   UNL     1      25.501  54.773  10.060  1.00  0.00     0.123 A 
ATOM      9  C   UNL     1      26.498  55.003   9.107  1.00  0.00     0.094 A 
ATOM     10  C   UNL     1      27.075  56.270   8.981  1.00  0.00     0.146 A 
ATOM     11  O   UNL     1      28.017  56.463   8.065  1.00  0.00    -0.452 OA
ENDROOT
BRANCH   1  12
ATOM     12  C   UNL     1      29.646  57.721   6.807  1.00  0.00     0.025 A 
ATOM     13  C   UNL     1      31.011  57.541   7.091  1.00  0.00     0.016 A 
ATOM     14  C   UNL     1      31.965  57.651   6.076  1.00  0.00     0.051 A 
ATOM     15  C   UNL     1      31.574  57.956   4.769  1.00  0.00     0.157 A 
ATOM     16  C   UNL     1      29.258  58.047   5.497  1.00  0.00     0.062 A 
ATOM     17  C   UNL     1      30.215  58.158   4.477  1.00  0.00     0.158 A 
BRANCH  15  18
ATOM     18  O   UNL     1      32.549  58.058   3.777  1.00  0.00    -0.504 OA
ATOM     19  H   UNL     1      32.438  57.628   2.866  1.00  0.00     0.293 HD
ENDBRANCH  15  18
BRANCH  17  20
ATOM     20  O   UNL     1      29.819  58.469   3.177  1.00  0.00    -0.504 OA
ATOM     21  H   UNL     1      28.841  58.556   2.927  1.00  0.00     0.293 HD
ENDBRANCH  17  20
ENDBRANCH   1  12
BRANCH   2  22
ATOM     22  O   UNL     1      28.952  59.953   8.527  1.00  0.00    -0.502 OA
ATOM     23  H   UNL     1      29.337  60.253   7.639  1.00  0.00     0.293 HD
ENDBRANCH   2  22
BRANCH   6  24
ATOM     24  O   UNL     1      25.206  58.110  11.627  1.00  0.00    -0.507 OA
ATOM     25  H   UNL     1      24.225  58.225  11.855  1.00  0.00     0.293 HD
ENDBRANCH   6  24
BRANCH   8  26
ATOM     26  O   UNL     1      24.920  53.513  10.189  1.00  0.00    -0.508 OA
ATOM     27  H   UNL     1      25.417  52.742  10.619  1.00  0.00     0.293 HD
ENDBRANCH   8  26
TORSDOF 6
ENDMDL
