MODEL 1
REMARK VINA RESULT:    -5.639      0.000      0.000
REMARK INTER + INTRA:         -14.482
REMARK INTER:                 -12.232
REMARK INTRA:                  -2.250
REMARK UNBOUND:                -2.250
REMARK SMILES CCCCCCCCCCCCCCCCCCCCCC(=O)[O-]
REMARK SMILES IDX 12 1 11 2 10 3 9 4 8 5 7 6 6 7 5 8 4 9 3 10 2 11 1 12 13 13
REMARK SMILES IDX 14 14 15 15 16 16 17 17 18 18 19 19 20 20 21 21 22 22 23 23
REMARK SMILES IDX 24 24
REMARK H PARENT
REMARK Flexibility Score: inf
ROOT
ATOM      1  C   UNL     1       5.161  -0.973  36.476  1.00  0.00     0.000 C 
ENDROOT
BRANCH   1   2
ATOM      2  C   UNL     1       5.601  -2.443  36.402  1.00  0.00     0.000 C 
BRANCH   2   3
ATOM      3  C   UNL     1       4.760  -3.315  37.347  1.00  0.00     0.000 C 
BRANCH   3   4
ATOM      4  C   UNL     1       3.530  -3.921  36.650  1.00  0.00    -0.000 C 
BRANCH   4   5
ATOM      5  C   UNL     1       3.123  -5.278  37.251  1.00  0.00    -0.000 C 
BRANCH   5   6
ATOM      6  C   UNL     1       2.815  -5.200  38.758  1.00  0.00    -0.000 C 
BRANCH   6   7
ATOM      7  C   UNL     1       1.598  -4.335  39.135  1.00  0.00    -0.000 C 
BRANCH   7   8
ATOM      8  C   UNL     1       1.739  -3.662  40.511  1.00  0.00    -0.000 C 
BRANCH   8   9
ATOM      9  C   UNL     1       2.929  -2.688  40.564  1.00  0.00    -0.000 C 
BRANCH   9  10
ATOM     10  C   UNL     1       2.488  -1.219  40.442  1.00  0.00    -0.000 C 
BRANCH  10  11
ATOM     11  C   UNL     1       2.818  -0.618  39.067  1.00  0.00    -0.003 C 
ATOM     12  C   UNL     1       1.688  -0.803  38.054  1.00  0.00     0.004 C 
ENDBRANCH  10  11
ENDBRANCH   9  10
ENDBRANCH   8   9
ENDBRANCH   7   8
ENDBRANCH   6   7
ENDBRANCH   5   6
ENDBRANCH   4   5
ENDBRANCH   3   4
ENDBRANCH   2   3
ENDBRANCH   1   2
BRANCH   1  13
ATOM     13  C   UNL     1       6.265  -0.004  36.021  1.00  0.00     0.000 C 
BRANCH  13  14
ATOM     14  C   UNL     1       7.565  -0.729  35.642  1.00  0.00     0.000 C 
BRANCH  14  15
ATOM     15  C   UNL     1       8.768   0.220  35.742  1.00  0.00     0.000 C 
BRANCH  15  16
ATOM     16  C   UNL     1       8.794   1.277  34.622  1.00  0.00     0.000 C 
BRANCH  16  17
ATOM     17  C   UNL     1      10.141   1.409  33.886  1.00  0.00     0.000 C 
BRANCH  17  18
ATOM     18  C   UNL     1      10.969   0.115  33.917  1.00  0.00     0.000 C 
BRANCH  18  19
ATOM     19  C   UNL     1      12.372   0.369  34.484  1.00  0.00     0.000 C 
BRANCH  19  20
ATOM     20  C   UNL     1      12.355   1.178  35.794  1.00  0.00     0.006 C 
BRANCH  20  21
ATOM     21  C   UNL     1      13.391   2.316  35.839  1.00  0.00     0.053 C 
BRANCH  21  22
ATOM     22  C   UNL     1      12.822   3.629  35.389  1.00  0.00     0.041 C 
ATOM     23  O   UNL     1      12.637   3.853  34.164  1.00  0.00    -0.550 OA
ATOM     24  O   UNL     1      12.532   4.620  36.320  1.00  0.00    -0.550 OA
ENDBRANCH  21  22
ENDBRANCH  20  21
ENDBRANCH  19  20
ENDBRANCH  18  19
ENDBRANCH  17  18
ENDBRANCH  16  17
ENDBRANCH  15  16
ENDBRANCH  14  15
ENDBRANCH  13  14
ENDBRANCH   1  13
TORSDOF 20
ENDMDL
MODEL 2
REMARK VINA RESULT:    -5.560      1.295      1.977
REMARK INTER + INTRA:         -14.311
REMARK INTER:                 -12.441
REMARK INTRA:                  -1.870
REMARK UNBOUND:                -2.250
REMARK SMILES CCCCCCCCCCCCCCCCCCCCCC(=O)[O-]
REMARK SMILES IDX 12 1 11 2 10 3 9 4 8 5 7 6 6 7 5 8 4 9 3 10 2 11 1 12 13 13
REMARK SMILES IDX 14 14 15 15 16 16 17 17 18 18 19 19 20 20 21 21 22 22 23 23
REMARK SMILES IDX 24 24
REMARK H PARENT
REMARK Flexibility Score: inf
ROOT
ATOM      1  C   UNL     1       5.964  -0.011  36.294  1.00  0.00     0.000 C 
ENDROOT
BRANCH   1   2
ATOM      2  C   UNL     1       5.247  -1.365  36.407  1.00  0.00     0.000 C 
BRANCH   2   3
ATOM      3  C   UNL     1       6.250  -2.526  36.317  1.00  0.00     0.000 C 
BRANCH   3   4
ATOM      4  C   UNL     1       5.745  -3.673  35.425  1.00  0.00    -0.000 C 
BRANCH   4   5
ATOM      5  C   UNL     1       4.363  -4.190  35.860  1.00  0.00    -0.000 C 
BRANCH   5   6
ATOM      6  C   UNL     1       4.429  -5.138  37.072  1.00  0.00    -0.000 C 
BRANCH   6   7
ATOM      7  C   UNL     1       3.409  -4.849  38.188  1.00  0.00    -0.000 C 
BRANCH   7   8
ATOM      8  C   UNL     1       3.687  -3.533  38.934  1.00  0.00    -0.000 C 
BRANCH   8   9
ATOM      9  C   UNL     1       2.503  -2.555  38.853  1.00  0.00    -0.000 C 
BRANCH   9  10
ATOM     10  C   UNL     1       2.663  -1.362  39.811  1.00  0.00    -0.000 C 
BRANCH  10  11
ATOM     11  C   UNL     1       2.222  -1.696  41.245  1.00  0.00    -0.003 C 
ATOM     12  C   UNL     1       0.769  -2.166  41.322  1.00  0.00     0.004 C 
ENDBRANCH  10  11
ENDBRANCH   9  10
ENDBRANCH   8   9
ENDBRANCH   7   8
ENDBRANCH   6   7
ENDBRANCH   5   6
ENDBRANCH   4   5
ENDBRANCH   3   4
ENDBRANCH   2   3
ENDBRANCH   1   2
BRANCH   1  13
ATOM     13  C   UNL     1       7.368  -0.138  35.680  1.00  0.00     0.000 C 
BRANCH  13  14
ATOM     14  C   UNL     1       8.240   1.098  35.946  1.00  0.00     0.000 C 
BRANCH  14  15
ATOM     15  C   UNL     1       8.975   1.533  34.670  1.00  0.00     0.000 C 
BRANCH  15  16
ATOM     16  C   UNL     1       9.318   0.353  33.742  1.00  0.00     0.000 C 
BRANCH  16  17
ATOM     17  C   UNL     1      10.770  -0.152  33.844  1.00  0.00     0.000 C 
BRANCH  17  18
ATOM     18  C   UNL     1      11.629   0.687  34.802  1.00  0.00     0.000 C 
BRANCH  18  19
ATOM     19  C   UNL     1      13.082   0.768  34.316  1.00  0.00     0.000 C 
BRANCH  19  20
ATOM     20  C   UNL     1      13.491   2.183  33.870  1.00  0.00     0.006 C 
BRANCH  20  21
ATOM     21  C   UNL     1      12.329   3.021  33.307  1.00  0.00     0.053 C 
BRANCH  21  22
ATOM     22  C   UNL     1      12.180   4.340  34.006  1.00  0.00     0.041 C 
ATOM     23  O   UNL     1      11.895   5.375  33.350  1.00  0.00    -0.550 OA
ATOM     24  O   UNL     1      12.393   4.432  35.377  1.00  0.00    -0.550 OA
ENDBRANCH  21  22
ENDBRANCH  20  21
ENDBRANCH  19  20
ENDBRANCH  18  19
ENDBRANCH  17  18
ENDBRANCH  16  17
ENDBRANCH  15  16
ENDBRANCH  14  15
ENDBRANCH  13  14
ENDBRANCH   1  13
TORSDOF 20
ENDMDL
MODEL 3
REMARK VINA RESULT:    -5.558      1.226      3.090
REMARK INTER + INTRA:         -14.307
REMARK INTER:                 -12.273
REMARK INTRA:                  -2.035
REMARK UNBOUND:                -2.250
REMARK SMILES CCCCCCCCCCCCCCCCCCCCCC(=O)[O-]
REMARK SMILES IDX 12 1 11 2 10 3 9 4 8 5 7 6 6 7 5 8 4 9 3 10 2 11 1 12 13 13
REMARK SMILES IDX 14 14 15 15 16 16 17 17 18 18 19 19 20 20 21 21 22 22 23 23
REMARK SMILES IDX 24 24
REMARK H PARENT
REMARK Flexibility Score: inf
ROOT
ATOM      1  C   UNL     1       4.999  -0.899  36.642  1.00  0.00     0.000 C 
ENDROOT
BRANCH   1   2
ATOM      2  C   UNL     1       4.146   0.362  36.852  1.00  0.00     0.000 C 
BRANCH   2   3
ATOM      3  C   UNL     1       3.278   0.231  38.113  1.00  0.00     0.000 C 
BRANCH   3   4
ATOM      4  C   UNL     1       2.599  -1.144  38.221  1.00  0.00    -0.000 C 
BRANCH   4   5
ATOM      5  C   UNL     1       2.483  -1.629  39.677  1.00  0.00    -0.000 C 
BRANCH   5   6
ATOM      6  C   UNL     1       3.012  -3.061  39.879  1.00  0.00    -0.000 C 
BRANCH   6   7
ATOM      7  C   UNL     1       3.846  -3.623  38.713  1.00  0.00    -0.000 C 
BRANCH   7   8
ATOM      8  C   UNL     1       3.448  -5.056  38.322  1.00  0.00    -0.000 C 
BRANCH   8   9
ATOM      9  C   UNL     1       4.260  -5.581  37.126  1.00  0.00    -0.000 C 
BRANCH   9  10
ATOM     10  C   UNL     1       4.599  -4.472  36.116  1.00  0.00    -0.000 C 
BRANCH  10  11
ATOM     11  C   UNL     1       6.071  -4.506  35.677  1.00  0.00    -0.003 C 
ATOM     12  C   UNL     1       6.272  -4.018  34.242  1.00  0.00     0.004 C 
ENDBRANCH  10  11
ENDBRANCH   9  10
ENDBRANCH   8   9
ENDBRANCH   7   8
ENDBRANCH   6   7
ENDBRANCH   5   6
ENDBRANCH   4   5
ENDBRANCH   3   4
ENDBRANCH   2   3
ENDBRANCH   1   2
BRANCH   1  13
ATOM     13  C   UNL     1       6.342  -0.594  35.958  1.00  0.00     0.000 C 
BRANCH  13  14
ATOM     14  C   UNL     1       6.927   0.760  36.386  1.00  0.00     0.000 C 
BRANCH  14  15
ATOM     15  C   UNL     1       8.225   1.062  35.623  1.00  0.00     0.000 C 
BRANCH  15  16
ATOM     16  C   UNL     1       8.389   0.204  34.354  1.00  0.00     0.000 C 
BRANCH  16  17
ATOM     17  C   UNL     1       9.653   0.505  33.527  1.00  0.00     0.000 C 
BRANCH  17  18
ATOM     18  C   UNL     1      10.891  -0.254  34.030  1.00  0.00     0.000 C 
BRANCH  18  19
ATOM     19  C   UNL     1      12.092   0.689  34.187  1.00  0.00     0.000 C 
BRANCH  19  20
ATOM     20  C   UNL     1      12.183   1.321  35.587  1.00  0.00     0.006 C 
BRANCH  20  21
ATOM     21  C   UNL     1      11.507   2.699  35.695  1.00  0.00     0.053 C 
BRANCH  21  22
ATOM     22  C   UNL     1      12.490   3.830  35.631  1.00  0.00     0.041 C 
ATOM     23  O   UNL     1      13.447   3.791  34.813  1.00  0.00    -0.550 OA
ATOM     24  O   UNL     1      12.372   4.909  36.500  1.00  0.00    -0.550 OA
ENDBRANCH  21  22
ENDBRANCH  20  21
ENDBRANCH  19  20
ENDBRANCH  18  19
ENDBRANCH  17  18
ENDBRANCH  16  17
ENDBRANCH  15  16
ENDBRANCH  14  15
ENDBRANCH  13  14
ENDBRANCH   1  13
TORSDOF 20
ENDMDL
MODEL 4
REMARK VINA RESULT:    -5.481      3.827      9.654
REMARK INTER + INTRA:         -14.139
REMARK INTER:                 -11.936
REMARK INTRA:                  -2.203
REMARK UNBOUND:                -2.250
REMARK SMILES CCCCCCCCCCCCCCCCCCCCCC(=O)[O-]
REMARK SMILES IDX 12 1 11 2 10 3 9 4 8 5 7 6 6 7 5 8 4 9 3 10 2 11 1 12 13 13
REMARK SMILES IDX 14 14 15 15 16 16 17 17 18 18 19 19 20 20 21 21 22 22 23 23
REMARK SMILES IDX 24 24
REMARK H PARENT
REMARK Flexibility Score: inf
ROOT
ATOM      1  C   UNL     1       4.705   0.311  36.764  1.00  0.00     0.000 C 
ENDROOT
BRANCH   1   2
ATOM      2  C   UNL     1       5.334  -1.038  36.380  1.00  0.00     0.000 C 
BRANCH   2   3
ATOM      3  C   UNL     1       6.803  -0.859  35.964  1.00  0.00     0.000 C 
BRANCH   3   4
ATOM      4  C   UNL     1       7.241   0.615  35.974  1.00  0.00    -0.000 C 
BRANCH   4   5
ATOM      5  C   UNL     1       8.748   0.781  35.707  1.00  0.00    -0.000 C 
BRANCH   5   6
ATOM      6  C   UNL     1       9.055   1.821  34.613  1.00  0.00    -0.000 C 
BRANCH   6   7
ATOM      7  C   UNL     1      10.228   1.466  33.682  1.00  0.00    -0.000 C 
BRANCH   7   8
ATOM      8  C   UNL     1      10.959   0.178  34.095  1.00  0.00    -0.000 C 
BRANCH   8   9
ATOM      9  C   UNL     1      12.412   0.444  34.525  1.00  0.00    -0.000 C 
BRANCH   9  10
ATOM     10  C   UNL     1      12.499   1.134  35.898  1.00  0.00    -0.000 C 
BRANCH  10  11
ATOM     11  C   UNL     1      13.369   2.400  35.866  1.00  0.00    -0.003 C 
ATOM     12  C   UNL     1      12.595   3.637  35.410  1.00  0.00     0.004 C 
ENDBRANCH  10  11
ENDBRANCH   9  10
ENDBRANCH   8   9
ENDBRANCH   7   8
ENDBRANCH   6   7
ENDBRANCH   5   6
ENDBRANCH   4   5
ENDBRANCH   3   4
ENDBRANCH   2   3
ENDBRANCH   1   2
BRANCH   1  13
ATOM     13  C   UNL     1       3.766   0.198  37.976  1.00  0.00     0.000 C 
BRANCH  13  14
ATOM     14  C   UNL     1       2.339  -0.205  37.580  1.00  0.00     0.000 C 
BRANCH  14  15
ATOM     15  C   UNL     1       1.730  -1.156  38.621  1.00  0.00     0.000 C 
BRANCH  15  16
ATOM     16  C   UNL     1       2.631  -1.352  39.854  1.00  0.00     0.000 C 
BRANCH  16  17
ATOM     17  C   UNL     1       3.051  -2.810  40.125  1.00  0.00     0.000 C 
BRANCH  17  18
ATOM     18  C   UNL     1       2.861  -3.723  38.905  1.00  0.00     0.000 C 
BRANCH  18  19
ATOM     19  C   UNL     1       4.181  -3.913  38.145  1.00  0.00     0.000 C 
BRANCH  19  20
ATOM     20  C   UNL     1       3.987  -4.492  36.732  1.00  0.00     0.006 C 
BRANCH  20  21
ATOM     21  C   UNL     1       5.296  -4.669  35.944  1.00  0.00     0.053 C 
BRANCH  21  22
ATOM     22  C   UNL     1       5.604  -6.109  35.655  1.00  0.00     0.041 C 
ATOM     23  O   UNL     1       5.517  -6.971  36.569  1.00  0.00    -0.550 OA
ATOM     24  O   UNL     1       6.022  -6.493  34.386  1.00  0.00    -0.550 OA
ENDBRANCH  21  22
ENDBRANCH  20  21
ENDBRANCH  19  20
ENDBRANCH  18  19
ENDBRANCH  17  18
ENDBRANCH  16  17
ENDBRANCH  15  16
ENDBRANCH  14  15
ENDBRANCH  13  14
ENDBRANCH   1  13
TORSDOF 20
ENDMDL
MODEL 5
REMARK VINA RESULT:    -5.431      2.637      5.771
REMARK INTER + INTRA:         -14.031
REMARK INTER:                 -11.379
REMARK INTRA:                  -2.653
REMARK UNBOUND:                -2.250
REMARK SMILES CCCCCCCCCCCCCCCCCCCCCC(=O)[O-]
REMARK SMILES IDX 12 1 11 2 10 3 9 4 8 5 7 6 6 7 5 8 4 9 3 10 2 11 1 12 13 13
REMARK SMILES IDX 14 14 15 15 16 16 17 17 18 18 19 19 20 20 21 21 22 22 23 23
REMARK SMILES IDX 24 24
REMARK H PARENT
REMARK Flexibility Score: inf
ROOT
ATOM      1  C   UNL     1       2.786  -3.413  39.012  1.00  0.00     0.000 C 
ENDROOT
BRANCH   1   2
ATOM      2  C   UNL     1       3.228  -3.658  37.561  1.00  0.00     0.000 C 
BRANCH   2   3
ATOM      3  C   UNL     1       4.750  -3.500  37.418  1.00  0.00     0.000 C 
BRANCH   3   4
ATOM      4  C   UNL     1       5.202  -3.459  35.948  1.00  0.00    -0.000 C 
BRANCH   4   5
ATOM      5  C   UNL     1       4.215  -4.177  35.011  1.00  0.00    -0.000 C 
BRANCH   5   6
ATOM      6  C   UNL     1       4.883  -4.714  33.731  1.00  0.00    -0.000 C 
BRANCH   6   7
ATOM      7  C   UNL     1       6.391  -4.998  33.848  1.00  0.00    -0.000 C 
BRANCH   7   8
ATOM      8  C   UNL     1       6.807  -6.325  33.190  1.00  0.00    -0.000 C 
BRANCH   8   9
ATOM      9  C   UNL     1       7.087  -7.427  34.227  1.00  0.00    -0.000 C 
BRANCH   9  10
ATOM     10  C   UNL     1       6.786  -6.968  35.664  1.00  0.00    -0.000 C 
BRANCH  10  11
ATOM     11  C   UNL     1       5.749  -7.862  36.362  1.00  0.00    -0.003 C 
ATOM     12  C   UNL     1       4.805  -7.074  37.271  1.00  0.00     0.004 C 
ENDBRANCH  10  11
ENDBRANCH   9  10
ENDBRANCH   8   9
ENDBRANCH   7   8
ENDBRANCH   6   7
ENDBRANCH   5   6
ENDBRANCH   4   5
ENDBRANCH   3   4
ENDBRANCH   2   3
ENDBRANCH   1   2
BRANCH   1  13
ATOM     13  C   UNL     1       2.594  -1.920  39.325  1.00  0.00     0.000 C 
BRANCH  13  14
ATOM     14  C   UNL     1       1.890  -1.166  38.187  1.00  0.00     0.000 C 
BRANCH  14  15
ATOM     15  C   UNL     1       2.613   0.152  37.875  1.00  0.00     0.000 C 
BRANCH  15  16
ATOM     16  C   UNL     1       4.142  -0.010  37.775  1.00  0.00     0.000 C 
BRANCH  16  17
ATOM     17  C   UNL     1       4.721   0.160  36.358  1.00  0.00     0.000 C 
BRANCH  17  18
ATOM     18  C   UNL     1       6.219   0.500  36.362  1.00  0.00     0.000 C 
BRANCH  18  19
ATOM     19  C   UNL     1       7.030  -0.562  35.606  1.00  0.00     0.000 C 
BRANCH  19  20
ATOM     20  C   UNL     1       8.370  -0.028  35.068  1.00  0.00     0.006 C 
BRANCH  20  21
ATOM     21  C   UNL     1       8.663   1.431  35.460  1.00  0.00     0.053 C 
BRANCH  21  22
ATOM     22  C   UNL     1      10.047   1.611  36.011  1.00  0.00     0.041 C 
ATOM     23  O   UNL     1      10.376   1.052  37.090  1.00  0.00    -0.550 OA
ATOM     24  O   UNL     1      10.960   2.427  35.353  1.00  0.00    -0.550 OA
ENDBRANCH  21  22
ENDBRANCH  20  21
ENDBRANCH  19  20
ENDBRANCH  18  19
ENDBRANCH  17  18
ENDBRANCH  16  17
ENDBRANCH  15  16
ENDBRANCH  14  15
ENDBRANCH  13  14
ENDBRANCH   1  13
TORSDOF 20
ENDMDL
MODEL 6
REMARK VINA RESULT:    -5.427      1.983      4.568
REMARK INTER + INTRA:         -14.023
REMARK INTER:                 -11.833
REMARK INTRA:                  -2.190
REMARK UNBOUND:                -2.250
REMARK SMILES CCCCCCCCCCCCCCCCCCCCCC(=O)[O-]
REMARK SMILES IDX 12 1 11 2 10 3 9 4 8 5 7 6 6 7 5 8 4 9 3 10 2 11 1 12 13 13
REMARK SMILES IDX 14 14 15 15 16 16 17 17 18 18 19 19 20 20 21 21 22 22 23 23
REMARK SMILES IDX 24 24
REMARK H PARENT
REMARK Flexibility Score: inf
ROOT
ATOM      1  C   UNL     1       2.533  -0.787  38.282  1.00  0.00     0.000 C 
ENDROOT
BRANCH   1   2
ATOM      2  C   UNL     1       2.470  -1.186  39.764  1.00  0.00     0.000 C 
BRANCH   2   3
ATOM      3  C   UNL     1       2.921  -2.642  39.959  1.00  0.00     0.000 C 
BRANCH   3   4
ATOM      4  C   UNL     1       2.736  -3.490  38.689  1.00  0.00    -0.000 C 
BRANCH   4   5
ATOM      5  C   UNL     1       4.019  -4.240  38.292  1.00  0.00    -0.000 C 
BRANCH   5   6
ATOM      6  C   UNL     1       4.838  -3.503  37.215  1.00  0.00    -0.000 C 
BRANCH   6   7
ATOM      7  C   UNL     1       4.583  -3.962  35.768  1.00  0.00    -0.000 C 
BRANCH   7   8
ATOM      8  C   UNL     1       5.875  -4.130  34.952  1.00  0.00    -0.000 C 
BRANCH   8   9
ATOM      9  C   UNL     1       6.603  -5.446  35.277  1.00  0.00    -0.000 C 
BRANCH   9  10
ATOM     10  C   UNL     1       5.822  -6.681  34.795  1.00  0.00    -0.000 C 
BRANCH  10  11
ATOM     11  C   UNL     1       5.833  -7.822  35.824  1.00  0.00    -0.003 C 
ATOM     12  C   UNL     1       5.048  -7.485  37.091  1.00  0.00     0.004 C 
ENDBRANCH  10  11
ENDBRANCH   9  10
ENDBRANCH   8   9
ENDBRANCH   7   8
ENDBRANCH   6   7
ENDBRANCH   5   6
ENDBRANCH   4   5
ENDBRANCH   3   4
ENDBRANCH   2   3
ENDBRANCH   1   2
BRANCH   1  13
ATOM     13  C   UNL     1       3.743   0.106  37.963  1.00  0.00     0.000 C 
BRANCH  13  14
ATOM     14  C   UNL     1       4.274  -0.110  36.538  1.00  0.00     0.000 C 
BRANCH  14  15
ATOM     15  C   UNL     1       5.714   0.408  36.407  1.00  0.00     0.000 C 
BRANCH  15  16
ATOM     16  C   UNL     1       6.676  -0.637  35.809  1.00  0.00     0.000 C 
BRANCH  16  17
ATOM     17  C   UNL     1       8.133  -0.162  35.652  1.00  0.00     0.000 C 
BRANCH  17  18
ATOM     18  C   UNL     1       8.402   1.182  36.347  1.00  0.00     0.000 C 
BRANCH  18  19
ATOM     19  C   UNL     1       9.901   1.510  36.356  1.00  0.00     0.000 C 
BRANCH  19  20
ATOM     20  C   UNL     1      10.439   1.907  34.969  1.00  0.00     0.006 C 
BRANCH  20  21
ATOM     21  C   UNL     1      11.417   0.885  34.363  1.00  0.00     0.053 C 
BRANCH  21  22
ATOM     22  C   UNL     1      12.852   1.245  34.609  1.00  0.00     0.041 C 
ATOM     23  O   UNL     1      13.451   0.803  35.624  1.00  0.00    -0.550 OA
ATOM     24  O   UNL     1      13.517   2.100  33.737  1.00  0.00    -0.550 OA
ENDBRANCH  21  22
ENDBRANCH  20  21
ENDBRANCH  19  20
ENDBRANCH  18  19
ENDBRANCH  17  18
ENDBRANCH  16  17
ENDBRANCH  15  16
ENDBRANCH  14  15
ENDBRANCH  13  14
ENDBRANCH   1  13
TORSDOF 20
ENDMDL
MODEL 7
REMARK VINA RESULT:    -5.411      3.733      8.925
REMARK INTER + INTRA:         -13.987
REMARK INTER:                 -11.655
REMARK INTRA:                  -2.332
REMARK UNBOUND:                -2.250
REMARK SMILES CCCCCCCCCCCCCCCCCCCCCC(=O)[O-]
REMARK SMILES IDX 12 1 11 2 10 3 9 4 8 5 7 6 6 7 5 8 4 9 3 10 2 11 1 12 13 13
REMARK SMILES IDX 14 14 15 15 16 16 17 17 18 18 19 19 20 20 21 21 22 22 23 23
REMARK SMILES IDX 24 24
REMARK H PARENT
REMARK Flexibility Score: inf
ROOT
ATOM      1  C   UNL     1       1.991  -1.002  38.583  1.00  0.00     0.000 C 
ENDROOT
BRANCH   1   2
ATOM      2  C   UNL     1       2.549   0.155  37.739  1.00  0.00     0.000 C 
BRANCH   2   3
ATOM      3  C   UNL     1       4.085   0.170  37.776  1.00  0.00     0.000 C 
BRANCH   3   4
ATOM      4  C   UNL     1       4.706   0.255  36.372  1.00  0.00    -0.000 C 
BRANCH   4   5
ATOM      5  C   UNL     1       6.213   0.564  36.415  1.00  0.00    -0.000 C 
BRANCH   5   6
ATOM      6  C   UNL     1       7.024  -0.249  35.389  1.00  0.00    -0.000 C 
BRANCH   6   7
ATOM      7  C   UNL     1       8.334   0.408  34.918  1.00  0.00    -0.000 C 
BRANCH   7   8
ATOM      8  C   UNL     1       9.199   0.929  36.079  1.00  0.00    -0.000 C 
BRANCH   8   9
ATOM      9  C   UNL     1      10.494   1.598  35.587  1.00  0.00    -0.000 C 
BRANCH   9  10
ATOM     10  C   UNL     1      11.138   0.835  34.417  1.00  0.00    -0.000 C 
BRANCH  10  11
ATOM     11  C   UNL     1      12.651   0.640  34.604  1.00  0.00    -0.003 C 
ATOM     12  C   UNL     1      13.200   1.400  35.812  1.00  0.00     0.004 C 
ENDBRANCH  10  11
ENDBRANCH   9  10
ENDBRANCH   8   9
ENDBRANCH   7   8
ENDBRANCH   6   7
ENDBRANCH   5   6
ENDBRANCH   4   5
ENDBRANCH   3   4
ENDBRANCH   2   3
ENDBRANCH   1   2
BRANCH   1  13
ATOM     13  C   UNL     1       2.605  -1.052  39.991  1.00  0.00     0.000 C 
BRANCH  13  14
ATOM     14  C   UNL     1       2.504  -2.446  40.628  1.00  0.00     0.000 C 
BRANCH  14  15
ATOM     15  C   UNL     1       2.121  -3.500  39.579  1.00  0.00     0.000 C 
BRANCH  15  16
ATOM     16  C   UNL     1       3.340  -4.244  39.002  1.00  0.00     0.000 C 
BRANCH  16  17
ATOM     17  C   UNL     1       3.201  -4.673  37.529  1.00  0.00     0.000 C 
BRANCH  17  18
ATOM     18  C   UNL     1       3.796  -3.649  36.550  1.00  0.00     0.000 C 
BRANCH  18  19
ATOM     19  C   UNL     1       5.240  -3.294  36.931  1.00  0.00     0.000 C 
BRANCH  19  20
ATOM     20  C   UNL     1       6.257  -3.638  35.828  1.00  0.00     0.006 C 
BRANCH  20  21
ATOM     21  C   UNL     1       5.628  -4.266  34.572  1.00  0.00     0.053 C 
BRANCH  21  22
ATOM     22  C   UNL     1       6.011  -5.705  34.395  1.00  0.00     0.041 C 
ATOM     23  O   UNL     1       5.509  -6.590  35.136  1.00  0.00    -0.550 OA
ATOM     24  O   UNL     1       6.952  -6.064  33.436  1.00  0.00    -0.550 OA
ENDBRANCH  21  22
ENDBRANCH  20  21
ENDBRANCH  19  20
ENDBRANCH  18  19
ENDBRANCH  17  18
ENDBRANCH  16  17
ENDBRANCH  15  16
ENDBRANCH  14  15
ENDBRANCH  13  14
ENDBRANCH   1  13
TORSDOF 20
ENDMDL
MODEL 8
REMARK VINA RESULT:    -5.366      1.390      3.589
REMARK INTER + INTRA:         -13.890
REMARK INTER:                 -11.925
REMARK INTRA:                  -1.965
REMARK UNBOUND:                -2.250
REMARK SMILES CCCCCCCCCCCCCCCCCCCCCC(=O)[O-]
REMARK SMILES IDX 12 1 11 2 10 3 9 4 8 5 7 6 6 7 5 8 4 9 3 10 2 11 1 12 13 13
REMARK SMILES IDX 14 14 15 15 16 16 17 17 18 18 19 19 20 20 21 21 22 22 23 23
REMARK SMILES IDX 24 24
REMARK H PARENT
REMARK Flexibility Score: inf
ROOT
ATOM      1  C   UNL     1       3.160   0.122  37.874  1.00  0.00     0.000 C 
ENDROOT
BRANCH   1   2
ATOM      2  C   UNL     1       2.263  -0.956  38.502  1.00  0.00     0.000 C 
BRANCH   2   3
ATOM      3  C   UNL     1       2.628  -1.182  39.977  1.00  0.00     0.000 C 
BRANCH   3   4
ATOM      4  C   UNL     1       2.604  -2.669  40.368  1.00  0.00    -0.000 C 
BRANCH   4   5
ATOM      5  C   UNL     1       1.962  -3.551  39.282  1.00  0.00    -0.000 C 
BRANCH   5   6
ATOM      6  C   UNL     1       2.766  -4.833  38.996  1.00  0.00    -0.000 C 
BRANCH   6   7
ATOM      7  C   UNL     1       3.397  -4.912  37.594  1.00  0.00    -0.000 C 
BRANCH   7   8
ATOM      8  C   UNL     1       4.626  -4.002  37.434  1.00  0.00    -0.000 C 
BRANCH   8   9
ATOM      9  C   UNL     1       4.733  -3.410  36.018  1.00  0.00    -0.000 C 
BRANCH   9  10
ATOM     10  C   UNL     1       6.154  -3.528  35.440  1.00  0.00    -0.000 C 
BRANCH  10  11
ATOM     11  C   UNL     1       6.202  -4.387  34.167  1.00  0.00    -0.003 C 
ATOM     12  C   UNL     1       4.811  -4.750  33.646  1.00  0.00     0.004 C 
ENDBRANCH  10  11
ENDBRANCH   9  10
ENDBRANCH   8   9
ENDBRANCH   7   8
ENDBRANCH   6   7
ENDBRANCH   5   6
ENDBRANCH   4   5
ENDBRANCH   3   4
ENDBRANCH   2   3
ENDBRANCH   1   2
BRANCH   1  13
ATOM     13  C   UNL     1       4.503  -0.442  37.383  1.00  0.00     0.000 C 
BRANCH  13  14
ATOM     14  C   UNL     1       5.108   0.389  36.241  1.00  0.00     0.000 C 
BRANCH  14  15
ATOM     15  C   UNL     1       6.571  -0.006  35.994  1.00  0.00     0.000 C 
BRANCH  15  16
ATOM     16  C   UNL     1       7.566   1.107  36.374  1.00  0.00     0.000 C 
BRANCH  16  17
ATOM     17  C   UNL     1       8.674   1.368  35.336  1.00  0.00     0.000 C 
BRANCH  17  18
ATOM     18  C   UNL     1       8.646   0.371  34.168  1.00  0.00     0.000 C 
BRANCH  18  19
ATOM     19  C   UNL     1      10.067  -0.048  33.765  1.00  0.00     0.000 C 
BRANCH  19  20
ATOM     20  C   UNL     1      11.128   0.333  34.812  1.00  0.00     0.006 C 
BRANCH  20  21
ATOM     21  C   UNL     1      12.478   0.758  34.208  1.00  0.00     0.053 C 
BRANCH  21  22
ATOM     22  C   UNL     1      12.682   2.244  34.242  1.00  0.00     0.041 C 
ATOM     23  O   UNL     1      13.387   2.806  33.364  1.00  0.00    -0.550 OA
ATOM     24  O   UNL     1      12.124   3.001  35.265  1.00  0.00    -0.550 OA
ENDBRANCH  21  22
ENDBRANCH  20  21
ENDBRANCH  19  20
ENDBRANCH  18  19
ENDBRANCH  17  18
ENDBRANCH  16  17
ENDBRANCH  15  16
ENDBRANCH  14  15
ENDBRANCH  13  14
ENDBRANCH   1  13
TORSDOF 20
ENDMDL
MODEL 9
REMARK VINA RESULT:    -5.297      3.287      9.854
REMARK INTER + INTRA:         -13.740
REMARK INTER:                 -11.705
REMARK INTRA:                  -2.035
REMARK UNBOUND:                -2.250
REMARK SMILES CCCCCCCCCCCCCCCCCCCCCC(=O)[O-]
REMARK SMILES IDX 12 1 11 2 10 3 9 4 8 5 7 6 6 7 5 8 4 9 3 10 2 11 1 12 13 13
REMARK SMILES IDX 14 14 15 15 16 16 17 17 18 18 19 19 20 20 21 21 22 22 23 23
REMARK SMILES IDX 24 24
REMARK H PARENT
REMARK Flexibility Score: inf
ROOT
ATOM      1  C   UNL     1       5.276   0.516  36.320  1.00  0.00     0.000 C 
ENDROOT
BRANCH   1   2
ATOM      2  C   UNL     1       6.702   0.034  36.015  1.00  0.00     0.000 C 
BRANCH   2   3
ATOM      3  C   UNL     1       7.735   1.109  36.389  1.00  0.00     0.000 C 
BRANCH   3   4
ATOM      4  C   UNL     1       9.087   0.894  35.688  1.00  0.00    -0.000 C 
BRANCH   4   5
ATOM      5  C   UNL     1       9.109   1.478  34.265  1.00  0.00    -0.000 C 
BRANCH   5   6
ATOM      6  C   UNL     1      10.313   0.996  33.435  1.00  0.00    -0.000 C 
BRANCH   6   7
ATOM      7  C   UNL     1      11.227  -0.025  34.136  1.00  0.00    -0.000 C 
BRANCH   7   8
ATOM      8  C   UNL     1      12.637   0.522  34.420  1.00  0.00    -0.000 C 
BRANCH   8   9
ATOM      9  C   UNL     1      12.696   1.331  35.727  1.00  0.00    -0.000 C 
BRANCH   9  10
ATOM     10  C   UNL     1      12.891   2.836  35.475  1.00  0.00    -0.000 C 
BRANCH  10  11
ATOM     11  C   UNL     1      13.064   3.165  33.984  1.00  0.00    -0.003 C 
ATOM     12  C   UNL     1      12.302   4.422  33.563  1.00  0.00     0.004 C 
ENDBRANCH  10  11
ENDBRANCH   9  10
ENDBRANCH   8   9
ENDBRANCH   7   8
ENDBRANCH   6   7
ENDBRANCH   5   6
ENDBRANCH   4   5
ENDBRANCH   3   4
ENDBRANCH   2   3
ENDBRANCH   1   2
BRANCH   1  13
ATOM     13  C   UNL     1       4.461  -0.520  37.111  1.00  0.00     0.000 C 
BRANCH  13  14
ATOM     14  C   UNL     1       3.225   0.094  37.787  1.00  0.00     0.000 C 
BRANCH  14  15
ATOM     15  C   UNL     1       2.826  -0.712  39.031  1.00  0.00     0.000 C 
BRANCH  15  16
ATOM     16  C   UNL     1       1.478  -1.441  38.868  1.00  0.00     0.000 C 
BRANCH  16  17
ATOM     17  C   UNL     1       1.436  -2.866  39.452  1.00  0.00     0.000 C 
BRANCH  17  18
ATOM     18  C   UNL     1       1.654  -3.954  38.390  1.00  0.00     0.000 C 
BRANCH  18  19
ATOM     19  C   UNL     1       2.948  -4.735  38.656  1.00  0.00     0.000 C 
BRANCH  19  20
ATOM     20  C   UNL     1       4.190  -4.077  38.028  1.00  0.00     0.006 C 
BRANCH  20  21
ATOM     21  C   UNL     1       4.157  -4.021  36.491  1.00  0.00     0.053 C 
BRANCH  21  22
ATOM     22  C   UNL     1       5.465  -4.415  35.872  1.00  0.00     0.041 C 
ATOM     23  O   UNL     1       5.885  -5.597  35.977  1.00  0.00    -0.550 OA
ATOM     24  O   UNL     1       6.239  -3.467  35.212  1.00  0.00    -0.550 OA
ENDBRANCH  21  22
ENDBRANCH  20  21
ENDBRANCH  19  20
ENDBRANCH  18  19
ENDBRANCH  17  18
ENDBRANCH  16  17
ENDBRANCH  15  16
ENDBRANCH  14  15
ENDBRANCH  13  14
ENDBRANCH   1  13
TORSDOF 20
ENDMDL
