MODEL 1
REMARK VINA RESULT:     3.878      0.000      0.000
REMARK INTER + INTRA:           4.363
REMARK INTER:                   4.672
REMARK INTRA:                  -0.309
REMARK UNBOUND:                -0.309
REMARK SMILES O=c1c(O)c(-c2ccc(O)c(O)c2)oc2cc(O)cc(O)c12
REMARK SMILES IDX 5 1 3 2 2 3 1 4 22 5 20 6 19 7 17 8 16 9 15 10 14 11 6 12
REMARK SMILES IDX 7 13 8 14 9 15 13 16 11 17 10 18 12 20 4 22 21 24 18 26
REMARK H PARENT 10 19 12 21 4 23 21 25 18 27
REMARK Flexibility Score: inf
ROOT
ATOM      1  C   UNL     1     110.231 107.493 107.584  1.00  0.00     0.180 A 
ATOM      2  C   UNL     1     111.118 108.322 106.875  1.00  0.00     0.208 A 
ATOM      3  C   UNL     1     111.852 109.292 107.578  1.00  0.00     0.238 A 
ATOM      4  O   UNL     1     112.685 109.993 106.947  1.00  0.00    -0.285 OA
ATOM      5  C   UNL     1     111.677 109.431 108.976  1.00  0.00     0.111 A 
ATOM      6  C   UNL     1     112.339 110.406 109.782  1.00  0.00     0.134 A 
ATOM      7  C   UNL     1     112.190 110.368 111.174  1.00  0.00     0.093 A 
ATOM      8  C   UNL     1     111.351 109.431 111.783  1.00  0.00     0.123 A 
ATOM      9  C   UNL     1     110.655 108.513 111.000  1.00  0.00     0.094 A 
ATOM     10  C   UNL     1     110.812 108.503 109.612  1.00  0.00     0.146 A 
ATOM     11  O   UNL     1     110.138 107.605 108.904  1.00  0.00    -0.452 OA
ENDROOT
BRANCH   1  12
ATOM     12  C   UNL     1     109.404 106.466 106.910  1.00  0.00     0.025 A 
ATOM     13  C   UNL     1     108.223 106.809 106.228  1.00  0.00     0.016 A 
ATOM     14  C   UNL     1     107.446 105.819 105.620  1.00  0.00     0.051 A 
ATOM     15  C   UNL     1     107.829 104.474 105.694  1.00  0.00     0.157 A 
ATOM     16  C   UNL     1     109.772 105.114 106.999  1.00  0.00     0.062 A 
ATOM     17  C   UNL     1     108.997 104.120 106.391  1.00  0.00     0.158 A 
BRANCH  15  18
ATOM     18  O   UNL     1     107.053 103.490 105.084  1.00  0.00    -0.504 OA
ATOM     19  H   UNL     1     106.283 103.727 104.470  1.00  0.00     0.293 HD
ENDBRANCH  15  18
BRANCH  17  20
ATOM     20  O   UNL     1     109.402 102.789 106.490  1.00  0.00    -0.504 OA
ATOM     21  H   UNL     1     109.091 102.188 107.243  1.00  0.00     0.293 HD
ENDBRANCH  17  20
ENDBRANCH   1  12
BRANCH   2  22
ATOM     22  O   UNL     1     111.292 108.153 105.499  1.00  0.00    -0.502 OA
ATOM     23  H   UNL     1     111.780 108.829 104.925  1.00  0.00     0.293 HD
ENDBRANCH   2  22
BRANCH   6  24
ATOM     24  O   UNL     1     113.125 111.441 109.267  1.00  0.00    -0.507 OA
ATOM     25  H   UNL     1     112.765 112.316 108.917  1.00  0.00     0.293 HD
ENDBRANCH   6  24
BRANCH   8  26
ATOM     26  O   UNL     1     111.196 109.410 113.167  1.00  0.00    -0.508 OA
ATOM     27  H   UNL     1     111.729 108.776 113.751  1.00  0.00     0.293 HD
ENDBRANCH   8  26
TORSDOF 6
ENDMDL
MODEL 2
REMARK VINA RESULT:     5.002      3.422      5.276
REMARK INTER + INTRA:           5.716
REMARK INTER:                   5.896
REMARK INTRA:                  -0.180
REMARK UNBOUND:                -0.309
REMARK SMILES O=c1c(O)c(-c2ccc(O)c(O)c2)oc2cc(O)cc(O)c12
REMARK SMILES IDX 5 1 3 2 2 3 1 4 22 5 20 6 19 7 17 8 16 9 15 10 14 11 6 12
REMARK SMILES IDX 7 13 8 14 9 15 13 16 11 17 10 18 12 20 4 22 21 24 18 26
REMARK H PARENT 10 19 12 21 4 23 21 25 18 27
REMARK Flexibility Score: inf
ROOT
ATOM      1  C   UNL     1     111.835 109.509 108.926  1.00  0.00     0.180 A 
ATOM      2  C   UNL     1     111.009 108.463 109.376  1.00  0.00     0.208 A 
ATOM      3  C   UNL     1     110.791 108.315 110.755  1.00  0.00     0.238 A 
ATOM      4  O   UNL     1     110.007 107.411 111.149  1.00  0.00    -0.285 OA
ATOM      5  C   UNL     1     111.412 109.202 111.667  1.00  0.00     0.111 A 
ATOM      6  C   UNL     1     111.292 109.119 113.087  1.00  0.00     0.134 A 
ATOM      7  C   UNL     1     111.843 110.128 113.887  1.00  0.00     0.093 A 
ATOM      8  C   UNL     1     112.566 111.181 113.321  1.00  0.00     0.123 A 
ATOM      9  C   UNL     1     112.739 111.238 111.940  1.00  0.00     0.094 A 
ATOM     10  C   UNL     1     112.170 110.266 111.113  1.00  0.00     0.146 A 
ATOM     11  O   UNL     1     112.349 110.364 109.802  1.00  0.00    -0.452 OA
ENDROOT
BRANCH   1  12
ATOM     12  C   UNL     1     112.134 109.715 107.490  1.00  0.00     0.025 A 
ATOM     13  C   UNL     1     112.831 108.751 106.743  1.00  0.00     0.016 A 
ATOM     14  C   UNL     1     113.123 108.978 105.395  1.00  0.00     0.051 A 
ATOM     15  C   UNL     1     112.734 110.173 104.778  1.00  0.00     0.157 A 
ATOM     16  C   UNL     1     111.765 110.921 106.873  1.00  0.00     0.062 A 
ATOM     17  C   UNL     1     112.054 111.151 105.524  1.00  0.00     0.158 A 
BRANCH  15  18
ATOM     18  O   UNL     1     113.025 110.395 103.433  1.00  0.00    -0.504 OA
ATOM     19  H   UNL     1     113.365 109.652 102.834  1.00  0.00     0.293 HD
ENDBRANCH  15  18
BRANCH  17  20
ATOM     20  O   UNL     1     111.660 112.356 104.942  1.00  0.00    -0.504 OA
ATOM     21  H   UNL     1     111.002 112.981 105.393  1.00  0.00     0.293 HD
ENDBRANCH  17  20
ENDBRANCH   1  12
BRANCH   2  22
ATOM     22  O   UNL     1     110.389 107.612 108.457  1.00  0.00    -0.502 OA
ATOM     23  H   UNL     1     109.838 106.813 108.743  1.00  0.00     0.293 HD
ENDBRANCH   2  22
BRANCH   6  24
ATOM     24  O   UNL     1     110.671 108.061 113.758  1.00  0.00    -0.507 OA
ATOM     25  H   UNL     1     111.044 107.599 114.573  1.00  0.00     0.293 HD
ENDBRANCH   6  24
BRANCH   8  26
ATOM     26  O   UNL     1     113.125 112.172 114.125  1.00  0.00    -0.508 OA
ATOM     27  H   UNL     1     114.109 112.405 114.073  1.00  0.00     0.293 HD
ENDBRANCH   8  26
TORSDOF 6
ENDMDL
MODEL 3
REMARK VINA RESULT:     5.261      0.598      1.453
REMARK INTER + INTRA:           6.029
REMARK INTER:                   6.306
REMARK INTRA:                  -0.277
REMARK UNBOUND:                -0.309
REMARK SMILES O=c1c(O)c(-c2ccc(O)c(O)c2)oc2cc(O)cc(O)c12
REMARK SMILES IDX 5 1 3 2 2 3 1 4 22 5 20 6 19 7 17 8 16 9 15 10 14 11 6 12
REMARK SMILES IDX 7 13 8 14 9 15 13 16 11 17 10 18 12 20 4 22 21 24 18 26
REMARK H PARENT 10 19 12 21 4 23 21 25 18 27
REMARK Flexibility Score: inf
ROOT
ATOM      1  C   UNL     1     110.289 107.418 107.672  1.00  0.00     0.180 A 
ATOM      2  C   UNL     1     111.176 108.244 106.959  1.00  0.00     0.208 A 
ATOM      3  C   UNL     1     111.890 109.234 107.653  1.00  0.00     0.238 A 
ATOM      4  O   UNL     1     112.724 109.933 107.020  1.00  0.00    -0.285 OA
ATOM      5  C   UNL     1     111.696 109.398 109.046  1.00  0.00     0.111 A 
ATOM      6  C   UNL     1     112.336 110.396 109.841  1.00  0.00     0.134 A 
ATOM      7  C   UNL     1     112.170 110.382 111.232  1.00  0.00     0.093 A 
ATOM      8  C   UNL     1     111.333 109.447 111.847  1.00  0.00     0.123 A 
ATOM      9  C   UNL     1     110.658 108.507 111.073  1.00  0.00     0.094 A 
ATOM     10  C   UNL     1     110.832 108.472 109.688  1.00  0.00     0.146 A 
ATOM     11  O   UNL     1     110.178 107.554 108.988  1.00  0.00    -0.452 OA
ENDROOT
BRANCH   1  12
ATOM     12  C   UNL     1     109.482 106.369 107.007  1.00  0.00     0.025 A 
ATOM     13  C   UNL     1     109.849 105.014 107.070  1.00  0.00     0.016 A 
ATOM     14  C   UNL     1     109.086 104.044 106.415  1.00  0.00     0.051 A 
ATOM     15  C   UNL     1     107.954 104.414 105.678  1.00  0.00     0.157 A 
ATOM     16  C   UNL     1     108.359 106.737 106.250  1.00  0.00     0.062 A 
ATOM     17  C   UNL     1     107.591 105.769 105.593  1.00  0.00     0.158 A 
BRANCH  15  18
ATOM     18  O   UNL     1     107.193 103.444 105.027  1.00  0.00    -0.504 OA
ATOM     19  H   UNL     1     106.514 102.881 105.525  1.00  0.00     0.293 HD
ENDBRANCH  15  18
BRANCH  17  20
ATOM     20  O   UNL     1     106.474 106.172 104.861  1.00  0.00    -0.504 OA
ATOM     21  H   UNL     1     106.358 105.934 103.883  1.00  0.00     0.293 HD
ENDBRANCH  17  20
ENDBRANCH   1  12
BRANCH   2  22
ATOM     22  O   UNL     1     111.369 108.051 105.588  1.00  0.00    -0.502 OA
ATOM     23  H   UNL     1     111.268 108.799 104.914  1.00  0.00     0.293 HD
ENDBRANCH   2  22
BRANCH   6  24
ATOM     24  O   UNL     1     113.117 111.430 109.317  1.00  0.00    -0.507 OA
ATOM     25  H   UNL     1     113.670 111.363 108.476  1.00  0.00     0.293 HD
ENDBRANCH   6  24
BRANCH   8  26
ATOM     26  O   UNL     1     111.161 109.450 113.230  1.00  0.00    -0.508 OA
ATOM     27  H   UNL     1     111.910 109.186 113.858  1.00  0.00     0.293 HD
ENDBRANCH   8  26
TORSDOF 6
ENDMDL
