MODEL 1
REMARK VINA RESULT:    -4.700      0.000      0.000
REMARK INTER + INTRA:          -4.838
REMARK INTER:                  -4.838
REMARK INTRA:                   0.000
REMARK UNBOUND:                 0.000
REMARK SMILES O=c1ccc2ccc(O)cc2o1
REMARK SMILES IDX 6 1 7 2 8 3 10 4 11 5 5 6 4 7 3 8 2 9 1 10 12 11 9 12
REMARK H PARENT 9 13
REMARK Flexibility Score: inf
ROOT
ATOM      1  C   UNL     1     -42.949 -36.958 -19.850  1.00  0.00     0.016 A 
ATOM      2  C   UNL     1     -43.205 -35.593 -19.685  1.00  0.00     0.047 A 
ATOM      3  C   UNL     1     -42.195 -34.648 -19.927  1.00  0.00     0.119 A 
ATOM      4  C   UNL     1     -40.926 -35.073 -20.336  1.00  0.00     0.094 A 
ATOM      5  C   UNL     1     -40.661 -36.437 -20.505  1.00  0.00     0.142 A 
ATOM      6  C   UNL     1     -41.678 -37.385 -20.260  1.00  0.00     0.018 A 
ATOM      7  C   UNL     1     -41.383 -38.741 -20.437  1.00  0.00     0.019 A 
ATOM      8  C   UNL     1     -40.104 -39.114 -20.846  1.00  0.00     0.094 A 
ATOM      9  C   UNL     1     -39.145 -38.120 -21.070  1.00  0.00     0.336 A 
ATOM     10  O   UNL     1     -37.984 -38.437 -21.439  1.00  0.00    -0.246 OA
ATOM     11  O   UNL     1     -39.452 -36.837 -20.894  1.00  0.00    -0.423 OA
ENDROOT
BRANCH   3  12
ATOM     12  O   UNL     1     -42.444 -33.287 -19.764  1.00  0.00    -0.508 OA
ATOM     13  H   UNL     1     -43.021 -32.942 -19.006  1.00  0.00     0.293 HD
ENDBRANCH   3  12
TORSDOF 1
ENDMDL
MODEL 2
REMARK VINA RESULT:    -4.545      1.747      2.498
REMARK INTER + INTRA:          -4.678
REMARK INTER:                  -4.678
REMARK INTRA:                   0.000
REMARK UNBOUND:                 0.000
REMARK SMILES O=c1ccc2ccc(O)cc2o1
REMARK SMILES IDX 6 1 7 2 8 3 10 4 11 5 5 6 4 7 3 8 2 9 1 10 12 11 9 12
REMARK H PARENT 9 13
REMARK Flexibility Score: inf
ROOT
ATOM      1  C   UNL     1     -39.749 -35.668 -20.377  1.00  0.00     0.016 A 
ATOM      2  C   UNL     1     -40.500 -34.506 -20.170  1.00  0.00     0.047 A 
ATOM      3  C   UNL     1     -41.891 -34.582 -20.002  1.00  0.00     0.119 A 
ATOM      4  C   UNL     1     -42.531 -35.826 -20.041  1.00  0.00     0.094 A 
ATOM      5  C   UNL     1     -41.788 -36.994 -20.246  1.00  0.00     0.142 A 
ATOM      6  C   UNL     1     -40.388 -36.914 -20.416  1.00  0.00     0.018 A 
ATOM      7  C   UNL     1     -39.672 -38.099 -20.620  1.00  0.00     0.019 A 
ATOM      8  C   UNL     1     -40.355 -39.314 -20.650  1.00  0.00     0.094 A 
ATOM      9  C   UNL     1     -41.744 -39.317 -20.475  1.00  0.00     0.336 A 
ATOM     10  O   UNL     1     -42.379 -40.403 -20.499  1.00  0.00    -0.246 OA
ATOM     11  O   UNL     1     -42.401 -38.176 -20.283  1.00  0.00    -0.423 OA
ENDROOT
BRANCH   3  12
ATOM     12  O   UNL     1     -42.645 -33.429 -19.796  1.00  0.00    -0.508 OA
ATOM     13  H   UNL     1     -42.208 -32.518 -19.719  1.00  0.00     0.293 HD
ENDBRANCH   3  12
TORSDOF 1
ENDMDL
MODEL 3
REMARK VINA RESULT:    -4.515      1.337      2.172
REMARK INTER + INTRA:          -4.646
REMARK INTER:                  -4.646
REMARK INTRA:                   0.000
REMARK UNBOUND:                 0.000
REMARK SMILES O=c1ccc2ccc(O)cc2o1
REMARK SMILES IDX 6 1 7 2 8 3 10 4 11 5 5 6 4 7 3 8 2 9 1 10 12 11 9 12
REMARK H PARENT 9 13
REMARK Flexibility Score: inf
ROOT
ATOM      1  C   UNL     1     -40.470 -34.855 -20.288  1.00  0.00     0.016 A 
ATOM      2  C   UNL     1     -41.726 -34.407 -19.865  1.00  0.00     0.047 A 
ATOM      3  C   UNL     1     -42.754 -35.327 -19.605  1.00  0.00     0.119 A 
ATOM      4  C   UNL     1     -42.523 -36.697 -19.768  1.00  0.00     0.094 A 
ATOM      5  C   UNL     1     -41.270 -37.154 -20.190  1.00  0.00     0.142 A 
ATOM      6  C   UNL     1     -40.236 -36.227 -20.452  1.00  0.00     0.018 A 
ATOM      7  C   UNL     1     -38.995 -36.715 -20.872  1.00  0.00     0.019 A 
ATOM      8  C   UNL     1     -38.813 -38.089 -21.020  1.00  0.00     0.094 A 
ATOM      9  C   UNL     1     -39.883 -38.949 -20.742  1.00  0.00     0.336 A 
ATOM     10  O   UNL     1     -39.739 -40.192 -20.869  1.00  0.00    -0.246 OA
ATOM     11  O   UNL     1     -41.054 -38.459 -20.344  1.00  0.00    -0.423 OA
ENDROOT
BRANCH   3  12
ATOM     12  O   UNL     1     -44.008 -34.887 -19.184  1.00  0.00    -0.508 OA
ATOM     13  H   UNL     1     -44.173 -33.919 -18.935  1.00  0.00     0.293 HD
ENDBRANCH   3  12
TORSDOF 1
ENDMDL
MODEL 4
REMARK VINA RESULT:    -4.503      1.519      4.761
REMARK INTER + INTRA:          -4.634
REMARK INTER:                  -4.634
REMARK INTRA:                   0.000
REMARK UNBOUND:                 0.000
REMARK SMILES O=c1ccc2ccc(O)cc2o1
REMARK SMILES IDX 6 1 7 2 8 3 10 4 11 5 5 6 4 7 3 8 2 9 1 10 12 11 9 12
REMARK H PARENT 9 13
REMARK Flexibility Score: inf
ROOT
ATOM      1  C   UNL     1     -38.740 -37.229 -21.017  1.00  0.00     0.016 A 
ATOM      2  C   UNL     1     -38.705 -38.599 -21.297  1.00  0.00     0.047 A 
ATOM      3  C   UNL     1     -39.870 -39.374 -21.184  1.00  0.00     0.119 A 
ATOM      4  C   UNL     1     -41.071 -38.775 -20.790  1.00  0.00     0.094 A 
ATOM      5  C   UNL     1     -41.116 -37.405 -20.509  1.00  0.00     0.142 A 
ATOM      6  C   UNL     1     -39.942 -36.627 -20.622  1.00  0.00     0.018 A 
ATOM      7  C   UNL     1     -40.018 -35.260 -20.334  1.00  0.00     0.019 A 
ATOM      8  C   UNL     1     -41.239 -34.710 -19.946  1.00  0.00     0.094 A 
ATOM      9  C   UNL     1     -42.361 -35.542 -19.854  1.00  0.00     0.336 A 
ATOM     10  O   UNL     1     -43.471 -35.064 -19.505  1.00  0.00    -0.246 OA
ATOM     11  O   UNL     1     -42.261 -36.839 -20.134  1.00  0.00    -0.423 OA
ENDROOT
BRANCH   3  12
ATOM     12  O   UNL     1     -39.841 -40.740 -21.461  1.00  0.00    -0.508 OA
ATOM     13  H   UNL     1     -39.341 -41.107 -22.262  1.00  0.00     0.293 HD
ENDBRANCH   3  12
TORSDOF 1
ENDMDL
MODEL 5
REMARK VINA RESULT:    -4.416      7.343      9.016
REMARK INTER + INTRA:          -4.545
REMARK INTER:                  -4.545
REMARK INTRA:                   0.000
REMARK UNBOUND:                 0.000
REMARK SMILES O=c1ccc2ccc(O)cc2o1
REMARK SMILES IDX 6 1 7 2 8 3 10 4 11 5 5 6 4 7 3 8 2 9 1 10 12 11 9 12
REMARK H PARENT 9 13
REMARK Flexibility Score: inf
ROOT
ATOM      1  C   UNL     1     -47.427 -37.019 -18.389  1.00  0.00     0.016 A 
ATOM      2  C   UNL     1     -47.079 -35.796 -17.806  1.00  0.00     0.047 A 
ATOM      3  C   UNL     1     -47.998 -34.735 -17.784  1.00  0.00     0.119 A 
ATOM      4  C   UNL     1     -49.268 -34.901 -18.346  1.00  0.00     0.094 A 
ATOM      5  C   UNL     1     -49.626 -36.122 -18.931  1.00  0.00     0.142 A 
ATOM      6  C   UNL     1     -48.699 -37.187 -18.953  1.00  0.00     0.018 A 
ATOM      7  C   UNL     1     -49.085 -38.395 -19.544  1.00  0.00     0.019 A 
ATOM      8  C   UNL     1     -50.362 -38.511 -20.091  1.00  0.00     0.094 A 
ATOM      9  C   UNL     1     -51.228 -37.413 -20.033  1.00  0.00     0.336 A 
ATOM     10  O   UNL     1     -52.385 -37.498 -20.521  1.00  0.00    -0.246 OA
ATOM     11  O   UNL     1     -50.836 -36.275 -19.465  1.00  0.00    -0.423 OA
ENDROOT
BRANCH   3  12
ATOM     12  O   UNL     1     -47.657 -33.514 -17.206  1.00  0.00    -0.508 OA
ATOM     13  H   UNL     1     -46.959 -33.452 -16.474  1.00  0.00     0.293 HD
ENDBRANCH   3  12
TORSDOF 1
ENDMDL
MODEL 6
REMARK VINA RESULT:    -4.325      1.906      4.484
REMARK INTER + INTRA:          -4.451
REMARK INTER:                  -4.451
REMARK INTRA:                   0.000
REMARK UNBOUND:                 0.000
REMARK SMILES O=c1ccc2ccc(O)cc2o1
REMARK SMILES IDX 6 1 7 2 8 3 10 4 11 5 5 6 4 7 3 8 2 9 1 10 12 11 9 12
REMARK H PARENT 9 13
REMARK Flexibility Score: inf
ROOT
ATOM      1  C   UNL     1     -40.068 -35.067 -19.998  1.00  0.00     0.016 A 
ATOM      2  C   UNL     1     -39.002 -35.948 -20.210  1.00  0.00     0.047 A 
ATOM      3  C   UNL     1     -39.247 -37.306 -20.467  1.00  0.00     0.119 A 
ATOM      4  C   UNL     1     -40.562 -37.782 -20.512  1.00  0.00     0.094 A 
ATOM      5  C   UNL     1     -41.635 -36.907 -20.303  1.00  0.00     0.142 A 
ATOM      6  C   UNL     1     -41.386 -35.541 -20.043  1.00  0.00     0.018 A 
ATOM      7  C   UNL     1     -42.478 -34.692 -19.837  1.00  0.00     0.019 A 
ATOM      8  C   UNL     1     -43.770 -35.213 -19.893  1.00  0.00     0.094 A 
ATOM      9  C   UNL     1     -43.941 -36.577 -20.154  1.00  0.00     0.336 A 
ATOM     10  O   UNL     1     -45.099 -37.067 -20.209  1.00  0.00    -0.246 OA
ATOM     11  O   UNL     1     -42.885 -37.364 -20.347  1.00  0.00    -0.423 OA
ENDROOT
BRANCH   3  12
ATOM     12  O   UNL     1     -38.190 -38.189 -20.678  1.00  0.00    -0.508 OA
ATOM     13  H   UNL     1     -37.269 -37.859 -20.939  1.00  0.00     0.293 HD
ENDBRANCH   3  12
TORSDOF 1
ENDMDL
MODEL 7
REMARK VINA RESULT:    -4.285      2.032      4.256
REMARK INTER + INTRA:          -4.410
REMARK INTER:                  -4.410
REMARK INTRA:                   0.000
REMARK UNBOUND:                 0.000
REMARK SMILES O=c1ccc2ccc(O)cc2o1
REMARK SMILES IDX 6 1 7 2 8 3 10 4 11 5 5 6 4 7 3 8 2 9 1 10 12 11 9 12
REMARK H PARENT 9 13
REMARK Flexibility Score: inf
ROOT
ATOM      1  C   UNL     1     -39.698 -39.561 -20.734  1.00  0.00     0.016 A 
ATOM      2  C   UNL     1     -40.757 -40.468 -20.620  1.00  0.00     0.047 A 
ATOM      3  C   UNL     1     -42.060 -40.007 -20.375  1.00  0.00     0.119 A 
ATOM      4  C   UNL     1     -42.302 -38.636 -20.244  1.00  0.00     0.094 A 
ATOM      5  C   UNL     1     -41.249 -37.721 -20.357  1.00  0.00     0.142 A 
ATOM      6  C   UNL     1     -39.938 -38.187 -20.603  1.00  0.00     0.018 A 
ATOM      7  C   UNL     1     -38.906 -37.249 -20.711  1.00  0.00     0.019 A 
ATOM      8  C   UNL     1     -39.197 -35.892 -20.573  1.00  0.00     0.094 A 
ATOM      9  C   UNL     1     -40.520 -35.503 -20.329  1.00  0.00     0.336 A 
ATOM     10  O   UNL     1     -40.803 -34.284 -20.202  1.00  0.00    -0.246 OA
ATOM     11  O   UNL     1     -41.483 -36.416 -20.231  1.00  0.00    -0.423 OA
ENDROOT
BRANCH   3  12
ATOM     12  O   UNL     1     -43.119 -40.905 -20.260  1.00  0.00    -0.508 OA
ATOM     13  H   UNL     1     -43.701 -41.141 -21.055  1.00  0.00     0.293 HD
ENDBRANCH   3  12
TORSDOF 1
ENDMDL
MODEL 8
REMARK VINA RESULT:    -4.054      2.098      3.024
REMARK INTER + INTRA:          -4.172
REMARK INTER:                  -4.172
REMARK INTRA:                   0.000
REMARK UNBOUND:                 0.000
REMARK SMILES O=c1ccc2ccc(O)cc2o1
REMARK SMILES IDX 6 1 7 2 8 3 10 4 11 5 5 6 4 7 3 8 2 9 1 10 12 11 9 12
REMARK H PARENT 9 13
REMARK Flexibility Score: inf
ROOT
ATOM      1  C   UNL     1     -41.507 -35.294 -20.244  1.00  0.00     0.016 A 
ATOM      2  C   UNL     1     -40.233 -34.847 -19.880  1.00  0.00     0.047 A 
ATOM      3  C   UNL     1     -39.150 -35.740 -19.856  1.00  0.00     0.119 A 
ATOM      4  C   UNL     1     -39.344 -37.082 -20.200  1.00  0.00     0.094 A 
ATOM      5  C   UNL     1     -40.616 -37.538 -20.567  1.00  0.00     0.142 A 
ATOM      6  C   UNL     1     -41.705 -36.638 -20.588  1.00  0.00     0.018 A 
ATOM      7  C   UNL     1     -42.963 -37.123 -20.959  1.00  0.00     0.019 A 
ATOM      8  C   UNL     1     -43.106 -38.469 -21.293  1.00  0.00     0.094 A 
ATOM      9  C   UNL     1     -41.983 -39.303 -21.249  1.00  0.00     0.336 A 
ATOM     10  O   UNL     1     -42.092 -40.521 -21.547  1.00  0.00    -0.246 OA
ATOM     11  O   UNL     1     -40.796 -38.816 -20.893  1.00  0.00    -0.423 OA
ENDROOT
BRANCH   3  12
ATOM     12  O   UNL     1     -37.878 -35.301 -19.494  1.00  0.00    -0.508 OA
ATOM     13  H   UNL     1     -37.690 -34.324 -19.302  1.00  0.00     0.293 HD
ENDBRANCH   3  12
TORSDOF 1
ENDMDL
MODEL 9
REMARK VINA RESULT:    -4.034      1.696      3.930
REMARK INTER + INTRA:          -4.152
REMARK INTER:                  -4.152
REMARK INTRA:                   0.000
REMARK UNBOUND:                 0.000
REMARK SMILES O=c1ccc2ccc(O)cc2o1
REMARK SMILES IDX 6 1 7 2 8 3 10 4 11 5 5 6 4 7 3 8 2 9 1 10 12 11 9 12
REMARK H PARENT 9 13
REMARK Flexibility Score: inf
ROOT
ATOM      1  C   UNL     1     -40.099 -38.200 -20.662  1.00  0.00     0.016 A 
ATOM      2  C   UNL     1     -38.949 -37.403 -20.676  1.00  0.00     0.047 A 
ATOM      3  C   UNL     1     -39.018 -36.056 -20.285  1.00  0.00     0.119 A 
ATOM      4  C   UNL     1     -40.239 -35.509 -19.879  1.00  0.00     0.094 A 
ATOM      5  C   UNL     1     -41.394 -36.299 -19.861  1.00  0.00     0.142 A 
ATOM      6  C   UNL     1     -41.324 -37.653 -20.256  1.00  0.00     0.018 A 
ATOM      7  C   UNL     1     -42.495 -38.418 -20.228  1.00  0.00     0.019 A 
ATOM      8  C   UNL     1     -43.688 -37.827 -19.815  1.00  0.00     0.094 A 
ATOM      9  C   UNL     1     -43.683 -36.479 -19.439  1.00  0.00     0.336 A 
ATOM     10  O   UNL     1     -44.750 -35.927 -19.064  1.00  0.00    -0.246 OA
ATOM     11  O   UNL     1     -42.555 -35.773 -19.474  1.00  0.00    -0.423 OA
ENDROOT
BRANCH   3  12
ATOM     12  O   UNL     1     -37.877 -35.257 -20.296  1.00  0.00    -0.508 OA
ATOM     13  H   UNL     1     -37.603 -34.737 -21.122  1.00  0.00     0.293 HD
ENDBRANCH   3  12
TORSDOF 1
ENDMDL
