MODEL 1
REMARK VINA RESULT:    13.417      0.000      0.000
REMARK INTER + INTRA:          23.881
REMARK INTER:                  24.397
REMARK INTRA:                  -0.516
REMARK UNBOUND:                -0.516
REMARK SMILES CCCCCCCCCCCCCCCC(=O)[O-]
REMARK SMILES IDX 9 1 10 2 11 3 12 4 13 5 14 6 15 7 16 8 17 9 18 10 8 11 7 12
REMARK SMILES IDX 6 13 5 14 4 15 3 16 2 17 1 18
REMARK H PARENT
REMARK Flexibility Score: inf
ROOT
ATOM      1  C   UNL     1       5.822  19.333  50.208  1.00  0.00     0.000 C 
ENDROOT
BRANCH   1   2
ATOM      2  C   UNL     1       5.334  18.911  48.810  1.00  0.00     0.000 C 
BRANCH   2   3
ATOM      3  C   UNL     1       6.356  18.011  48.084  1.00  0.00     0.000 C 
BRANCH   3   4
ATOM      4  C   UNL     1       5.925  17.618  46.661  1.00  0.00     0.000 C 
BRANCH   4   5
ATOM      5  C   UNL     1       6.250  16.154  46.322  1.00  0.00     0.000 C 
BRANCH   5   6
ATOM      6  C   UNL     1       7.421  16.021  45.335  1.00  0.00     0.006 C 
BRANCH   6   7
ATOM      7  C   UNL     1       8.530  15.099  45.856  1.00  0.00     0.053 C 
BRANCH   7   8
ATOM      8  C   UNL     1       8.839  14.034  44.851  1.00  0.00     0.041 C 
ATOM      9  O   UNL     1       9.163  14.348  43.676  1.00  0.00    -0.550 OA
ATOM     10  O   UNL     1       8.723  12.694  45.198  1.00  0.00    -0.550 OA
ENDBRANCH   7   8
ENDBRANCH   6   7
ENDBRANCH   5   6
ENDBRANCH   4   5
ENDBRANCH   3   4
ENDBRANCH   2   3
ENDBRANCH   1   2
BRANCH   1  11
ATOM     11  C   UNL     1       4.815  20.230  50.950  1.00  0.00     0.000 C 
BRANCH  11  12
ATOM     12  C   UNL     1       5.141  20.486  52.433  1.00  0.00    -0.000 C 
BRANCH  12  13
ATOM     13  C   UNL     1       3.891  20.794  53.276  1.00  0.00    -0.000 C 
BRANCH  13  14
ATOM     14  C   UNL     1       4.095  21.995  54.215  1.00  0.00    -0.000 C 
BRANCH  14  15
ATOM     15  C   UNL     1       4.625  21.577  55.598  1.00  0.00    -0.000 C 
BRANCH  15  16
ATOM     16  C   UNL     1       6.110  21.923  55.790  1.00  0.00    -0.000 C 
BRANCH  16  17
ATOM     17  C   UNL     1       6.999  20.677  55.920  1.00  0.00    -0.003 C 
ATOM     18  C   UNL     1       8.478  21.051  55.876  1.00  0.00     0.004 C 
ENDBRANCH  16  17
ENDBRANCH  15  16
ENDBRANCH  14  15
ENDBRANCH  13  14
ENDBRANCH  12  13
ENDBRANCH  11  12
ENDBRANCH   1  11
TORSDOF 14
ENDMDL
MODEL 2
REMARK VINA RESULT:    14.940     10.616     11.167
REMARK INTER + INTRA:          26.652
REMARK INTER:                  23.955
REMARK INTRA:                   2.697
REMARK UNBOUND:                -0.516
REMARK SMILES CCCCCCCCCCCCCCCC(=O)[O-]
REMARK SMILES IDX 9 1 10 2 11 3 12 4 13 5 14 6 15 7 16 8 17 9 18 10 8 11 7 12
REMARK SMILES IDX 6 13 5 14 4 15 3 16 2 17 1 18
REMARK H PARENT
REMARK Flexibility Score: inf
ROOT
ATOM      1  C   UNL     1       2.649  10.849  53.504  1.00  0.00     0.000 C 
ENDROOT
BRANCH   1   2
ATOM      2  C   UNL     1       2.402  10.593  52.007  1.00  0.00     0.000 C 
BRANCH   2   3
ATOM      3  C   UNL     1       3.106   9.313  51.511  1.00  0.00     0.000 C 
BRANCH   3   4
ATOM      4  C   UNL     1       4.499   9.100  52.128  1.00  0.00     0.000 C 
BRANCH   4   5
ATOM      5  C   UNL     1       4.496   8.064  53.265  1.00  0.00     0.000 C 
BRANCH   5   6
ATOM      6  C   UNL     1       3.288   7.116  53.198  1.00  0.00     0.006 C 
BRANCH   6   7
ATOM      7  C   UNL     1       3.556   5.771  53.884  1.00  0.00     0.053 C 
BRANCH   7   8
ATOM      8  C   UNL     1       3.816   5.972  55.344  1.00  0.00     0.041 C 
ATOM      9  O   UNL     1       3.384   7.000  55.928  1.00  0.00    -0.550 OA
ATOM     10  O   UNL     1       4.576   5.048  56.050  1.00  0.00    -0.550 OA
ENDBRANCH   7   8
ENDBRANCH   6   7
ENDBRANCH   5   6
ENDBRANCH   4   5
ENDBRANCH   3   4
ENDBRANCH   2   3
ENDBRANCH   1   2
BRANCH   1  11
ATOM     11  C   UNL     1       2.195   9.680  54.397  1.00  0.00     0.000 C 
BRANCH  11  12
ATOM     12  C   UNL     1       3.164   9.315  55.535  1.00  0.00    -0.000 C 
BRANCH  12  13
ATOM     13  C   UNL     1       3.884  10.541  56.124  1.00  0.00    -0.000 C 
BRANCH  13  14
ATOM     14  C   UNL     1       5.242  10.805  55.452  1.00  0.00    -0.000 C 
BRANCH  14  15
ATOM     15  C   UNL     1       5.917  12.087  55.970  1.00  0.00    -0.000 C 
BRANCH  15  16
ATOM     16  C   UNL     1       7.008  12.605  55.020  1.00  0.00    -0.000 C 
BRANCH  16  17
ATOM     17  C   UNL     1       7.381  14.071  55.287  1.00  0.00    -0.003 C 
ATOM     18  C   UNL     1       8.586  14.492  54.451  1.00  0.00     0.004 C 
ENDBRANCH  16  17
ENDBRANCH  15  16
ENDBRANCH  14  15
ENDBRANCH  13  14
ENDBRANCH  12  13
ENDBRANCH  11  12
ENDBRANCH   1  11
TORSDOF 14
ENDMDL
MODEL 3
REMARK VINA RESULT:    15.919      5.686     11.360
REMARK INTER + INTRA:          28.432
REMARK INTER:                  28.597
REMARK INTRA:                  -0.165
REMARK UNBOUND:                -0.516
REMARK SMILES CCCCCCCCCCCCCCCC(=O)[O-]
REMARK SMILES IDX 9 1 10 2 11 3 12 4 13 5 14 6 15 7 16 8 17 9 18 10 8 11 7 12
REMARK SMILES IDX 6 13 5 14 4 15 3 16 2 17 1 18
REMARK H PARENT
REMARK Flexibility Score: inf
ROOT
ATOM      1  C   UNL     1      11.395  13.500  43.082  1.00  0.00     0.000 C 
ENDROOT
BRANCH   1   2
ATOM      2  C   UNL     1       9.893  13.430  43.412  1.00  0.00     0.000 C 
BRANCH   2   3
ATOM      3  C   UNL     1       9.376  14.736  44.051  1.00  0.00     0.000 C 
BRANCH   3   4
ATOM      4  C   UNL     1       8.909  14.564  45.506  1.00  0.00     0.000 C 
BRANCH   4   5
ATOM      5  C   UNL     1       8.258  15.835  46.078  1.00  0.00     0.000 C 
BRANCH   5   6
ATOM      6  C   UNL     1       6.727  15.730  46.158  1.00  0.00     0.006 C 
BRANCH   6   7
ATOM      7  C   UNL     1       6.046  17.103  46.233  1.00  0.00     0.053 C 
BRANCH   7   8
ATOM      8  C   UNL     1       6.213  17.695  47.596  1.00  0.00     0.041 C 
ATOM      9  O   UNL     1       5.599  18.749  47.909  1.00  0.00    -0.550 OA
ATOM     10  O   UNL     1       7.084  17.110  48.508  1.00  0.00    -0.550 OA
ENDBRANCH   7   8
ENDBRANCH   6   7
ENDBRANCH   5   6
ENDBRANCH   4   5
ENDBRANCH   3   4
ENDBRANCH   2   3
ENDBRANCH   1   2
BRANCH   1  11
ATOM     11  C   UNL     1      11.877  12.317  42.223  1.00  0.00     0.000 C 
BRANCH  11  12
ATOM     12  C   UNL     1      12.738  11.280  42.966  1.00  0.00    -0.000 C 
BRANCH  12  13
ATOM     13  C   UNL     1      13.859  11.922  43.803  1.00  0.00    -0.000 C 
BRANCH  13  14
ATOM     14  C   UNL     1      14.572  10.906  44.710  1.00  0.00    -0.000 C 
BRANCH  14  15
ATOM     15  C   UNL     1      15.588  11.571  45.655  1.00  0.00    -0.000 C 
BRANCH  15  16
ATOM     16  C   UNL     1      15.099  11.614  47.111  1.00  0.00    -0.000 C 
BRANCH  16  17
ATOM     17  C   UNL     1      15.780  12.719  47.934  1.00  0.00    -0.003 C 
ATOM     18  C   UNL     1      14.758  13.498  48.758  1.00  0.00     0.004 C 
ENDBRANCH  16  17
ENDBRANCH  15  16
ENDBRANCH  14  15
ENDBRANCH  13  14
ENDBRANCH  12  13
ENDBRANCH  11  12
ENDBRANCH   1  11
TORSDOF 14
ENDMDL
MODEL 4
REMARK VINA RESULT:    16.256      5.495      9.876
REMARK INTER + INTRA:          29.045
REMARK INTER:                  29.650
REMARK INTRA:                  -0.605
REMARK UNBOUND:                -0.516
REMARK SMILES CCCCCCCCCCCCCCCC(=O)[O-]
REMARK SMILES IDX 9 1 10 2 11 3 12 4 13 5 14 6 15 7 16 8 17 9 18 10 8 11 7 12
REMARK SMILES IDX 6 13 5 14 4 15 3 16 2 17 1 18
REMARK H PARENT
REMARK Flexibility Score: inf
ROOT
ATOM      1  C   UNL     1      11.223  13.683  43.312  1.00  0.00     0.000 C 
ENDROOT
BRANCH   1   2
ATOM      2  C   UNL     1      11.982  12.469  42.748  1.00  0.00     0.000 C 
BRANCH   2   3
ATOM      3  C   UNL     1      13.400  12.341  43.344  1.00  0.00     0.000 C 
BRANCH   3   4
ATOM      4  C   UNL     1      13.578  11.105  44.242  1.00  0.00     0.000 C 
BRANCH   4   5
ATOM      5  C   UNL     1      15.034  10.899  44.691  1.00  0.00     0.000 C 
BRANCH   5   6
ATOM      6  C   UNL     1      15.502  11.969  45.691  1.00  0.00     0.006 C 
BRANCH   6   7
ATOM      7  C   UNL     1      15.201  11.588  47.145  1.00  0.00     0.053 C 
BRANCH   7   8
ATOM      8  C   UNL     1      15.165  12.810  48.009  1.00  0.00     0.041 C 
ATOM      9  O   UNL     1      16.237  13.354  48.380  1.00  0.00    -0.550 OA
ATOM     10  O   UNL     1      13.948  13.320  48.443  1.00  0.00    -0.550 OA
ENDBRANCH   7   8
ENDBRANCH   6   7
ENDBRANCH   5   6
ENDBRANCH   4   5
ENDBRANCH   3   4
ENDBRANCH   2   3
ENDBRANCH   1   2
BRANCH   1  11
ATOM     11  C   UNL     1       9.699  13.468  43.362  1.00  0.00     0.000 C 
BRANCH  11  12
ATOM     12  C   UNL     1       9.071  13.583  44.763  1.00  0.00    -0.000 C 
BRANCH  12  13
ATOM     13  C   UNL     1       8.981  15.037  45.260  1.00  0.00    -0.000 C 
BRANCH  13  14
ATOM     14  C   UNL     1       7.626  15.687  44.933  1.00  0.00    -0.000 C 
BRANCH  14  15
ATOM     15  C   UNL     1       6.757  15.899  46.185  1.00  0.00    -0.000 C 
BRANCH  15  16
ATOM     16  C   UNL     1       5.960  17.212  46.135  1.00  0.00    -0.000 C 
BRANCH  16  17
ATOM     17  C   UNL     1       5.998  17.981  47.464  1.00  0.00    -0.003 C 
ATOM     18  C   UNL     1       6.962  17.326  48.449  1.00  0.00     0.004 C 
ENDBRANCH  16  17
ENDBRANCH  15  16
ENDBRANCH  14  15
ENDBRANCH  13  14
ENDBRANCH  12  13
ENDBRANCH  11  12
ENDBRANCH   1  11
TORSDOF 14
ENDMDL
