MODEL 1
REMARK VINA RESULT:    -6.432      0.000      0.000
REMARK INTER + INTRA:          -7.826
REMARK INTER:                  -7.560
REMARK INTRA:                  -0.266
REMARK UNBOUND:                -0.266
REMARK SMILES O=c1cc(-c2ccc(O)c(O)c2)oc2cc(O)cc(O)c12
REMARK SMILES IDX 4 1 3 2 2 3 1 4 21 5 19 6 18 7 16 8 15 9 14 10 13 11 5 12
REMARK SMILES IDX 6 13 7 14 8 15 12 16 10 17 9 18 11 20 20 22 17 24
REMARK H PARENT 9 19 11 21 20 23 17 25
REMARK Flexibility Score: inf
ROOT
ATOM      1  C   UNL     1      56.313  -2.603  20.326  1.00  0.00     0.138 A 
ATOM      2  C   UNL     1      56.013  -3.904  20.751  1.00  0.00     0.100 A 
ATOM      3  C   UNL     1      55.182  -4.093  21.857  1.00  0.00     0.197 A 
ATOM      4  O   UNL     1      54.980  -5.271  22.252  1.00  0.00    -0.289 OA
ATOM      5  C   UNL     1      54.625  -2.973  22.519  1.00  0.00     0.107 A 
ATOM      6  C   UNL     1      53.733  -3.046  23.631  1.00  0.00     0.134 A 
ATOM      7  C   UNL     1      53.338  -1.869  24.277  1.00  0.00     0.093 A 
ATOM      8  C   UNL     1      53.754  -0.621  23.818  1.00  0.00     0.123 A 
ATOM      9  C   UNL     1      54.584  -0.533  22.698  1.00  0.00     0.094 A 
ATOM     10  C   UNL     1      55.021  -1.692  22.052  1.00  0.00     0.146 A 
ATOM     11  O   UNL     1      55.821  -1.567  20.998  1.00  0.00    -0.456 OA
ENDROOT
BRANCH   1  12
ATOM     12  C   UNL     1      57.190  -2.343  19.155  1.00  0.00     0.021 A 
ATOM     13  C   UNL     1      58.585  -2.416  19.307  1.00  0.00     0.016 A 
ATOM     14  C   UNL     1      59.432  -2.168  18.224  1.00  0.00     0.051 A 
ATOM     15  C   UNL     1      58.898  -1.836  16.972  1.00  0.00     0.157 A 
ATOM     16  C   UNL     1      56.660  -1.995  17.896  1.00  0.00     0.062 A 
ATOM     17  C   UNL     1      57.511  -1.747  16.810  1.00  0.00     0.158 A 
BRANCH  15  18
ATOM     18  O   UNL     1      59.740  -1.590  15.888  1.00  0.00    -0.504 OA
ATOM     19  H   UNL     1      59.602  -2.048  14.995  1.00  0.00     0.293 HD
ENDBRANCH  15  18
BRANCH  17  20
ATOM     20  O   UNL     1      56.984  -1.404  15.565  1.00  0.00    -0.504 OA
ATOM     21  H   UNL     1      57.217  -0.527  15.113  1.00  0.00     0.293 HD
ENDBRANCH  17  20
ENDBRANCH   1  12
BRANCH   6  22
ATOM     22  O   UNL     1      53.190  -4.239  24.119  1.00  0.00    -0.507 OA
ATOM     23  H   UNL     1      52.943  -4.408  25.082  1.00  0.00     0.293 HD
ENDBRANCH   6  22
BRANCH   8  24
ATOM     24  O   UNL     1      53.329   0.531  24.477  1.00  0.00    -0.508 OA
ATOM     25  H   UNL     1      53.979   1.122  24.982  1.00  0.00     0.293 HD
ENDBRANCH   8  24
TORSDOF 5
ENDMDL
MODEL 2
REMARK VINA RESULT:    -6.161     15.568     17.770
REMARK INTER + INTRA:          -7.507
REMARK INTER:                  -7.212
REMARK INTRA:                  -0.295
REMARK UNBOUND:                -0.266
REMARK SMILES O=c1cc(-c2ccc(O)c(O)c2)oc2cc(O)cc(O)c12
REMARK SMILES IDX 4 1 3 2 2 3 1 4 21 5 19 6 18 7 16 8 15 9 14 10 13 11 5 12
REMARK SMILES IDX 6 13 7 14 8 15 12 16 10 17 9 18 11 20 20 22 17 24
REMARK H PARENT 9 19 11 21 20 23 17 25
REMARK Flexibility Score: inf
ROOT
ATOM      1  C   UNL     1      43.080   7.504  16.905  1.00  0.00     0.138 A 
ATOM      2  C   UNL     1      42.332   6.871  15.903  1.00  0.00     0.100 A 
ATOM      3  C   UNL     1      42.806   6.861  14.590  1.00  0.00     0.197 A 
ATOM      4  O   UNL     1      42.084   6.338  13.702  1.00  0.00    -0.289 OA
ATOM      5  C   UNL     1      44.051   7.463  14.287  1.00  0.00     0.107 A 
ATOM      6  C   UNL     1      44.652   7.479  12.993  1.00  0.00     0.134 A 
ATOM      7  C   UNL     1      45.831   8.206  12.789  1.00  0.00     0.093 A 
ATOM      8  C   UNL     1      46.461   8.867  13.842  1.00  0.00     0.123 A 
ATOM      9  C   UNL     1      45.911   8.814  15.124  1.00  0.00     0.094 A 
ATOM     10  C   UNL     1      44.718   8.125  15.352  1.00  0.00     0.146 A 
ATOM     11  O   UNL     1      44.219   8.110  16.584  1.00  0.00    -0.456 OA
ENDROOT
BRANCH   1  12
ATOM     12  C   UNL     1      42.624   7.544  18.318  1.00  0.00     0.021 A 
ATOM     13  C   UNL     1      41.272   7.804  18.601  1.00  0.00     0.016 A 
ATOM     14  C   UNL     1      40.820   7.853  19.922  1.00  0.00     0.051 A 
ATOM     15  C   UNL     1      41.713   7.652  20.982  1.00  0.00     0.157 A 
ATOM     16  C   UNL     1      43.519   7.356  19.390  1.00  0.00     0.062 A 
ATOM     17  C   UNL     1      43.064   7.407  20.715  1.00  0.00     0.158 A 
BRANCH  15  18
ATOM     18  O   UNL     1      41.264   7.700  22.301  1.00  0.00    -0.504 OA
ATOM     19  H   UNL     1      41.065   8.579  22.762  1.00  0.00     0.293 HD
ENDBRANCH  15  18
BRANCH  17  20
ATOM     20  O   UNL     1      43.952   7.219  21.774  1.00  0.00    -0.504 OA
ATOM     21  H   UNL     1      44.106   6.305  22.182  1.00  0.00     0.293 HD
ENDBRANCH  17  20
ENDBRANCH   1  12
BRANCH   6  22
ATOM     22  O   UNL     1      44.150   6.782  11.890  1.00  0.00    -0.507 OA
ATOM     23  H   UNL     1      44.580   5.969  11.477  1.00  0.00     0.293 HD
ENDBRANCH   6  22
BRANCH   8  24
ATOM     24  O   UNL     1      47.642   9.569  13.605  1.00  0.00    -0.508 OA
ATOM     25  H   UNL     1      47.637  10.562  13.407  1.00  0.00     0.293 HD
ENDBRANCH   8  24
TORSDOF 5
ENDMDL
MODEL 3
REMARK VINA RESULT:    -6.112      1.492      7.362
REMARK INTER + INTRA:          -7.451
REMARK INTER:                  -7.187
REMARK INTRA:                  -0.264
REMARK UNBOUND:                -0.266
REMARK SMILES O=c1cc(-c2ccc(O)c(O)c2)oc2cc(O)cc(O)c12
REMARK SMILES IDX 4 1 3 2 2 3 1 4 21 5 19 6 18 7 16 8 15 9 14 10 13 11 5 12
REMARK SMILES IDX 6 13 7 14 8 15 12 16 10 17 9 18 11 20 20 22 17 24
REMARK H PARENT 9 19 11 21 20 23 17 25
REMARK Flexibility Score: inf
ROOT
ATOM      1  C   UNL     1      56.770  -2.520  19.224  1.00  0.00     0.138 A 
ATOM      2  C   UNL     1      58.168  -2.414  19.257  1.00  0.00     0.100 A 
ATOM      3  C   UNL     1      58.868  -2.155  18.077  1.00  0.00     0.197 A 
ATOM      4  O   UNL     1      60.125  -2.126  18.128  1.00  0.00    -0.289 OA
ATOM      5  C   UNL     1      58.161  -1.970  16.865  1.00  0.00     0.107 A 
ATOM      6  C   UNL     1      58.766  -1.662  15.610  1.00  0.00     0.134 A 
ATOM      7  C   UNL     1      57.976  -1.617  14.455  1.00  0.00     0.093 A 
ATOM      8  C   UNL     1      56.597  -1.811  14.519  1.00  0.00     0.123 A 
ATOM      9  C   UNL     1      55.986  -2.060  15.749  1.00  0.00     0.094 A 
ATOM     10  C   UNL     1      56.752  -2.144  16.913  1.00  0.00     0.146 A 
ATOM     11  O   UNL     1      56.135  -2.397  18.063  1.00  0.00    -0.456 OA
ENDROOT
BRANCH   1  12
ATOM     12  C   UNL     1      55.976  -2.793  20.448  1.00  0.00     0.021 A 
ATOM     13  C   UNL     1      55.733  -4.122  20.833  1.00  0.00     0.016 A 
ATOM     14  C   UNL     1      54.981  -4.405  21.976  1.00  0.00     0.051 A 
ATOM     15  C   UNL     1      54.452  -3.364  22.749  1.00  0.00     0.157 A 
ATOM     16  C   UNL     1      55.429  -1.750  21.223  1.00  0.00     0.062 A 
ATOM     17  C   UNL     1      54.674  -2.035  22.370  1.00  0.00     0.158 A 
BRANCH  15  18
ATOM     18  O   UNL     1      53.703  -3.643  23.891  1.00  0.00    -0.504 OA
ATOM     19  H   UNL     1      53.117  -4.467  23.953  1.00  0.00     0.293 HD
ENDBRANCH  15  18
BRANCH  17  20
ATOM     20  O   UNL     1      54.136  -1.002  23.135  1.00  0.00    -0.504 OA
ATOM     21  H   UNL     1      53.289  -1.129  23.678  1.00  0.00     0.293 HD
ENDBRANCH  17  20
ENDBRANCH   1  12
BRANCH   6  22
ATOM     22  O   UNL     1      60.124  -1.368  15.449  1.00  0.00    -0.507 OA
ATOM     23  H   UNL     1      60.789  -1.958  14.973  1.00  0.00     0.293 HD
ENDBRANCH   6  22
BRANCH   8  24
ATOM     24  O   UNL     1      55.840  -1.745  13.351  1.00  0.00    -0.508 OA
ATOM     25  H   UNL     1      56.275  -1.732  12.436  1.00  0.00     0.293 HD
ENDBRANCH   8  24
TORSDOF 5
ENDMDL
MODEL 4
REMARK VINA RESULT:    -6.054     14.710     17.339
REMARK INTER + INTRA:          -7.382
REMARK INTER:                  -7.083
REMARK INTRA:                  -0.299
REMARK UNBOUND:                -0.266
REMARK SMILES O=c1cc(-c2ccc(O)c(O)c2)oc2cc(O)cc(O)c12
REMARK SMILES IDX 4 1 3 2 2 3 1 4 21 5 19 6 18 7 16 8 15 9 14 10 13 11 5 12
REMARK SMILES IDX 6 13 7 14 8 15 12 16 10 17 9 18 11 20 20 22 17 24
REMARK H PARENT 9 19 11 21 20 23 17 25
REMARK Flexibility Score: inf
ROOT
ATOM      1  C   UNL     1      44.432   7.742  15.778  1.00  0.00     0.138 A 
ATOM      2  C   UNL     1      45.149   8.901  15.453  1.00  0.00     0.100 A 
ATOM      3  C   UNL     1      46.090   8.865  14.422  1.00  0.00     0.197 A 
ATOM      4  O   UNL     1      46.761   9.904  14.195  1.00  0.00    -0.289 OA
ATOM      5  C   UNL     1      46.290   7.668  13.694  1.00  0.00     0.107 A 
ATOM      6  C   UNL     1      47.192   7.524  12.598  1.00  0.00     0.134 A 
ATOM      7  C   UNL     1      47.391   6.260  12.029  1.00  0.00     0.093 A 
ATOM      8  C   UNL     1      46.678   5.149  12.476  1.00  0.00     0.123 A 
ATOM      9  C   UNL     1      45.753   5.287  13.512  1.00  0.00     0.094 A 
ATOM     10  C   UNL     1      45.557   6.529  14.122  1.00  0.00     0.146 A 
ATOM     11  O   UNL     1      44.678   6.616  15.115  1.00  0.00    -0.456 OA
ENDROOT
BRANCH   1  12
ATOM     12  C   UNL     1      43.419   7.724  16.863  1.00  0.00     0.021 A 
ATOM     13  C   UNL     1      43.651   8.461  18.038  1.00  0.00     0.016 A 
ATOM     14  C   UNL     1      42.717   8.455  19.077  1.00  0.00     0.051 A 
ATOM     15  C   UNL     1      41.539   7.706  18.963  1.00  0.00     0.157 A 
ATOM     16  C   UNL     1      42.238   6.962  16.762  1.00  0.00     0.062 A 
ATOM     17  C   UNL     1      41.301   6.956  17.806  1.00  0.00     0.158 A 
BRANCH  15  18
ATOM     18  O   UNL     1      40.604   7.698  19.998  1.00  0.00    -0.504 OA
ATOM     19  H   UNL     1      39.747   7.163  19.934  1.00  0.00     0.293 HD
ENDBRANCH  15  18
BRANCH  17  20
ATOM     20  O   UNL     1      40.133   6.202  17.701  1.00  0.00    -0.504 OA
ATOM     21  H   UNL     1      39.916   5.673  16.864  1.00  0.00     0.293 HD
ENDBRANCH  17  20
ENDBRANCH   1  12
BRANCH   6  22
ATOM     22  O   UNL     1      47.892   8.587  12.018  1.00  0.00    -0.507 OA
ATOM     23  H   UNL     1      48.892   8.710  12.062  1.00  0.00     0.293 HD
ENDBRANCH   6  22
BRANCH   8  24
ATOM     24  O   UNL     1      46.891   3.909  11.876  1.00  0.00    -0.508 OA
ATOM     25  H   UNL     1      46.742   3.768  10.884  1.00  0.00     0.293 HD
ENDBRANCH   8  24
TORSDOF 5
ENDMDL
MODEL 5
REMARK VINA RESULT:    -5.913      1.478      2.151
REMARK INTER + INTRA:          -7.216
REMARK INTER:                  -6.951
REMARK INTRA:                  -0.265
REMARK UNBOUND:                -0.266
REMARK SMILES O=c1cc(-c2ccc(O)c(O)c2)oc2cc(O)cc(O)c12
REMARK SMILES IDX 4 1 3 2 2 3 1 4 21 5 19 6 18 7 16 8 15 9 14 10 13 11 5 12
REMARK SMILES IDX 6 13 7 14 8 15 12 16 10 17 9 18 11 20 20 22 17 24
REMARK H PARENT 9 19 11 21 20 23 17 25
REMARK Flexibility Score: inf
ROOT
ATOM      1  C   UNL     1      57.118  -3.045  18.527  1.00  0.00     0.138 A 
ATOM      2  C   UNL     1      56.972  -4.423  18.733  1.00  0.00     0.100 A 
ATOM      3  C   UNL     1      56.234  -4.883  19.825  1.00  0.00     0.197 A 
ATOM      4  O   UNL     1      56.172  -6.125  20.019  1.00  0.00    -0.289 OA
ATOM      5  C   UNL     1      55.614  -3.956  20.696  1.00  0.00     0.107 A 
ATOM      6  C   UNL     1      54.804  -4.309  21.817  1.00  0.00     0.134 A 
ATOM      7  C   UNL     1      54.338  -3.306  22.675  1.00  0.00     0.093 A 
ATOM      8  C   UNL     1      54.602  -1.961  22.421  1.00  0.00     0.123 A 
ATOM      9  C   UNL     1      55.348  -1.599  21.297  1.00  0.00     0.094 A 
ATOM     10  C   UNL     1      55.854  -2.579  20.441  1.00  0.00     0.146 A 
ATOM     11  O   UNL     1      56.572  -2.195  19.390  1.00  0.00    -0.456 OA
ENDROOT
BRANCH   1  12
ATOM     12  C   UNL     1      57.891  -2.501  17.381  1.00  0.00     0.021 A 
ATOM     13  C   UNL     1      59.113  -1.849  17.619  1.00  0.00     0.016 A 
ATOM     14  C   UNL     1      59.855  -1.322  16.559  1.00  0.00     0.051 A 
ATOM     15  C   UNL     1      59.385  -1.430  15.244  1.00  0.00     0.157 A 
ATOM     16  C   UNL     1      57.417  -2.595  16.057  1.00  0.00     0.062 A 
ATOM     17  C   UNL     1      58.163  -2.065  14.994  1.00  0.00     0.158 A 
BRANCH  15  18
ATOM     18  O   UNL     1      60.123  -0.907  14.184  1.00  0.00    -0.504 OA
ATOM     19  H   UNL     1      60.756  -0.126  14.313  1.00  0.00     0.293 HD
ENDBRANCH  15  18
BRANCH  17  20
ATOM     20  O   UNL     1      57.691  -2.160  13.685  1.00  0.00    -0.504 OA
ATOM     21  H   UNL     1      56.766  -2.518  13.480  1.00  0.00     0.293 HD
ENDBRANCH  17  20
ENDBRANCH   1  12
BRANCH   6  22
ATOM     22  O   UNL     1      54.411  -5.617  22.115  1.00  0.00    -0.507 OA
ATOM     23  H   UNL     1      54.932  -6.258  22.693  1.00  0.00     0.293 HD
ENDBRANCH   6  22
BRANCH   8  24
ATOM     24  O   UNL     1      54.109  -0.988  23.288  1.00  0.00    -0.508 OA
ATOM     25  H   UNL     1      53.505  -0.243  22.962  1.00  0.00     0.293 HD
ENDBRANCH   8  24
TORSDOF 5
ENDMDL
MODEL 6
REMARK VINA RESULT:    -5.877      5.593      8.023
REMARK INTER + INTRA:          -7.174
REMARK INTER:                  -6.910
REMARK INTRA:                  -0.263
REMARK UNBOUND:                -0.266
REMARK SMILES O=c1cc(-c2ccc(O)c(O)c2)oc2cc(O)cc(O)c12
REMARK SMILES IDX 4 1 3 2 2 3 1 4 21 5 19 6 18 7 16 8 15 9 14 10 13 11 5 12
REMARK SMILES IDX 6 13 7 14 8 15 12 16 10 17 9 18 11 20 20 22 17 24
REMARK H PARENT 9 19 11 21 20 23 17 25
REMARK Flexibility Score: inf
ROOT
ATOM      1  C   UNL     1      52.920  -4.629  17.868  1.00  0.00     0.138 A 
ATOM      2  C   UNL     1      53.765  -4.656  16.750  1.00  0.00     0.100 A 
ATOM      3  C   UNL     1      53.236  -4.949  15.492  1.00  0.00     0.197 A 
ATOM      4  O   UNL     1      54.029  -5.026  14.518  1.00  0.00    -0.289 OA
ATOM      5  C   UNL     1      51.848  -5.185  15.350  1.00  0.00     0.107 A 
ATOM      6  C   UNL     1      51.191  -5.453  14.113  1.00  0.00     0.134 A 
ATOM      7  C   UNL     1      49.831  -5.786  14.110  1.00  0.00     0.093 A 
ATOM      8  C   UNL     1      49.092  -5.803  15.292  1.00  0.00     0.123 A 
ATOM      9  C   UNL     1      49.711  -5.490  16.504  1.00  0.00     0.094 A 
ATOM     10  C   UNL     1      51.074  -5.186  16.542  1.00  0.00     0.146 A 
ATOM     11  O   UNL     1      51.630  -4.908  17.716  1.00  0.00    -0.456 OA
ENDROOT
BRANCH   1  12
ATOM     12  C   UNL     1      53.430  -4.321  19.229  1.00  0.00     0.021 A 
ATOM     13  C   UNL     1      53.590  -5.362  20.159  1.00  0.00     0.016 A 
ATOM     14  C   UNL     1      54.060  -5.098  21.448  1.00  0.00     0.051 A 
ATOM     15  C   UNL     1      54.370  -3.788  21.832  1.00  0.00     0.157 A 
ATOM     16  C   UNL     1      53.731  -3.003  19.626  1.00  0.00     0.062 A 
ATOM     17  C   UNL     1      54.202  -2.739  20.920  1.00  0.00     0.158 A 
BRANCH  15  18
ATOM     18  O   UNL     1      54.840  -3.521  23.117  1.00  0.00    -0.504 OA
ATOM     19  H   UNL     1      54.449  -3.979  23.930  1.00  0.00     0.293 HD
ENDBRANCH  15  18
BRANCH  17  20
ATOM     20  O   UNL     1      54.500  -1.433  21.310  1.00  0.00    -0.504 OA
ATOM     21  H   UNL     1      54.960  -0.785  20.682  1.00  0.00     0.293 HD
ENDBRANCH  17  20
ENDBRANCH   1  12
BRANCH   6  22
ATOM     22  O   UNL     1      51.818  -5.381  12.864  1.00  0.00    -0.507 OA
ATOM     23  H   UNL     1      51.899  -6.148  12.215  1.00  0.00     0.293 HD
ENDBRANCH   6  22
BRANCH   8  24
ATOM     24  O   UNL     1      47.737  -6.125  15.251  1.00  0.00    -0.508 OA
ATOM     25  H   UNL     1      47.141  -5.813  14.493  1.00  0.00     0.293 HD
ENDBRANCH   8  24
TORSDOF 5
ENDMDL
MODEL 7
REMARK VINA RESULT:    -5.804     15.912     18.094
REMARK INTER + INTRA:          -7.088
REMARK INTER:                  -6.813
REMARK INTRA:                  -0.275
REMARK UNBOUND:                -0.266
REMARK SMILES O=c1cc(-c2ccc(O)c(O)c2)oc2cc(O)cc(O)c12
REMARK SMILES IDX 4 1 3 2 2 3 1 4 21 5 19 6 18 7 16 8 15 9 14 10 13 11 5 12
REMARK SMILES IDX 6 13 7 14 8 15 12 16 10 17 9 18 11 20 20 22 17 24
REMARK H PARENT 9 19 11 21 20 23 17 25
REMARK Flexibility Score: inf
ROOT
ATOM      1  C   UNL     1      43.131   7.693  17.083  1.00  0.00     0.138 A 
ATOM      2  C   UNL     1      44.198   8.499  16.662  1.00  0.00     0.100 A 
ATOM      3  C   UNL     1      44.571   8.501  15.316  1.00  0.00     0.197 A 
ATOM      4  O   UNL     1      45.571   9.187  14.979  1.00  0.00    -0.289 OA
ATOM      5  C   UNL     1      43.851   7.715  14.385  1.00  0.00     0.107 A 
ATOM      6  C   UNL     1      44.116   7.670  12.984  1.00  0.00     0.134 A 
ATOM      7  C   UNL     1      43.413   6.767  12.177  1.00  0.00     0.093 A 
ATOM      8  C   UNL     1      42.416   5.951  12.710  1.00  0.00     0.123 A 
ATOM      9  C   UNL     1      42.110   6.025  14.071  1.00  0.00     0.094 A 
ATOM     10  C   UNL     1      42.818   6.892  14.906  1.00  0.00     0.146 A 
ATOM     11  O   UNL     1      42.507   6.923  16.198  1.00  0.00    -0.456 OA
ENDROOT
BRANCH   1  12
ATOM     12  C   UNL     1      42.691   7.653  18.501  1.00  0.00     0.021 A 
ATOM     13  C   UNL     1      41.326   7.783  18.806  1.00  0.00     0.016 A 
ATOM     14  C   UNL     1      40.887   7.757  20.132  1.00  0.00     0.051 A 
ATOM     15  C   UNL     1      41.808   7.608  21.177  1.00  0.00     0.157 A 
ATOM     16  C   UNL     1      43.613   7.518  19.559  1.00  0.00     0.062 A 
ATOM     17  C   UNL     1      43.172   7.492  20.889  1.00  0.00     0.158 A 
BRANCH  15  18
ATOM     18  O   UNL     1      41.374   7.580  22.501  1.00  0.00    -0.504 OA
ATOM     19  H   UNL     1      40.519   8.041  22.789  1.00  0.00     0.293 HD
ENDBRANCH  15  18
BRANCH  17  20
ATOM     20  O   UNL     1      44.087   7.356  21.933  1.00  0.00    -0.504 OA
ATOM     21  H   UNL     1      44.311   6.450  22.328  1.00  0.00     0.293 HD
ENDBRANCH  17  20
ENDBRANCH   1  12
BRANCH   6  22
ATOM     22  O   UNL     1      45.034   8.502  12.335  1.00  0.00    -0.507 OA
ATOM     23  H   UNL     1      45.297   9.424  12.648  1.00  0.00     0.293 HD
ENDBRANCH   6  22
BRANCH   8  24
ATOM     24  O   UNL     1      41.726   5.074  11.875  1.00  0.00    -0.508 OA
ATOM     25  H   UNL     1      42.157   4.683  11.046  1.00  0.00     0.293 HD
ENDBRANCH   8  24
TORSDOF 5
ENDMDL
MODEL 8
REMARK VINA RESULT:    -4.045     15.083     16.150
REMARK INTER + INTRA:          -5.021
REMARK INTER:                  -4.742
REMARK INTRA:                  -0.279
REMARK UNBOUND:                -0.266
REMARK SMILES O=c1cc(-c2ccc(O)c(O)c2)oc2cc(O)cc(O)c12
REMARK SMILES IDX 4 1 3 2 2 3 1 4 21 5 19 6 18 7 16 8 15 9 14 10 13 11 5 12
REMARK SMILES IDX 6 13 7 14 8 15 12 16 10 17 9 18 11 20 20 22 17 24
REMARK H PARENT 9 19 11 21 20 23 17 25
REMARK Flexibility Score: inf
ROOT
ATOM      1  C   UNL     1      44.063   7.519  15.879  1.00  0.00     0.138 A 
ATOM      2  C   UNL     1      42.708   7.351  15.561  1.00  0.00     0.100 A 
ATOM      3  C   UNL     1      41.754   7.365  16.580  1.00  0.00     0.197 A 
ATOM      4  O   UNL     1      40.553   7.151  16.271  1.00  0.00    -0.289 OA
ATOM      5  C   UNL     1      42.157   7.579  17.919  1.00  0.00     0.107 A 
ATOM      6  C   UNL     1      41.269   7.653  19.034  1.00  0.00     0.134 A 
ATOM      7  C   UNL     1      41.793   7.752  20.329  1.00  0.00     0.093 A 
ATOM      8  C   UNL     1      43.167   7.839  20.544  1.00  0.00     0.123 A 
ATOM      9  C   UNL     1      44.044   7.822  19.458  1.00  0.00     0.094 A 
ATOM     10  C   UNL     1      43.553   7.690  18.157  1.00  0.00     0.146 A 
ATOM     11  O   UNL     1      44.421   7.663  17.151  1.00  0.00    -0.456 OA
ENDROOT
BRANCH   1  12
ATOM     12  C   UNL     1      45.119   7.514  14.836  1.00  0.00     0.021 A 
ATOM     13  C   UNL     1      45.273   6.386  14.012  1.00  0.00     0.016 A 
ATOM     14  C   UNL     1      46.265   6.353  13.028  1.00  0.00     0.051 A 
ATOM     15  C   UNL     1      47.125   7.445  12.857  1.00  0.00     0.157 A 
ATOM     16  C   UNL     1      45.998   8.604  14.666  1.00  0.00     0.062 A 
ATOM     17  C   UNL     1      46.993   8.570  13.679  1.00  0.00     0.158 A 
BRANCH  15  18
ATOM     18  O   UNL     1      48.115   7.417  11.875  1.00  0.00    -0.504 OA
ATOM     19  H   UNL     1      49.074   7.182  12.097  1.00  0.00     0.293 HD
ENDBRANCH  15  18
BRANCH  17  20
ATOM     20  O   UNL     1      47.859   9.650  13.514  1.00  0.00    -0.504 OA
ATOM     21  H   UNL     1      48.093  10.007  12.594  1.00  0.00     0.293 HD
ENDBRANCH  17  20
ENDBRANCH   1  12
BRANCH   6  22
ATOM     22  O   UNL     1      39.875   7.659  18.923  1.00  0.00    -0.507 OA
ATOM     23  H   UNL     1      39.318   8.472  18.706  1.00  0.00     0.293 HD
ENDBRANCH   6  22
BRANCH   8  24
ATOM     24  O   UNL     1      43.653   7.952  21.846  1.00  0.00    -0.508 OA
ATOM     25  H   UNL     1      44.647   7.952  22.043  1.00  0.00     0.293 HD
ENDBRANCH   8  24
TORSDOF 5
ENDMDL
