MODEL 1
REMARK VINA RESULT:    -9.641      0.000      0.000
REMARK INTER + INTRA:         -11.650
REMARK INTER:                 -11.332
REMARK INTRA:                  -0.318
REMARK UNBOUND:                -0.318
REMARK SMILES O=c1cc(-c2ccc(O)c(O)c2)oc2cc(O)cc(O)c12
REMARK SMILES IDX 4 1 3 2 2 3 1 4 21 5 19 6 18 7 16 8 15 9 14 10 13 11 5 12
REMARK SMILES IDX 6 13 7 14 8 15 12 16 10 17 9 18 11 20 20 22 17 24
REMARK H PARENT 9 19 11 21 20 23 17 25
REMARK Flexibility Score: inf
ROOT
ATOM      1  C   UNL     1       2.823 -28.211  26.908  1.00  0.00     0.138 A 
ATOM      2  C   UNL     1       4.131 -28.705  26.821  1.00  0.00     0.100 A 
ATOM      3  C   UNL     1       4.882 -28.470  25.668  1.00  0.00     0.197 A 
ATOM      4  O   UNL     1       6.074 -28.873  25.642  1.00  0.00    -0.289 OA
ATOM      5  C   UNL     1       4.305 -27.764  24.585  1.00  0.00     0.107 A 
ATOM      6  C   UNL     1       4.960 -27.502  23.345  1.00  0.00     0.134 A 
ATOM      7  C   UNL     1       4.333 -26.693  22.390  1.00  0.00     0.093 A 
ATOM      8  C   UNL     1       3.049 -26.186  22.607  1.00  0.00     0.123 A 
ATOM      9  C   UNL     1       2.380 -26.481  23.792  1.00  0.00     0.094 A 
ATOM     10  C   UNL     1       2.992 -27.257  24.778  1.00  0.00     0.146 A 
ATOM     11  O   UNL     1       2.324 -27.504  25.899  1.00  0.00    -0.456 OA
ENDROOT
BRANCH   1  12
ATOM     12  C   UNL     1       1.981 -28.432  28.112  1.00  0.00     0.021 A 
ATOM     13  C   UNL     1       2.426 -29.219  29.191  1.00  0.00     0.016 A 
ATOM     14  C   UNL     1       1.608 -29.418  30.307  1.00  0.00     0.051 A 
ATOM     15  C   UNL     1       0.331 -28.846  30.359  1.00  0.00     0.157 A 
ATOM     16  C   UNL     1       0.691 -27.872  28.167  1.00  0.00     0.062 A 
ATOM     17  C   UNL     1      -0.128 -28.072  29.287  1.00  0.00     0.158 A 
BRANCH  15  18
ATOM     18  O   UNL     1      -0.486 -29.042  31.471  1.00  0.00    -0.504 OA
ATOM     19  H   UNL     1      -1.483 -29.199  31.374  1.00  0.00     0.293 HD
ENDBRANCH  15  18
BRANCH  17  20
ATOM     20  O   UNL     1      -1.401 -27.507  29.340  1.00  0.00    -0.504 OA
ATOM     21  H   UNL     1      -2.062 -27.617  28.580  1.00  0.00     0.293 HD
ENDBRANCH  17  20
ENDBRANCH   1  12
BRANCH   6  22
ATOM     22  O   UNL     1       6.207 -28.029  22.994  1.00  0.00    -0.507 OA
ATOM     23  H   UNL     1       6.790 -27.683  22.247  1.00  0.00     0.293 HD
ENDBRANCH   6  22
BRANCH   8  24
ATOM     24  O   UNL     1       2.425 -25.393  21.645  1.00  0.00    -0.508 OA
ATOM     25  H   UNL     1       2.682 -24.422  21.512  1.00  0.00     0.293 HD
ENDBRANCH   8  24
TORSDOF 5
ENDMDL
MODEL 2
REMARK VINA RESULT:    -9.496     12.539     12.915
REMARK INTER + INTRA:         -11.480
REMARK INTER:                 -11.162
REMARK INTRA:                  -0.318
REMARK UNBOUND:                -0.318
REMARK SMILES O=c1cc(-c2ccc(O)c(O)c2)oc2cc(O)cc(O)c12
REMARK SMILES IDX 4 1 3 2 2 3 1 4 21 5 19 6 18 7 16 8 15 9 14 10 13 11 5 12
REMARK SMILES IDX 6 13 7 14 8 15 12 16 10 17 9 18 11 20 20 22 17 24
REMARK H PARENT 9 19 11 21 20 23 17 25
REMARK Flexibility Score: inf
ROOT
ATOM      1  C   UNL     1      -2.508 -37.777  19.846  1.00  0.00     0.138 A 
ATOM      2  C   UNL     1      -2.470 -37.832  18.446  1.00  0.00     0.100 A 
ATOM      3  C   UNL     1      -2.489 -36.649  17.707  1.00  0.00     0.197 A 
ATOM      4  O   UNL     1      -2.391 -36.727  16.455  1.00  0.00    -0.289 OA
ATOM      5  C   UNL     1      -2.578 -35.404  18.375  1.00  0.00     0.107 A 
ATOM      6  C   UNL     1      -2.646 -34.136  17.725  1.00  0.00     0.134 A 
ATOM      7  C   UNL     1      -2.615 -32.964  18.491  1.00  0.00     0.093 A 
ATOM      8  C   UNL     1      -2.578 -33.017  19.887  1.00  0.00     0.123 A 
ATOM      9  C   UNL     1      -2.567 -34.251  20.533  1.00  0.00     0.094 A 
ATOM     10  C   UNL     1      -2.563 -35.437  19.795  1.00  0.00     0.146 A 
ATOM     11  O   UNL     1      -2.537 -36.593  20.450  1.00  0.00    -0.456 OA
ENDROOT
BRANCH   1  12
ATOM     12  C   UNL     1      -2.491 -39.005  20.680  1.00  0.00     0.021 A 
ATOM     13  C   UNL     1      -2.516 -40.290  20.104  1.00  0.00     0.016 A 
ATOM     14  C   UNL     1      -2.510 -41.429  20.914  1.00  0.00     0.051 A 
ATOM     15  C   UNL     1      -2.488 -41.305  22.308  1.00  0.00     0.157 A 
ATOM     16  C   UNL     1      -2.483 -38.890  22.082  1.00  0.00     0.062 A 
ATOM     17  C   UNL     1      -2.476 -40.034  22.894  1.00  0.00     0.158 A 
BRANCH  15  18
ATOM     18  O   UNL     1      -2.481 -42.439  23.119  1.00  0.00    -0.504 OA
ATOM     19  H   UNL     1      -1.988 -43.282  22.846  1.00  0.00     0.293 HD
ENDBRANCH  15  18
BRANCH  17  20
ATOM     20  O   UNL     1      -2.458 -39.913  24.282  1.00  0.00    -0.504 OA
ATOM     21  H   UNL     1      -1.762 -39.350  24.756  1.00  0.00     0.293 HD
ENDBRANCH  17  20
ENDBRANCH   1  12
BRANCH   6  22
ATOM     22  O   UNL     1      -2.770 -33.973  16.342  1.00  0.00    -0.507 OA
ATOM     23  H   UNL     1      -2.549 -33.128  15.838  1.00  0.00     0.293 HD
ENDBRANCH   6  22
BRANCH   8  24
ATOM     24  O   UNL     1      -2.563 -31.847  20.644  1.00  0.00    -0.508 OA
ATOM     25  H   UNL     1      -2.662 -31.868  21.652  1.00  0.00     0.293 HD
ENDBRANCH   8  24
TORSDOF 5
ENDMDL
MODEL 3
REMARK VINA RESULT:    -9.490      1.660      7.414
REMARK INTER + INTRA:         -11.473
REMARK INTER:                 -11.155
REMARK INTRA:                  -0.318
REMARK UNBOUND:                -0.318
REMARK SMILES O=c1cc(-c2ccc(O)c(O)c2)oc2cc(O)cc(O)c12
REMARK SMILES IDX 4 1 3 2 2 3 1 4 21 5 19 6 18 7 16 8 15 9 14 10 13 11 5 12
REMARK SMILES IDX 6 13 7 14 8 15 12 16 10 17 9 18 11 20 20 22 17 24
REMARK H PARENT 9 19 11 21 20 23 17 25
REMARK Flexibility Score: inf
ROOT
ATOM      1  C   UNL     1       2.512 -28.117  26.867  1.00  0.00     0.138 A 
ATOM      2  C   UNL     1       1.288 -27.462  27.060  1.00  0.00     0.100 A 
ATOM      3  C   UNL     1       0.389 -27.945  28.012  1.00  0.00     0.197 A 
ATOM      4  O   UNL     1      -0.674 -27.300  28.206  1.00  0.00    -0.289 OA
ATOM      5  C   UNL     1       0.706 -29.109  28.752  1.00  0.00     0.107 A 
ATOM      6  C   UNL     1      -0.150 -29.715  29.718  1.00  0.00     0.134 A 
ATOM      7  C   UNL     1       0.318 -30.798  30.473  1.00  0.00     0.093 A 
ATOM      8  C   UNL     1       1.590 -31.333  30.253  1.00  0.00     0.123 A 
ATOM      9  C   UNL     1       2.413 -30.782  29.274  1.00  0.00     0.094 A 
ATOM     10  C   UNL     1       1.988 -29.680  28.528  1.00  0.00     0.146 A 
ATOM     11  O   UNL     1       2.809 -29.176  27.614  1.00  0.00    -0.456 OA
ENDROOT
BRANCH   1  12
ATOM     12  C   UNL     1       3.504 -27.645  25.868  1.00  0.00     0.021 A 
ATOM     13  C   UNL     1       3.254 -26.528  25.048  1.00  0.00     0.016 A 
ATOM     14  C   UNL     1       4.202 -26.114  24.108  1.00  0.00     0.051 A 
ATOM     15  C   UNL     1       5.408 -26.811  23.965  1.00  0.00     0.157 A 
ATOM     16  C   UNL     1       4.713 -28.348  25.708  1.00  0.00     0.062 A 
ATOM     17  C   UNL     1       5.664 -27.930  24.765  1.00  0.00     0.158 A 
BRANCH  15  18
ATOM     18  O   UNL     1       6.356 -26.399  23.030  1.00  0.00    -0.504 OA
ATOM     19  H   UNL     1       6.633 -26.995  22.258  1.00  0.00     0.293 HD
ENDBRANCH  15  18
BRANCH  17  20
ATOM     20  O   UNL     1       6.863 -28.625  24.618  1.00  0.00    -0.504 OA
ATOM     21  H   UNL     1       7.546 -28.361  23.918  1.00  0.00     0.293 HD
ENDBRANCH  17  20
ENDBRANCH   1  12
BRANCH   6  22
ATOM     22  O   UNL     1      -1.468 -29.312  29.957  1.00  0.00    -0.507 OA
ATOM     23  H   UNL     1      -1.755 -28.682  30.690  1.00  0.00     0.293 HD
ENDBRANCH   6  22
BRANCH   8  24
ATOM     24  O   UNL     1       2.043 -32.421  30.997  1.00  0.00    -0.508 OA
ATOM     25  H   UNL     1       1.646 -33.346  30.877  1.00  0.00     0.293 HD
ENDBRANCH   8  24
TORSDOF 5
ENDMDL
MODEL 4
REMARK VINA RESULT:    -9.444      0.941      1.612
REMARK INTER + INTRA:         -11.419
REMARK INTER:                 -11.136
REMARK INTRA:                  -0.283
REMARK UNBOUND:                -0.318
REMARK SMILES O=c1cc(-c2ccc(O)c(O)c2)oc2cc(O)cc(O)c12
REMARK SMILES IDX 4 1 3 2 2 3 1 4 21 5 19 6 18 7 16 8 15 9 14 10 13 11 5 12
REMARK SMILES IDX 6 13 7 14 8 15 12 16 10 17 9 18 11 20 20 22 17 24
REMARK H PARENT 9 19 11 21 20 23 17 25
REMARK Flexibility Score: inf
ROOT
ATOM      1  C   UNL     1       3.130 -28.314  26.758  1.00  0.00     0.138 A 
ATOM      2  C   UNL     1       4.452 -28.740  26.579  1.00  0.00     0.100 A 
ATOM      3  C   UNL     1       5.119 -28.441  25.390  1.00  0.00     0.197 A 
ATOM      4  O   UNL     1       6.325 -28.783  25.282  1.00  0.00    -0.289 OA
ATOM      5  C   UNL     1       4.444 -27.738  24.363  1.00  0.00     0.107 A 
ATOM      6  C   UNL     1       5.009 -27.414  23.094  1.00  0.00     0.134 A 
ATOM      7  C   UNL     1       4.286 -26.614  22.200  1.00  0.00     0.093 A 
ATOM      8  C   UNL     1       2.995 -26.176  22.507  1.00  0.00     0.123 A 
ATOM      9  C   UNL     1       2.414 -26.533  23.722  1.00  0.00     0.094 A 
ATOM     10  C   UNL     1       3.122 -27.302  24.648  1.00  0.00     0.146 A 
ATOM     11  O   UNL     1       2.537 -27.608  25.801  1.00  0.00    -0.456 OA
ENDROOT
BRANCH   1  12
ATOM     12  C   UNL     1       2.375 -28.605  28.003  1.00  0.00     0.021 A 
ATOM     13  C   UNL     1       1.439 -27.695  28.531  1.00  0.00     0.016 A 
ATOM     14  C   UNL     1       0.750 -27.992  29.711  1.00  0.00     0.051 A 
ATOM     15  C   UNL     1       0.990 -29.195  30.386  1.00  0.00     0.157 A 
ATOM     16  C   UNL     1       2.619 -29.806  28.696  1.00  0.00     0.062 A 
ATOM     17  C   UNL     1       1.927 -30.103  29.879  1.00  0.00     0.158 A 
BRANCH  15  18
ATOM     18  O   UNL     1       0.304 -29.494  31.562  1.00  0.00    -0.504 OA
ATOM     19  H   UNL     1       0.793 -29.654  32.435  1.00  0.00     0.293 HD
ENDBRANCH  15  18
BRANCH  17  20
ATOM     20  O   UNL     1       2.166 -31.297  30.555  1.00  0.00    -0.504 OA
ATOM     21  H   UNL     1       2.892 -31.372  31.259  1.00  0.00     0.293 HD
ENDBRANCH  17  20
ENDBRANCH   1  12
BRANCH   6  22
ATOM     22  O   UNL     1       6.255 -27.871  22.654  1.00  0.00    -0.507 OA
ATOM     23  H   UNL     1       6.908 -28.397  23.214  1.00  0.00     0.293 HD
ENDBRANCH   6  22
BRANCH   8  24
ATOM     24  O   UNL     1       2.276 -25.393  21.607  1.00  0.00    -0.508 OA
ATOM     25  H   UNL     1       2.744 -24.796  20.934  1.00  0.00     0.293 HD
ENDBRANCH   8  24
TORSDOF 5
ENDMDL
MODEL 5
REMARK VINA RESULT:    -8.880      1.333      3.075
REMARK INTER + INTRA:         -10.755
REMARK INTER:                 -10.440
REMARK INTRA:                  -0.315
REMARK UNBOUND:                -0.318
REMARK SMILES O=c1cc(-c2ccc(O)c(O)c2)oc2cc(O)cc(O)c12
REMARK SMILES IDX 4 1 3 2 2 3 1 4 21 5 19 6 18 7 16 8 15 9 14 10 13 11 5 12
REMARK SMILES IDX 6 13 7 14 8 15 12 16 10 17 9 18 11 20 20 22 17 24
REMARK H PARENT 9 19 11 21 20 23 17 25
REMARK Flexibility Score: inf
ROOT
ATOM      1  C   UNL     1       2.044 -27.720  26.803  1.00  0.00     0.138 A 
ATOM      2  C   UNL     1       1.523 -26.879  25.811  1.00  0.00     0.100 A 
ATOM      3  C   UNL     1       2.321 -26.517  24.724  1.00  0.00     0.197 A 
ATOM      4  O   UNL     1       1.807 -25.812  23.818  1.00  0.00    -0.289 OA
ATOM      5  C   UNL     1       3.658 -26.976  24.650  1.00  0.00     0.107 A 
ATOM      6  C   UNL     1       4.576 -26.638  23.611  1.00  0.00     0.134 A 
ATOM      7  C   UNL     1       5.837 -27.245  23.581  1.00  0.00     0.093 A 
ATOM      8  C   UNL     1       6.235 -28.132  24.584  1.00  0.00     0.123 A 
ATOM      9  C   UNL     1       5.365 -28.426  25.632  1.00  0.00     0.094 A 
ATOM     10  C   UNL     1       4.088 -27.863  25.672  1.00  0.00     0.146 A 
ATOM     11  O   UNL     1       3.285 -28.182  26.682  1.00  0.00    -0.456 OA
ENDROOT
BRANCH   1  12
ATOM     12  C   UNL     1       1.239 -28.136  27.980  1.00  0.00     0.021 A 
ATOM     13  C   UNL     1       0.069 -27.447  28.356  1.00  0.00     0.016 A 
ATOM     14  C   UNL     1      -0.664 -27.854  29.475  1.00  0.00     0.051 A 
ATOM     15  C   UNL     1      -0.237 -28.947  30.240  1.00  0.00     0.157 A 
ATOM     16  C   UNL     1       1.667 -29.223  28.763  1.00  0.00     0.062 A 
ATOM     17  C   UNL     1       0.931 -29.632  29.885  1.00  0.00     0.158 A 
BRANCH  15  18
ATOM     18  O   UNL     1      -0.966 -29.355  31.356  1.00  0.00    -0.504 OA
ATOM     19  H   UNL     1      -0.548 -29.926  32.082  1.00  0.00     0.293 HD
ENDBRANCH  15  18
BRANCH  17  20
ATOM     20  O   UNL     1       1.355 -30.716  30.651  1.00  0.00    -0.504 OA
ATOM     21  H   UNL     1       2.329 -30.996  30.679  1.00  0.00     0.293 HD
ENDBRANCH  17  20
ENDBRANCH   1  12
BRANCH   6  22
ATOM     22  O   UNL     1       4.310 -25.701  22.608  1.00  0.00    -0.507 OA
ATOM     23  H   UNL     1       4.320 -25.896  21.619  1.00  0.00     0.293 HD
ENDBRANCH   6  22
BRANCH   8  24
ATOM     24  O   UNL     1       7.498 -28.720  24.555  1.00  0.00    -0.508 OA
ATOM     25  H   UNL     1       7.654 -29.617  24.109  1.00  0.00     0.293 HD
ENDBRANCH   8  24
TORSDOF 5
ENDMDL
MODEL 6
REMARK VINA RESULT:    -8.597      1.524      6.795
REMARK INTER + INTRA:         -10.422
REMARK INTER:                 -10.112
REMARK INTRA:                  -0.310
REMARK UNBOUND:                -0.318
REMARK SMILES O=c1cc(-c2ccc(O)c(O)c2)oc2cc(O)cc(O)c12
REMARK SMILES IDX 4 1 3 2 2 3 1 4 21 5 19 6 18 7 16 8 15 9 14 10 13 11 5 12
REMARK SMILES IDX 6 13 7 14 8 15 12 16 10 17 9 18 11 20 20 22 17 24
REMARK H PARENT 9 19 11 21 20 23 17 25
REMARK Flexibility Score: inf
ROOT
ATOM      1  C   UNL     1       3.293 -28.697  26.910  1.00  0.00     0.138 A 
ATOM      2  C   UNL     1       3.659 -29.811  27.677  1.00  0.00     0.100 A 
ATOM      3  C   UNL     1       2.843 -30.219  28.734  1.00  0.00     0.197 A 
ATOM      4  O   UNL     1       3.164 -31.259  29.366  1.00  0.00    -0.289 OA
ATOM      5  C   UNL     1       1.671 -29.487  29.041  1.00  0.00     0.107 A 
ATOM      6  C   UNL     1       0.787 -29.786  30.120  1.00  0.00     0.134 A 
ATOM      7  C   UNL     1      -0.404 -29.062  30.257  1.00  0.00     0.093 A 
ATOM      8  C   UNL     1      -0.712 -28.011  29.389  1.00  0.00     0.123 A 
ATOM      9  C   UNL     1       0.172 -27.677  28.366  1.00  0.00     0.094 A 
ATOM     10  C   UNL     1       1.351 -28.402  28.182  1.00  0.00     0.146 A 
ATOM     11  O   UNL     1       2.159 -28.060  27.185  1.00  0.00    -0.456 OA
ENDROOT
BRANCH   1  12
ATOM     12  C   UNL     1       4.125 -28.220  25.776  1.00  0.00     0.021 A 
ATOM     13  C   UNL     1       5.511 -28.458  25.725  1.00  0.00     0.016 A 
ATOM     14  C   UNL     1       6.271 -27.988  24.649  1.00  0.00     0.051 A 
ATOM     15  C   UNL     1       5.662 -27.267  23.615  1.00  0.00     0.157 A 
ATOM     16  C   UNL     1       3.524 -27.483  24.739  1.00  0.00     0.062 A 
ATOM     17  C   UNL     1       4.286 -27.013  23.660  1.00  0.00     0.158 A 
BRANCH  15  18
ATOM     18  O   UNL     1       6.417 -26.797  22.541  1.00  0.00    -0.504 OA
ATOM     19  H   UNL     1       6.325 -27.197  21.614  1.00  0.00     0.293 HD
ENDBRANCH  15  18
BRANCH  17  20
ATOM     20  O   UNL     1       3.684 -26.291  22.631  1.00  0.00    -0.504 OA
ATOM     21  H   UNL     1       3.382 -25.332  22.762  1.00  0.00     0.293 HD
ENDBRANCH  17  20
ENDBRANCH   1  12
BRANCH   6  22
ATOM     22  O   UNL     1       1.040 -30.759  31.092  1.00  0.00    -0.507 OA
ATOM     23  H   UNL     1       0.508 -30.879  31.940  1.00  0.00     0.293 HD
ENDBRANCH   6  22
BRANCH   8  24
ATOM     24  O   UNL     1      -1.892 -27.285  29.541  1.00  0.00    -0.508 OA
ATOM     25  H   UNL     1      -2.667 -27.394  28.897  1.00  0.00     0.293 HD
ENDBRANCH   8  24
TORSDOF 5
ENDMDL
MODEL 7
REMARK VINA RESULT:    -8.449     12.919     13.224
REMARK INTER + INTRA:         -10.249
REMARK INTER:                  -9.957
REMARK INTRA:                  -0.292
REMARK UNBOUND:                -0.318
REMARK SMILES O=c1cc(-c2ccc(O)c(O)c2)oc2cc(O)cc(O)c12
REMARK SMILES IDX 4 1 3 2 2 3 1 4 21 5 19 6 18 7 16 8 15 9 14 10 13 11 5 12
REMARK SMILES IDX 6 13 7 14 8 15 12 16 10 17 9 18 11 20 20 22 17 24
REMARK H PARENT 9 19 11 21 20 23 17 25
REMARK Flexibility Score: inf
ROOT
ATOM      1  C   UNL     1      -2.545 -37.741  20.289  1.00  0.00     0.138 A 
ATOM      2  C   UNL     1      -2.175 -36.533  20.896  1.00  0.00     0.100 A 
ATOM      3  C   UNL     1      -2.232 -35.347  20.162  1.00  0.00     0.197 A 
ATOM      4  O   UNL     1      -1.954 -34.270  20.751  1.00  0.00    -0.289 OA
ATOM      5  C   UNL     1      -2.631 -35.378  18.804  1.00  0.00     0.107 A 
ATOM      6  C   UNL     1      -2.687 -34.239  17.948  1.00  0.00     0.134 A 
ATOM      7  C   UNL     1      -3.209 -34.371  16.655  1.00  0.00     0.093 A 
ATOM      8  C   UNL     1      -3.621 -35.615  16.169  1.00  0.00     0.123 A 
ATOM      9  C   UNL     1      -3.519 -36.743  16.979  1.00  0.00     0.094 A 
ATOM     10  C   UNL     1      -3.035 -36.637  18.285  1.00  0.00     0.146 A 
ATOM     11  O   UNL     1      -2.968 -37.735  19.029  1.00  0.00    -0.456 OA
ENDROOT
BRANCH   1  12
ATOM     12  C   UNL     1      -2.502 -39.031  21.024  1.00  0.00     0.021 A 
ATOM     13  C   UNL     1      -2.577 -40.267  20.353  1.00  0.00     0.016 A 
ATOM     14  C   UNL     1      -2.544 -41.466  21.071  1.00  0.00     0.051 A 
ATOM     15  C   UNL     1      -2.447 -41.451  22.468  1.00  0.00     0.157 A 
ATOM     16  C   UNL     1      -2.417 -39.026  22.428  1.00  0.00     0.062 A 
ATOM     17  C   UNL     1      -2.384 -40.229  23.148  1.00  0.00     0.158 A 
BRANCH  15  18
ATOM     18  O   UNL     1      -2.414 -42.645  23.186  1.00  0.00    -0.504 OA
ATOM     19  H   UNL     1      -3.223 -43.252  23.243  1.00  0.00     0.293 HD
ENDBRANCH  15  18
BRANCH  17  20
ATOM     20  O   UNL     1      -2.291 -40.217  24.538  1.00  0.00    -0.504 OA
ATOM     21  H   UNL     1      -1.442 -39.928  25.010  1.00  0.00     0.293 HD
ENDBRANCH  17  20
ENDBRANCH   1  12
BRANCH   6  22
ATOM     22  O   UNL     1      -2.223 -32.969  18.306  1.00  0.00    -0.507 OA
ATOM     23  H   UNL     1      -2.338 -32.135  17.750  1.00  0.00     0.293 HD
ENDBRANCH   6  22
BRANCH   8  24
ATOM     24  O   UNL     1      -4.124 -35.742  14.876  1.00  0.00    -0.508 OA
ATOM     25  H   UNL     1      -4.910 -35.185  14.557  1.00  0.00     0.293 HD
ENDBRANCH   8  24
TORSDOF 5
ENDMDL
MODEL 8
REMARK VINA RESULT:    -8.295     13.179     13.448
REMARK INTER + INTRA:         -10.068
REMARK INTER:                  -9.780
REMARK INTRA:                  -0.288
REMARK UNBOUND:                -0.318
REMARK SMILES O=c1cc(-c2ccc(O)c(O)c2)oc2cc(O)cc(O)c12
REMARK SMILES IDX 4 1 3 2 2 3 1 4 21 5 19 6 18 7 16 8 15 9 14 10 13 11 5 12
REMARK SMILES IDX 6 13 7 14 8 15 12 16 10 17 9 18 11 20 20 22 17 24
REMARK H PARENT 9 19 11 21 20 23 17 25
REMARK Flexibility Score: inf
ROOT
ATOM      1  C   UNL     1      -3.000 -38.301  20.291  1.00  0.00     0.138 A 
ATOM      2  C   UNL     1      -3.315 -38.907  19.068  1.00  0.00     0.100 A 
ATOM      3  C   UNL     1      -3.422 -38.125  17.917  1.00  0.00     0.197 A 
ATOM      4  O   UNL     1      -3.645 -38.704  16.823  1.00  0.00    -0.289 OA
ATOM      5  C   UNL     1      -3.243 -36.723  18.000  1.00  0.00     0.107 A 
ATOM      6  C   UNL     1      -3.370 -35.821  16.902  1.00  0.00     0.134 A 
ATOM      7  C   UNL     1      -3.056 -34.468  17.080  1.00  0.00     0.093 A 
ATOM      8  C   UNL     1      -2.679 -33.975  18.331  1.00  0.00     0.123 A 
ATOM      9  C   UNL     1      -2.606 -34.838  19.422  1.00  0.00     0.094 A 
ATOM     10  C   UNL     1      -2.879 -36.199  19.269  1.00  0.00     0.146 A 
ATOM     11  O   UNL     1      -2.783 -36.990  20.332  1.00  0.00    -0.456 OA
ENDROOT
BRANCH   1  12
ATOM     12  C   UNL     1      -2.875 -39.086  21.546  1.00  0.00     0.021 A 
ATOM     13  C   UNL     1      -2.070 -38.648  22.615  1.00  0.00     0.016 A 
ATOM     14  C   UNL     1      -1.963 -39.413  23.780  1.00  0.00     0.051 A 
ATOM     15  C   UNL     1      -2.648 -40.629  23.892  1.00  0.00     0.157 A 
ATOM     16  C   UNL     1      -3.549 -40.315  21.663  1.00  0.00     0.062 A 
ATOM     17  C   UNL     1      -3.441 -41.082  22.832  1.00  0.00     0.158 A 
BRANCH  15  18
ATOM     18  O   UNL     1      -2.543 -41.394  25.053  1.00  0.00    -0.504 OA
ATOM     19  H   UNL     1      -2.818 -42.369  25.072  1.00  0.00     0.293 HD
ENDBRANCH  15  18
BRANCH  17  20
ATOM     20  O   UNL     1      -4.118 -42.294  22.946  1.00  0.00    -0.504 OA
ATOM     21  H   UNL     1      -4.842 -42.435  23.642  1.00  0.00     0.293 HD
ENDBRANCH  17  20
ENDBRANCH   1  12
BRANCH   6  22
ATOM     22  O   UNL     1      -3.820 -36.196  15.632  1.00  0.00    -0.507 OA
ATOM     23  H   UNL     1      -3.843 -37.142  15.283  1.00  0.00     0.293 HD
ENDBRANCH   6  22
BRANCH   8  24
ATOM     24  O   UNL     1      -2.383 -32.624  18.504  1.00  0.00    -0.508 OA
ATOM     25  H   UNL     1      -1.523 -32.221  18.149  1.00  0.00     0.293 HD
ENDBRANCH   8  24
TORSDOF 5
ENDMDL
MODEL 9
REMARK VINA RESULT:    -8.116      2.137      7.253
REMARK INTER + INTRA:          -9.858
REMARK INTER:                  -9.595
REMARK INTRA:                  -0.263
REMARK UNBOUND:                -0.318
REMARK SMILES O=c1cc(-c2ccc(O)c(O)c2)oc2cc(O)cc(O)c12
REMARK SMILES IDX 4 1 3 2 2 3 1 4 21 5 19 6 18 7 16 8 15 9 14 10 13 11 5 12
REMARK SMILES IDX 6 13 7 14 8 15 12 16 10 17 9 18 11 20 20 22 17 24
REMARK H PARENT 9 19 11 21 20 23 17 25
REMARK Flexibility Score: inf
ROOT
ATOM      1  C   UNL     1       2.229 -28.770  27.883  1.00  0.00     0.138 A 
ATOM      2  C   UNL     1       2.042 -28.035  29.061  1.00  0.00     0.100 A 
ATOM      3  C   UNL     1       1.102 -28.463  30.000  1.00  0.00     0.197 A 
ATOM      4  O   UNL     1       1.001 -27.817  31.076  1.00  0.00    -0.289 OA
ATOM      5  C   UNL     1       0.323 -29.616  29.741  1.00  0.00     0.107 A 
ATOM      6  C   UNL     1      -0.693 -30.121  30.606  1.00  0.00     0.134 A 
ATOM      7  C   UNL     1      -1.318 -31.336  30.300  1.00  0.00     0.093 A 
ATOM      8  C   UNL     1      -1.006 -32.032  29.130  1.00  0.00     0.123 A 
ATOM      9  C   UNL     1      -0.054 -31.519  28.252  1.00  0.00     0.094 A 
ATOM     10  C   UNL     1       0.612 -30.327  28.546  1.00  0.00     0.146 A 
ATOM     11  O   UNL     1       1.523 -29.880  27.689  1.00  0.00    -0.456 OA
ENDROOT
BRANCH   1  12
ATOM     12  C   UNL     1       3.214 -28.360  26.851  1.00  0.00     0.021 A 
ATOM     13  C   UNL     1       4.540 -28.835  26.864  1.00  0.00     0.016 A 
ATOM     14  C   UNL     1       5.449 -28.423  25.885  1.00  0.00     0.051 A 
ATOM     15  C   UNL     1       5.054 -27.526  24.886  1.00  0.00     0.157 A 
ATOM     16  C   UNL     1       2.830 -27.448  25.850  1.00  0.00     0.062 A 
ATOM     17  C   UNL     1       3.743 -27.036  24.868  1.00  0.00     0.158 A 
BRANCH  15  18
ATOM     18  O   UNL     1       5.958 -27.114  23.908  1.00  0.00    -0.504 OA
ATOM     19  H   UNL     1       6.469 -27.783  23.343  1.00  0.00     0.293 HD
ENDBRANCH  15  18
BRANCH  17  20
ATOM     20  O   UNL     1       3.354 -26.140  23.875  1.00  0.00    -0.504 OA
ATOM     21  H   UNL     1       3.230 -25.153  24.069  1.00  0.00     0.293 HD
ENDBRANCH  17  20
ENDBRANCH   1  12
BRANCH   6  22
ATOM     22  O   UNL     1      -1.139 -29.461  31.755  1.00  0.00    -0.507 OA
ATOM     23  H   UNL     1      -1.963 -28.882  31.804  1.00  0.00     0.293 HD
ENDBRANCH   6  22
BRANCH   8  24
ATOM     24  O   UNL     1      -1.644 -33.233  28.825  1.00  0.00    -0.508 OA
ATOM     25  H   UNL     1      -2.294 -33.666  29.471  1.00  0.00     0.293 HD
ENDBRANCH   8  24
TORSDOF 5
ENDMDL
