MODEL 1
REMARK VINA RESULT:    -4.826      0.000      0.000
REMARK INTER + INTRA:         -10.810
REMARK INTER:                  -9.058
REMARK INTRA:                  -1.752
REMARK UNBOUND:                -1.752
REMARK SMILES CCCCCCCCC=CCCCCCCCC(=O)[O-]
REMARK SMILES IDX 10 1 9 2 11 3 12 4 13 5 14 6 15 7 16 8 17 9 18 10 19 11
REMARK SMILES IDX 20 12 8 13 7 14 6 15 5 16 4 17 3 18 2 19 1 20
REMARK H PARENT
REMARK Flexibility Score: inf
ROOT
ATOM      1  C   UNL     1       3.226  10.453  18.682  1.00  0.00    -0.031 C 
ATOM      2  C   UNL     1       3.416   9.787  17.533  1.00  0.00    -0.031 C 
ENDROOT
BRANCH   1   3
ATOM      3  C   UNL     1       4.284  11.359  19.253  1.00  0.00     0.027 C 
BRANCH   3   4
ATOM      4  C   UNL     1       5.672  11.102  18.642  1.00  0.00     0.004 C 
BRANCH   4   5
ATOM      5  C   UNL     1       6.177  12.224  17.712  1.00  0.00     0.000 C 
BRANCH   5   6
ATOM      6  C   UNL     1       5.755  12.084  16.235  1.00  0.00     0.000 C 
BRANCH   6   7
ATOM      7  C   UNL     1       4.497  12.879  15.836  1.00  0.00     0.000 C 
BRANCH   7   8
ATOM      8  C   UNL     1       3.975  12.614  14.410  1.00  0.00     0.006 C 
BRANCH   8   9
ATOM      9  C   UNL     1       2.899  11.517  14.333  1.00  0.00     0.053 C 
BRANCH   9  10
ATOM     10  C   UNL     1       3.409  10.257  13.700  1.00  0.00     0.041 C 
ATOM     11  O   UNL     1       4.521   9.779  14.045  1.00  0.00    -0.550 OA
ATOM     12  O   UNL     1       2.673   9.632  12.701  1.00  0.00    -0.550 OA
ENDBRANCH   9  10
ENDBRANCH   8   9
ENDBRANCH   7   8
ENDBRANCH   6   7
ENDBRANCH   5   6
ENDBRANCH   4   5
ENDBRANCH   3   4
ENDBRANCH   1   3
BRANCH   2  13
ATOM     13  C   UNL     1       2.364   8.868  16.975  1.00  0.00     0.027 C 
BRANCH  13  14
ATOM     14  C   UNL     1       1.094   8.896  17.840  1.00  0.00     0.004 C 
BRANCH  14  15
ATOM     15  C   UNL     1       0.432   7.515  17.964  1.00  0.00     0.000 C 
BRANCH  15  16
ATOM     16  C   UNL     1       1.226   6.413  17.242  1.00  0.00     0.000 C 
BRANCH  16  17
ATOM     17  C   UNL     1       0.993   5.018  17.845  1.00  0.00    -0.000 C 
BRANCH  17  18
ATOM     18  C   UNL     1       0.350   5.049  19.248  1.00  0.00    -0.000 C 
BRANCH  18  19
ATOM     19  C   UNL     1       1.285   4.484  20.328  1.00  0.00    -0.003 C 
ATOM     20  C   UNL     1       2.451   3.722  19.704  1.00  0.00     0.004 C 
ENDBRANCH  18  19
ENDBRANCH  17  18
ENDBRANCH  16  17
ENDBRANCH  15  16
ENDBRANCH  14  15
ENDBRANCH  13  14
ENDBRANCH   2  13
TORSDOF 15
ENDMDL
MODEL 2
REMARK VINA RESULT:    -4.710      2.856      6.577
REMARK INTER + INTRA:         -10.593
REMARK INTER:                  -8.680
REMARK INTRA:                  -1.914
REMARK UNBOUND:                -1.752
REMARK SMILES CCCCCCCCC=CCCCCCCCC(=O)[O-]
REMARK SMILES IDX 10 1 9 2 11 3 12 4 13 5 14 6 15 7 16 8 17 9 18 10 19 11
REMARK SMILES IDX 20 12 8 13 7 14 6 15 5 16 4 17 3 18 2 19 1 20
REMARK H PARENT
REMARK Flexibility Score: inf
ROOT
ATOM      1  C   UNL     1       3.802  11.248  14.390  1.00  0.00    -0.031 C 
ATOM      2  C   UNL     1       2.762  12.064  14.161  1.00  0.00    -0.031 C 
ENDROOT
BRANCH   1   3
ATOM      3  C   UNL     1       3.938   9.925  13.686  1.00  0.00     0.027 C 
BRANCH   3   4
ATOM      4  C   UNL     1       3.321   8.766  14.487  1.00  0.00     0.004 C 
BRANCH   4   5
ATOM      5  C   UNL     1       3.108   9.067  15.984  1.00  0.00     0.000 C 
BRANCH   5   6
ATOM      6  C   UNL     1       2.407   7.947  16.780  1.00  0.00     0.000 C 
BRANCH   6   7
ATOM      7  C   UNL     1       1.222   8.406  17.651  1.00  0.00     0.000 C 
BRANCH   7   8
ATOM      8  C   UNL     1       0.430   7.275  18.335  1.00  0.00     0.006 C 
BRANCH   8   9
ATOM      9  C   UNL     1       0.668   5.885  17.718  1.00  0.00     0.053 C 
BRANCH   9  10
ATOM     10  C   UNL     1       1.016   4.853  18.747  1.00  0.00     0.041 C 
ATOM     11  O   UNL     1       0.747   5.051  19.961  1.00  0.00    -0.550 OA
ATOM     12  O   UNL     1       1.671   3.686  18.372  1.00  0.00    -0.550 OA
ENDBRANCH   9  10
ENDBRANCH   8   9
ENDBRANCH   7   8
ENDBRANCH   6   7
ENDBRANCH   5   6
ENDBRANCH   4   5
ENDBRANCH   3   4
ENDBRANCH   1   3
BRANCH   2  13
ATOM     13  C   UNL     1       2.620  13.377  14.880  1.00  0.00     0.027 C 
BRANCH  13  14
ATOM     14  C   UNL     1       3.428  13.379  16.187  1.00  0.00     0.004 C 
BRANCH  14  15
ATOM     15  C   UNL     1       2.572  13.737  17.411  1.00  0.00     0.000 C 
BRANCH  15  16
ATOM     16  C   UNL     1       3.000  12.971  18.675  1.00  0.00     0.000 C 
BRANCH  16  17
ATOM     17  C   UNL     1       3.130  11.457  18.439  1.00  0.00    -0.000 C 
BRANCH  17  18
ATOM     18  C   UNL     1       4.218  10.786  19.304  1.00  0.00    -0.000 C 
BRANCH  18  19
ATOM     19  C   UNL     1       5.629  11.274  18.941  1.00  0.00    -0.003 C 
ATOM     20  C   UNL     1       5.918  11.071  17.457  1.00  0.00     0.004 C 
ENDBRANCH  18  19
ENDBRANCH  17  18
ENDBRANCH  16  17
ENDBRANCH  15  16
ENDBRANCH  14  15
ENDBRANCH  13  14
ENDBRANCH   2  13
TORSDOF 15
ENDMDL
MODEL 3
REMARK VINA RESULT:    -4.512      1.989      3.614
REMARK INTER + INTRA:         -10.220
REMARK INTER:                  -8.475
REMARK INTRA:                  -1.745
REMARK UNBOUND:                -1.752
REMARK SMILES CCCCCCCCC=CCCCCCCCC(=O)[O-]
REMARK SMILES IDX 10 1 9 2 11 3 12 4 13 5 14 6 15 7 16 8 17 9 18 10 19 11
REMARK SMILES IDX 20 12 8 13 7 14 6 15 5 16 4 17 3 18 2 19 1 20
REMARK H PARENT
REMARK Flexibility Score: inf
ROOT
ATOM      1  C   UNL     1       3.315   9.930  14.688  1.00  0.00    -0.031 C 
ATOM      2  C   UNL     1       3.453   9.707  16.003  1.00  0.00    -0.031 C 
ENDROOT
BRANCH   1   3
ATOM      3  C   UNL     1       3.979  11.098  14.011  1.00  0.00     0.027 C 
BRANCH   3   4
ATOM      4  C   UNL     1       4.317  12.233  14.992  1.00  0.00     0.004 C 
BRANCH   4   5
ATOM      5  C   UNL     1       3.143  13.187  15.293  1.00  0.00     0.000 C 
BRANCH   5   6
ATOM      6  C   UNL     1       3.039  13.646  16.762  1.00  0.00     0.000 C 
BRANCH   6   7
ATOM      7  C   UNL     1       2.809  12.518  17.785  1.00  0.00     0.000 C 
BRANCH   7   8
ATOM      8  C   UNL     1       3.784  12.504  18.979  1.00  0.00     0.006 C 
BRANCH   8   9
ATOM      9  C   UNL     1       4.424  11.130  19.247  1.00  0.00     0.053 C 
BRANCH   9  10
ATOM     10  C   UNL     1       5.895  11.118  18.960  1.00  0.00     0.041 C 
ATOM     11  O   UNL     1       6.726  11.108  19.905  1.00  0.00    -0.550 OA
ATOM     12  O   UNL     1       6.349  11.154  17.647  1.00  0.00    -0.550 OA
ENDBRANCH   9  10
ENDBRANCH   8   9
ENDBRANCH   7   8
ENDBRANCH   6   7
ENDBRANCH   5   6
ENDBRANCH   4   5
ENDBRANCH   3   4
ENDBRANCH   1   3
BRANCH   2  13
ATOM     13  C   UNL     1       2.774   8.549  16.680  1.00  0.00     0.027 C 
BRANCH  13  14
ATOM     14  C   UNL     1       1.710   9.040  17.675  1.00  0.00     0.004 C 
BRANCH  14  15
ATOM     15  C   UNL     1       0.673   7.958  18.014  1.00  0.00     0.000 C 
BRANCH  15  16
ATOM     16  C   UNL     1       0.859   6.680  17.180  1.00  0.00     0.000 C 
BRANCH  16  17
ATOM     17  C   UNL     1       0.567   5.399  17.979  1.00  0.00    -0.000 C 
BRANCH  17  18
ATOM     18  C   UNL     1       0.553   5.612  19.508  1.00  0.00    -0.000 C 
BRANCH  18  19
ATOM     19  C   UNL     1       1.314   4.505  20.255  1.00  0.00    -0.003 C 
ATOM     20  C   UNL     1       2.134   3.653  19.291  1.00  0.00     0.004 C 
ENDBRANCH  18  19
ENDBRANCH  17  18
ENDBRANCH  16  17
ENDBRANCH  15  16
ENDBRANCH  14  15
ENDBRANCH  13  14
ENDBRANCH   2  13
TORSDOF 15
ENDMDL
MODEL 4
REMARK VINA RESULT:    -4.306      2.882      6.742
REMARK INTER + INTRA:          -9.834
REMARK INTER:                  -8.435
REMARK INTRA:                  -1.398
REMARK UNBOUND:                -1.752
REMARK SMILES CCCCCCCCC=CCCCCCCCC(=O)[O-]
REMARK SMILES IDX 10 1 9 2 11 3 12 4 13 5 14 6 15 7 16 8 17 9 18 10 19 11
REMARK SMILES IDX 20 12 8 13 7 14 6 15 5 16 4 17 3 18 2 19 1 20
REMARK H PARENT
REMARK Flexibility Score: inf
ROOT
ATOM      1  C   UNL     1       4.894  10.716  18.178  1.00  0.00    -0.031 C 
ATOM      2  C   UNL     1       5.004  11.959  17.684  1.00  0.00    -0.031 C 
ENDROOT
BRANCH   1   3
ATOM      3  C   UNL     1       3.877  10.372  19.231  1.00  0.00     0.027 C 
BRANCH   3   4
ATOM      4  C   UNL     1       2.508  10.007  18.632  1.00  0.00     0.004 C 
BRANCH   4   5
ATOM      5  C   UNL     1       2.581   9.227  17.304  1.00  0.00     0.000 C 
BRANCH   5   6
ATOM      6  C   UNL     1       1.667   7.987  17.226  1.00  0.00     0.000 C 
BRANCH   6   7
ATOM      7  C   UNL     1       0.436   8.023  18.153  1.00  0.00     0.000 C 
BRANCH   7   8
ATOM      8  C   UNL     1       0.140   6.711  18.905  1.00  0.00     0.006 C 
BRANCH   8   9
ATOM      9  C   UNL     1       0.605   5.446  18.160  1.00  0.00     0.053 C 
BRANCH   9  10
ATOM     10  C   UNL     1       1.171   4.412  19.085  1.00  0.00     0.041 C 
ATOM     11  O   UNL     1       0.935   4.468  20.320  1.00  0.00    -0.550 OA
ATOM     12  O   UNL     1       1.990   3.405  18.588  1.00  0.00    -0.550 OA
ENDBRANCH   9  10
ENDBRANCH   8   9
ENDBRANCH   7   8
ENDBRANCH   6   7
ENDBRANCH   5   6
ENDBRANCH   4   5
ENDBRANCH   3   4
ENDBRANCH   1   3
BRANCH   2  13
ATOM     13  C   UNL     1       6.034  12.304  16.644  1.00  0.00     0.027 C 
BRANCH  13  14
ATOM     14  C   UNL     1       5.381  12.971  15.424  1.00  0.00     0.004 C 
BRANCH  14  15
ATOM     15  C   UNL     1       3.856  13.096  15.563  1.00  0.00     0.000 C 
BRANCH  15  16
ATOM     16  C   UNL     1       3.129  12.989  14.212  1.00  0.00     0.000 C 
BRANCH  16  17
ATOM     17  C   UNL     1       2.550  11.587  13.956  1.00  0.00    -0.000 C 
BRANCH  17  18
ATOM     18  C   UNL     1       3.467  10.441  14.435  1.00  0.00    -0.000 C 
BRANCH  18  19
ATOM     19  C   UNL     1       3.908   9.530  13.279  1.00  0.00    -0.003 C 
ATOM     20  C   UNL     1       3.298   8.138  13.409  1.00  0.00     0.004 C 
ENDBRANCH  18  19
ENDBRANCH  17  18
ENDBRANCH  16  17
ENDBRANCH  15  16
ENDBRANCH  14  15
ENDBRANCH  13  14
ENDBRANCH   2  13
TORSDOF 15
ENDMDL
MODEL 5
REMARK VINA RESULT:    -4.195      1.518      2.171
REMARK INTER + INTRA:          -9.625
REMARK INTER:                  -8.516
REMARK INTRA:                  -1.109
REMARK UNBOUND:                -1.752
REMARK SMILES CCCCCCCCC=CCCCCCCCC(=O)[O-]
REMARK SMILES IDX 10 1 9 2 11 3 12 4 13 5 14 6 15 7 16 8 17 9 18 10 19 11
REMARK SMILES IDX 20 12 8 13 7 14 6 15 5 16 4 17 3 18 2 19 1 20
REMARK H PARENT
REMARK Flexibility Score: inf
ROOT
ATOM      1  C   UNL     1       5.162  10.377  16.700  1.00  0.00    -0.031 C 
ATOM      2  C   UNL     1       3.863  10.044  16.731  1.00  0.00    -0.031 C 
ENDROOT
BRANCH   1   3
ATOM      3  C   UNL     1       5.729  11.431  17.611  1.00  0.00     0.027 C 
BRANCH   3   4
ATOM      4  C   UNL     1       5.028  11.466  18.980  1.00  0.00     0.004 C 
BRANCH   4   5
ATOM      5  C   UNL     1       3.514  11.749  18.914  1.00  0.00     0.000 C 
BRANCH   5   6
ATOM      6  C   UNL     1       3.129  13.243  18.948  1.00  0.00     0.000 C 
BRANCH   6   7
ATOM      7  C   UNL     1       2.396  13.758  17.694  1.00  0.00     0.000 C 
BRANCH   7   8
ATOM      8  C   UNL     1       3.235  13.771  16.401  1.00  0.00     0.006 C 
BRANCH   8   9
ATOM      9  C   UNL     1       2.428  13.452  15.130  1.00  0.00     0.053 C 
BRANCH   9  10
ATOM     10  C   UNL     1       3.130  12.474  14.237  1.00  0.00     0.041 C 
ATOM     11  O   UNL     1       4.383  12.506  14.121  1.00  0.00    -0.550 OA
ATOM     12  O   UNL     1       2.396  11.548  13.504  1.00  0.00    -0.550 OA
ENDBRANCH   9  10
ENDBRANCH   8   9
ENDBRANCH   7   8
ENDBRANCH   6   7
ENDBRANCH   5   6
ENDBRANCH   4   5
ENDBRANCH   3   4
ENDBRANCH   1   3
BRANCH   2  13
ATOM     13  C   UNL     1       3.296   9.002  15.807  1.00  0.00     0.027 C 
BRANCH  13  14
ATOM     14  C   UNL     1       2.391   8.023  16.570  1.00  0.00     0.004 C 
BRANCH  14  15
ATOM     15  C   UNL     1       1.643   8.693  17.733  1.00  0.00     0.000 C 
BRANCH  15  16
ATOM     16  C   UNL     1       0.265   8.061  17.990  1.00  0.00     0.000 C 
BRANCH  16  17
ATOM     17  C   UNL     1       0.250   6.543  17.745  1.00  0.00    -0.000 C 
BRANCH  17  18
ATOM     18  C   UNL     1       0.523   5.708  19.014  1.00  0.00    -0.000 C 
BRANCH  18  19
ATOM     19  C   UNL     1       1.323   4.431  18.708  1.00  0.00    -0.003 C 
ATOM     20  C   UNL     1       2.087   3.951  19.938  1.00  0.00     0.004 C 
ENDBRANCH  18  19
ENDBRANCH  17  18
ENDBRANCH  16  17
ENDBRANCH  15  16
ENDBRANCH  14  15
ENDBRANCH  13  14
ENDBRANCH   2  13
TORSDOF 15
ENDMDL
MODEL 6
REMARK VINA RESULT:    -4.169      3.012      6.596
REMARK INTER + INTRA:          -9.577
REMARK INTER:                  -7.894
REMARK INTRA:                  -1.683
REMARK UNBOUND:                -1.752
REMARK SMILES CCCCCCCCC=CCCCCCCCC(=O)[O-]
REMARK SMILES IDX 10 1 9 2 11 3 12 4 13 5 14 6 15 7 16 8 17 9 18 10 19 11
REMARK SMILES IDX 20 12 8 13 7 14 6 15 5 16 4 17 3 18 2 19 1 20
REMARK H PARENT
REMARK Flexibility Score: inf
ROOT
ATOM      1  C   UNL     1       3.665  12.093  18.045  1.00  0.00    -0.031 C 
ATOM      2  C   UNL     1       2.762  13.064  18.250  1.00  0.00    -0.031 C 
ENDROOT
BRANCH   1   3
ATOM      3  C   UNL     1       3.985  11.076  19.107  1.00  0.00     0.027 C 
BRANCH   3   4
ATOM      4  C   UNL     1       3.144   9.796  18.970  1.00  0.00     0.004 C 
BRANCH   4   5
ATOM      5  C   UNL     1       2.503   9.599  17.581  1.00  0.00     0.000 C 
BRANCH   5   6
ATOM      6  C   UNL     1       1.861   8.216  17.351  1.00  0.00     0.000 C 
BRANCH   6   7
ATOM      7  C   UNL     1       0.450   8.043  17.945  1.00  0.00     0.000 C 
BRANCH   7   8
ATOM      8  C   UNL     1       0.249   6.782  18.808  1.00  0.00     0.006 C 
BRANCH   8   9
ATOM      9  C   UNL     1       0.590   5.468  18.082  1.00  0.00     0.053 C 
BRANCH   9  10
ATOM     10  C   UNL     1       1.222   4.458  18.992  1.00  0.00     0.041 C 
ATOM     11  O   UNL     1       1.270   4.665  20.233  1.00  0.00    -0.550 OA
ATOM     12  O   UNL     1       1.790   3.305  18.466  1.00  0.00    -0.550 OA
ENDBRANCH   9  10
ENDBRANCH   8   9
ENDBRANCH   7   8
ENDBRANCH   6   7
ENDBRANCH   5   6
ENDBRANCH   4   5
ENDBRANCH   3   4
ENDBRANCH   1   3
BRANCH   2  13
ATOM     13  C   UNL     1       2.457  14.089  17.194  1.00  0.00     0.027 C 
BRANCH  13  14
ATOM     14  C   UNL     1       3.167  13.747  15.874  1.00  0.00     0.004 C 
BRANCH  14  15
ATOM     15  C   UNL     1       2.183  13.390  14.749  1.00  0.00     0.000 C 
BRANCH  15  16
ATOM     16  C   UNL     1       2.553  12.079  14.036  1.00  0.00     0.000 C 
BRANCH  16  17
ATOM     17  C   UNL     1       3.929  11.538  14.459  1.00  0.00    -0.000 C 
BRANCH  17  18
ATOM     18  C   UNL     1       4.035   9.999  14.401  1.00  0.00    -0.000 C 
BRANCH  18  19
ATOM     19  C   UNL     1       3.170   9.401  13.281  1.00  0.00    -0.003 C 
ATOM     20  C   UNL     1       3.280   7.879  13.252  1.00  0.00     0.004 C 
ENDBRANCH  18  19
ENDBRANCH  17  18
ENDBRANCH  16  17
ENDBRANCH  15  16
ENDBRANCH  14  15
ENDBRANCH  13  14
ENDBRANCH   2  13
TORSDOF 15
ENDMDL
MODEL 7
REMARK VINA RESULT:    -3.991      5.063      8.600
REMARK INTER + INTRA:          -9.243
REMARK INTER:                  -7.604
REMARK INTRA:                  -1.639
REMARK UNBOUND:                -1.752
REMARK SMILES CCCCCCCCC=CCCCCCCCC(=O)[O-]
REMARK SMILES IDX 10 1 9 2 11 3 12 4 13 5 14 6 15 7 16 8 17 9 18 10 19 11
REMARK SMILES IDX 20 12 8 13 7 14 6 15 5 16 4 17 3 18 2 19 1 20
REMARK H PARENT
REMARK Flexibility Score: inf
ROOT
ATOM      1  C   UNL     1       3.058  13.639  16.236  1.00  0.00    -0.031 C 
ATOM      2  C   UNL     1       1.921  14.210  16.662  1.00  0.00    -0.031 C 
ENDROOT
BRANCH   1   3
ATOM      3  C   UNL     1       3.174  13.042  14.860  1.00  0.00     0.027 C 
BRANCH   3   4
ATOM      4  C   UNL     1       4.163  11.865  14.809  1.00  0.00     0.004 C 
BRANCH   4   5
ATOM      5  C   UNL     1       3.506  10.475  14.936  1.00  0.00     0.000 C 
BRANCH   5   6
ATOM      6  C   UNL     1       3.784   9.743  16.264  1.00  0.00     0.000 C 
BRANCH   6   7
ATOM      7  C   UNL     1       2.840  10.113  17.425  1.00  0.00     0.000 C 
BRANCH   7   8
ATOM      8  C   UNL     1       3.516  10.260  18.802  1.00  0.00     0.006 C 
BRANCH   8   9
ATOM      9  C   UNL     1       4.166  11.635  19.035  1.00  0.00     0.053 C 
BRANCH   9  10
ATOM     10  C   UNL     1       5.659  11.592  18.912  1.00  0.00     0.041 C 
ATOM     11  O   UNL     1       6.213  11.864  17.815  1.00  0.00    -0.550 OA
ATOM     12  O   UNL     1       6.438  11.215  19.999  1.00  0.00    -0.550 OA
ENDBRANCH   9  10
ENDBRANCH   8   9
ENDBRANCH   7   8
ENDBRANCH   6   7
ENDBRANCH   5   6
ENDBRANCH   4   5
ENDBRANCH   3   4
ENDBRANCH   1   3
BRANCH   2  13
ATOM     13  C   UNL     1       1.803  14.790  18.044  1.00  0.00     0.027 C 
BRANCH  13  14
ATOM     14  C   UNL     1       0.934  16.056  18.037  1.00  0.00     0.004 C 
BRANCH  14  15
ATOM     15  C   UNL     1      -0.543  15.763  18.345  1.00  0.00     0.000 C 
BRANCH  15  16
ATOM     16  C   UNL     1      -1.369  17.044  18.548  1.00  0.00     0.000 C 
BRANCH  16  17
ATOM     17  C   UNL     1      -0.562  18.177  19.203  1.00  0.00    -0.000 C 
BRANCH  17  18
ATOM     18  C   UNL     1      -1.059  19.590  18.828  1.00  0.00    -0.000 C 
BRANCH  18  19
ATOM     19  C   UNL     1      -0.477  20.073  17.490  1.00  0.00    -0.003 C 
ATOM     20  C   UNL     1       0.983  19.654  17.340  1.00  0.00     0.004 C 
ENDBRANCH  18  19
ENDBRANCH  17  18
ENDBRANCH  16  17
ENDBRANCH  15  16
ENDBRANCH  14  15
ENDBRANCH  13  14
ENDBRANCH   2  13
TORSDOF 15
ENDMDL
MODEL 8
REMARK VINA RESULT:    -3.952      2.973      7.149
REMARK INTER + INTRA:          -9.171
REMARK INTER:                  -7.720
REMARK INTRA:                  -1.451
REMARK UNBOUND:                -1.752
REMARK SMILES CCCCCCCCC=CCCCCCCCC(=O)[O-]
REMARK SMILES IDX 10 1 9 2 11 3 12 4 13 5 14 6 15 7 16 8 17 9 18 10 19 11
REMARK SMILES IDX 20 12 8 13 7 14 6 15 5 16 4 17 3 18 2 19 1 20
REMARK H PARENT
REMARK Flexibility Score: inf
ROOT
ATOM      1  C   UNL     1       4.767  10.651  15.653  1.00  0.00    -0.031 C 
ATOM      2  C   UNL     1       5.348  10.293  16.808  1.00  0.00    -0.031 C 
ENDROOT
BRANCH   1   3
ATOM      3  C   UNL     1       3.794   9.746  14.946  1.00  0.00     0.027 C 
BRANCH   3   4
ATOM      4  C   UNL     1       3.103   8.761  15.904  1.00  0.00     0.004 C 
BRANCH   4   5
ATOM      5  C   UNL     1       2.312   9.429  17.046  1.00  0.00     0.000 C 
BRANCH   5   6
ATOM      6  C   UNL     1       1.355   8.492  17.810  1.00  0.00     0.000 C 
BRANCH   6   7
ATOM      7  C   UNL     1       1.436   7.006  17.410  1.00  0.00     0.000 C 
BRANCH   7   8
ATOM      8  C   UNL     1       0.230   6.144  17.832  1.00  0.00     0.006 C 
BRANCH   8   9
ATOM      9  C   UNL     1       0.356   5.541  19.243  1.00  0.00     0.053 C 
BRANCH   9  10
ATOM     10  C   UNL     1       1.343   4.415  19.298  1.00  0.00     0.041 C 
ATOM     11  O   UNL     1       1.505   3.663  18.301  1.00  0.00    -0.550 OA
ATOM     12  O   UNL     1       2.059   4.172  20.464  1.00  0.00    -0.550 OA
ENDBRANCH   9  10
ENDBRANCH   8   9
ENDBRANCH   7   8
ENDBRANCH   6   7
ENDBRANCH   5   6
ENDBRANCH   4   5
ENDBRANCH   3   4
ENDBRANCH   1   3
BRANCH   2  13
ATOM     13  C   UNL     1       6.334  11.192  17.502  1.00  0.00     0.027 C 
BRANCH  13  14
ATOM     14  C   UNL     1       6.120  11.172  19.023  1.00  0.00     0.004 C 
BRANCH  14  15
ATOM     15  C   UNL     1       4.633  11.194  19.412  1.00  0.00     0.000 C 
BRANCH  15  16
ATOM     16  C   UNL     1       3.993  12.578  19.217  1.00  0.00     0.000 C 
BRANCH  16  17
ATOM     17  C   UNL     1       2.782  12.547  18.269  1.00  0.00    -0.000 C 
BRANCH  17  18
ATOM     18  C   UNL     1       2.695  13.772  17.335  1.00  0.00    -0.000 C 
BRANCH  18  19
ATOM     19  C   UNL     1       3.396  13.527  15.989  1.00  0.00    -0.003 C 
ATOM     20  C   UNL     1       2.382  13.325  14.868  1.00  0.00     0.004 C 
ENDBRANCH  18  19
ENDBRANCH  17  18
ENDBRANCH  16  17
ENDBRANCH  15  16
ENDBRANCH  14  15
ENDBRANCH  13  14
ENDBRANCH   2  13
TORSDOF 15
ENDMDL
MODEL 9
REMARK VINA RESULT:    -3.909      2.814      7.443
REMARK INTER + INTRA:          -9.088
REMARK INTER:                  -7.920
REMARK INTRA:                  -1.168
REMARK UNBOUND:                -1.752
REMARK SMILES CCCCCCCCC=CCCCCCCCC(=O)[O-]
REMARK SMILES IDX 10 1 9 2 11 3 12 4 13 5 14 6 15 7 16 8 17 9 18 10 19 11
REMARK SMILES IDX 20 12 8 13 7 14 6 15 5 16 4 17 3 18 2 19 1 20
REMARK H PARENT
REMARK Flexibility Score: inf
ROOT
ATOM      1  C   UNL     1       3.726  10.056  18.258  1.00  0.00    -0.031 C 
ATOM      2  C   UNL     1       3.891  10.917  19.273  1.00  0.00    -0.031 C 
ENDROOT
BRANCH   1   3
ATOM      3  C   UNL     1       2.357   9.651  17.782  1.00  0.00     0.027 C 
BRANCH   3   4
ATOM      4  C   UNL     1       2.398   8.448  16.824  1.00  0.00     0.004 C 
BRANCH   4   5
ATOM      5  C   UNL     1       1.372   7.343  17.145  1.00  0.00     0.000 C 
BRANCH   5   6
ATOM      6  C   UNL     1       0.198   7.785  18.042  1.00  0.00     0.000 C 
BRANCH   6   7
ATOM      7  C   UNL     1      -0.231   6.760  19.109  1.00  0.00     0.000 C 
BRANCH   7   8
ATOM      8  C   UNL     1       0.128   5.294  18.797  1.00  0.00     0.006 C 
BRANCH   8   9
ATOM      9  C   UNL     1       0.872   4.577  19.938  1.00  0.00     0.053 C 
BRANCH   9  10
ATOM     10  C   UNL     1       1.978   3.698  19.437  1.00  0.00     0.041 C 
ATOM     11  O   UNL     1       1.838   3.051  18.366  1.00  0.00    -0.550 OA
ATOM     12  O   UNL     1       3.150   3.565  20.172  1.00  0.00    -0.550 OA
ENDBRANCH   9  10
ENDBRANCH   8   9
ENDBRANCH   7   8
ENDBRANCH   6   7
ENDBRANCH   5   6
ENDBRANCH   4   5
ENDBRANCH   3   4
ENDBRANCH   1   3
BRANCH   2  13
ATOM     13  C   UNL     1       5.260  11.306  19.759  1.00  0.00     0.027 C 
BRANCH  13  14
ATOM     14  C   UNL     1       6.293  11.209  18.626  1.00  0.00     0.004 C 
BRANCH  14  15
ATOM     15  C   UNL     1       6.161  12.351  17.605  1.00  0.00     0.000 C 
BRANCH  15  16
ATOM     16  C   UNL     1       5.595  11.875  16.257  1.00  0.00     0.000 C 
BRANCH  16  17
ATOM     17  C   UNL     1       4.658  12.907  15.607  1.00  0.00    -0.000 C 
BRANCH  17  18
ATOM     18  C   UNL     1       3.950  12.387  14.338  1.00  0.00    -0.000 C 
BRANCH  18  19
ATOM     19  C   UNL     1       3.266  11.031  14.569  1.00  0.00    -0.003 C 
ATOM     20  C   UNL     1       3.903   9.939  13.716  1.00  0.00     0.004 C 
ENDBRANCH  18  19
ENDBRANCH  17  18
ENDBRANCH  16  17
ENDBRANCH  15  16
ENDBRANCH  14  15
ENDBRANCH  13  14
ENDBRANCH   2  13
TORSDOF 15
ENDMDL
