MODEL 1
REMARK VINA RESULT:    -3.601      0.000      0.000
REMARK INTER + INTRA:          -8.312
REMARK INTER:                  -6.549
REMARK INTRA:                  -1.764
REMARK UNBOUND:                -1.764
REMARK SMILES CCCCCCCCCCCCCCCC(=O)[O-]
REMARK SMILES IDX 9 1 10 2 11 3 12 4 13 5 14 6 15 7 16 8 17 9 18 10 8 11 7 12
REMARK SMILES IDX 6 13 5 14 4 15 3 16 2 17 1 18
REMARK H PARENT
REMARK Flexibility Score: inf
ROOT
ATOM      1  C   UNL     1     -95.250 147.842 238.896  1.00  0.00     0.000 C 
ENDROOT
BRANCH   1   2
ATOM      2  C   UNL     1     -96.581 148.525 239.233  1.00  0.00     0.000 C 
BRANCH   2   3
ATOM      3  C   UNL     1     -96.510 150.034 238.965  1.00  0.00     0.000 C 
BRANCH   3   4
ATOM      4  C   UNL     1     -97.869 150.731 239.143  1.00  0.00     0.000 C 
BRANCH   4   5
ATOM      5  C   UNL     1     -98.996 149.745 239.500  1.00  0.00     0.000 C 
BRANCH   5   6
ATOM      6  C   UNL     1     -99.681 150.090 240.832  1.00  0.00     0.006 C 
BRANCH   6   7
ATOM      7  C   UNL     1     -98.681 150.254 241.983  1.00  0.00     0.053 C 
BRANCH   7   8
ATOM      8  C   UNL     1     -99.238 151.165 243.031  1.00  0.00     0.041 C 
ATOM      9  O   UNL     1    -100.457 151.477 243.015  1.00  0.00    -0.550 OA
ATOM     10  O   UNL     1     -98.401 151.706 243.999  1.00  0.00    -0.550 OA
ENDBRANCH   7   8
ENDBRANCH   6   7
ENDBRANCH   5   6
ENDBRANCH   4   5
ENDBRANCH   3   4
ENDBRANCH   2   3
ENDBRANCH   1   2
BRANCH   1  11
ATOM     11  C   UNL     1     -94.373 148.749 238.019  1.00  0.00     0.000 C 
BRANCH  11  12
ATOM     12  C   UNL     1     -93.687 147.985 236.876  1.00  0.00    -0.000 C 
BRANCH  12  13
ATOM     13  C   UNL     1     -94.448 148.100 235.543  1.00  0.00    -0.000 C 
BRANCH  13  14
ATOM     14  C   UNL     1     -95.266 149.397 235.439  1.00  0.00    -0.000 C 
BRANCH  14  15
ATOM     15  C   UNL     1     -95.889 149.592 234.048  1.00  0.00    -0.000 C 
BRANCH  15  16
ATOM     16  C   UNL     1     -97.406 149.796 234.149  1.00  0.00    -0.000 C 
BRANCH  16  17
ATOM     17  C   UNL     1     -97.915 149.457 235.554  1.00  0.00    -0.003 C 
ATOM     18  C   UNL     1     -99.315 150.018 235.785  1.00  0.00     0.004 C 
ENDBRANCH  16  17
ENDBRANCH  15  16
ENDBRANCH  14  15
ENDBRANCH  13  14
ENDBRANCH  12  13
ENDBRANCH  11  12
ENDBRANCH   1  11
TORSDOF 14
ENDMDL
MODEL 2
REMARK VINA RESULT:    -3.540      1.368      2.109
REMARK INTER + INTRA:          -8.201
REMARK INTER:                  -6.548
REMARK INTRA:                  -1.654
REMARK UNBOUND:                -1.764
REMARK SMILES CCCCCCCCCCCCCCCC(=O)[O-]
REMARK SMILES IDX 9 1 10 2 11 3 12 4 13 5 14 6 15 7 16 8 17 9 18 10 8 11 7 12
REMARK SMILES IDX 6 13 5 14 4 15 3 16 2 17 1 18
REMARK H PARENT
REMARK Flexibility Score: inf
ROOT
ATOM      1  C   UNL     1     -95.413 149.513 238.619  1.00  0.00     0.000 C 
ENDROOT
BRANCH   1   2
ATOM      2  C   UNL     1     -96.663 150.297 239.039  1.00  0.00     0.000 C 
BRANCH   2   3
ATOM      3  C   UNL     1     -97.676 149.384 239.742  1.00  0.00     0.000 C 
BRANCH   3   4
ATOM      4  C   UNL     1     -98.568 150.146 240.735  1.00  0.00     0.000 C 
BRANCH   4   5
ATOM      5  C   UNL     1     -98.730 149.404 242.075  1.00  0.00     0.000 C 
BRANCH   5   6
ATOM      6  C   UNL     1     -99.495 150.233 243.119  1.00  0.00     0.006 C 
BRANCH   6   7
ATOM      7  C   UNL     1     -98.777 151.541 243.473  1.00  0.00     0.053 C 
BRANCH   7   8
ATOM      8  C   UNL     1     -99.400 152.167 244.681  1.00  0.00     0.041 C 
ATOM      9  O   UNL     1     -99.337 153.413 244.852  1.00  0.00    -0.550 OA
ATOM     10  O   UNL     1    -100.010 151.370 245.642  1.00  0.00    -0.550 OA
ENDBRANCH   7   8
ENDBRANCH   6   7
ENDBRANCH   5   6
ENDBRANCH   4   5
ENDBRANCH   3   4
ENDBRANCH   2   3
ENDBRANCH   1   2
BRANCH   1  11
ATOM     11  C   UNL     1     -95.573 148.017 238.927  1.00  0.00     0.000 C 
BRANCH  11  12
ATOM     12  C   UNL     1     -94.648 147.134 238.076  1.00  0.00    -0.000 C 
BRANCH  12  13
ATOM     13  C   UNL     1     -93.774 147.950 237.107  1.00  0.00    -0.000 C 
BRANCH  13  14
ATOM     14  C   UNL     1     -93.713 147.332 235.701  1.00  0.00    -0.000 C 
BRANCH  14  15
ATOM     15  C   UNL     1     -94.948 147.669 234.853  1.00  0.00    -0.000 C 
BRANCH  15  16
ATOM     16  C   UNL     1     -95.299 149.158 234.960  1.00  0.00    -0.000 C 
BRANCH  16  17
ATOM     17  C   UNL     1     -96.811 149.357 235.119  1.00  0.00    -0.003 C 
ATOM     18  C   UNL     1     -97.474 148.111 235.696  1.00  0.00     0.004 C 
ENDBRANCH  16  17
ENDBRANCH  15  16
ENDBRANCH  14  15
ENDBRANCH  13  14
ENDBRANCH  12  13
ENDBRANCH  11  12
ENDBRANCH   1  11
TORSDOF 14
ENDMDL
MODEL 3
REMARK VINA RESULT:    -3.509      4.446      7.096
REMARK INTER + INTRA:          -8.144
REMARK INTER:                  -7.031
REMARK INTRA:                  -1.112
REMARK UNBOUND:                -1.764
REMARK SMILES CCCCCCCCCCCCCCCC(=O)[O-]
REMARK SMILES IDX 9 1 10 2 11 3 12 4 13 5 14 6 15 7 16 8 17 9 18 10 8 11 7 12
REMARK SMILES IDX 6 13 5 14 4 15 3 16 2 17 1 18
REMARK H PARENT
REMARK Flexibility Score: inf
ROOT
ATOM      1  C   UNL     1     -95.288 149.507 235.194  1.00  0.00     0.000 C 
ENDROOT
BRANCH   1   2
ATOM      2  C   UNL     1     -96.695 149.341 234.608  1.00  0.00     0.000 C 
BRANCH   2   3
ATOM      3  C   UNL     1     -96.900 150.260 233.395  1.00  0.00     0.000 C 
BRANCH   3   4
ATOM      4  C   UNL     1     -95.670 151.135 233.103  1.00  0.00     0.000 C 
BRANCH   4   5
ATOM      5  C   UNL     1     -96.007 152.353 232.223  1.00  0.00     0.000 C 
BRANCH   5   6
ATOM      6  C   UNL     1     -96.842 153.406 232.969  1.00  0.00     0.006 C 
BRANCH   6   7
ATOM      7  C   UNL     1     -98.086 153.836 232.181  1.00  0.00     0.053 C 
BRANCH   7   8
ATOM      8  C   UNL     1     -98.398 155.275 232.445  1.00  0.00     0.041 C 
ATOM      9  O   UNL     1     -97.717 155.927 233.279  1.00  0.00    -0.550 OA
ATOM     10  O   UNL     1     -99.470 155.884 231.805  1.00  0.00    -0.550 OA
ENDBRANCH   7   8
ENDBRANCH   6   7
ENDBRANCH   5   6
ENDBRANCH   4   5
ENDBRANCH   3   4
ENDBRANCH   2   3
ENDBRANCH   1   2
BRANCH   1  11
ATOM     11  C   UNL     1     -94.534 148.168 235.201  1.00  0.00     0.000 C 
BRANCH  11  12
ATOM     12  C   UNL     1     -93.853 147.878 236.547  1.00  0.00    -0.000 C 
BRANCH  12  13
ATOM     13  C   UNL     1     -94.438 148.712 237.700  1.00  0.00    -0.000 C 
BRANCH  13  14
ATOM     14  C   UNL     1     -95.165 147.850 238.745  1.00  0.00    -0.000 C 
BRANCH  14  15
ATOM     15  C   UNL     1     -96.417 148.537 239.309  1.00  0.00    -0.000 C 
BRANCH  15  16
ATOM     16  C   UNL     1     -96.449 150.023 238.927  1.00  0.00    -0.000 C 
BRANCH  16  17
ATOM     17  C   UNL     1     -97.844 150.619 239.152  1.00  0.00    -0.003 C 
ATOM     18  C   UNL     1     -98.409 150.204 240.507  1.00  0.00     0.004 C 
ENDBRANCH  16  17
ENDBRANCH  15  16
ENDBRANCH  14  15
ENDBRANCH  13  14
ENDBRANCH  12  13
ENDBRANCH  11  12
ENDBRANCH   1  11
TORSDOF 14
ENDMDL
MODEL 4
REMARK VINA RESULT:    -3.482      2.787      4.242
REMARK INTER + INTRA:          -8.095
REMARK INTER:                  -7.006
REMARK INTRA:                  -1.089
REMARK UNBOUND:                -1.764
REMARK SMILES CCCCCCCCCCCCCCCC(=O)[O-]
REMARK SMILES IDX 9 1 10 2 11 3 12 4 13 5 14 6 15 7 16 8 17 9 18 10 8 11 7 12
REMARK SMILES IDX 6 13 5 14 4 15 3 16 2 17 1 18
REMARK H PARENT
REMARK Flexibility Score: inf
ROOT
ATOM      1  C   UNL     1     -95.916 149.170 235.641  1.00  0.00     0.000 C 
ENDROOT
BRANCH   1   2
ATOM      2  C   UNL     1     -94.587 148.407 235.576  1.00  0.00     0.000 C 
BRANCH   2   3
ATOM      3  C   UNL     1     -93.935 148.316 236.962  1.00  0.00     0.000 C 
BRANCH   3   4
ATOM      4  C   UNL     1     -94.739 149.055 238.044  1.00  0.00     0.000 C 
BRANCH   4   5
ATOM      5  C   UNL     1     -95.503 148.094 238.973  1.00  0.00     0.000 C 
BRANCH   5   6
ATOM      6  C   UNL     1     -96.828 148.689 239.475  1.00  0.00     0.006 C 
BRANCH   6   7
ATOM      7  C   UNL     1     -96.924 150.201 239.235  1.00  0.00     0.053 C 
BRANCH   7   8
ATOM      8  C   UNL     1     -98.356 150.628 239.168  1.00  0.00     0.041 C 
ATOM      9  O   UNL     1     -98.802 151.184 238.130  1.00  0.00    -0.550 OA
ATOM     10  O   UNL     1     -99.186 150.455 240.268  1.00  0.00    -0.550 OA
ENDBRANCH   7   8
ENDBRANCH   6   7
ENDBRANCH   5   6
ENDBRANCH   4   5
ENDBRANCH   3   4
ENDBRANCH   2   3
ENDBRANCH   1   2
BRANCH   1  11
ATOM     11  C   UNL     1     -96.418 149.519 234.232  1.00  0.00     0.000 C 
BRANCH  11  12
ATOM     12  C   UNL     1     -95.343 149.320 233.153  1.00  0.00    -0.000 C 
BRANCH  12  13
ATOM     13  C   UNL     1     -95.205 150.535 232.220  1.00  0.00    -0.000 C 
BRANCH  13  14
ATOM     14  C   UNL     1     -95.715 151.836 232.861  1.00  0.00    -0.000 C 
BRANCH  14  15
ATOM     15  C   UNL     1     -96.582 152.666 231.902  1.00  0.00    -0.000 C 
BRANCH  15  16
ATOM     16  C   UNL     1     -97.750 153.324 232.647  1.00  0.00    -0.000 C 
BRANCH  16  17
ATOM     17  C   UNL     1     -97.259 154.473 233.536  1.00  0.00    -0.003 C 
ATOM     18  C   UNL     1     -97.857 155.806 233.096  1.00  0.00     0.004 C 
ENDBRANCH  16  17
ENDBRANCH  15  16
ENDBRANCH  14  15
ENDBRANCH  13  14
ENDBRANCH  12  13
ENDBRANCH  11  12
ENDBRANCH   1  11
TORSDOF 14
ENDMDL
MODEL 5
REMARK VINA RESULT:    -3.470      1.263      2.358
REMARK INTER + INTRA:          -8.073
REMARK INTER:                  -6.127
REMARK INTRA:                  -1.946
REMARK UNBOUND:                -1.764
REMARK SMILES CCCCCCCCCCCCCCCC(=O)[O-]
REMARK SMILES IDX 9 1 10 2 11 3 12 4 13 5 14 6 15 7 16 8 17 9 18 10 8 11 7 12
REMARK SMILES IDX 6 13 5 14 4 15 3 16 2 17 1 18
REMARK H PARENT
REMARK Flexibility Score: inf
ROOT
ATOM      1  C   UNL     1     -93.875 148.070 236.765  1.00  0.00     0.000 C 
ENDROOT
BRANCH   1   2
ATOM      2  C   UNL     1     -94.466 147.189 237.873  1.00  0.00     0.000 C 
BRANCH   2   3
ATOM      3  C   UNL     1     -95.459 147.980 238.736  1.00  0.00     0.000 C 
BRANCH   3   4
ATOM      4  C   UNL     1     -95.434 149.487 238.435  1.00  0.00     0.000 C 
BRANCH   4   5
ATOM      5  C   UNL     1     -96.594 150.244 239.106  1.00  0.00     0.000 C 
BRANCH   5   6
ATOM      6  C   UNL     1     -97.539 149.309 239.878  1.00  0.00     0.006 C 
BRANCH   6   7
ATOM      7  C   UNL     1     -98.800 150.028 240.377  1.00  0.00     0.053 C 
BRANCH   7   8
ATOM      8  C   UNL     1     -98.891 149.945 241.867  1.00  0.00     0.041 C 
ATOM      9  O   UNL     1     -98.708 150.973 242.570  1.00  0.00    -0.550 OA
ATOM     10  O   UNL     1     -99.133 148.723 242.484  1.00  0.00    -0.550 OA
ENDBRANCH   7   8
ENDBRANCH   6   7
ENDBRANCH   5   6
ENDBRANCH   4   5
ENDBRANCH   3   4
ENDBRANCH   2   3
ENDBRANCH   1   2
BRANCH   1  11
ATOM     11  C   UNL     1     -93.653 147.261 235.479  1.00  0.00     0.000 C 
BRANCH  11  12
ATOM     12  C   UNL     1     -94.532 147.745 234.315  1.00  0.00    -0.000 C 
BRANCH  12  13
ATOM     13  C   UNL     1     -95.369 148.985 234.679  1.00  0.00    -0.000 C 
BRANCH  13  14
ATOM     14  C   UNL     1     -96.773 148.954 234.056  1.00  0.00    -0.000 C 
BRANCH  14  15
ATOM     15  C   UNL     1     -97.782 149.815 234.830  1.00  0.00    -0.000 C 
BRANCH  15  16
ATOM     16  C   UNL     1     -98.269 149.091 236.092  1.00  0.00    -0.000 C 
BRANCH  16  17
ATOM     17  C   UNL     1     -99.623 149.641 236.554  1.00  0.00    -0.003 C 
ATOM     18  C   UNL     1     -99.524 151.118 236.920  1.00  0.00     0.004 C 
ENDBRANCH  16  17
ENDBRANCH  15  16
ENDBRANCH  14  15
ENDBRANCH  13  14
ENDBRANCH  12  13
ENDBRANCH  11  12
ENDBRANCH   1  11
TORSDOF 14
ENDMDL
MODEL 6
REMARK VINA RESULT:    -3.468      3.807      6.597
REMARK INTER + INTRA:          -8.070
REMARK INTER:                  -6.425
REMARK INTRA:                  -1.645
REMARK UNBOUND:                -1.764
REMARK SMILES CCCCCCCCCCCCCCCC(=O)[O-]
REMARK SMILES IDX 9 1 10 2 11 3 12 4 13 5 14 6 15 7 16 8 17 9 18 10 8 11 7 12
REMARK SMILES IDX 6 13 5 14 4 15 3 16 2 17 1 18
REMARK H PARENT
REMARK Flexibility Score: inf
ROOT
ATOM      1  C   UNL     1     -95.038 149.518 235.642  1.00  0.00     0.000 C 
ENDROOT
BRANCH   1   2
ATOM      2  C   UNL     1     -96.495 149.202 235.283  1.00  0.00     0.000 C 
BRANCH   2   3
ATOM      3  C   UNL     1     -96.846 149.727 233.884  1.00  0.00     0.000 C 
BRANCH   3   4
ATOM      4  C   UNL     1     -95.698 149.541 232.878  1.00  0.00     0.000 C 
BRANCH   4   5
ATOM      5  C   UNL     1     -95.400 150.822 232.078  1.00  0.00     0.000 C 
BRANCH   5   6
ATOM      6  C   UNL     1     -95.761 152.099 232.852  1.00  0.00     0.006 C 
BRANCH   6   7
ATOM      7  C   UNL     1     -96.851 152.923 232.154  1.00  0.00     0.053 C 
BRANCH   7   8
ATOM      8  C   UNL     1     -97.626 153.717 233.157  1.00  0.00     0.041 C 
ATOM      9  O   UNL     1     -97.202 154.839 233.540  1.00  0.00    -0.550 OA
ATOM     10  O   UNL     1     -98.794 153.199 233.703  1.00  0.00    -0.550 OA
ENDBRANCH   7   8
ENDBRANCH   6   7
ENDBRANCH   5   6
ENDBRANCH   4   5
ENDBRANCH   3   4
ENDBRANCH   2   3
ENDBRANCH   1   2
BRANCH   1  11
ATOM     11  C   UNL     1     -94.391 148.346 236.394  1.00  0.00     0.000 C 
BRANCH  11  12
ATOM     12  C   UNL     1     -95.357 147.666 237.376  1.00  0.00    -0.000 C 
BRANCH  12  13
ATOM     13  C   UNL     1     -95.195 148.178 238.819  1.00  0.00    -0.000 C 
BRANCH  13  14
ATOM     14  C   UNL     1     -96.494 148.772 239.386  1.00  0.00    -0.000 C 
BRANCH  14  15
ATOM     15  C   UNL     1     -96.708 150.233 238.966  1.00  0.00    -0.000 C 
BRANCH  15  16
ATOM     16  C   UNL     1     -98.181 150.637 239.110  1.00  0.00    -0.000 C 
BRANCH  16  17
ATOM     17  C   UNL     1     -99.003 150.157 237.908  1.00  0.00    -0.003 C 
ATOM     18  C   UNL     1     -99.415 151.325 237.019  1.00  0.00     0.004 C 
ENDBRANCH  16  17
ENDBRANCH  15  16
ENDBRANCH  14  15
ENDBRANCH  13  14
ENDBRANCH  12  13
ENDBRANCH  11  12
ENDBRANCH   1  11
TORSDOF 14
ENDMDL
MODEL 7
REMARK VINA RESULT:    -3.447      2.208      4.176
REMARK INTER + INTRA:          -8.032
REMARK INTER:                  -6.422
REMARK INTRA:                  -1.610
REMARK UNBOUND:                -1.764
REMARK SMILES CCCCCCCCCCCCCCCC(=O)[O-]
REMARK SMILES IDX 9 1 10 2 11 3 12 4 13 5 14 6 15 7 16 8 17 9 18 10 8 11 7 12
REMARK SMILES IDX 6 13 5 14 4 15 3 16 2 17 1 18
REMARK H PARENT
REMARK Flexibility Score: inf
ROOT
ATOM      1  C   UNL     1     -95.382 149.503 234.981  1.00  0.00     0.000 C 
ENDROOT
BRANCH   1   2
ATOM      2  C   UNL     1     -94.658 148.266 235.526  1.00  0.00     0.000 C 
BRANCH   2   3
ATOM      3  C   UNL     1     -93.916 148.589 236.830  1.00  0.00     0.000 C 
BRANCH   3   4
ATOM      4  C   UNL     1     -94.765 148.304 238.079  1.00  0.00     0.000 C 
BRANCH   4   5
ATOM      5  C   UNL     1     -95.470 149.563 238.616  1.00  0.00     0.000 C 
BRANCH   5   6
ATOM      6  C   UNL     1     -97.001 149.457 238.546  1.00  0.00     0.006 C 
BRANCH   6   7
ATOM      7  C   UNL     1     -97.705 150.522 239.397  1.00  0.00     0.053 C 
BRANCH   7   8
ATOM      8  C   UNL     1     -98.201 149.923 240.675  1.00  0.00     0.041 C 
ATOM      9  O   UNL     1     -98.772 150.646 241.533  1.00  0.00    -0.550 OA
ATOM     10  O   UNL     1     -97.991 148.575 240.940  1.00  0.00    -0.550 OA
ENDBRANCH   7   8
ENDBRANCH   6   7
ENDBRANCH   5   6
ENDBRANCH   4   5
ENDBRANCH   3   4
ENDBRANCH   2   3
ENDBRANCH   1   2
BRANCH   1  11
ATOM     11  C   UNL     1     -96.687 149.110 234.273  1.00  0.00     0.000 C 
BRANCH  11  12
ATOM     12  C   UNL     1     -97.927 149.743 234.921  1.00  0.00    -0.000 C 
BRANCH  12  13
ATOM     13  C   UNL     1     -98.847 150.430 233.897  1.00  0.00    -0.000 C 
BRANCH  13  14
ATOM     14  C   UNL     1     -98.745 151.964 233.944  1.00  0.00    -0.000 C 
BRANCH  14  15
ATOM     15  C   UNL     1     -98.249 152.563 232.620  1.00  0.00    -0.000 C 
BRANCH  15  16
ATOM     16  C   UNL     1     -96.842 153.154 232.777  1.00  0.00    -0.000 C 
BRANCH  16  17
ATOM     17  C   UNL     1     -95.771 152.149 232.338  1.00  0.00    -0.003 C 
ATOM     18  C   UNL     1     -96.069 151.597 230.947  1.00  0.00     0.004 C 
ENDBRANCH  16  17
ENDBRANCH  15  16
ENDBRANCH  14  15
ENDBRANCH  13  14
ENDBRANCH  12  13
ENDBRANCH  11  12
ENDBRANCH   1  11
TORSDOF 14
ENDMDL
MODEL 8
REMARK VINA RESULT:    -3.416      3.822      6.546
REMARK INTER + INTRA:          -7.975
REMARK INTER:                  -6.073
REMARK INTRA:                  -1.902
REMARK UNBOUND:                -1.764
REMARK SMILES CCCCCCCCCCCCCCCC(=O)[O-]
REMARK SMILES IDX 9 1 10 2 11 3 12 4 13 5 14 6 15 7 16 8 17 9 18 10 8 11 7 12
REMARK SMILES IDX 6 13 5 14 4 15 3 16 2 17 1 18
REMARK H PARENT
REMARK Flexibility Score: inf
ROOT
ATOM      1  C   UNL     1     -96.209 148.141 235.502  1.00  0.00     0.000 C 
ENDROOT
BRANCH   1   2
ATOM      2  C   UNL     1     -97.521 148.876 235.805  1.00  0.00     0.000 C 
BRANCH   2   3
ATOM      3  C   UNL     1     -97.847 149.897 234.706  1.00  0.00     0.000 C 
BRANCH   3   4
ATOM      4  C   UNL     1     -97.680 149.318 233.292  1.00  0.00     0.000 C 
BRANCH   4   5
ATOM      5  C   UNL     1     -97.061 150.328 232.308  1.00  0.00     0.000 C 
BRANCH   5   6
ATOM      6  C   UNL     1     -96.309 151.462 233.023  1.00  0.00     0.006 C 
BRANCH   6   7
ATOM      7  C   UNL     1     -96.488 152.817 232.325  1.00  0.00     0.053 C 
BRANCH   7   8
ATOM      8  C   UNL     1     -97.470 153.662 233.072  1.00  0.00     0.041 C 
ATOM      9  O   UNL     1     -98.547 153.162 233.488  1.00  0.00    -0.550 OA
ATOM     10  O   UNL     1     -97.217 155.014 233.270  1.00  0.00    -0.550 OA
ENDBRANCH   7   8
ENDBRANCH   6   7
ENDBRANCH   5   6
ENDBRANCH   4   5
ENDBRANCH   3   4
ENDBRANCH   2   3
ENDBRANCH   1   2
BRANCH   1  11
ATOM     11  C   UNL     1     -95.007 149.088 235.629  1.00  0.00     0.000 C 
BRANCH  11  12
ATOM     12  C   UNL     1     -94.169 148.817 236.888  1.00  0.00    -0.000 C 
BRANCH  12  13
ATOM     13  C   UNL     1     -94.563 147.508 237.593  1.00  0.00    -0.000 C 
BRANCH  13  14
ATOM     14  C   UNL     1     -95.040 147.733 239.037  1.00  0.00    -0.000 C 
BRANCH  14  15
ATOM     15  C   UNL     1     -96.517 147.361 239.236  1.00  0.00    -0.000 C 
BRANCH  15  16
ATOM     16  C   UNL     1     -97.306 148.536 239.828  1.00  0.00    -0.000 C 
BRANCH  16  17
ATOM     17  C   UNL     1     -96.777 149.875 239.300  1.00  0.00    -0.003 C 
ATOM     18  C   UNL     1     -97.922 150.826 238.963  1.00  0.00     0.004 C 
ENDBRANCH  16  17
ENDBRANCH  15  16
ENDBRANCH  14  15
ENDBRANCH  13  14
ENDBRANCH  12  13
ENDBRANCH  11  12
ENDBRANCH   1  11
TORSDOF 14
ENDMDL
MODEL 9
REMARK VINA RESULT:    -3.407      3.729      6.275
REMARK INTER + INTRA:          -7.958
REMARK INTER:                  -5.889
REMARK INTRA:                  -2.069
REMARK UNBOUND:                -1.764
REMARK SMILES CCCCCCCCCCCCCCCC(=O)[O-]
REMARK SMILES IDX 9 1 10 2 11 3 12 4 13 5 14 6 15 7 16 8 17 9 18 10 8 11 7 12
REMARK SMILES IDX 6 13 5 14 4 15 3 16 2 17 1 18
REMARK H PARENT
REMARK Flexibility Score: inf
ROOT
ATOM      1  C   UNL     1     -94.973 149.151 238.016  1.00  0.00     0.000 C 
ENDROOT
BRANCH   1   2
ATOM      2  C   UNL     1     -93.911 148.444 237.164  1.00  0.00     0.000 C 
BRANCH   2   3
ATOM      3  C   UNL     1     -94.378 148.300 235.709  1.00  0.00     0.000 C 
BRANCH   3   4
ATOM      4  C   UNL     1     -95.383 149.388 235.299  1.00  0.00     0.000 C 
BRANCH   4   5
ATOM      5  C   UNL     1     -96.185 149.010 234.042  1.00  0.00     0.000 C 
BRANCH   5   6
ATOM      6  C   UNL     1     -96.238 150.148 233.010  1.00  0.00     0.006 C 
BRANCH   6   7
ATOM      7  C   UNL     1     -97.586 150.880 233.010  1.00  0.00     0.053 C 
BRANCH   7   8
ATOM      8  C   UNL     1     -97.375 152.359 233.077  1.00  0.00     0.041 C 
ATOM      9  O   UNL     1     -96.267 152.856 232.745  1.00  0.00    -0.550 OA
ATOM     10  O   UNL     1     -98.386 153.187 233.551  1.00  0.00    -0.550 OA
ENDBRANCH   7   8
ENDBRANCH   6   7
ENDBRANCH   5   6
ENDBRANCH   4   5
ENDBRANCH   3   4
ENDBRANCH   2   3
ENDBRANCH   1   2
BRANCH   1  11
ATOM     11  C   UNL     1     -95.738 148.144 238.887  1.00  0.00     0.000 C 
BRANCH  11  12
ATOM     12  C   UNL     1     -96.898 148.790 239.659  1.00  0.00    -0.000 C 
BRANCH  12  13
ATOM     13  C   UNL     1     -97.191 150.229 239.198  1.00  0.00    -0.000 C 
BRANCH  13  14
ATOM     14  C   UNL     1     -98.696 150.533 239.125  1.00  0.00    -0.000 C 
BRANCH  14  15
ATOM     15  C   UNL     1     -99.152 150.922 237.711  1.00  0.00    -0.000 C 
BRANCH  15  16
ATOM     16  C   UNL     1     -98.644 149.913 236.673  1.00  0.00    -0.000 C 
BRANCH  16  17
ATOM     17  C   UNL     1     -99.370 148.570 236.809  1.00  0.00    -0.003 C 
ATOM     18  C   UNL     1     -98.431 147.403 236.518  1.00  0.00     0.004 C 
ENDBRANCH  16  17
ENDBRANCH  15  16
ENDBRANCH  14  15
ENDBRANCH  13  14
ENDBRANCH  12  13
ENDBRANCH  11  12
ENDBRANCH   1  11
TORSDOF 14
ENDMDL
