MODEL 1
REMARK VINA RESULT:    -6.512      0.000      0.000
REMARK INTER + INTRA:          -6.702
REMARK INTER:                  -6.702
REMARK INTRA:                   0.000
REMARK UNBOUND:                 0.000
REMARK SMILES O=c1ccc2ccc(O)cc2o1
REMARK SMILES IDX 6 1 7 2 8 3 10 4 11 5 5 6 4 7 3 8 2 9 1 10 12 11 9 12
REMARK H PARENT 9 13
REMARK Flexibility Score: inf
ROOT
ATOM      1  C   UNL     1       9.110  -0.323  34.110  1.00  0.00     0.016 A 
ATOM      2  C   UNL     1       7.876  -0.069  34.719  1.00  0.00     0.047 A 
ATOM      3  C   UNL     1       7.796   0.776  35.833  1.00  0.00     0.119 A 
ATOM      4  C   UNL     1       8.959   1.374  36.342  1.00  0.00     0.094 A 
ATOM      5  C   UNL     1      10.197   1.127  35.739  1.00  0.00     0.142 A 
ATOM      6  C   UNL     1      10.274   0.272  34.617  1.00  0.00     0.018 A 
ATOM      7  C   UNL     1      11.525   0.044  34.036  1.00  0.00     0.019 A 
ATOM      8  C   UNL     1      12.653   0.661  34.577  1.00  0.00     0.094 A 
ATOM      9  C   UNL     1      12.502   1.494  35.690  1.00  0.00     0.336 A 
ATOM     10  O   UNL     1      13.508   2.059  36.193  1.00  0.00    -0.246 OA
ATOM     11  O   UNL     1      11.299   1.694  36.224  1.00  0.00    -0.423 OA
ENDROOT
BRANCH   3  12
ATOM     12  O   UNL     1       6.559   1.016  36.425  1.00  0.00    -0.508 OA
ATOM     13  H   UNL     1       5.830   0.311  36.430  1.00  0.00     0.293 HD
ENDBRANCH   3  12
TORSDOF 1
ENDMDL
MODEL 2
REMARK VINA RESULT:    -5.990      1.082      1.280
REMARK INTER + INTRA:          -6.165
REMARK INTER:                  -6.165
REMARK INTRA:                   0.000
REMARK UNBOUND:                 0.000
REMARK SMILES O=c1ccc2ccc(O)cc2o1
REMARK SMILES IDX 6 1 7 2 8 3 10 4 11 5 5 6 4 7 3 8 2 9 1 10 12 11 9 12
REMARK H PARENT 9 13
REMARK Flexibility Score: inf
ROOT
ATOM      1  C   UNL     1      10.428  -0.257  33.824  1.00  0.00     0.016 A 
ATOM      2  C   UNL     1       9.052  -0.322  34.065  1.00  0.00     0.047 A 
ATOM      3  C   UNL     1       8.431   0.628  34.886  1.00  0.00     0.119 A 
ATOM      4  C   UNL     1       9.192   1.652  35.470  1.00  0.00     0.094 A 
ATOM      5  C   UNL     1      10.569   1.725  35.234  1.00  0.00     0.142 A 
ATOM      6  C   UNL     1      11.192   0.764  34.406  1.00  0.00     0.018 A 
ATOM      7  C   UNL     1      12.569   0.863  34.187  1.00  0.00     0.019 A 
ATOM      8  C   UNL     1      13.284   1.899  34.789  1.00  0.00     0.094 A 
ATOM      9  C   UNL     1      12.602   2.814  35.597  1.00  0.00     0.336 A 
ATOM     10  O   UNL     1      13.229   3.755  36.149  1.00  0.00    -0.246 OA
ATOM     11  O   UNL     1      11.290   2.697  35.788  1.00  0.00    -0.423 OA
ENDROOT
BRANCH   3  12
ATOM     12  O   UNL     1       7.060   0.546  35.115  1.00  0.00    -0.508 OA
ATOM     13  H   UNL     1       6.471   1.371  35.102  1.00  0.00     0.293 HD
ENDBRANCH   3  12
TORSDOF 1
ENDMDL
MODEL 3
REMARK VINA RESULT:    -5.826      0.785      4.222
REMARK INTER + INTRA:          -5.996
REMARK INTER:                  -5.996
REMARK INTRA:                   0.000
REMARK UNBOUND:                 0.000
REMARK SMILES O=c1ccc2ccc(O)cc2o1
REMARK SMILES IDX 6 1 7 2 8 3 10 4 11 5 5 6 4 7 3 8 2 9 1 10 12 11 9 12
REMARK H PARENT 9 13
REMARK Flexibility Score: inf
ROOT
ATOM      1  C   UNL     1      11.495   0.167  34.011  1.00  0.00     0.016 A 
ATOM      2  C   UNL     1      12.587   0.863  34.541  1.00  0.00     0.047 A 
ATOM      3  C   UNL     1      12.419   1.709  35.646  1.00  0.00     0.119 A 
ATOM      4  C   UNL     1      11.150   1.859  36.225  1.00  0.00     0.094 A 
ATOM      5  C   UNL     1      10.053   1.166  35.702  1.00  0.00     0.142 A 
ATOM      6  C   UNL     1      10.226   0.315  34.588  1.00  0.00     0.018 A 
ATOM      7  C   UNL     1       9.111  -0.364  34.087  1.00  0.00     0.019 A 
ATOM      8  C   UNL     1       7.869  -0.184  34.697  1.00  0.00     0.094 A 
ATOM      9  C   UNL     1       7.772   0.675  35.797  1.00  0.00     0.336 A 
ATOM     10  O   UNL     1       6.661   0.851  36.360  1.00  0.00    -0.246 OA
ATOM     11  O   UNL     1       8.850   1.309  36.253  1.00  0.00    -0.423 OA
ENDROOT
BRANCH   3  12
ATOM     12  O   UNL     1      13.517   2.393  36.158  1.00  0.00    -0.508 OA
ATOM     13  H   UNL     1      13.822   3.277  35.764  1.00  0.00     0.293 HD
ENDBRANCH   3  12
TORSDOF 1
ENDMDL
MODEL 4
REMARK VINA RESULT:    -5.666      1.783      2.469
REMARK INTER + INTRA:          -5.832
REMARK INTER:                  -5.832
REMARK INTRA:                   0.000
REMARK UNBOUND:                 0.000
REMARK SMILES O=c1ccc2ccc(O)cc2o1
REMARK SMILES IDX 6 1 7 2 8 3 10 4 11 5 5 6 4 7 3 8 2 9 1 10 12 11 9 12
REMARK H PARENT 9 13
REMARK Flexibility Score: inf
ROOT
ATOM      1  C   UNL     1       9.169   1.452  36.067  1.00  0.00     0.016 A 
ATOM      2  C   UNL     1       8.361   0.398  35.627  1.00  0.00     0.047 A 
ATOM      3  C   UNL     1       8.772  -0.412  34.561  1.00  0.00     0.119 A 
ATOM      4  C   UNL     1      10.001  -0.168  33.930  1.00  0.00     0.094 A 
ATOM      5  C   UNL     1      10.816   0.884  34.364  1.00  0.00     0.142 A 
ATOM      6  C   UNL     1      10.398   1.699  35.438  1.00  0.00     0.018 A 
ATOM      7  C   UNL     1      11.232   2.742  35.850  1.00  0.00     0.019 A 
ATOM      8  C   UNL     1      12.446   2.947  35.192  1.00  0.00     0.094 A 
ATOM      9  C   UNL     1      12.795   2.100  34.135  1.00  0.00     0.336 A 
ATOM     10  O   UNL     1      13.885   2.268  33.529  1.00  0.00    -0.246 OA
ATOM     11  O   UNL     1      11.981   1.114  33.764  1.00  0.00    -0.423 OA
ENDROOT
BRANCH   3  12
ATOM     12  O   UNL     1       7.953  -1.456  34.138  1.00  0.00    -0.508 OA
ATOM     13  H   UNL     1       7.043  -1.617  34.554  1.00  0.00     0.293 HD
ENDBRANCH   3  12
TORSDOF 1
ENDMDL
MODEL 5
REMARK VINA RESULT:    -5.561      6.270      9.065
REMARK INTER + INTRA:          -5.723
REMARK INTER:                  -5.723
REMARK INTRA:                   0.000
REMARK UNBOUND:                 0.000
REMARK SMILES O=c1ccc2ccc(O)cc2o1
REMARK SMILES IDX 6 1 7 2 8 3 10 4 11 5 5 6 4 7 3 8 2 9 1 10 12 11 9 12
REMARK H PARENT 9 13
REMARK Flexibility Score: inf
ROOT
ATOM      1  C   UNL     1       4.367  -2.748  37.394  1.00  0.00     0.016 A 
ATOM      2  C   UNL     1       4.842  -1.628  36.704  1.00  0.00     0.047 A 
ATOM      3  C   UNL     1       4.386  -0.345  37.037  1.00  0.00     0.119 A 
ATOM      4  C   UNL     1       3.448  -0.182  38.067  1.00  0.00     0.094 A 
ATOM      5  C   UNL     1       2.967  -1.297  38.762  1.00  0.00     0.142 A 
ATOM      6  C   UNL     1       3.429  -2.588  38.424  1.00  0.00     0.018 A 
ATOM      7  C   UNL     1       2.930  -3.683  39.136  1.00  0.00     0.019 A 
ATOM      8  C   UNL     1       1.999  -3.471  40.153  1.00  0.00     0.094 A 
ATOM      9  C   UNL     1       1.586  -2.164  40.433  1.00  0.00     0.336 A 
ATOM     10  O   UNL     1       0.747  -1.952  41.346  1.00  0.00    -0.246 OA
ATOM     11  O   UNL     1       2.077  -1.140  39.739  1.00  0.00    -0.423 OA
ENDROOT
BRANCH   3  12
ATOM     12  O   UNL     1       4.872   0.757  36.338  1.00  0.00    -0.508 OA
ATOM     13  H   UNL     1       4.634   0.914  35.365  1.00  0.00     0.293 HD
ENDBRANCH   3  12
TORSDOF 1
ENDMDL
MODEL 6
REMARK VINA RESULT:    -5.426      4.069      7.191
REMARK INTER + INTRA:          -5.584
REMARK INTER:                  -5.584
REMARK INTRA:                   0.000
REMARK UNBOUND:                 0.000
REMARK SMILES O=c1ccc2ccc(O)cc2o1
REMARK SMILES IDX 6 1 7 2 8 3 10 4 11 5 5 6 4 7 3 8 2 9 1 10 12 11 9 12
REMARK H PARENT 9 13
REMARK Flexibility Score: inf
ROOT
ATOM      1  C   UNL     1       6.368  -2.466  36.093  1.00  0.00     0.016 A 
ATOM      2  C   UNL     1       7.159  -1.427  35.591  1.00  0.00     0.047 A 
ATOM      3  C   UNL     1       6.764  -0.093  35.755  1.00  0.00     0.119 A 
ATOM      4  C   UNL     1       5.569   0.205  36.425  1.00  0.00     0.094 A 
ATOM      5  C   UNL     1       4.771  -0.827  36.931  1.00  0.00     0.142 A 
ATOM      6  C   UNL     1       5.172  -2.171  36.763  1.00  0.00     0.018 A 
ATOM      7  C   UNL     1       4.354  -3.181  37.278  1.00  0.00     0.019 A 
ATOM      8  C   UNL     1       3.175  -2.836  37.939  1.00  0.00     0.094 A 
ATOM      9  C   UNL     1       2.840  -1.484  38.067  1.00  0.00     0.336 A 
ATOM     10  O   UNL     1       1.780  -1.152  38.659  1.00  0.00    -0.246 OA
ATOM     11  O   UNL     1       3.637  -0.542  37.567  1.00  0.00    -0.423 OA
ENDROOT
BRANCH   3  12
ATOM     12  O   UNL     1       7.566   0.926  35.248  1.00  0.00    -0.508 OA
ATOM     13  H   UNL     1       8.464   0.731  34.822  1.00  0.00     0.293 HD
ENDBRANCH   3  12
TORSDOF 1
ENDMDL
MODEL 7
REMARK VINA RESULT:    -5.345      1.823      4.688
REMARK INTER + INTRA:          -5.501
REMARK INTER:                  -5.501
REMARK INTRA:                   0.000
REMARK UNBOUND:                 0.000
REMARK SMILES O=c1ccc2ccc(O)cc2o1
REMARK SMILES IDX 6 1 7 2 8 3 10 4 11 5 5 6 4 7 3 8 2 9 1 10 12 11 9 12
REMARK H PARENT 9 13
REMARK Flexibility Score: inf
ROOT
ATOM      1  C   UNL     1      10.484   2.237  36.127  1.00  0.00     0.016 A 
ATOM      2  C   UNL     1      11.783   2.478  35.668  1.00  0.00     0.047 A 
ATOM      3  C   UNL     1      12.313   1.722  34.614  1.00  0.00     0.119 A 
ATOM      4  C   UNL     1      11.537   0.720  34.014  1.00  0.00     0.094 A 
ATOM      5  C   UNL     1      10.237   0.472  34.465  1.00  0.00     0.142 A 
ATOM      6  C   UNL     1       9.706   1.235  35.529  1.00  0.00     0.018 A 
ATOM      7  C   UNL     1       8.404   0.966  35.960  1.00  0.00     0.019 A 
ATOM      8  C   UNL     1       7.670  -0.041  35.331  1.00  0.00     0.094 A 
ATOM      9  C   UNL     1       8.260  -0.757  34.284  1.00  0.00     0.336 A 
ATOM     10  O   UNL     1       7.615  -1.669  33.705  1.00  0.00    -0.246 OA
ATOM     11  O   UNL     1       9.502  -0.479  33.894  1.00  0.00    -0.423 OA
ENDROOT
BRANCH   3  12
ATOM     12  O   UNL     1      13.609   1.977  34.172  1.00  0.00    -0.508 OA
ATOM     13  H   UNL     1      14.412   1.532  34.602  1.00  0.00     0.293 HD
ENDBRANCH   3  12
TORSDOF 1
ENDMDL
MODEL 8
REMARK VINA RESULT:    -5.331      6.205      8.448
REMARK INTER + INTRA:          -5.487
REMARK INTER:                  -5.487
REMARK INTRA:                   0.000
REMARK UNBOUND:                 0.000
REMARK SMILES O=c1ccc2ccc(O)cc2o1
REMARK SMILES IDX 6 1 7 2 8 3 10 4 11 5 5 6 4 7 3 8 2 9 1 10 12 11 9 12
REMARK H PARENT 9 13
REMARK Flexibility Score: inf
ROOT
ATOM      1  C   UNL     1       2.762  -1.089  38.537  1.00  0.00     0.016 A 
ATOM      2  C   UNL     1       3.399  -0.029  37.884  1.00  0.00     0.047 A 
ATOM      3  C   UNL     1       4.446  -0.276  36.986  1.00  0.00     0.119 A 
ATOM      4  C   UNL     1       4.859  -1.594  36.740  1.00  0.00     0.094 A 
ATOM      5  C   UNL     1       4.228  -2.661  37.389  1.00  0.00     0.142 A 
ATOM      6  C   UNL     1       3.173  -2.407  38.294  1.00  0.00     0.018 A 
ATOM      7  C   UNL     1       2.561  -3.493  38.928  1.00  0.00     0.019 A 
ATOM      8  C   UNL     1       3.006  -4.786  38.650  1.00  0.00     0.094 A 
ATOM      9  C   UNL     1       4.057  -4.962  37.744  1.00  0.00     0.336 A 
ATOM     10  O   UNL     1       4.472  -6.120  37.481  1.00  0.00    -0.246 OA
ATOM     11  O   UNL     1       4.621  -3.910  37.154  1.00  0.00    -0.423 OA
ENDROOT
BRANCH   3  12
ATOM     12  O   UNL     1       5.067   0.793  36.346  1.00  0.00    -0.508 OA
ATOM     13  H   UNL     1       5.954   1.161  36.671  1.00  0.00     0.293 HD
ENDBRANCH   3  12
TORSDOF 1
ENDMDL
MODEL 9
REMARK VINA RESULT:    -5.237      2.495      4.742
REMARK INTER + INTRA:          -5.390
REMARK INTER:                  -5.390
REMARK INTRA:                   0.000
REMARK UNBOUND:                 0.000
REMARK SMILES O=c1ccc2ccc(O)cc2o1
REMARK SMILES IDX 6 1 7 2 8 3 10 4 11 5 5 6 4 7 3 8 2 9 1 10 12 11 9 12
REMARK H PARENT 9 13
REMARK Flexibility Score: inf
ROOT
ATOM      1  C   UNL     1      11.704   3.152  35.942  1.00  0.00     0.016 A 
ATOM      2  C   UNL     1      12.320   3.957  34.978  1.00  0.00     0.047 A 
ATOM      3  C   UNL     1      11.937   3.869  33.633  1.00  0.00     0.119 A 
ATOM      4  C   UNL     1      10.931   2.970  33.250  1.00  0.00     0.094 A 
ATOM      5  C   UNL     1      10.308   2.162  34.207  1.00  0.00     0.142 A 
ATOM      6  C   UNL     1      10.698   2.253  35.562  1.00  0.00     0.018 A 
ATOM      7  C   UNL     1      10.058   1.433  36.497  1.00  0.00     0.019 A 
ATOM      8  C   UNL     1       9.062   0.556  36.068  1.00  0.00     0.094 A 
ATOM      9  C   UNL     1       8.728   0.519  34.710  1.00  0.00     0.336 A 
ATOM     10  O   UNL     1       7.833  -0.266  34.304  1.00  0.00    -0.246 OA
ATOM     11  O   UNL     1       9.353   1.311  33.842  1.00  0.00    -0.423 OA
ENDROOT
BRANCH   3  12
ATOM     12  O   UNL     1      12.563   4.677  32.688  1.00  0.00    -0.508 OA
ATOM     13  H   UNL     1      13.425   5.168  32.898  1.00  0.00     0.293 HD
ENDBRANCH   3  12
TORSDOF 1
ENDMDL
