MODEL 1
REMARK VINA RESULT:    -3.234      0.000      0.000
REMARK INTER + INTRA:         -12.020
REMARK INTER:                  -7.393
REMARK INTRA:                  -4.627
REMARK UNBOUND:                -4.627
REMARK SMILES CCCCCCCCCCCCCCCCCCCCCCCC(=O)[O-]
REMARK SMILES IDX 13 1 14 2 15 3 16 4 17 5 18 6 19 7 20 8 21 9 22 10 23 11
REMARK SMILES IDX 24 12 25 13 26 14 12 15 11 16 10 17 9 18 8 19 7 20 6 21 5 22
REMARK SMILES IDX 4 23 3 24 2 25 1 26
REMARK H PARENT
REMARK Flexibility Score: inf
ROOT
ATOM      1  C   UNL     1      44.977  27.681  90.881  1.00  0.00     0.000 C 
ENDROOT
BRANCH   1   2
ATOM      2  C   UNL     1      45.342  28.984  91.613  1.00  0.00     0.000 C 
BRANCH   2   3
ATOM      3  C   UNL     1      44.210  30.026  91.584  1.00  0.00     0.000 C 
BRANCH   3   4
ATOM      4  C   UNL     1      44.575  31.306  90.803  1.00  0.00     0.000 C 
BRANCH   4   5
ATOM      5  C   UNL     1      46.088  31.434  90.568  1.00  0.00     0.000 C 
BRANCH   5   6
ATOM      6  C   UNL     1      46.396  31.690  89.087  1.00  0.00     0.000 C 
BRANCH   6   7
ATOM      7  C   UNL     1      46.538  30.368  88.317  1.00  0.00     0.000 C 
BRANCH   7   8
ATOM      8  C   UNL     1      47.994  29.856  88.300  1.00  0.00     0.000 C 
BRANCH   8   9
ATOM      9  C   UNL     1      48.250  28.686  89.266  1.00  0.00     0.000 C 
BRANCH   9  10
ATOM     10  C   UNL     1      49.021  29.105  90.524  1.00  0.00     0.006 C 
BRANCH  10  11
ATOM     11  C   UNL     1      49.688  30.473  90.332  1.00  0.00     0.053 C 
BRANCH  11  12
ATOM     12  C   UNL     1      50.862  30.630  91.245  1.00  0.00     0.041 C 
ATOM     13  O   UNL     1      50.942  31.631  92.010  1.00  0.00    -0.550 OA
ATOM     14  O   UNL     1      51.868  29.669  91.262  1.00  0.00    -0.550 OA
ENDBRANCH  11  12
ENDBRANCH  10  11
ENDBRANCH   9  10
ENDBRANCH   8   9
ENDBRANCH   7   8
ENDBRANCH   6   7
ENDBRANCH   5   6
ENDBRANCH   4   5
ENDBRANCH   3   4
ENDBRANCH   2   3
ENDBRANCH   1   2
BRANCH   1  15
ATOM     15  C   UNL     1      44.030  27.927  89.689  1.00  0.00     0.000 C 
BRANCH  15  16
ATOM     16  C   UNL     1      42.766  27.049  89.709  1.00  0.00     0.000 C 
BRANCH  16  17
ATOM     17  C   UNL     1      41.646  27.631  90.585  1.00  0.00     0.000 C 
BRANCH  17  18
ATOM     18  C   UNL     1      40.579  28.373  89.766  1.00  0.00    -0.000 C 
BRANCH  18  19
ATOM     19  C   UNL     1      40.774  29.899  89.772  1.00  0.00    -0.000 C 
BRANCH  19  20
ATOM     20  C   UNL     1      40.155  30.573  88.527  1.00  0.00    -0.000 C 
BRANCH  20  21
ATOM     21  C   UNL     1      41.197  31.224  87.598  1.00  0.00    -0.000 C 
BRANCH  21  22
ATOM     22  C   UNL     1      42.646  30.758  87.830  1.00  0.00    -0.000 C 
BRANCH  22  23
ATOM     23  C   UNL     1      43.203  29.804  86.753  1.00  0.00    -0.000 C 
BRANCH  23  24
ATOM     24  C   UNL     1      42.147  29.196  85.809  1.00  0.00    -0.000 C 
BRANCH  24  25
ATOM     25  C   UNL     1      41.642  27.800  86.215  1.00  0.00    -0.003 C 
ATOM     26  C   UNL     1      40.120  27.672  86.145  1.00  0.00     0.004 C 
ENDBRANCH  24  25
ENDBRANCH  23  24
ENDBRANCH  22  23
ENDBRANCH  21  22
ENDBRANCH  20  21
ENDBRANCH  19  20
ENDBRANCH  18  19
ENDBRANCH  17  18
ENDBRANCH  16  17
ENDBRANCH  15  16
ENDBRANCH   1  15
TORSDOF 22
ENDMDL
MODEL 2
REMARK VINA RESULT:    -3.115      4.939      8.837
REMARK INTER + INTRA:         -11.749
REMARK INTER:                  -7.936
REMARK INTRA:                  -3.813
REMARK UNBOUND:                -4.627
REMARK SMILES CCCCCCCCCCCCCCCCCCCCCCCC(=O)[O-]
REMARK SMILES IDX 13 1 14 2 15 3 16 4 17 5 18 6 19 7 20 8 21 9 22 10 23 11
REMARK SMILES IDX 24 12 25 13 26 14 12 15 11 16 10 17 9 18 8 19 7 20 6 21 5 22
REMARK SMILES IDX 4 23 3 24 2 25 1 26
REMARK H PARENT
REMARK Flexibility Score: inf
ROOT
ATOM      1  C   UNL     1      49.687  31.161  86.186  1.00  0.00     0.000 C 
ENDROOT
BRANCH   1   2
ATOM      2  C   UNL     1      51.096  31.507  86.694  1.00  0.00     0.000 C 
BRANCH   2   3
ATOM      3  C   UNL     1      51.447  30.805  88.018  1.00  0.00     0.000 C 
BRANCH   3   4
ATOM      4  C   UNL     1      51.162  31.669  89.265  1.00  0.00     0.000 C 
BRANCH   4   5
ATOM      5  C   UNL     1      50.441  30.879  90.368  1.00  0.00     0.000 C 
BRANCH   5   6
ATOM      6  C   UNL     1      48.920  31.045  90.260  1.00  0.00     0.000 C 
BRANCH   6   7
ATOM      7  C   UNL     1      48.292  29.882  89.475  1.00  0.00     0.000 C 
BRANCH   7   8
ATOM      8  C   UNL     1      46.927  30.260  88.862  1.00  0.00     0.000 C 
BRANCH   8   9
ATOM      9  C   UNL     1      46.255  31.465  89.544  1.00  0.00     0.000 C 
BRANCH   9  10
ATOM     10  C   UNL     1      44.723  31.420  89.467  1.00  0.00     0.006 C 
BRANCH  10  11
ATOM     11  C   UNL     1      44.176  30.147  90.123  1.00  0.00     0.053 C 
BRANCH  11  12
ATOM     12  C   UNL     1      44.514  30.106  91.580  1.00  0.00     0.041 C 
ATOM     13  O   UNL     1      43.922  30.872  92.390  1.00  0.00    -0.550 OA
ATOM     14  O   UNL     1      45.476  29.217  92.049  1.00  0.00    -0.550 OA
ENDBRANCH  11  12
ENDBRANCH  10  11
ENDBRANCH   9  10
ENDBRANCH   8   9
ENDBRANCH   7   8
ENDBRANCH   6   7
ENDBRANCH   5   6
ENDBRANCH   4   5
ENDBRANCH   3   4
ENDBRANCH   2   3
ENDBRANCH   1   2
BRANCH   1  15
ATOM     15  C   UNL     1      48.849  32.422  85.889  1.00  0.00     0.000 C 
BRANCH  15  16
ATOM     16  C   UNL     1      48.628  33.324  87.115  1.00  0.00     0.000 C 
BRANCH  16  17
ATOM     17  C   UNL     1      48.963  34.799  86.842  1.00  0.00     0.000 C 
BRANCH  17  18
ATOM     18  C   UNL     1      50.362  34.985  86.234  1.00  0.00    -0.000 C 
BRANCH  18  19
ATOM     19  C   UNL     1      51.474  35.037  87.297  1.00  0.00    -0.000 C 
BRANCH  19  20
ATOM     20  C   UNL     1      52.860  35.327  86.680  1.00  0.00    -0.000 C 
BRANCH  20  21
ATOM     21  C   UNL     1      53.392  34.182  85.797  1.00  0.00    -0.000 C 
BRANCH  21  22
ATOM     22  C   UNL     1      53.380  34.477  84.286  1.00  0.00    -0.000 C 
BRANCH  22  23
ATOM     23  C   UNL     1      52.994  33.281  83.392  1.00  0.00    -0.000 C 
BRANCH  23  24
ATOM     24  C   UNL     1      51.479  33.038  83.242  1.00  0.00    -0.000 C 
BRANCH  24  25
ATOM     25  C   UNL     1      50.785  33.909  82.180  1.00  0.00    -0.003 C 
ATOM     26  C   UNL     1      49.708  34.821  82.767  1.00  0.00     0.004 C 
ENDBRANCH  24  25
ENDBRANCH  23  24
ENDBRANCH  22  23
ENDBRANCH  21  22
ENDBRANCH  20  21
ENDBRANCH  19  20
ENDBRANCH  18  19
ENDBRANCH  17  18
ENDBRANCH  16  17
ENDBRANCH  15  16
ENDBRANCH   1  15
TORSDOF 22
ENDMDL
MODEL 3
REMARK VINA RESULT:    -3.103      1.596      3.334
REMARK INTER + INTRA:         -11.721
REMARK INTER:                  -7.069
REMARK INTRA:                  -4.652
REMARK UNBOUND:                -4.627
REMARK SMILES CCCCCCCCCCCCCCCCCCCCCCCC(=O)[O-]
REMARK SMILES IDX 13 1 14 2 15 3 16 4 17 5 18 6 19 7 20 8 21 9 22 10 23 11
REMARK SMILES IDX 24 12 25 13 26 14 12 15 11 16 10 17 9 18 8 19 7 20 6 21 5 22
REMARK SMILES IDX 4 23 3 24 2 25 1 26
REMARK H PARENT
REMARK Flexibility Score: inf
ROOT
ATOM      1  C   UNL     1      45.764  31.179  90.817  1.00  0.00     0.000 C 
ENDROOT
BRANCH   1   2
ATOM      2  C   UNL     1      44.535  31.364  91.723  1.00  0.00     0.000 C 
BRANCH   2   3
ATOM      3  C   UNL     1      44.069  30.052  92.379  1.00  0.00     0.000 C 
BRANCH   3   4
ATOM      4  C   UNL     1      42.888  29.384  91.645  1.00  0.00     0.000 C 
BRANCH   4   5
ATOM      5  C   UNL     1      43.187  27.924  91.268  1.00  0.00     0.000 C 
BRANCH   5   6
ATOM      6  C   UNL     1      43.891  27.839  89.908  1.00  0.00     0.000 C 
BRANCH   6   7
ATOM      7  C   UNL     1      45.153  26.967  89.995  1.00  0.00     0.000 C 
BRANCH   7   8
ATOM      8  C   UNL     1      45.740  26.928  91.423  1.00  0.00     0.000 C 
BRANCH   8   9
ATOM      9  C   UNL     1      47.150  27.534  91.528  1.00  0.00     0.000 C 
BRANCH   9  10
ATOM     10  C   UNL     1      47.614  28.204  90.228  1.00  0.00     0.006 C 
BRANCH  10  11
ATOM     11  C   UNL     1      48.880  29.038  90.459  1.00  0.00     0.053 C 
BRANCH  11  12
ATOM     12  C   UNL     1      49.060  30.051  89.372  1.00  0.00     0.041 C 
ATOM     13  O   UNL     1      49.436  31.223  89.654  1.00  0.00    -0.550 OA
ATOM     14  O   UNL     1      48.823  29.703  88.046  1.00  0.00    -0.550 OA
ENDBRANCH  11  12
ENDBRANCH  10  11
ENDBRANCH   9  10
ENDBRANCH   8   9
ENDBRANCH   7   8
ENDBRANCH   6   7
ENDBRANCH   5   6
ENDBRANCH   4   5
ENDBRANCH   3   4
ENDBRANCH   2   3
ENDBRANCH   1   2
BRANCH   1  15
ATOM     15  C   UNL     1      45.392  31.198  89.320  1.00  0.00     0.000 C 
BRANCH  15  16
ATOM     16  C   UNL     1      43.939  31.623  89.047  1.00  0.00     0.000 C 
BRANCH  16  17
ATOM     17  C   UNL     1      43.257  30.766  87.968  1.00  0.00     0.000 C 
BRANCH  17  18
ATOM     18  C   UNL     1      41.797  31.177  87.722  1.00  0.00    -0.000 C 
BRANCH  18  19
ATOM     19  C   UNL     1      40.812  30.488  88.683  1.00  0.00    -0.000 C 
BRANCH  19  20
ATOM     20  C   UNL     1      39.473  30.138  87.996  1.00  0.00    -0.000 C 
BRANCH  20  21
ATOM     21  C   UNL     1      39.069  28.659  88.152  1.00  0.00    -0.000 C 
BRANCH  21  22
ATOM     22  C   UNL     1      39.940  27.855  89.135  1.00  0.00    -0.000 C 
BRANCH  22  23
ATOM     23  C   UNL     1      40.779  26.731  88.493  1.00  0.00    -0.000 C 
BRANCH  23  24
ATOM     24  C   UNL     1      40.894  26.797  86.957  1.00  0.00    -0.000 C 
BRANCH  24  25
ATOM     25  C   UNL     1      42.138  27.535  86.432  1.00  0.00    -0.003 C 
ATOM     26  C   UNL     1      41.827  28.480  85.271  1.00  0.00     0.004 C 
ENDBRANCH  24  25
ENDBRANCH  23  24
ENDBRANCH  22  23
ENDBRANCH  21  22
ENDBRANCH  20  21
ENDBRANCH  19  20
ENDBRANCH  18  19
ENDBRANCH  17  18
ENDBRANCH  16  17
ENDBRANCH  15  16
ENDBRANCH   1  15
TORSDOF 22
ENDMDL
MODEL 4
REMARK VINA RESULT:    -3.085      2.752      4.207
REMARK INTER + INTRA:         -11.679
REMARK INTER:                  -8.177
REMARK INTRA:                  -3.503
REMARK UNBOUND:                -4.627
REMARK SMILES CCCCCCCCCCCCCCCCCCCCCCCC(=O)[O-]
REMARK SMILES IDX 13 1 14 2 15 3 16 4 17 5 18 6 19 7 20 8 21 9 22 10 23 11
REMARK SMILES IDX 24 12 25 13 26 14 12 15 11 16 10 17 9 18 8 19 7 20 6 21 5 22
REMARK SMILES IDX 4 23 3 24 2 25 1 26
REMARK H PARENT
REMARK Flexibility Score: inf
ROOT
ATOM      1  C   UNL     1      44.596  28.030  91.853  1.00  0.00     0.000 C 
ENDROOT
BRANCH   1   2
ATOM      2  C   UNL     1      46.090  27.665  91.844  1.00  0.00     0.000 C 
BRANCH   2   3
ATOM      3  C   UNL     1      46.741  27.830  90.459  1.00  0.00     0.000 C 
BRANCH   3   4
ATOM      4  C   UNL     1      48.092  28.575  90.501  1.00  0.00     0.000 C 
BRANCH   4   5
ATOM      5  C   UNL     1      48.144  29.742  89.502  1.00  0.00     0.000 C 
BRANCH   5   6
ATOM      6  C   UNL     1      48.613  31.032  90.186  1.00  0.00     0.000 C 
BRANCH   6   7
ATOM      7  C   UNL     1      50.082  30.922  90.622  1.00  0.00     0.000 C 
BRANCH   7   8
ATOM      8  C   UNL     1      51.054  30.981  89.424  1.00  0.00     0.000 C 
BRANCH   8   9
ATOM      9  C   UNL     1      51.796  32.323  89.295  1.00  0.00     0.000 C 
BRANCH   9  10
ATOM     10  C   UNL     1      51.877  32.827  87.848  1.00  0.00     0.006 C 
BRANCH  10  11
ATOM     11  C   UNL     1      50.564  33.495  87.424  1.00  0.00     0.053 C 
BRANCH  11  12
ATOM     12  C   UNL     1      50.826  34.753  86.655  1.00  0.00     0.041 C 
ATOM     13  O   UNL     1      50.711  35.876  87.219  1.00  0.00    -0.550 OA
ATOM     14  O   UNL     1      51.207  34.688  85.319  1.00  0.00    -0.550 OA
ENDBRANCH  11  12
ENDBRANCH  10  11
ENDBRANCH   9  10
ENDBRANCH   8   9
ENDBRANCH   7   8
ENDBRANCH   6   7
ENDBRANCH   5   6
ENDBRANCH   4   5
ENDBRANCH   3   4
ENDBRANCH   2   3
ENDBRANCH   1   2
BRANCH   1  15
ATOM     15  C   UNL     1      44.342  29.428  92.452  1.00  0.00     0.000 C 
BRANCH  15  16
ATOM     16  C   UNL     1      43.823  30.456  91.430  1.00  0.00     0.000 C 
BRANCH  16  17
ATOM     17  C   UNL     1      44.948  31.277  90.782  1.00  0.00     0.000 C 
BRANCH  17  18
ATOM     18  C   UNL     1      44.824  31.345  89.252  1.00  0.00    -0.000 C 
BRANCH  18  19
ATOM     19  C   UNL     1      44.414  30.001  88.625  1.00  0.00    -0.000 C 
BRANCH  19  20
ATOM     20  C   UNL     1      43.333  30.170  87.533  1.00  0.00    -0.000 C 
BRANCH  20  21
ATOM     21  C   UNL     1      42.302  31.268  87.853  1.00  0.00    -0.000 C 
BRANCH  21  22
ATOM     22  C   UNL     1      40.849  30.772  87.970  1.00  0.00    -0.000 C 
BRANCH  22  23
ATOM     23  C   UNL     1      40.446  30.259  89.367  1.00  0.00    -0.000 C 
BRANCH  23  24
ATOM     24  C   UNL     1      40.254  28.733  89.474  1.00  0.00    -0.000 C 
BRANCH  24  25
ATOM     25  C   UNL     1      41.473  27.962  90.009  1.00  0.00    -0.003 C 
ATOM     26  C   UNL     1      42.080  27.012  88.976  1.00  0.00     0.004 C 
ENDBRANCH  24  25
ENDBRANCH  23  24
ENDBRANCH  22  23
ENDBRANCH  21  22
ENDBRANCH  20  21
ENDBRANCH  19  20
ENDBRANCH  18  19
ENDBRANCH  17  18
ENDBRANCH  16  17
ENDBRANCH  15  16
ENDBRANCH   1  15
TORSDOF 22
ENDMDL
MODEL 5
REMARK VINA RESULT:    -3.079      2.739      3.546
REMARK INTER + INTRA:         -11.665
REMARK INTER:                  -7.672
REMARK INTRA:                  -3.993
REMARK UNBOUND:                -4.627
REMARK SMILES CCCCCCCCCCCCCCCCCCCCCCCC(=O)[O-]
REMARK SMILES IDX 13 1 14 2 15 3 16 4 17 5 18 6 19 7 20 8 21 9 22 10 23 11
REMARK SMILES IDX 24 12 25 13 26 14 12 15 11 16 10 17 9 18 8 19 7 20 6 21 5 22
REMARK SMILES IDX 4 23 3 24 2 25 1 26
REMARK H PARENT
REMARK Flexibility Score: inf
ROOT
ATOM      1  C   UNL     1      43.703  29.182  92.233  1.00  0.00     0.000 C 
ENDROOT
BRANCH   1   2
ATOM      2  C   UNL     1      44.883  30.074  91.813  1.00  0.00     0.000 C 
BRANCH   2   3
ATOM      3  C   UNL     1      46.083  29.271  91.280  1.00  0.00     0.000 C 
BRANCH   3   4
ATOM      4  C   UNL     1      46.917  30.038  90.231  1.00  0.00     0.000 C 
BRANCH   4   5
ATOM      5  C   UNL     1      46.416  31.476  90.028  1.00  0.00     0.000 C 
BRANCH   5   6
ATOM      6  C   UNL     1      46.857  32.027  88.666  1.00  0.00     0.000 C 
BRANCH   6   7
ATOM      7  C   UNL     1      47.373  30.900  87.757  1.00  0.00     0.000 C 
BRANCH   7   8
ATOM      8  C   UNL     1      48.037  31.442  86.474  1.00  0.00     0.000 C 
BRANCH   8   9
ATOM      9  C   UNL     1      49.516  31.043  86.327  1.00  0.00     0.000 C 
BRANCH   9  10
ATOM     10  C   UNL     1      50.455  32.252  86.216  1.00  0.00     0.006 C 
BRANCH  10  11
ATOM     11  C   UNL     1      50.080  33.336  87.233  1.00  0.00     0.053 C 
BRANCH  11  12
ATOM     12  C   UNL     1      50.074  34.690  86.597  1.00  0.00     0.041 C 
ATOM     13  O   UNL     1      51.054  35.469  86.755  1.00  0.00    -0.550 OA
ATOM     14  O   UNL     1      48.992  35.092  85.820  1.00  0.00    -0.550 OA
ENDBRANCH  11  12
ENDBRANCH  10  11
ENDBRANCH   9  10
ENDBRANCH   8   9
ENDBRANCH   7   8
ENDBRANCH   6   7
ENDBRANCH   5   6
ENDBRANCH   4   5
ENDBRANCH   3   4
ENDBRANCH   2   3
ENDBRANCH   1   2
BRANCH   1  15
ATOM     15  C   UNL     1      42.493  29.333  91.288  1.00  0.00     0.000 C 
BRANCH  15  16
ATOM     16  C   UNL     1      42.083  28.025  90.590  1.00  0.00     0.000 C 
BRANCH  16  17
ATOM     17  C   UNL     1      43.268  27.298  89.935  1.00  0.00     0.000 C 
BRANCH  17  18
ATOM     18  C   UNL     1      43.368  27.570  88.425  1.00  0.00    -0.000 C 
BRANCH  18  19
ATOM     19  C   UNL     1      44.259  28.779  88.093  1.00  0.00    -0.000 C 
BRANCH  19  20
ATOM     20  C   UNL     1      43.528  29.825  87.223  1.00  0.00    -0.000 C 
BRANCH  20  21
ATOM     21  C   UNL     1      42.899  30.972  88.036  1.00  0.00    -0.000 C 
BRANCH  21  22
ATOM     22  C   UNL     1      41.446  31.309  87.655  1.00  0.00    -0.000 C 
BRANCH  22  23
ATOM     23  C   UNL     1      40.372  30.696  88.577  1.00  0.00    -0.000 C 
BRANCH  23  24
ATOM     24  C   UNL     1      39.359  29.770  87.874  1.00  0.00    -0.000 C 
BRANCH  24  25
ATOM     25  C   UNL     1      39.845  28.327  87.652  1.00  0.00    -0.003 C 
ATOM     26  C   UNL     1      40.325  28.072  86.223  1.00  0.00     0.004 C 
ENDBRANCH  24  25
ENDBRANCH  23  24
ENDBRANCH  22  23
ENDBRANCH  21  22
ENDBRANCH  20  21
ENDBRANCH  19  20
ENDBRANCH  18  19
ENDBRANCH  17  18
ENDBRANCH  16  17
ENDBRANCH  15  16
ENDBRANCH   1  15
TORSDOF 22
ENDMDL
MODEL 6
REMARK VINA RESULT:    -3.079      5.232      6.646
REMARK INTER + INTRA:         -11.665
REMARK INTER:                  -9.465
REMARK INTRA:                  -2.200
REMARK UNBOUND:                -4.627
REMARK SMILES CCCCCCCCCCCCCCCCCCCCCCCC(=O)[O-]
REMARK SMILES IDX 13 1 14 2 15 3 16 4 17 5 18 6 19 7 20 8 21 9 22 10 23 11
REMARK SMILES IDX 24 12 25 13 26 14 12 15 11 16 10 17 9 18 8 19 7 20 6 21 5 22
REMARK SMILES IDX 4 23 3 24 2 25 1 26
REMARK H PARENT
REMARK Flexibility Score: inf
ROOT
ATOM      1  C   UNL     1      47.106  30.984  87.866  1.00  0.00     0.000 C 
ENDROOT
BRANCH   1   2
ATOM      2  C   UNL     1      48.129  31.693  86.963  1.00  0.00     0.000 C 
BRANCH   2   3
ATOM      3  C   UNL     1      48.364  33.161  87.357  1.00  0.00     0.000 C 
BRANCH   3   4
ATOM      4  C   UNL     1      49.093  33.979  86.270  1.00  0.00     0.000 C 
BRANCH   4   5
ATOM      5  C   UNL     1      49.566  35.346  86.789  1.00  0.00     0.000 C 
BRANCH   5   6
ATOM      6  C   UNL     1      51.056  35.313  87.150  1.00  0.00     0.000 C 
BRANCH   6   7
ATOM      7  C   UNL     1      51.774  34.165  86.424  1.00  0.00     0.000 C 
BRANCH   7   8
ATOM      8  C   UNL     1      53.058  34.637  85.709  1.00  0.00     0.000 C 
BRANCH   8   9
ATOM      9  C   UNL     1      52.953  34.622  84.174  1.00  0.00     0.000 C 
BRANCH   9  10
ATOM     10  C   UNL     1      51.536  34.312  83.674  1.00  0.00     0.006 C 
BRANCH  10  11
ATOM     11  C   UNL     1      51.487  34.282  82.142  1.00  0.00     0.053 C 
BRANCH  11  12
ATOM     12  C   UNL     1      50.117  34.617  81.642  1.00  0.00     0.041 C 
ATOM     13  O   UNL     1      49.106  34.389  82.362  1.00  0.00    -0.550 OA
ATOM     14  O   UNL     1      49.953  35.190  80.385  1.00  0.00    -0.550 OA
ENDBRANCH  11  12
ENDBRANCH  10  11
ENDBRANCH   9  10
ENDBRANCH   8   9
ENDBRANCH   7   8
ENDBRANCH   6   7
ENDBRANCH   5   6
ENDBRANCH   4   5
ENDBRANCH   3   4
ENDBRANCH   2   3
ENDBRANCH   1   2
BRANCH   1  15
ATOM     15  C   UNL     1      46.617  31.890  89.014  1.00  0.00     0.000 C 
BRANCH  15  16
ATOM     16  C   UNL     1      46.713  31.238  90.405  1.00  0.00     0.000 C 
BRANCH  16  17
ATOM     17  C   UNL     1      46.874  29.711  90.340  1.00  0.00     0.000 C 
BRANCH  17  18
ATOM     18  C   UNL     1      45.646  28.963  90.882  1.00  0.00    -0.000 C 
BRANCH  18  19
ATOM     19  C   UNL     1      44.849  29.788  91.908  1.00  0.00    -0.000 C 
BRANCH  19  20
ATOM     20  C   UNL     1      43.403  30.065  91.439  1.00  0.00    -0.000 C 
BRANCH  20  21
ATOM     21  C   UNL     1      43.137  29.641  89.982  1.00  0.00    -0.000 C 
BRANCH  21  22
ATOM     22  C   UNL     1      43.024  30.807  88.983  1.00  0.00    -0.000 C 
BRANCH  22  23
ATOM     23  C   UNL     1      41.830  30.718  88.010  1.00  0.00    -0.000 C 
BRANCH  23  24
ATOM     24  C   UNL     1      40.453  30.540  88.680  1.00  0.00    -0.000 C 
BRANCH  24  25
ATOM     25  C   UNL     1      39.523  29.525  87.992  1.00  0.00    -0.003 C 
ATOM     26  C   UNL     1      40.238  28.233  87.596  1.00  0.00     0.004 C 
ENDBRANCH  24  25
ENDBRANCH  23  24
ENDBRANCH  22  23
ENDBRANCH  21  22
ENDBRANCH  20  21
ENDBRANCH  19  20
ENDBRANCH  18  19
ENDBRANCH  17  18
ENDBRANCH  16  17
ENDBRANCH  15  16
ENDBRANCH   1  15
TORSDOF 22
ENDMDL
MODEL 7
REMARK VINA RESULT:    -3.062      5.130      9.377
REMARK INTER + INTRA:         -11.627
REMARK INTER:                  -8.495
REMARK INTRA:                  -3.132
REMARK UNBOUND:                -4.627
REMARK SMILES CCCCCCCCCCCCCCCCCCCCCCCC(=O)[O-]
REMARK SMILES IDX 13 1 14 2 15 3 16 4 17 5 18 6 19 7 20 8 21 9 22 10 23 11
REMARK SMILES IDX 24 12 25 13 26 14 12 15 11 16 10 17 9 18 8 19 7 20 6 21 5 22
REMARK SMILES IDX 4 23 3 24 2 25 1 26
REMARK H PARENT
REMARK Flexibility Score: inf
ROOT
ATOM      1  C   UNL     1      48.521  31.030  88.481  1.00  0.00     0.000 C 
ENDROOT
BRANCH   1   2
ATOM      2  C   UNL     1      48.158  30.832  89.962  1.00  0.00     0.000 C 
BRANCH   2   3
ATOM      3  C   UNL     1      47.586  29.435  90.259  1.00  0.00     0.000 C 
BRANCH   3   4
ATOM      4  C   UNL     1      46.065  29.438  90.523  1.00  0.00     0.000 C 
BRANCH   4   5
ATOM      5  C   UNL     1      45.599  30.722  91.227  1.00  0.00     0.000 C 
BRANCH   5   6
ATOM      6  C   UNL     1      44.312  31.263  90.592  1.00  0.00     0.000 C 
BRANCH   6   7
ATOM      7  C   UNL     1      44.422  31.288  89.060  1.00  0.00     0.000 C 
BRANCH   7   8
ATOM      8  C   UNL     1      43.058  31.065  88.372  1.00  0.00     0.000 C 
BRANCH   8   9
ATOM      9  C   UNL     1      42.303  29.827  88.885  1.00  0.00     0.000 C 
BRANCH   9  10
ATOM     10  C   UNL     1      40.902  30.157  89.419  1.00  0.00     0.006 C 
BRANCH  10  11
ATOM     11  C   UNL     1      39.912  30.374  88.269  1.00  0.00     0.053 C 
BRANCH  11  12
ATOM     12  C   UNL     1      39.092  29.144  88.029  1.00  0.00     0.041 C 
ATOM     13  O   UNL     1      39.482  28.027  88.467  1.00  0.00    -0.550 OA
ATOM     14  O   UNL     1      37.893  29.231  87.329  1.00  0.00    -0.550 OA
ENDBRANCH  11  12
ENDBRANCH  10  11
ENDBRANCH   9  10
ENDBRANCH   8   9
ENDBRANCH   7   8
ENDBRANCH   6   7
ENDBRANCH   5   6
ENDBRANCH   4   5
ENDBRANCH   3   4
ENDBRANCH   2   3
ENDBRANCH   1   2
BRANCH   1  15
ATOM     15  C   UNL     1      47.847  32.279  87.877  1.00  0.00     0.000 C 
BRANCH  15  16
ATOM     16  C   UNL     1      48.682  32.969  86.784  1.00  0.00     0.000 C 
BRANCH  16  17
ATOM     17  C   UNL     1      48.928  34.459  87.069  1.00  0.00     0.000 C 
BRANCH  17  18
ATOM     18  C   UNL     1      50.105  35.029  86.262  1.00  0.00    -0.000 C 
BRANCH  18  19
ATOM     19  C   UNL     1      51.272  35.492  87.152  1.00  0.00    -0.000 C 
BRANCH  19  20
ATOM     20  C   UNL     1      52.647  35.182  86.522  1.00  0.00    -0.000 C 
BRANCH  20  21
ATOM     21  C   UNL     1      52.559  34.340  85.235  1.00  0.00    -0.000 C 
BRANCH  21  22
ATOM     22  C   UNL     1      53.073  32.895  85.374  1.00  0.00    -0.000 C 
BRANCH  22  23
ATOM     23  C   UNL     1      51.972  31.821  85.492  1.00  0.00    -0.000 C 
BRANCH  23  24
ATOM     24  C   UNL     1      51.866  31.142  86.871  1.00  0.00    -0.000 C 
BRANCH  24  25
ATOM     25  C   UNL     1      52.697  31.803  87.985  1.00  0.00    -0.003 C 
ATOM     26  C   UNL     1      51.835  32.432  89.080  1.00  0.00     0.004 C 
ENDBRANCH  24  25
ENDBRANCH  23  24
ENDBRANCH  22  23
ENDBRANCH  21  22
ENDBRANCH  20  21
ENDBRANCH  19  20
ENDBRANCH  18  19
ENDBRANCH  17  18
ENDBRANCH  16  17
ENDBRANCH  15  16
ENDBRANCH   1  15
TORSDOF 22
ENDMDL
MODEL 8
REMARK VINA RESULT:    -3.048      3.314      5.350
REMARK INTER + INTRA:         -11.594
REMARK INTER:                  -6.720
REMARK INTRA:                  -4.874
REMARK UNBOUND:                -4.627
REMARK SMILES CCCCCCCCCCCCCCCCCCCCCCCC(=O)[O-]
REMARK SMILES IDX 13 1 14 2 15 3 16 4 17 5 18 6 19 7 20 8 21 9 22 10 23 11
REMARK SMILES IDX 24 12 25 13 26 14 12 15 11 16 10 17 9 18 8 19 7 20 6 21 5 22
REMARK SMILES IDX 4 23 3 24 2 25 1 26
REMARK H PARENT
REMARK Flexibility Score: inf
ROOT
ATOM      1  C   UNL     1      46.613  29.463  90.478  1.00  0.00     0.000 C 
ENDROOT
BRANCH   1   2
ATOM      2  C   UNL     1      45.873  28.889  91.698  1.00  0.00     0.000 C 
BRANCH   2   3
ATOM      3  C   UNL     1      44.751  29.810  92.209  1.00  0.00     0.000 C 
BRANCH   3   4
ATOM      4  C   UNL     1      43.352  29.422  91.684  1.00  0.00     0.000 C 
BRANCH   4   5
ATOM      5  C   UNL     1      42.816  28.143  92.344  1.00  0.00     0.000 C 
BRANCH   5   6
ATOM      6  C   UNL     1      42.450  27.090  91.290  1.00  0.00     0.000 C 
BRANCH   6   7
ATOM      7  C   UNL     1      43.494  25.963  91.252  1.00  0.00     0.000 C 
BRANCH   7   8
ATOM      8  C   UNL     1      44.469  26.109  90.063  1.00  0.00     0.000 C 
BRANCH   8   9
ATOM      9  C   UNL     1      43.968  27.066  88.967  1.00  0.00     0.000 C 
BRANCH   9  10
ATOM     10  C   UNL     1      44.953  27.207  87.799  1.00  0.00     0.006 C 
BRANCH  10  11
ATOM     11  C   UNL     1      44.211  27.275  86.459  1.00  0.00     0.053 C 
BRANCH  11  12
ATOM     12  C   UNL     1      43.983  25.905  85.902  1.00  0.00     0.041 C 
ATOM     13  O   UNL     1      43.126  25.725  84.993  1.00  0.00    -0.550 OA
ATOM     14  O   UNL     1      44.720  24.826  86.378  1.00  0.00    -0.550 OA
ENDBRANCH  11  12
ENDBRANCH  10  11
ENDBRANCH   9  10
ENDBRANCH   8   9
ENDBRANCH   7   8
ENDBRANCH   6   7
ENDBRANCH   5   6
ENDBRANCH   4   5
ENDBRANCH   3   4
ENDBRANCH   2   3
ENDBRANCH   1   2
BRANCH   1  15
ATOM     15  C   UNL     1      46.620  31.005  90.473  1.00  0.00     0.000 C 
BRANCH  15  16
ATOM     16  C   UNL     1      46.260  31.624  89.111  1.00  0.00     0.000 C 
BRANCH  16  17
ATOM     17  C   UNL     1      45.209  30.808  88.342  1.00  0.00     0.000 C 
BRANCH  17  18
ATOM     18  C   UNL     1      43.770  31.236  88.671  1.00  0.00    -0.000 C 
BRANCH  18  19
ATOM     19  C   UNL     1      42.713  30.397  87.932  1.00  0.00    -0.000 C 
BRANCH  19  20
ATOM     20  C   UNL     1      41.455  31.220  87.577  1.00  0.00    -0.000 C 
BRANCH  20  21
ATOM     21  C   UNL     1      40.185  30.752  88.312  1.00  0.00    -0.000 C 
BRANCH  21  22
ATOM     22  C   UNL     1      40.414  29.630  89.341  1.00  0.00    -0.000 C 
BRANCH  22  23
ATOM     23  C   UNL     1      39.753  28.281  88.991  1.00  0.00    -0.000 C 
BRANCH  23  24
ATOM     24  C   UNL     1      40.575  27.373  88.054  1.00  0.00    -0.000 C 
BRANCH  24  25
ATOM     25  C   UNL     1      39.999  27.215  86.636  1.00  0.00    -0.003 C 
ATOM     26  C   UNL     1      40.670  28.131  85.612  1.00  0.00     0.004 C 
ENDBRANCH  24  25
ENDBRANCH  23  24
ENDBRANCH  22  23
ENDBRANCH  21  22
ENDBRANCH  20  21
ENDBRANCH  19  20
ENDBRANCH  18  19
ENDBRANCH  17  18
ENDBRANCH  16  17
ENDBRANCH  15  16
ENDBRANCH   1  15
TORSDOF 22
ENDMDL
MODEL 9
REMARK VINA RESULT:    -3.030      4.246      7.103
REMARK INTER + INTRA:         -11.553
REMARK INTER:                  -7.016
REMARK INTRA:                  -4.538
REMARK UNBOUND:                -4.627
REMARK SMILES CCCCCCCCCCCCCCCCCCCCCCCC(=O)[O-]
REMARK SMILES IDX 13 1 14 2 15 3 16 4 17 5 18 6 19 7 20 8 21 9 22 10 23 11
REMARK SMILES IDX 24 12 25 13 26 14 12 15 11 16 10 17 9 18 8 19 7 20 6 21 5 22
REMARK SMILES IDX 4 23 3 24 2 25 1 26
REMARK H PARENT
REMARK Flexibility Score: inf
ROOT
ATOM      1  C   UNL     1      43.043  27.926  90.765  1.00  0.00     0.000 C 
ENDROOT
BRANCH   1   2
ATOM      2  C   UNL     1      44.478  27.579  90.336  1.00  0.00     0.000 C 
BRANCH   2   3
ATOM      3  C   UNL     1      44.783  27.971  88.880  1.00  0.00     0.000 C 
BRANCH   3   4
ATOM      4  C   UNL     1      43.533  27.988  87.975  1.00  0.00     0.000 C 
BRANCH   4   5
ATOM      5  C   UNL     1      43.464  29.250  87.101  1.00  0.00     0.000 C 
BRANCH   5   6
ATOM      6  C   UNL     1      43.931  30.486  87.879  1.00  0.00     0.000 C 
BRANCH   6   7
ATOM      7  C   UNL     1      42.736  31.244  88.479  1.00  0.00     0.000 C 
BRANCH   7   8
ATOM      8  C   UNL     1      41.485  31.169  87.577  1.00  0.00     0.000 C 
BRANCH   8   9
ATOM      9  C   UNL     1      40.249  30.583  88.282  1.00  0.00     0.000 C 
BRANCH   9  10
ATOM     10  C   UNL     1      39.880  29.182  87.777  1.00  0.00     0.006 C 
BRANCH  10  11
ATOM     11  C   UNL     1      39.890  28.164  88.923  1.00  0.00     0.053 C 
BRANCH  11  12
ATOM     12  C   UNL     1      38.567  27.475  89.042  1.00  0.00     0.041 C 
ATOM     13  O   UNL     1      37.674  27.664  88.170  1.00  0.00    -0.550 OA
ATOM     14  O   UNL     1      38.319  26.617  90.108  1.00  0.00    -0.550 OA
ENDBRANCH  11  12
ENDBRANCH  10  11
ENDBRANCH   9  10
ENDBRANCH   8   9
ENDBRANCH   7   8
ENDBRANCH   6   7
ENDBRANCH   5   6
ENDBRANCH   4   5
ENDBRANCH   3   4
ENDBRANCH   2   3
ENDBRANCH   1   2
BRANCH   1  15
ATOM     15  C   UNL     1      42.967  29.273  91.511  1.00  0.00     0.000 C 
BRANCH  15  16
ATOM     16  C   UNL     1      44.303  29.715  92.133  1.00  0.00     0.000 C 
BRANCH  16  17
ATOM     17  C   UNL     1      44.535  31.232  92.040  1.00  0.00     0.000 C 
BRANCH  17  18
ATOM     18  C   UNL     1      45.505  31.614  90.911  1.00  0.00    -0.000 C 
BRANCH  18  19
ATOM     19  C   UNL     1      46.603  30.560  90.685  1.00  0.00    -0.000 C 
BRANCH  19  20
ATOM     20  C   UNL     1      47.743  31.087  89.784  1.00  0.00    -0.000 C 
BRANCH  20  21
ATOM     21  C   UNL     1      47.254  31.995  88.641  1.00  0.00    -0.000 C 
BRANCH  21  22
ATOM     22  C   UNL     1      47.662  31.530  87.230  1.00  0.00    -0.000 C 
BRANCH  22  23
ATOM     23  C   UNL     1      47.367  30.048  86.923  1.00  0.00    -0.000 C 
BRANCH  23  24
ATOM     24  C   UNL     1      46.776  29.776  85.525  1.00  0.00    -0.000 C 
BRANCH  24  25
ATOM     25  C   UNL     1      47.129  28.402  84.929  1.00  0.00    -0.003 C 
ATOM     26  C   UNL     1      46.205  27.285  85.414  1.00  0.00     0.004 C 
ENDBRANCH  24  25
ENDBRANCH  23  24
ENDBRANCH  22  23
ENDBRANCH  21  22
ENDBRANCH  20  21
ENDBRANCH  19  20
ENDBRANCH  18  19
ENDBRANCH  17  18
ENDBRANCH  16  17
ENDBRANCH  15  16
ENDBRANCH   1  15
TORSDOF 22
ENDMDL
