MODEL 1
REMARK VINA RESULT:    -3.969      0.000      0.000
REMARK INTER + INTRA:          -9.400
REMARK INTER:                  -7.681
REMARK INTRA:                  -1.719
REMARK UNBOUND:                -1.719
REMARK SMILES CCCCCCCCCCCCCCCCCC(=O)[O-]
REMARK SMILES IDX 10 1 11 2 12 3 13 4 14 5 15 6 16 7 17 8 18 9 19 10 20 11
REMARK SMILES IDX 9 12 8 13 7 14 6 15 5 16 4 17 3 18 2 19 1 20
REMARK H PARENT
REMARK Flexibility Score: inf
ROOT
ATOM      1  C   UNL     1     -91.597 145.630 237.768  1.00  0.00     0.000 C 
ENDROOT
BRANCH   1   2
ATOM      2  C   UNL     1     -92.257 146.031 239.099  1.00  0.00     0.000 C 
BRANCH   2   3
ATOM      3  C   UNL     1     -93.580 146.787 238.899  1.00  0.00     0.000 C 
BRANCH   3   4
ATOM      4  C   UNL     1     -93.618 148.124 239.660  1.00  0.00     0.000 C 
BRANCH   4   5
ATOM      5  C   UNL     1     -94.660 148.118 240.799  1.00  0.00     0.000 C 
BRANCH   5   6
ATOM      6  C   UNL     1     -95.572 149.359 240.811  1.00  0.00     0.000 C 
BRANCH   6   7
ATOM      7  C   UNL     1     -97.073 149.054 240.947  1.00  0.00     0.006 C 
BRANCH   7   8
ATOM      8  C   UNL     1     -97.879 150.259 241.451  1.00  0.00     0.053 C 
BRANCH   8   9
ATOM      9  C   UNL     1     -98.731 149.864 242.616  1.00  0.00     0.041 C 
ATOM     10  O   UNL     1     -99.986 149.913 242.527  1.00  0.00    -0.550 OA
ATOM     11  O   UNL     1     -98.138 149.493 243.815  1.00  0.00    -0.550 OA
ENDBRANCH   8   9
ENDBRANCH   7   8
ENDBRANCH   6   7
ENDBRANCH   5   6
ENDBRANCH   4   5
ENDBRANCH   3   4
ENDBRANCH   2   3
ENDBRANCH   1   2
BRANCH   1  12
ATOM     12  C   UNL     1     -92.455 146.000 236.547  1.00  0.00     0.000 C 
BRANCH  12  13
ATOM     13  C   UNL     1     -92.426 144.915 235.455  1.00  0.00    -0.000 C 
BRANCH  13  14
ATOM     14  C   UNL     1     -92.398 145.506 234.036  1.00  0.00    -0.000 C 
BRANCH  14  15
ATOM     15  C   UNL     1     -92.432 147.043 234.031  1.00  0.00    -0.000 C 
BRANCH  15  16
ATOM     16  C   UNL     1     -93.694 147.560 233.325  1.00  0.00    -0.000 C 
BRANCH  16  17
ATOM     17  C   UNL     1     -94.441 148.626 234.143  1.00  0.00    -0.000 C 
BRANCH  17  18
ATOM     18  C   UNL     1     -95.102 148.046 235.405  1.00  0.00    -0.000 C 
BRANCH  18  19
ATOM     19  C   UNL     1     -95.307 149.103 236.502  1.00  0.00    -0.003 C 
ATOM     20  C   UNL     1     -96.645 148.956 237.225  1.00  0.00     0.004 C 
ENDBRANCH  18  19
ENDBRANCH  17  18
ENDBRANCH  16  17
ENDBRANCH  15  16
ENDBRANCH  14  15
ENDBRANCH  13  14
ENDBRANCH  12  13
ENDBRANCH   1  12
TORSDOF 16
ENDMDL
MODEL 2
REMARK VINA RESULT:    -3.944      4.051      7.260
REMARK INTER + INTRA:          -9.352
REMARK INTER:                  -6.799
REMARK INTRA:                  -2.553
REMARK UNBOUND:                -1.719
REMARK SMILES CCCCCCCCCCCCCCCCCC(=O)[O-]
REMARK SMILES IDX 10 1 11 2 12 3 13 4 14 5 15 6 16 7 17 8 18 9 19 10 20 11
REMARK SMILES IDX 9 12 8 13 7 14 6 15 5 16 4 17 3 18 2 19 1 20
REMARK H PARENT
REMARK Flexibility Score: inf
ROOT
ATOM      1  C   UNL     1     -94.798 147.038 241.162  1.00  0.00     0.000 C 
ENDROOT
BRANCH   1   2
ATOM      2  C   UNL     1     -93.914 146.095 240.328  1.00  0.00     0.000 C 
BRANCH   2   3
ATOM      3  C   UNL     1     -93.083 146.842 239.272  1.00  0.00     0.000 C 
BRANCH   3   4
ATOM      4  C   UNL     1     -91.955 145.975 238.685  1.00  0.00     0.000 C 
BRANCH   4   5
ATOM      5  C   UNL     1     -92.063 145.836 237.152  1.00  0.00     0.000 C 
BRANCH   5   6
ATOM      6  C   UNL     1     -93.511 145.877 236.628  1.00  0.00     0.000 C 
BRANCH   6   7
ATOM      7  C   UNL     1     -93.640 146.073 235.108  1.00  0.00     0.006 C 
BRANCH   7   8
ATOM      8  C   UNL     1     -92.280 146.096 234.396  1.00  0.00     0.053 C 
BRANCH   8   9
ATOM      9  C   UNL     1     -92.187 147.284 233.491  1.00  0.00     0.041 C 
ATOM     10  O   UNL     1     -91.063 147.762 233.188  1.00  0.00    -0.550 OA
ATOM     11  O   UNL     1     -93.344 147.894 233.024  1.00  0.00    -0.550 OA
ENDBRANCH   8   9
ENDBRANCH   7   8
ENDBRANCH   6   7
ENDBRANCH   5   6
ENDBRANCH   4   5
ENDBRANCH   3   4
ENDBRANCH   2   3
ENDBRANCH   1   2
BRANCH   1  12
ATOM     12  C   UNL     1     -94.462 148.521 240.933  1.00  0.00     0.000 C 
BRANCH  12  13
ATOM     13  C   UNL     1     -95.689 149.436 241.097  1.00  0.00    -0.000 C 
BRANCH  13  14
ATOM     14  C   UNL     1     -96.930 148.675 241.593  1.00  0.00    -0.000 C 
BRANCH  14  15
ATOM     15  C   UNL     1     -98.181 148.965 240.748  1.00  0.00    -0.000 C 
BRANCH  15  16
ATOM     16  C   UNL     1     -97.836 148.984 239.251  1.00  0.00    -0.000 C 
BRANCH  16  17
ATOM     17  C   UNL     1     -97.560 147.582 238.685  1.00  0.00    -0.000 C 
BRANCH  17  18
ATOM     18  C   UNL     1     -96.637 147.612 237.455  1.00  0.00    -0.000 C 
BRANCH  18  19
ATOM     19  C   UNL     1     -95.708 148.836 237.445  1.00  0.00    -0.003 C 
ATOM     20  C   UNL     1     -95.304 149.264 236.034  1.00  0.00     0.004 C 
ENDBRANCH  18  19
ENDBRANCH  17  18
ENDBRANCH  16  17
ENDBRANCH  15  16
ENDBRANCH  14  15
ENDBRANCH  13  14
ENDBRANCH  12  13
ENDBRANCH   1  12
TORSDOF 16
ENDMDL
MODEL 3
REMARK VINA RESULT:    -3.888      2.053      5.610
REMARK INTER + INTRA:          -9.244
REMARK INTER:                  -7.238
REMARK INTRA:                  -2.006
REMARK UNBOUND:                -1.719
REMARK SMILES CCCCCCCCCCCCCCCCCC(=O)[O-]
REMARK SMILES IDX 10 1 11 2 12 3 13 4 14 5 15 6 16 7 17 8 18 9 19 10 20 11
REMARK SMILES IDX 9 12 8 13 7 14 6 15 5 16 4 17 3 18 2 19 1 20
REMARK H PARENT
REMARK Flexibility Score: inf
ROOT
ATOM      1  C   UNL     1     -92.990 145.042 235.583  1.00  0.00     0.000 C 
ENDROOT
BRANCH   1   2
ATOM      2  C   UNL     1     -92.285 145.343 234.248  1.00  0.00     0.000 C 
BRANCH   2   3
ATOM      3  C   UNL     1     -91.944 146.833 234.084  1.00  0.00     0.000 C 
BRANCH   3   4
ATOM      4  C   UNL     1     -92.551 147.441 232.807  1.00  0.00     0.000 C 
BRANCH   4   5
ATOM      5  C   UNL     1     -94.023 147.863 233.005  1.00  0.00     0.000 C 
BRANCH   5   6
ATOM      6  C   UNL     1     -94.275 148.634 234.315  1.00  0.00     0.000 C 
BRANCH   6   7
ATOM      7  C   UNL     1     -95.380 148.044 235.206  1.00  0.00     0.006 C 
BRANCH   7   8
ATOM      8  C   UNL     1     -95.403 148.665 236.610  1.00  0.00     0.053 C 
BRANCH   8   9
ATOM      9  C   UNL     1     -96.767 149.193 236.923  1.00  0.00     0.041 C 
ATOM     10  O   UNL     1     -97.267 150.110 236.220  1.00  0.00    -0.550 OA
ATOM     11  O   UNL     1     -97.463 148.710 238.024  1.00  0.00    -0.550 OA
ENDBRANCH   8   9
ENDBRANCH   7   8
ENDBRANCH   6   7
ENDBRANCH   5   6
ENDBRANCH   4   5
ENDBRANCH   3   4
ENDBRANCH   2   3
ENDBRANCH   1   2
BRANCH   1  12
ATOM     12  C   UNL     1     -92.658 146.072 236.674  1.00  0.00     0.000 C 
BRANCH  12  13
ATOM     13  C   UNL     1     -91.559 145.581 237.634  1.00  0.00    -0.000 C 
BRANCH  13  14
ATOM     14  C   UNL     1     -91.826 145.985 239.093  1.00  0.00    -0.000 C 
BRANCH  14  15
ATOM     15  C   UNL     1     -93.151 146.745 239.267  1.00  0.00    -0.000 C 
BRANCH  15  16
ATOM     16  C   UNL     1     -93.988 146.133 240.400  1.00  0.00    -0.000 C 
BRANCH  16  17
ATOM     17  C   UNL     1     -94.906 147.159 241.084  1.00  0.00    -0.000 C 
BRANCH  17  18
ATOM     18  C   UNL     1     -94.864 148.537 240.399  1.00  0.00    -0.000 C 
BRANCH  18  19
ATOM     19  C   UNL     1     -95.757 149.571 241.103  1.00  0.00    -0.003 C 
ATOM     20  C   UNL     1     -96.956 148.938 241.809  1.00  0.00     0.004 C 
ENDBRANCH  18  19
ENDBRANCH  17  18
ENDBRANCH  16  17
ENDBRANCH  15  16
ENDBRANCH  14  15
ENDBRANCH  13  14
ENDBRANCH  12  13
ENDBRANCH   1  12
TORSDOF 16
ENDMDL
MODEL 4
REMARK VINA RESULT:    -3.885      3.035      5.957
REMARK INTER + INTRA:          -9.238
REMARK INTER:                  -7.593
REMARK INTRA:                  -1.645
REMARK UNBOUND:                -1.719
REMARK SMILES CCCCCCCCCCCCCCCCCC(=O)[O-]
REMARK SMILES IDX 10 1 11 2 12 3 13 4 14 5 15 6 16 7 17 8 18 9 19 10 20 11
REMARK SMILES IDX 9 12 8 13 7 14 6 15 5 16 4 17 3 18 2 19 1 20
REMARK H PARENT
REMARK Flexibility Score: inf
ROOT
ATOM      1  C   UNL     1     -93.047 145.897 235.192  1.00  0.00     0.000 C 
ENDROOT
BRANCH   1   2
ATOM      2  C   UNL     1     -92.238 146.757 234.205  1.00  0.00     0.000 C 
BRANCH   2   3
ATOM      3  C   UNL     1     -93.057 147.922 233.626  1.00  0.00     0.000 C 
BRANCH   3   4
ATOM      4  C   UNL     1     -94.484 147.501 233.228  1.00  0.00     0.000 C 
BRANCH   4   5
ATOM      5  C   UNL     1     -95.556 148.434 233.830  1.00  0.00     0.000 C 
BRANCH   5   6
ATOM      6  C   UNL     1     -94.973 149.588 234.668  1.00  0.00     0.000 C 
BRANCH   6   7
ATOM      7  C   UNL     1     -96.022 150.503 235.321  1.00  0.00     0.006 C 
BRANCH   7   8
ATOM      8  C   UNL     1     -95.756 151.991 235.058  1.00  0.00     0.053 C 
BRANCH   8   9
ATOM      9  C   UNL     1     -96.993 152.793 235.311  1.00  0.00     0.041 C 
ATOM     10  O   UNL     1     -98.127 152.254 235.219  1.00  0.00    -0.550 OA
ATOM     11  O   UNL     1     -96.895 154.149 235.596  1.00  0.00    -0.550 OA
ENDBRANCH   8   9
ENDBRANCH   7   8
ENDBRANCH   6   7
ENDBRANCH   5   6
ENDBRANCH   4   5
ENDBRANCH   3   4
ENDBRANCH   2   3
ENDBRANCH   1   2
BRANCH   1  12
ATOM     12  C   UNL     1     -92.286 145.621 236.499  1.00  0.00     0.000 C 
BRANCH  12  13
ATOM     13  C   UNL     1     -92.877 146.383 237.698  1.00  0.00    -0.000 C 
BRANCH  13  14
ATOM     14  C   UNL     1     -94.132 147.189 237.325  1.00  0.00    -0.000 C 
BRANCH  14  15
ATOM     15  C   UNL     1     -94.430 148.321 238.323  1.00  0.00    -0.000 C 
BRANCH  15  16
ATOM     16  C   UNL     1     -93.768 148.040 239.680  1.00  0.00    -0.000 C 
BRANCH  16  17
ATOM     17  C   UNL     1     -94.751 148.154 240.857  1.00  0.00    -0.000 C 
BRANCH  17  18
ATOM     18  C   UNL     1     -95.650 149.399 240.756  1.00  0.00    -0.000 C 
BRANCH  18  19
ATOM     19  C   UNL     1     -96.793 149.384 241.783  1.00  0.00    -0.003 C 
ATOM     20  C   UNL     1     -97.988 150.236 241.353  1.00  0.00     0.004 C 
ENDBRANCH  18  19
ENDBRANCH  17  18
ENDBRANCH  16  17
ENDBRANCH  15  16
ENDBRANCH  14  15
ENDBRANCH  13  14
ENDBRANCH  12  13
ENDBRANCH   1  12
TORSDOF 16
ENDMDL
MODEL 5
REMARK VINA RESULT:    -3.879      0.761      1.632
REMARK INTER + INTRA:          -9.227
REMARK INTER:                  -7.645
REMARK INTRA:                  -1.581
REMARK UNBOUND:                -1.719
REMARK SMILES CCCCCCCCCCCCCCCCCC(=O)[O-]
REMARK SMILES IDX 10 1 11 2 12 3 13 4 14 5 15 6 16 7 17 8 18 9 19 10 20 11
REMARK SMILES IDX 9 12 8 13 7 14 6 15 5 16 4 17 3 18 2 19 1 20
REMARK H PARENT
REMARK Flexibility Score: inf
ROOT
ATOM      1  C   UNL     1     -92.244 146.006 239.057  1.00  0.00     0.000 C 
ENDROOT
BRANCH   1   2
ATOM      2  C   UNL     1     -93.658 146.582 238.868  1.00  0.00     0.000 C 
BRANCH   2   3
ATOM      3  C   UNL     1     -93.748 148.068 239.248  1.00  0.00     0.000 C 
BRANCH   3   4
ATOM      4  C   UNL     1     -94.217 148.281 240.699  1.00  0.00     0.000 C 
BRANCH   4   5
ATOM      5  C   UNL     1     -95.442 149.216 240.784  1.00  0.00     0.000 C 
BRANCH   5   6
ATOM      6  C   UNL     1     -96.724 148.613 240.180  1.00  0.00     0.000 C 
BRANCH   6   7
ATOM      7  C   UNL     1     -98.034 149.206 240.726  1.00  0.00     0.006 C 
BRANCH   7   8
ATOM      8  C   UNL     1     -97.801 150.202 241.871  1.00  0.00     0.053 C 
BRANCH   8   9
ATOM      9  C   UNL     1     -98.196 149.592 243.179  1.00  0.00     0.041 C 
ATOM     10  O   UNL     1     -97.641 148.535 243.577  1.00  0.00    -0.550 OA
ATOM     11  O   UNL     1     -99.213 150.163 243.932  1.00  0.00    -0.550 OA
ENDBRANCH   8   9
ENDBRANCH   7   8
ENDBRANCH   6   7
ENDBRANCH   5   6
ENDBRANCH   4   5
ENDBRANCH   3   4
ENDBRANCH   2   3
ENDBRANCH   1   2
BRANCH   1  12
ATOM     12  C   UNL     1     -91.577 145.624 237.726  1.00  0.00     0.000 C 
BRANCH  12  13
ATOM     13  C   UNL     1     -92.436 146.003 236.506  1.00  0.00    -0.000 C 
BRANCH  13  14
ATOM     14  C   UNL     1     -92.470 144.896 235.440  1.00  0.00    -0.000 C 
BRANCH  14  15
ATOM     15  C   UNL     1     -92.025 145.391 234.054  1.00  0.00    -0.000 C 
BRANCH  15  16
ATOM     16  C   UNL     1     -92.030 146.926 233.996  1.00  0.00    -0.000 C 
BRANCH  16  17
ATOM     17  C   UNL     1     -93.161 147.485 233.118  1.00  0.00    -0.000 C 
BRANCH  17  18
ATOM     18  C   UNL     1     -94.067 148.470 233.877  1.00  0.00    -0.000 C 
BRANCH  18  19
ATOM     19  C   UNL     1     -95.166 147.759 234.682  1.00  0.00    -0.003 C 
ATOM     20  C   UNL     1     -95.412 148.402 236.047  1.00  0.00     0.004 C 
ENDBRANCH  18  19
ENDBRANCH  17  18
ENDBRANCH  16  17
ENDBRANCH  15  16
ENDBRANCH  14  15
ENDBRANCH  13  14
ENDBRANCH  12  13
ENDBRANCH   1  12
TORSDOF 16
ENDMDL
MODEL 6
REMARK VINA RESULT:    -3.872      3.801      5.994
REMARK INTER + INTRA:          -9.213
REMARK INTER:                  -7.782
REMARK INTRA:                  -1.432
REMARK UNBOUND:                -1.719
REMARK SMILES CCCCCCCCCCCCCCCCCC(=O)[O-]
REMARK SMILES IDX 10 1 11 2 12 3 13 4 14 5 15 6 16 7 17 8 18 9 19 10 20 11
REMARK SMILES IDX 9 12 8 13 7 14 6 15 5 16 4 17 3 18 2 19 1 20
REMARK H PARENT
REMARK Flexibility Score: inf
ROOT
ATOM      1  C   UNL     1     -93.843 146.865 234.394  1.00  0.00     0.000 C 
ENDROOT
BRANCH   1   2
ATOM      2  C   UNL     1     -93.771 148.183 233.602  1.00  0.00     0.000 C 
BRANCH   2   3
ATOM      3  C   UNL     1     -95.089 148.972 233.647  1.00  0.00     0.000 C 
BRANCH   3   4
ATOM      4  C   UNL     1     -95.631 149.138 235.078  1.00  0.00     0.000 C 
BRANCH   4   5
ATOM      5  C   UNL     1     -95.333 150.537 235.656  1.00  0.00     0.000 C 
BRANCH   5   6
ATOM      6  C   UNL     1     -95.690 151.691 234.701  1.00  0.00     0.000 C 
BRANCH   6   7
ATOM      7  C   UNL     1     -97.013 152.407 235.022  1.00  0.00     0.006 C 
BRANCH   7   8
ATOM      8  C   UNL     1     -96.799 153.794 235.645  1.00  0.00     0.053 C 
BRANCH   8   9
ATOM      9  C   UNL     1     -97.828 154.755 235.139  1.00  0.00     0.041 C 
ATOM     10  O   UNL     1     -98.634 155.299 235.939  1.00  0.00    -0.550 OA
ATOM     11  O   UNL     1     -97.932 155.009 233.777  1.00  0.00    -0.550 OA
ENDBRANCH   8   9
ENDBRANCH   7   8
ENDBRANCH   6   7
ENDBRANCH   5   6
ENDBRANCH   4   5
ENDBRANCH   3   4
ENDBRANCH   2   3
ENDBRANCH   1   2
BRANCH   1  12
ATOM     12  C   UNL     1     -92.461 146.375 234.856  1.00  0.00     0.000 C 
BRANCH  12  13
ATOM     13  C   UNL     1     -92.494 145.759 236.265  1.00  0.00    -0.000 C 
BRANCH  13  14
ATOM     14  C   UNL     1     -93.530 146.433 237.180  1.00  0.00    -0.000 C 
BRANCH  14  15
ATOM     15  C   UNL     1     -93.092 146.462 238.654  1.00  0.00    -0.000 C 
BRANCH  15  16
ATOM     16  C   UNL     1     -93.391 147.830 239.285  1.00  0.00    -0.000 C 
BRANCH  16  17
ATOM     17  C   UNL     1     -94.494 148.600 238.541  1.00  0.00    -0.000 C 
BRANCH  17  18
ATOM     18  C   UNL     1     -95.824 148.623 239.315  1.00  0.00    -0.000 C 
BRANCH  18  19
ATOM     19  C   UNL     1     -95.620 148.770 240.832  1.00  0.00    -0.003 C 
ATOM     20  C   UNL     1     -96.528 149.831 241.453  1.00  0.00     0.004 C 
ENDBRANCH  18  19
ENDBRANCH  17  18
ENDBRANCH  16  17
ENDBRANCH  15  16
ENDBRANCH  14  15
ENDBRANCH  13  14
ENDBRANCH  12  13
ENDBRANCH   1  12
TORSDOF 16
ENDMDL
MODEL 7
REMARK VINA RESULT:    -3.845      3.310      6.600
REMARK INTER + INTRA:          -9.160
REMARK INTER:                  -6.972
REMARK INTRA:                  -2.189
REMARK UNBOUND:                -1.719
REMARK SMILES CCCCCCCCCCCCCCCCCC(=O)[O-]
REMARK SMILES IDX 10 1 11 2 12 3 13 4 14 5 15 6 16 7 17 8 18 9 19 10 20 11
REMARK SMILES IDX 9 12 8 13 7 14 6 15 5 16 4 17 3 18 2 19 1 20
REMARK H PARENT
REMARK Flexibility Score: inf
ROOT
ATOM      1  C   UNL     1     -93.694 145.622 240.362  1.00  0.00     0.000 C 
ENDROOT
BRANCH   1   2
ATOM      2  C   UNL     1     -92.661 146.029 239.296  1.00  0.00     0.000 C 
BRANCH   2   3
ATOM      3  C   UNL     1     -93.285 146.829 238.142  1.00  0.00     0.000 C 
BRANCH   3   4
ATOM      4  C   UNL     1     -94.489 146.110 237.508  1.00  0.00     0.000 C 
BRANCH   4   5
ATOM      5  C   UNL     1     -95.498 147.099 236.886  1.00  0.00     0.000 C 
BRANCH   5   6
ATOM      6  C   UNL     1     -94.988 148.552 236.834  1.00  0.00     0.000 C 
BRANCH   6   7
ATOM      7  C   UNL     1     -96.032 149.585 236.378  1.00  0.00     0.006 C 
BRANCH   7   8
ATOM      8  C   UNL     1     -95.460 150.607 235.387  1.00  0.00     0.053 C 
BRANCH   8   9
ATOM      9  C   UNL     1     -96.538 151.526 234.906  1.00  0.00     0.041 C 
ATOM     10  O   UNL     1     -97.696 151.454 235.396  1.00  0.00    -0.550 OA
ATOM     11  O   UNL     1     -96.279 152.425 233.880  1.00  0.00    -0.550 OA
ENDBRANCH   8   9
ENDBRANCH   7   8
ENDBRANCH   6   7
ENDBRANCH   5   6
ENDBRANCH   4   5
ENDBRANCH   3   4
ENDBRANCH   2   3
ENDBRANCH   1   2
BRANCH   1  12
ATOM     12  C   UNL     1     -94.252 146.828 241.136  1.00  0.00     0.000 C 
BRANCH  12  13
ATOM     13  C   UNL     1     -95.765 146.716 241.391  1.00  0.00    -0.000 C 
BRANCH  13  14
ATOM     14  C   UNL     1     -96.596 147.521 240.378  1.00  0.00    -0.000 C 
BRANCH  14  15
ATOM     15  C   UNL     1     -96.095 148.965 240.212  1.00  0.00    -0.000 C 
BRANCH  15  16
ATOM     16  C   UNL     1     -96.446 149.809 241.446  1.00  0.00    -0.000 C 
BRANCH  16  17
ATOM     17  C   UNL     1     -97.896 150.322 241.424  1.00  0.00    -0.000 C 
BRANCH  17  18
ATOM     18  C   UNL     1     -98.793 149.598 242.443  1.00  0.00    -0.000 C 
BRANCH  18  19
ATOM     19  C   UNL     1     -98.060 149.286 243.756  1.00  0.00    -0.003 C 
ATOM     20  C   UNL     1     -98.070 147.797 244.102  1.00  0.00     0.004 C 
ENDBRANCH  18  19
ENDBRANCH  17  18
ENDBRANCH  16  17
ENDBRANCH  15  16
ENDBRANCH  14  15
ENDBRANCH  13  14
ENDBRANCH  12  13
ENDBRANCH   1  12
TORSDOF 16
ENDMDL
MODEL 8
REMARK VINA RESULT:    -3.798      2.437      3.756
REMARK INTER + INTRA:          -9.069
REMARK INTER:                  -6.345
REMARK INTRA:                  -2.724
REMARK UNBOUND:                -1.719
REMARK SMILES CCCCCCCCCCCCCCCCCC(=O)[O-]
REMARK SMILES IDX 10 1 11 2 12 3 13 4 14 5 15 6 16 7 17 8 18 9 19 10 20 11
REMARK SMILES IDX 9 12 8 13 7 14 6 15 5 16 4 17 3 18 2 19 1 20
REMARK H PARENT
REMARK Flexibility Score: inf
ROOT
ATOM      1  C   UNL     1     -94.541 146.756 241.208  1.00  0.00     0.000 C 
ENDROOT
BRANCH   1   2
ATOM      2  C   UNL     1     -96.055 146.483 241.194  1.00  0.00     0.000 C 
BRANCH   2   3
ATOM      3  C   UNL     1     -96.873 147.705 240.748  1.00  0.00     0.000 C 
BRANCH   3   4
ATOM      4  C   UNL     1     -96.100 149.026 240.915  1.00  0.00     0.000 C 
BRANCH   4   5
ATOM      5  C   UNL     1     -97.004 150.170 241.422  1.00  0.00     0.000 C 
BRANCH   5   6
ATOM      6  C   UNL     1     -98.394 149.699 241.891  1.00  0.00     0.000 C 
BRANCH   6   7
ATOM      7  C   UNL     1     -98.644 149.834 243.402  1.00  0.00     0.006 C 
BRANCH   7   8
ATOM      8  C   UNL     1     -97.993 148.705 244.213  1.00  0.00     0.053 C 
BRANCH   8   9
ATOM      9  C   UNL     1     -98.777 147.439 244.064  1.00  0.00     0.041 C 
ATOM     10  O   UNL     1    -100.035 147.473 244.043  1.00  0.00    -0.550 OA
ATOM     11  O   UNL     1     -98.119 146.218 244.004  1.00  0.00    -0.550 OA
ENDBRANCH   8   9
ENDBRANCH   7   8
ENDBRANCH   6   7
ENDBRANCH   5   6
ENDBRANCH   4   5
ENDBRANCH   3   4
ENDBRANCH   2   3
ENDBRANCH   1   2
BRANCH   1  12
ATOM     12  C   UNL     1     -93.741 145.701 240.427  1.00  0.00     0.000 C 
BRANCH  12  13
ATOM     13  C   UNL     1     -92.911 146.317 239.286  1.00  0.00    -0.000 C 
BRANCH  13  14
ATOM     14  C   UNL     1     -93.495 147.647 238.783  1.00  0.00    -0.000 C 
BRANCH  14  15
ATOM     15  C   UNL     1     -94.362 147.478 237.524  1.00  0.00    -0.000 C 
BRANCH  15  16
ATOM     16  C   UNL     1     -95.236 148.721 237.293  1.00  0.00    -0.000 C 
BRANCH  16  17
ATOM     17  C   UNL     1     -96.730 148.382 237.168  1.00  0.00    -0.000 C 
BRANCH  17  18
ATOM     18  C   UNL     1     -97.622 149.636 237.174  1.00  0.00    -0.000 C 
BRANCH  18  19
ATOM     19  C   UNL     1     -98.856 149.477 238.077  1.00  0.00    -0.003 C 
ATOM     20  C   UNL     1     -99.418 150.816 238.554  1.00  0.00     0.004 C 
ENDBRANCH  18  19
ENDBRANCH  17  18
ENDBRANCH  16  17
ENDBRANCH  15  16
ENDBRANCH  14  15
ENDBRANCH  13  14
ENDBRANCH  12  13
ENDBRANCH   1  12
TORSDOF 16
ENDMDL
MODEL 9
REMARK VINA RESULT:    -3.793      3.256      7.173
REMARK INTER + INTRA:          -9.060
REMARK INTER:                  -6.916
REMARK INTRA:                  -2.144
REMARK UNBOUND:                -1.719
REMARK SMILES CCCCCCCCCCCCCCCCCC(=O)[O-]
REMARK SMILES IDX 10 1 11 2 12 3 13 4 14 5 15 6 16 7 17 8 18 9 19 10 20 11
REMARK SMILES IDX 9 12 8 13 7 14 6 15 5 16 4 17 3 18 2 19 1 20
REMARK H PARENT
REMARK Flexibility Score: inf
ROOT
ATOM      1  C   UNL     1     -94.594 146.609 241.016  1.00  0.00     0.000 C 
ENDROOT
BRANCH   1   2
ATOM      2  C   UNL     1     -93.553 145.824 240.199  1.00  0.00     0.000 C 
BRANCH   2   3
ATOM      3  C   UNL     1     -92.751 146.723 239.244  1.00  0.00     0.000 C 
BRANCH   3   4
ATOM      4  C   UNL     1     -92.357 146.001 237.943  1.00  0.00     0.000 C 
BRANCH   4   5
ATOM      5  C   UNL     1     -93.184 146.487 236.733  1.00  0.00     0.000 C 
BRANCH   5   6
ATOM      6  C   UNL     1     -94.663 146.057 236.781  1.00  0.00     0.000 C 
BRANCH   6   7
ATOM      7  C   UNL     1     -95.656 147.199 237.053  1.00  0.00     0.006 C 
BRANCH   7   8
ATOM      8  C   UNL     1     -95.014 148.587 236.924  1.00  0.00     0.053 C 
BRANCH   8   9
ATOM      9  C   UNL     1     -95.486 149.264 235.676  1.00  0.00     0.041 C 
ATOM     10  O   UNL     1     -95.383 150.513 235.556  1.00  0.00    -0.550 OA
ATOM     11  O   UNL     1     -96.089 148.522 234.668  1.00  0.00    -0.550 OA
ENDBRANCH   8   9
ENDBRANCH   7   8
ENDBRANCH   6   7
ENDBRANCH   5   6
ENDBRANCH   4   5
ENDBRANCH   3   4
ENDBRANCH   2   3
ENDBRANCH   1   2
BRANCH   1  12
ATOM     12  C   UNL     1     -94.580 148.114 240.703  1.00  0.00     0.000 C 
BRANCH  12  13
ATOM     13  C   UNL     1     -95.991 148.681 240.470  1.00  0.00    -0.000 C 
BRANCH  13  14
ATOM     14  C   UNL     1     -96.374 149.755 241.502  1.00  0.00    -0.000 C 
BRANCH  14  15
ATOM     15  C   UNL     1     -97.876 150.085 241.487  1.00  0.00    -0.000 C 
BRANCH  15  16
ATOM     16  C   UNL     1     -98.468 149.999 242.902  1.00  0.00    -0.000 C 
BRANCH  16  17
ATOM     17  C   UNL     1     -97.973 148.769 243.680  1.00  0.00    -0.000 C 
BRANCH  17  18
ATOM     18  C   UNL     1     -98.641 147.465 243.210  1.00  0.00    -0.000 C 
BRANCH  18  19
ATOM     19  C   UNL     1     -97.628 146.328 242.997  1.00  0.00    -0.003 C 
ATOM     20  C   UNL     1     -97.164 145.695 244.309  1.00  0.00     0.004 C 
ENDBRANCH  18  19
ENDBRANCH  17  18
ENDBRANCH  16  17
ENDBRANCH  15  16
ENDBRANCH  14  15
ENDBRANCH  13  14
ENDBRANCH  12  13
ENDBRANCH   1  12
TORSDOF 16
ENDMDL
