MODEL 1
REMARK VINA RESULT:    -6.614      0.000      0.000
REMARK INTER + INTRA:         -11.339
REMARK INTER:                  -9.708
REMARK INTRA:                  -1.631
REMARK UNBOUND:                -1.631
REMARK SMILES O=c1c(O[C@@H]2O[C@H](CO)[C@H](O)[C@H](O)[C@H]2O)c(-c2ccc(O)c(O)c2)oc2cc(O)cc(O)c12
REMARK SMILES IDX 4 1 3 2 16 3 25 4 2 5 26 6 1 7 33 8 27 9 31 10 28 11 30 12
REMARK SMILES IDX 17 13 18 14 19 15 20 16 24 17 22 18 21 19 23 21 32 23 29 25
REMARK SMILES IDX 5 27 14 28 6 29 12 30 7 31 10 32 15 33 13 35 8 37 9 38 11 40
REMARK H PARENT 21 20 23 22 32 24 29 26 15 34 13 36 9 39 11 41
REMARK Flexibility Score: inf
ROOT
ATOM      1  O   UNL     1     -37.894   5.101  82.060  1.00  0.00    -0.454 OA
ENDROOT
BRANCH   1   2
ATOM      2  C   UNL     1     -38.649   4.701  80.947  1.00  0.00     0.214 A 
ATOM      3  C   UNL     1     -38.097   4.681  79.648  1.00  0.00     0.180 A 
ATOM      4  O   UNL     1     -38.822   4.219  78.633  1.00  0.00    -0.452 OA
ATOM      5  C   UNL     1     -39.979   4.302  81.123  1.00  0.00     0.239 A 
ATOM      6  C   UNL     1     -40.072   3.789  78.764  1.00  0.00     0.146 A 
ATOM      7  O   UNL     1     -40.496   4.371  82.272  1.00  0.00    -0.285 OA
ATOM      8  C   UNL     1     -40.715   3.816  80.024  1.00  0.00     0.111 A 
ATOM      9  C   UNL     1     -40.749   3.310  77.640  1.00  0.00     0.094 A 
ATOM     10  C   UNL     1     -42.046   3.347  80.130  1.00  0.00     0.134 A 
ATOM     11  C   UNL     1     -42.062   2.848  77.748  1.00  0.00     0.123 A 
ATOM     12  C   UNL     1     -42.707   2.865  78.990  1.00  0.00     0.093 A 
BRANCH   3  13
ATOM     13  C   UNL     1     -36.718   5.142  79.361  1.00  0.00     0.025 A 
ATOM     14  C   UNL     1     -35.633   4.314  79.691  1.00  0.00     0.016 A 
ATOM     15  C   UNL     1     -34.322   4.737  79.461  1.00  0.00     0.051 A 
ATOM     16  C   UNL     1     -34.075   5.985  78.884  1.00  0.00     0.157 A 
ATOM     17  C   UNL     1     -36.467   6.386  78.756  1.00  0.00     0.062 A 
ATOM     18  C   UNL     1     -35.152   6.813  78.522  1.00  0.00     0.158 A 
BRANCH  16  19
ATOM     19  O   UNL     1     -32.756   6.384  78.670  1.00  0.00    -0.504 OA
ATOM     20  H   UNL     1     -32.479   7.359  78.680  1.00  0.00     0.293 HD
ENDBRANCH  16  19
BRANCH  18  21
ATOM     21  O   UNL     1     -34.912   8.052  77.931  1.00  0.00    -0.504 OA
ATOM     22  H   UNL     1     -34.170   8.185  77.255  1.00  0.00     0.293 HD
ENDBRANCH  18  21
ENDBRANCH   3  13
BRANCH  10  23
ATOM     23  O   UNL     1     -42.714   3.353  81.355  1.00  0.00    -0.507 OA
ATOM     24  H   UNL     1     -42.733   4.176  81.948  1.00  0.00     0.293 HD
ENDBRANCH  10  23
BRANCH  11  25
ATOM     25  O   UNL     1     -42.719   2.373  76.613  1.00  0.00    -0.508 OA
ATOM     26  H   UNL     1     -43.730   2.343  76.561  1.00  0.00     0.293 HD
ENDBRANCH  11  25
ENDBRANCH   1   2
BRANCH   1  27
ATOM     27  C   UNL     1     -37.441   6.444  82.258  1.00  0.00     0.339 C 
ATOM     28  C   UNL     1     -38.112   7.055  83.508  1.00  0.00     0.214 C 
ATOM     29  O   UNL     1     -36.034   6.454  82.408  1.00  0.00    -0.332 OA
ATOM     30  C   UNL     1     -37.602   8.492  83.802  1.00  0.00     0.180 C 
ATOM     31  C   UNL     1     -35.471   7.758  82.528  1.00  0.00     0.179 C 
ATOM     32  C   UNL     1     -36.490   8.913  82.822  1.00  0.00     0.177 C 
BRANCH  28  33
ATOM     33  O   UNL     1     -39.512   7.038  83.383  1.00  0.00    -0.384 OA
ATOM     34  H   UNL     1     -39.741   7.446  82.507  1.00  0.00     0.211 HD
ENDBRANCH  28  33
BRANCH  30  35
ATOM     35  O   UNL     1     -37.137   8.584  85.125  1.00  0.00    -0.387 OA
ATOM     36  H   UNL     1     -37.918   8.419  85.715  1.00  0.00     0.211 HD
ENDBRANCH  30  35
BRANCH  31  37
ATOM     37  C   UNL     1     -34.328   7.676  83.557  1.00  0.00     0.191 C 
BRANCH  37  38
ATOM     38  O   UNL     1     -34.688   6.838  84.621  1.00  0.00    -0.394 OA
ATOM     39  H   UNL     1     -35.558   6.429  84.369  1.00  0.00     0.210 HD
ENDBRANCH  37  38
ENDBRANCH  31  37
BRANCH  32  40
ATOM     40  O   UNL     1     -35.851  10.074  83.289  1.00  0.00    -0.387 OA
ATOM     41  H   UNL     1     -36.550  10.635  83.717  1.00  0.00     0.211 HD
ENDBRANCH  32  40
ENDBRANCH   1  27
TORSDOF 12
ENDMDL
MODEL 2
REMARK VINA RESULT:    -6.505      0.974      2.040
REMARK INTER + INTRA:         -11.179
REMARK INTER:                  -9.863
REMARK INTRA:                  -1.315
REMARK UNBOUND:                -1.631
REMARK SMILES O=c1c(O[C@@H]2O[C@H](CO)[C@H](O)[C@H](O)[C@H]2O)c(-c2ccc(O)c(O)c2)oc2cc(O)cc(O)c12
REMARK SMILES IDX 4 1 3 2 16 3 25 4 2 5 26 6 1 7 33 8 27 9 31 10 28 11 30 12
REMARK SMILES IDX 17 13 18 14 19 15 20 16 24 17 22 18 21 19 23 21 32 23 29 25
REMARK SMILES IDX 5 27 14 28 6 29 12 30 7 31 10 32 15 33 13 35 8 37 9 38 11 40
REMARK H PARENT 21 20 23 22 32 24 29 26 15 34 13 36 9 39 11 41
REMARK Flexibility Score: inf
ROOT
ATOM      1  O   UNL     1     -37.591   4.835  82.144  1.00  0.00    -0.454 OA
ENDROOT
BRANCH   1   2
ATOM      2  C   UNL     1     -38.401   4.537  81.038  1.00  0.00     0.214 A 
ATOM      3  C   UNL     1     -37.927   4.674  79.715  1.00  0.00     0.180 A 
ATOM      4  O   UNL     1     -38.701   4.304  78.698  1.00  0.00    -0.452 OA
ATOM      5  C   UNL     1     -39.709   4.082  81.244  1.00  0.00     0.239 A 
ATOM      6  C   UNL     1     -39.931   3.826  78.852  1.00  0.00     0.146 A 
ATOM      7  O   UNL     1     -40.158   4.012  82.421  1.00  0.00    -0.285 OA
ATOM      8  C   UNL     1     -40.498   3.698  80.141  1.00  0.00     0.111 A 
ATOM      9  C   UNL     1     -40.662   3.452  77.721  1.00  0.00     0.094 A 
ATOM     10  C   UNL     1     -41.809   3.181  80.270  1.00  0.00     0.134 A 
ATOM     11  C   UNL     1     -41.956   2.944  77.852  1.00  0.00     0.123 A 
ATOM     12  C   UNL     1     -42.525   2.807  79.124  1.00  0.00     0.093 A 
BRANCH   3  13
ATOM     13  C   UNL     1     -36.578   5.203  79.404  1.00  0.00     0.025 A 
ATOM     14  C   UNL     1     -35.448   4.432  79.716  1.00  0.00     0.016 A 
ATOM     15  C   UNL     1     -34.164   4.919  79.462  1.00  0.00     0.051 A 
ATOM     16  C   UNL     1     -33.990   6.177  78.878  1.00  0.00     0.157 A 
ATOM     17  C   UNL     1     -36.401   6.456  78.791  1.00  0.00     0.062 A 
ATOM     18  C   UNL     1     -35.113   6.949  78.534  1.00  0.00     0.158 A 
BRANCH  16  19
ATOM     19  O   UNL     1     -32.697   6.641  78.641  1.00  0.00    -0.504 OA
ATOM     20  H   UNL     1     -31.907   6.352  79.207  1.00  0.00     0.293 HD
ENDBRANCH  16  19
BRANCH  18  21
ATOM     21  O   UNL     1     -34.947   8.196  77.936  1.00  0.00    -0.504 OA
ATOM     22  H   UNL     1     -35.465   9.008  78.247  1.00  0.00     0.293 HD
ENDBRANCH  18  21
ENDBRANCH   3  13
BRANCH  10  23
ATOM     23  O   UNL     1     -42.403   3.035  81.524  1.00  0.00    -0.507 OA
ATOM     24  H   UNL     1     -43.247   2.488  81.655  1.00  0.00     0.293 HD
ENDBRANCH  10  23
BRANCH  11  25
ATOM     25  O   UNL     1     -42.668   2.576  76.711  1.00  0.00    -0.508 OA
ATOM     26  H   UNL     1     -43.356   3.191  76.296  1.00  0.00     0.293 HD
ENDBRANCH  11  25
ENDBRANCH   1   2
BRANCH   1  27
ATOM     27  C   UNL     1     -37.635   6.089  82.832  1.00  0.00     0.339 C 
ATOM     28  C   UNL     1     -36.296   6.839  82.663  1.00  0.00     0.214 C 
ATOM     29  O   UNL     1     -38.698   6.873  82.325  1.00  0.00    -0.332 OA
ATOM     30  C   UNL     1     -36.318   8.236  83.339  1.00  0.00     0.180 C 
ATOM     31  C   UNL     1     -38.882   8.114  83.003  1.00  0.00     0.179 C 
ATOM     32  C   UNL     1     -37.702   8.559  83.935  1.00  0.00     0.177 C 
BRANCH  28  33
ATOM     33  O   UNL     1     -35.225   6.067  83.147  1.00  0.00    -0.384 OA
ATOM     34  H   UNL     1     -34.678   5.786  82.366  1.00  0.00     0.211 HD
ENDBRANCH  28  33
BRANCH  30  35
ATOM     35  O   UNL     1     -35.947   9.230  82.418  1.00  0.00    -0.387 OA
ATOM     36  H   UNL     1     -35.998   8.819  81.516  1.00  0.00     0.211 HD
ENDBRANCH  30  35
BRANCH  31  37
ATOM     37  C   UNL     1     -39.255   9.169  81.945  1.00  0.00     0.191 C 
BRANCH  37  38
ATOM     38  O   UNL     1     -40.121  10.125  82.494  1.00  0.00    -0.394 OA
ATOM     39  H   UNL     1     -39.685  10.447  83.326  1.00  0.00     0.210 HD
ENDBRANCH  37  38
ENDBRANCH  31  37
BRANCH  32  40
ATOM     40  O   UNL     1     -37.777   9.922  84.266  1.00  0.00    -0.387 OA
ATOM     41  H   UNL     1     -37.469  10.007  85.207  1.00  0.00     0.211 HD
ENDBRANCH  32  40
ENDBRANCH   1  27
TORSDOF 12
ENDMDL
MODEL 3
REMARK VINA RESULT:    -6.423      1.733      2.662
REMARK INTER + INTRA:         -11.058
REMARK INTER:                 -10.011
REMARK INTRA:                  -1.047
REMARK UNBOUND:                -1.631
REMARK SMILES O=c1c(O[C@@H]2O[C@H](CO)[C@H](O)[C@H](O)[C@H]2O)c(-c2ccc(O)c(O)c2)oc2cc(O)cc(O)c12
REMARK SMILES IDX 4 1 3 2 16 3 25 4 2 5 26 6 1 7 33 8 27 9 31 10 28 11 30 12
REMARK SMILES IDX 17 13 18 14 19 15 20 16 24 17 22 18 21 19 23 21 32 23 29 25
REMARK SMILES IDX 5 27 14 28 6 29 12 30 7 31 10 32 15 33 13 35 8 37 9 38 11 40
REMARK H PARENT 21 20 23 22 32 24 29 26 15 34 13 36 9 39 11 41
REMARK Flexibility Score: inf
ROOT
ATOM      1  O   UNL     1     -38.355   5.983  81.310  1.00  0.00    -0.454 OA
ENDROOT
BRANCH   1   2
ATOM      2  C   UNL     1     -39.137   5.354  80.329  1.00  0.00     0.214 A 
ATOM      3  C   UNL     1     -38.734   5.315  78.976  1.00  0.00     0.180 A 
ATOM      4  O   UNL     1     -39.465   4.640  78.093  1.00  0.00    -0.452 OA
ATOM      5  C   UNL     1     -40.341   4.741  80.695  1.00  0.00     0.239 A 
ATOM      6  C   UNL     1     -40.590   4.007  78.407  1.00  0.00     0.146 A 
ATOM      7  O   UNL     1     -40.734   4.821  81.891  1.00  0.00    -0.285 OA
ATOM      8  C   UNL     1     -41.087   4.034  79.731  1.00  0.00     0.111 A 
ATOM      9  C   UNL     1     -41.282   3.314  77.410  1.00  0.00     0.094 A 
ATOM     10  C   UNL     1     -42.286   3.345  80.033  1.00  0.00     0.134 A 
ATOM     11  C   UNL     1     -42.465   2.636  77.710  1.00  0.00     0.123 A 
ATOM     12  C   UNL     1     -42.963   2.650  79.019  1.00  0.00     0.093 A 
BRANCH   3  13
ATOM     13  C   UNL     1     -37.506   5.988  78.491  1.00  0.00     0.025 A 
ATOM     14  C   UNL     1     -36.304   5.265  78.432  1.00  0.00     0.016 A 
ATOM     15  C   UNL     1     -35.125   5.883  78.008  1.00  0.00     0.051 A 
ATOM     16  C   UNL     1     -35.132   7.226  77.623  1.00  0.00     0.157 A 
ATOM     17  C   UNL     1     -37.516   7.331  78.077  1.00  0.00     0.062 A 
ATOM     18  C   UNL     1     -36.334   7.954  77.650  1.00  0.00     0.158 A 
BRANCH  16  19
ATOM     19  O   UNL     1     -33.939   7.819  77.209  1.00  0.00    -0.504 OA
ATOM     20  H   UNL     1     -33.034   7.457  77.484  1.00  0.00     0.293 HD
ENDBRANCH  16  19
BRANCH  18  21
ATOM     21  O   UNL     1     -36.351   9.289  77.250  1.00  0.00    -0.504 OA
ATOM     22  H   UNL     1     -36.090  10.037  77.881  1.00  0.00     0.293 HD
ENDBRANCH  18  21
ENDBRANCH   3  13
BRANCH  10  23
ATOM     23  O   UNL     1     -42.807   3.343  81.327  1.00  0.00    -0.507 OA
ATOM     24  H   UNL     1     -42.376   3.874  82.076  1.00  0.00     0.293 HD
ENDBRANCH  10  23
BRANCH  11  25
ATOM     25  O   UNL     1     -43.139   1.950  76.701  1.00  0.00    -0.508 OA
ATOM     26  H   UNL     1     -43.913   2.370  76.201  1.00  0.00     0.293 HD
ENDBRANCH  11  25
ENDBRANCH   1   2
BRANCH   1  27
ATOM     27  C   UNL     1     -37.152   5.414  81.836  1.00  0.00     0.339 C 
ATOM     28  C   UNL     1     -36.479   6.400  82.816  1.00  0.00     0.214 C 
ATOM     29  O   UNL     1     -37.449   4.199  82.498  1.00  0.00    -0.332 OA
ATOM     30  C   UNL     1     -35.202   5.801  83.464  1.00  0.00     0.180 C 
ATOM     31  C   UNL     1     -36.304   3.507  82.989  1.00  0.00     0.179 C 
ATOM     32  C   UNL     1     -34.975   4.340  83.031  1.00  0.00     0.177 C 
BRANCH  28  33
ATOM     33  O   UNL     1     -36.191   7.620  82.179  1.00  0.00    -0.384 OA
ATOM     34  H   UNL     1     -35.683   7.414  81.350  1.00  0.00     0.211 HD
ENDBRANCH  28  33
BRANCH  30  35
ATOM     35  O   UNL     1     -35.281   5.881  84.865  1.00  0.00    -0.387 OA
ATOM     36  H   UNL     1     -34.856   6.740  85.127  1.00  0.00     0.211 HD
ENDBRANCH  30  35
BRANCH  31  37
ATOM     37  C   UNL     1     -36.681   2.891  84.348  1.00  0.00     0.191 C 
BRANCH  37  38
ATOM     38  O   UNL     1     -37.611   1.856  84.174  1.00  0.00    -0.394 OA
ATOM     39  H   UNL     1     -38.313   2.215  83.570  1.00  0.00     0.210 HD
ENDBRANCH  37  38
ENDBRANCH  31  37
BRANCH  32  40
ATOM     40  O   UNL     1     -34.004   3.740  83.850  1.00  0.00    -0.387 OA
ATOM     41  H   UNL     1     -34.197   4.026  84.782  1.00  0.00     0.211 HD
ENDBRANCH  32  40
ENDBRANCH   1  27
TORSDOF 12
ENDMDL
MODEL 4
REMARK VINA RESULT:    -6.173      3.046      5.037
REMARK INTER + INTRA:         -10.691
REMARK INTER:                  -9.263
REMARK INTRA:                  -1.428
REMARK UNBOUND:                -1.631
REMARK SMILES O=c1c(O[C@@H]2O[C@H](CO)[C@H](O)[C@H](O)[C@H]2O)c(-c2ccc(O)c(O)c2)oc2cc(O)cc(O)c12
REMARK SMILES IDX 4 1 3 2 16 3 25 4 2 5 26 6 1 7 33 8 27 9 31 10 28 11 30 12
REMARK SMILES IDX 17 13 18 14 19 15 20 16 24 17 22 18 21 19 23 21 32 23 29 25
REMARK SMILES IDX 5 27 14 28 6 29 12 30 7 31 10 32 15 33 13 35 8 37 9 38 11 40
REMARK H PARENT 21 20 23 22 32 24 29 26 15 34 13 36 9 39 11 41
REMARK Flexibility Score: inf
ROOT
ATOM      1  O   UNL     1     -36.998   5.209  79.009  1.00  0.00    -0.454 OA
ENDROOT
BRANCH   1   2
ATOM      2  C   UNL     1     -38.124   4.882  79.778  1.00  0.00     0.214 A 
ATOM      3  C   UNL     1     -39.380   5.484  79.544  1.00  0.00     0.180 A 
ATOM      4  O   UNL     1     -40.440   5.088  80.243  1.00  0.00    -0.452 OA
ATOM      5  C   UNL     1     -38.011   3.930  80.798  1.00  0.00     0.239 A 
ATOM      6  C   UNL     1     -40.384   4.156  81.188  1.00  0.00     0.146 A 
ATOM      7  O   UNL     1     -36.881   3.430  81.050  1.00  0.00    -0.285 OA
ATOM      8  C   UNL     1     -39.157   3.533  81.516  1.00  0.00     0.111 A 
ATOM      9  C   UNL     1     -41.556   3.797  81.860  1.00  0.00     0.094 A 
ATOM     10  C   UNL     1     -39.133   2.541  82.524  1.00  0.00     0.134 A 
ATOM     11  C   UNL     1     -41.529   2.818  82.856  1.00  0.00     0.123 A 
ATOM     12  C   UNL     1     -40.321   2.191  83.184  1.00  0.00     0.093 A 
BRANCH   3  13
ATOM     13  C   UNL     1     -39.578   6.543  78.526  1.00  0.00     0.025 A 
ATOM     14  C   UNL     1     -39.263   6.276  77.185  1.00  0.00     0.016 A 
ATOM     15  C   UNL     1     -39.410   7.265  76.210  1.00  0.00     0.051 A 
ATOM     16  C   UNL     1     -39.888   8.531  76.557  1.00  0.00     0.157 A 
ATOM     17  C   UNL     1     -40.085   7.810  78.868  1.00  0.00     0.062 A 
ATOM     18  C   UNL     1     -40.234   8.805  77.892  1.00  0.00     0.158 A 
BRANCH  16  19
ATOM     19  O   UNL     1     -40.020   9.502  75.565  1.00  0.00    -0.504 OA
ATOM     20  H   UNL     1     -39.776  10.473  75.724  1.00  0.00     0.293 HD
ENDBRANCH  16  19
BRANCH  18  21
ATOM     21  O   UNL     1     -40.728  10.061  78.241  1.00  0.00    -0.504 OA
ATOM     22  H   UNL     1     -40.290  10.914  77.917  1.00  0.00     0.293 HD
ENDBRANCH  18  21
ENDBRANCH   3  13
BRANCH  10  23
ATOM     23  O   UNL     1     -37.944   1.901  82.874  1.00  0.00    -0.507 OA
ATOM     24  H   UNL     1     -37.709   1.703  83.840  1.00  0.00     0.293 HD
ENDBRANCH  10  23
BRANCH  11  25
ATOM     25  O   UNL     1     -42.710   2.475  83.513  1.00  0.00    -0.508 OA
ATOM     26  H   UNL     1     -42.736   1.730  84.198  1.00  0.00     0.293 HD
ENDBRANCH  11  25
ENDBRANCH   1   2
BRANCH   1  27
ATOM     27  C   UNL     1     -36.043   6.201  79.399  1.00  0.00     0.339 C 
ATOM     28  C   UNL     1     -34.612   5.624  79.321  1.00  0.00     0.214 C 
ATOM     29  O   UNL     1     -36.158   7.331  78.556  1.00  0.00    -0.332 OA
ATOM     30  C   UNL     1     -33.535   6.685  79.674  1.00  0.00     0.180 C 
ATOM     31  C   UNL     1     -35.304   8.414  78.914  1.00  0.00     0.179 C 
ATOM     32  C   UNL     1     -34.160   8.070  79.929  1.00  0.00     0.177 C 
BRANCH  28  33
ATOM     33  O   UNL     1     -34.484   4.490  80.142  1.00  0.00    -0.384 OA
ATOM     34  H   UNL     1     -34.999   3.753  79.719  1.00  0.00     0.211 HD
ENDBRANCH  28  33
BRANCH  30  35
ATOM     35  O   UNL     1     -32.579   6.770  78.647  1.00  0.00    -0.387 OA
ATOM     36  H   UNL     1     -32.996   6.382  77.834  1.00  0.00     0.211 HD
ENDBRANCH  30  35
BRANCH  31  37
ATOM     37  C   UNL     1     -34.791   9.051  77.609  1.00  0.00     0.191 C 
BRANCH  37  38
ATOM     38  O   UNL     1     -34.078   8.110  76.854  1.00  0.00    -0.394 OA
ATOM     39  H   UNL     1     -34.406   8.199  75.921  1.00  0.00     0.210 HD
ENDBRANCH  37  38
ENDBRANCH  31  37
BRANCH  32  40
ATOM     40  O   UNL     1     -33.158   9.054  79.948  1.00  0.00    -0.387 OA
ATOM     41  H   UNL     1     -32.624   8.938  79.118  1.00  0.00     0.211 HD
ENDBRANCH  32  40
ENDBRANCH   1  27
TORSDOF 12
ENDMDL
MODEL 5
REMARK VINA RESULT:    -6.106      2.408      6.965
REMARK INTER + INTRA:         -10.593
REMARK INTER:                  -9.181
REMARK INTRA:                  -1.412
REMARK UNBOUND:                -1.631
REMARK SMILES O=c1c(O[C@@H]2O[C@H](CO)[C@H](O)[C@H](O)[C@H]2O)c(-c2ccc(O)c(O)c2)oc2cc(O)cc(O)c12
REMARK SMILES IDX 4 1 3 2 16 3 25 4 2 5 26 6 1 7 33 8 27 9 31 10 28 11 30 12
REMARK SMILES IDX 17 13 18 14 19 15 20 16 24 17 22 18 21 19 23 21 32 23 29 25
REMARK SMILES IDX 5 27 14 28 6 29 12 30 7 31 10 32 15 33 13 35 8 37 9 38 11 40
REMARK H PARENT 21 20 23 22 32 24 29 26 15 34 13 36 9 39 11 41
REMARK Flexibility Score: inf
ROOT
ATOM      1  O   UNL     1     -37.996   3.987  80.270  1.00  0.00    -0.454 OA
ENDROOT
BRANCH   1   2
ATOM      2  C   UNL     1     -37.026   4.897  80.716  1.00  0.00     0.214 A 
ATOM      3  C   UNL     1     -36.872   6.167  80.118  1.00  0.00     0.180 A 
ATOM      4  O   UNL     1     -35.994   7.029  80.622  1.00  0.00    -0.452 OA
ATOM      5  C   UNL     1     -36.193   4.548  81.786  1.00  0.00     0.239 A 
ATOM      6  C   UNL     1     -35.216   6.755  81.664  1.00  0.00     0.146 A 
ATOM      7  O   UNL     1     -36.286   3.395  82.288  1.00  0.00    -0.285 OA
ATOM      8  C   UNL     1     -35.276   5.490  82.295  1.00  0.00     0.111 A 
ATOM      9  C   UNL     1     -34.333   7.732  82.130  1.00  0.00     0.094 A 
ATOM     10  C   UNL     1     -34.437   5.232  83.405  1.00  0.00     0.134 A 
ATOM     11  C   UNL     1     -33.506   7.474  83.225  1.00  0.00     0.123 A 
ATOM     12  C   UNL     1     -33.561   6.228  83.861  1.00  0.00     0.093 A 
BRANCH   3  13
ATOM     13  C   UNL     1     -37.669   6.595  78.944  1.00  0.00     0.025 A 
ATOM     14  C   UNL     1     -37.206   6.299  77.652  1.00  0.00     0.016 A 
ATOM     15  C   UNL     1     -37.921   6.719  76.529  1.00  0.00     0.051 A 
ATOM     16  C   UNL     1     -39.118   7.426  76.677  1.00  0.00     0.157 A 
ATOM     17  C   UNL     1     -38.887   7.282  79.091  1.00  0.00     0.062 A 
ATOM     18  C   UNL     1     -39.609   7.704  77.964  1.00  0.00     0.158 A 
BRANCH  16  19
ATOM     19  O   UNL     1     -39.808   7.837  75.538  1.00  0.00    -0.504 OA
ATOM     20  H   UNL     1     -40.358   8.688  75.519  1.00  0.00     0.293 HD
ENDBRANCH  16  19
BRANCH  18  21
ATOM     21  O   UNL     1     -40.810   8.394  78.120  1.00  0.00    -0.504 OA
ATOM     22  H   UNL     1     -40.980   9.277  77.656  1.00  0.00     0.293 HD
ENDBRANCH  18  21
ENDBRANCH   3  13
BRANCH  10  23
ATOM     23  O   UNL     1     -34.469   3.999  84.057  1.00  0.00    -0.507 OA
ATOM     24  H   UNL     1     -34.345   3.923  85.060  1.00  0.00     0.293 HD
ENDBRANCH  10  23
BRANCH  11  25
ATOM     25  O   UNL     1     -32.633   8.463  83.674  1.00  0.00    -0.508 OA
ATOM     26  H   UNL     1     -32.638   9.394  83.278  1.00  0.00     0.293 HD
ENDBRANCH  11  25
ENDBRANCH   1   2
BRANCH   1  27
ATOM     27  C   UNL     1     -39.376   4.070  80.639  1.00  0.00     0.339 C 
ATOM     28  C   UNL     1     -40.260   3.423  79.550  1.00  0.00     0.214 C 
ATOM     29  O   UNL     1     -39.578   3.419  81.878  1.00  0.00    -0.332 OA
ATOM     30  C   UNL     1     -41.764   3.431  79.936  1.00  0.00     0.180 C 
ATOM     31  C   UNL     1     -40.909   3.516  82.378  1.00  0.00     0.179 C 
ATOM     32  C   UNL     1     -41.986   4.005  81.348  1.00  0.00     0.177 C 
BRANCH  28  33
ATOM     33  O   UNL     1     -40.060   4.048  78.306  1.00  0.00    -0.384 OA
ATOM     34  H   UNL     1     -40.593   3.552  77.630  1.00  0.00     0.211 HD
ENDBRANCH  28  33
BRANCH  30  35
ATOM     35  O   UNL     1     -42.295   2.133  79.854  1.00  0.00    -0.387 OA
ATOM     36  H   UNL     1     -42.833   2.095  79.021  1.00  0.00     0.211 HD
ENDBRANCH  30  35
BRANCH  31  37
ATOM     37  C   UNL     1     -41.259   2.167  83.032  1.00  0.00     0.191 C 
BRANCH  37  38
ATOM     38  O   UNL     1     -40.198   1.264  82.887  1.00  0.00    -0.394 OA
ATOM     39  H   UNL     1     -40.401   0.726  82.077  1.00  0.00     0.210 HD
ENDBRANCH  37  38
ENDBRANCH  31  37
BRANCH  32  40
ATOM     40  O   UNL     1     -43.294   3.726  81.780  1.00  0.00    -0.387 OA
ATOM     41  H   UNL     1     -43.491   4.356  82.524  1.00  0.00     0.211 HD
ENDBRANCH  32  40
ENDBRANCH   1  27
TORSDOF 12
ENDMDL
MODEL 6
REMARK VINA RESULT:    -6.102      2.348      6.644
REMARK INTER + INTRA:         -10.587
REMARK INTER:                  -9.195
REMARK INTRA:                  -1.392
REMARK UNBOUND:                -1.631
REMARK SMILES O=c1c(O[C@@H]2O[C@H](CO)[C@H](O)[C@H](O)[C@H]2O)c(-c2ccc(O)c(O)c2)oc2cc(O)cc(O)c12
REMARK SMILES IDX 4 1 3 2 16 3 25 4 2 5 26 6 1 7 33 8 27 9 31 10 28 11 30 12
REMARK SMILES IDX 17 13 18 14 19 15 20 16 24 17 22 18 21 19 23 21 32 23 29 25
REMARK SMILES IDX 5 27 14 28 6 29 12 30 7 31 10 32 15 33 13 35 8 37 9 38 11 40
REMARK H PARENT 21 20 23 22 32 24 29 26 15 34 13 36 9 39 11 41
REMARK Flexibility Score: inf
ROOT
ATOM      1  O   UNL     1     -38.282   6.182  81.554  1.00  0.00    -0.454 OA
ENDROOT
BRANCH   1   2
ATOM      2  C   UNL     1     -37.513   6.685  80.493  1.00  0.00     0.214 A 
ATOM      3  C   UNL     1     -37.665   6.202  79.175  1.00  0.00     0.180 A 
ATOM      4  O   UNL     1     -36.974   6.762  78.186  1.00  0.00    -0.452 OA
ATOM      5  C   UNL     1     -36.579   7.698  80.739  1.00  0.00     0.239 A 
ATOM      6  C   UNL     1     -36.110   7.755  78.369  1.00  0.00     0.146 A 
ATOM      7  O   UNL     1     -36.398   8.095  81.922  1.00  0.00    -0.285 OA
ATOM      8  C   UNL     1     -35.867   8.269  79.664  1.00  0.00     0.111 A 
ATOM      9  C   UNL     1     -35.440   8.287  77.264  1.00  0.00     0.094 A 
ATOM     10  C   UNL     1     -34.944   9.330  79.824  1.00  0.00     0.134 A 
ATOM     11  C   UNL     1     -34.530   9.333  77.425  1.00  0.00     0.123 A 
ATOM     12  C   UNL     1     -34.286   9.853  78.701  1.00  0.00     0.093 A 
BRANCH   3  13
ATOM     13  C   UNL     1     -38.587   5.092  78.835  1.00  0.00     0.025 A 
ATOM     14  C   UNL     1     -39.950   5.365  78.644  1.00  0.00     0.016 A 
ATOM     15  C   UNL     1     -40.846   4.334  78.354  1.00  0.00     0.051 A 
ATOM     16  C   UNL     1     -40.392   3.017  78.235  1.00  0.00     0.157 A 
ATOM     17  C   UNL     1     -38.128   3.771  78.688  1.00  0.00     0.062 A 
ATOM     18  C   UNL     1     -39.025   2.733  78.396  1.00  0.00     0.158 A 
BRANCH  16  19
ATOM     19  O   UNL     1     -41.309   2.006  77.950  1.00  0.00    -0.504 OA
ATOM     20  H   UNL     1     -42.258   2.207  77.656  1.00  0.00     0.293 HD
ENDBRANCH  16  19
BRANCH  18  21
ATOM     21  O   UNL     1     -38.563   1.425  78.262  1.00  0.00    -0.504 OA
ATOM     22  H   UNL     1     -37.591   1.222  78.062  1.00  0.00     0.293 HD
ENDBRANCH  18  21
ENDBRANCH   3  13
BRANCH  10  23
ATOM     23  O   UNL     1     -34.679   9.867  81.084  1.00  0.00    -0.507 OA
ATOM     24  H   UNL     1     -35.088  10.744  81.386  1.00  0.00     0.293 HD
ENDBRANCH  10  23
BRANCH  11  25
ATOM     25  O   UNL     1     -33.873   9.850  76.309  1.00  0.00    -0.508 OA
ATOM     26  H   UNL     1     -34.229  10.656  75.812  1.00  0.00     0.293 HD
ENDBRANCH  11  25
ENDBRANCH   1   2
BRANCH   1  27
ATOM     27  C   UNL     1     -38.256   4.809  81.957  1.00  0.00     0.339 C 
ATOM     28  C   UNL     1     -37.729   4.688  83.404  1.00  0.00     0.214 C 
ATOM     29  O   UNL     1     -39.558   4.263  81.868  1.00  0.00    -0.332 OA
ATOM     30  C   UNL     1     -37.744   3.220  83.910  1.00  0.00     0.180 C 
ATOM     31  C   UNL     1     -39.628   2.872  82.169  1.00  0.00     0.179 C 
ATOM     32  C   UNL     1     -38.364   2.265  82.872  1.00  0.00     0.177 C 
BRANCH  28  33
ATOM     33  O   UNL     1     -36.440   5.241  83.515  1.00  0.00    -0.384 OA
ATOM     34  H   UNL     1     -36.412   6.054  82.944  1.00  0.00     0.211 HD
ENDBRANCH  28  33
BRANCH  30  35
ATOM     35  O   UNL     1     -38.444   3.130  85.125  1.00  0.00    -0.387 OA
ATOM     36  H   UNL     1     -38.246   3.960  85.632  1.00  0.00     0.211 HD
ENDBRANCH  30  35
BRANCH  31  37
ATOM     37  C   UNL     1     -40.933   2.631  82.950  1.00  0.00     0.191 C 
BRANCH  37  38
ATOM     38  O   UNL     1     -41.151   3.667  83.869  1.00  0.00    -0.394 OA
ATOM     39  H   UNL     1     -41.531   4.423  83.348  1.00  0.00     0.210 HD
ENDBRANCH  37  38
ENDBRANCH  31  37
BRANCH  32  40
ATOM     40  O   UNL     1     -38.636   1.021  83.464  1.00  0.00    -0.387 OA
ATOM     41  H   UNL     1     -39.357   0.598  82.926  1.00  0.00     0.211 HD
ENDBRANCH  32  40
ENDBRANCH   1  27
TORSDOF 12
ENDMDL
MODEL 7
REMARK VINA RESULT:    -6.052      2.368      6.303
REMARK INTER + INTRA:         -10.513
REMARK INTER:                  -9.390
REMARK INTRA:                  -1.123
REMARK UNBOUND:                -1.631
REMARK SMILES O=c1c(O[C@@H]2O[C@H](CO)[C@H](O)[C@H](O)[C@H]2O)c(-c2ccc(O)c(O)c2)oc2cc(O)cc(O)c12
REMARK SMILES IDX 4 1 3 2 16 3 25 4 2 5 26 6 1 7 33 8 27 9 31 10 28 11 30 12
REMARK SMILES IDX 17 13 18 14 19 15 20 16 24 17 22 18 21 19 23 21 32 23 29 25
REMARK SMILES IDX 5 27 14 28 6 29 12 30 7 31 10 32 15 33 13 35 8 37 9 38 11 40
REMARK H PARENT 21 20 23 22 32 24 29 26 15 34 13 36 9 39 11 41
REMARK Flexibility Score: inf
ROOT
ATOM      1  O   UNL     1     -39.809   5.992  81.386  1.00  0.00    -0.454 OA
ENDROOT
BRANCH   1   2
ATOM      2  C   UNL     1     -38.825   6.364  80.457  1.00  0.00     0.214 A 
ATOM      3  C   UNL     1     -38.707   5.719  79.206  1.00  0.00     0.180 A 
ATOM      4  O   UNL     1     -37.812   6.155  78.324  1.00  0.00    -0.452 OA
ATOM      5  C   UNL     1     -37.941   7.404  80.768  1.00  0.00     0.239 A 
ATOM      6  C   UNL     1     -36.985   7.167  78.561  1.00  0.00     0.146 A 
ATOM      7  O   UNL     1     -38.003   7.946  81.905  1.00  0.00    -0.285 OA
ATOM      8  C   UNL     1     -37.008   7.839  79.806  1.00  0.00     0.111 A 
ATOM      9  C   UNL     1     -36.087   7.561  77.566  1.00  0.00     0.094 A 
ATOM     10  C   UNL     1     -36.116   8.917  80.025  1.00  0.00     0.134 A 
ATOM     11  C   UNL     1     -35.209   8.623  77.785  1.00  0.00     0.123 A 
ATOM     12  C   UNL     1     -35.226   9.300  79.010  1.00  0.00     0.093 A 
BRANCH   3  13
ATOM     13  C   UNL     1     -39.561   4.571  78.819  1.00  0.00     0.025 A 
ATOM     14  C   UNL     1     -38.961   3.338  78.519  1.00  0.00     0.016 A 
ATOM     15  C   UNL     1     -39.738   2.249  78.120  1.00  0.00     0.051 A 
ATOM     16  C   UNL     1     -41.128   2.369  78.031  1.00  0.00     0.157 A 
ATOM     17  C   UNL     1     -40.961   4.681  78.755  1.00  0.00     0.062 A 
ATOM     18  C   UNL     1     -41.745   3.589  78.357  1.00  0.00     0.158 A 
BRANCH  16  19
ATOM     19  O   UNL     1     -41.880   1.267  77.626  1.00  0.00    -0.504 OA
ATOM     20  H   UNL     1     -41.499   0.548  77.022  1.00  0.00     0.293 HD
ENDBRANCH  16  19
BRANCH  18  21
ATOM     21  O   UNL     1     -43.132   3.711  78.287  1.00  0.00    -0.504 OA
ATOM     22  H   UNL     1     -43.576   4.386  77.677  1.00  0.00     0.293 HD
ENDBRANCH  18  21
ENDBRANCH   3  13
BRANCH  10  23
ATOM     23  O   UNL     1     -36.110   9.608  81.237  1.00  0.00    -0.507 OA
ATOM     24  H   UNL     1     -35.450  10.356  81.420  1.00  0.00     0.293 HD
ENDBRANCH  10  23
BRANCH  11  25
ATOM     25  O   UNL     1     -34.321   9.000  76.778  1.00  0.00    -0.508 OA
ATOM     26  H   UNL     1     -34.077   9.970  76.624  1.00  0.00     0.293 HD
ENDBRANCH  11  25
ENDBRANCH   1   2
BRANCH   1  27
ATOM     27  C   UNL     1     -39.580   5.046  82.434  1.00  0.00     0.339 C 
ATOM     28  C   UNL     1     -40.286   3.710  82.111  1.00  0.00     0.214 C 
ATOM     29  O   UNL     1     -38.190   4.835  82.590  1.00  0.00    -0.332 OA
ATOM     30  C   UNL     1     -40.012   2.628  83.190  1.00  0.00     0.180 C 
ATOM     31  C   UNL     1     -37.849   3.968  83.669  1.00  0.00     0.179 C 
ATOM     32  C   UNL     1     -39.034   3.133  84.268  1.00  0.00     0.177 C 
BRANCH  28  33
ATOM     33  O   UNL     1     -41.668   3.903  81.937  1.00  0.00    -0.384 OA
ATOM     34  H   UNL     1     -42.031   3.092  81.492  1.00  0.00     0.211 HD
ENDBRANCH  28  33
BRANCH  30  35
ATOM     35  O   UNL     1     -39.509   1.460  82.594  1.00  0.00    -0.387 OA
ATOM     36  H   UNL     1     -38.852   1.748  81.908  1.00  0.00     0.211 HD
ENDBRANCH  30  35
BRANCH  31  37
ATOM     37  C   UNL     1     -36.663   3.100  83.210  1.00  0.00     0.191 C 
BRANCH  37  38
ATOM     38  O   UNL     1     -35.863   2.748  84.305  1.00  0.00    -0.394 OA
ATOM     39  H   UNL     1     -36.018   3.444  84.996  1.00  0.00     0.210 HD
ENDBRANCH  37  38
ENDBRANCH  31  37
BRANCH  32  40
ATOM     40  O   UNL     1     -38.579   2.057  85.048  1.00  0.00    -0.387 OA
ATOM     41  H   UNL     1     -37.810   1.655  84.562  1.00  0.00     0.211 HD
ENDBRANCH  32  40
ENDBRANCH   1  27
TORSDOF 12
ENDMDL
MODEL 8
REMARK VINA RESULT:    -6.002      3.051      7.200
REMARK INTER + INTRA:         -10.441
REMARK INTER:                  -9.045
REMARK INTRA:                  -1.396
REMARK UNBOUND:                -1.631
REMARK SMILES O=c1c(O[C@@H]2O[C@H](CO)[C@H](O)[C@H](O)[C@H]2O)c(-c2ccc(O)c(O)c2)oc2cc(O)cc(O)c12
REMARK SMILES IDX 4 1 3 2 16 3 25 4 2 5 26 6 1 7 33 8 27 9 31 10 28 11 30 12
REMARK SMILES IDX 17 13 18 14 19 15 20 16 24 17 22 18 21 19 23 21 32 23 29 25
REMARK SMILES IDX 5 27 14 28 6 29 12 30 7 31 10 32 15 33 13 35 8 37 9 38 11 40
REMARK H PARENT 21 20 23 22 32 24 29 26 15 34 13 36 9 39 11 41
REMARK Flexibility Score: inf
ROOT
ATOM      1  O   UNL     1     -38.260   5.330  77.879  1.00  0.00    -0.454 OA
ENDROOT
BRANCH   1   2
ATOM      2  C   UNL     1     -37.264   6.289  78.120  1.00  0.00     0.214 A 
ATOM      3  C   UNL     1     -37.513   7.670  77.960  1.00  0.00     0.180 A 
ATOM      4  O   UNL     1     -36.566   8.549  78.276  1.00  0.00    -0.452 OA
ATOM      5  C   UNL     1     -35.994   5.874  78.539  1.00  0.00     0.239 A 
ATOM      6  C   UNL     1     -35.363   8.199  78.720  1.00  0.00     0.146 A 
ATOM      7  O   UNL     1     -35.748   4.641  78.630  1.00  0.00    -0.285 OA
ATOM      8  C   UNL     1     -35.017   6.836  78.867  1.00  0.00     0.111 A 
ATOM      9  C   UNL     1     -34.438   9.198  79.038  1.00  0.00     0.094 A 
ATOM     10  C   UNL     1     -33.729   6.498  79.346  1.00  0.00     0.134 A 
ATOM     11  C   UNL     1     -33.168   8.861  79.510  1.00  0.00     0.123 A 
ATOM     12  C   UNL     1     -32.817   7.515  79.665  1.00  0.00     0.093 A 
BRANCH   3  13
ATOM     13  C   UNL     1     -38.807   8.193  77.465  1.00  0.00     0.025 A 
ATOM     14  C   UNL     1     -38.906   8.642  76.138  1.00  0.00     0.016 A 
ATOM     15  C   UNL     1     -40.105   9.169  75.654  1.00  0.00     0.051 A 
ATOM     16  C   UNL     1     -41.228   9.242  76.482  1.00  0.00     0.157 A 
ATOM     17  C   UNL     1     -39.947   8.242  78.287  1.00  0.00     0.062 A 
ATOM     18  C   UNL     1     -41.153   8.770  77.804  1.00  0.00     0.158 A 
BRANCH  16  19
ATOM     19  O   UNL     1     -42.411   9.778  75.975  1.00  0.00    -0.504 OA
ATOM     20  H   UNL     1     -43.280   9.756  76.496  1.00  0.00     0.293 HD
ENDBRANCH  16  19
BRANCH  18  21
ATOM     21  O   UNL     1     -42.274   8.824  78.630  1.00  0.00    -0.504 OA
ATOM     22  H   UNL     1     -42.202   9.063  79.611  1.00  0.00     0.293 HD
ENDBRANCH  18  21
ENDBRANCH   3  13
BRANCH  10  23
ATOM     23  O   UNL     1     -33.351   5.165  79.509  1.00  0.00    -0.507 OA
ATOM     24  H   UNL     1     -32.857   4.848  80.336  1.00  0.00     0.293 HD
ENDBRANCH  10  23
BRANCH  11  25
ATOM     25  O   UNL     1     -32.261   9.872  79.822  1.00  0.00    -0.508 OA
ATOM     26  H   UNL     1     -32.455  10.551  80.547  1.00  0.00     0.293 HD
ENDBRANCH  11  25
ENDBRANCH   1   2
BRANCH   1  27
ATOM     27  C   UNL     1     -39.139   4.841  78.896  1.00  0.00     0.339 C 
ATOM     28  C   UNL     1     -38.847   3.352  79.183  1.00  0.00     0.214 C 
ATOM     29  O   UNL     1     -38.973   5.604  80.076  1.00  0.00    -0.332 OA
ATOM     30  C   UNL     1     -39.734   2.792  80.328  1.00  0.00     0.180 C 
ATOM     31  C   UNL     1     -39.866   5.250  81.129  1.00  0.00     0.179 C 
ATOM     32  C   UNL     1     -40.622   3.887  80.949  1.00  0.00     0.177 C 
BRANCH  28  33
ATOM     33  O   UNL     1     -38.991   2.579  78.017  1.00  0.00    -0.384 OA
ATOM     34  H   UNL     1     -39.961   2.404  77.890  1.00  0.00     0.211 HD
ENDBRANCH  28  33
BRANCH  30  35
ATOM     35  O   UNL     1     -38.934   2.201  81.321  1.00  0.00    -0.387 OA
ATOM     36  H   UNL     1     -38.208   2.846  81.525  1.00  0.00     0.211 HD
ENDBRANCH  30  35
BRANCH  31  37
ATOM     37  C   UNL     1     -39.083   5.343  82.452  1.00  0.00     0.191 C 
BRANCH  37  38
ATOM     38  O   UNL     1     -37.781   4.851  82.284  1.00  0.00    -0.394 OA
ATOM     39  H   UNL     1     -37.851   4.098  81.641  1.00  0.00     0.210 HD
ENDBRANCH  37  38
ENDBRANCH  31  37
BRANCH  32  40
ATOM     40  O   UNL     1     -41.179   3.430  82.155  1.00  0.00    -0.387 OA
ATOM     41  H   UNL     1     -41.928   2.823  81.913  1.00  0.00     0.211 HD
ENDBRANCH  32  40
ENDBRANCH   1  27
TORSDOF 12
ENDMDL
MODEL 9
REMARK VINA RESULT:    -5.944      2.890      4.955
REMARK INTER + INTRA:         -10.355
REMARK INTER:                  -8.854
REMARK INTRA:                  -1.502
REMARK UNBOUND:                -1.631
REMARK SMILES O=c1c(O[C@@H]2O[C@H](CO)[C@H](O)[C@H](O)[C@H]2O)c(-c2ccc(O)c(O)c2)oc2cc(O)cc(O)c12
REMARK SMILES IDX 4 1 3 2 16 3 25 4 2 5 26 6 1 7 33 8 27 9 31 10 28 11 30 12
REMARK SMILES IDX 17 13 18 14 19 15 20 16 24 17 22 18 21 19 23 21 32 23 29 25
REMARK SMILES IDX 5 27 14 28 6 29 12 30 7 31 10 32 15 33 13 35 8 37 9 38 11 40
REMARK H PARENT 21 20 23 22 32 24 29 26 15 34 13 36 9 39 11 41
REMARK Flexibility Score: inf
ROOT
ATOM      1  O   UNL     1     -37.634   7.762  80.723  1.00  0.00    -0.454 OA
ENDROOT
BRANCH   1   2
ATOM      2  C   UNL     1     -38.494   6.693  81.017  1.00  0.00     0.214 A 
ATOM      3  C   UNL     1     -39.573   6.358  80.169  1.00  0.00     0.180 A 
ATOM      4  O   UNL     1     -40.315   5.289  80.443  1.00  0.00    -0.452 OA
ATOM      5  C   UNL     1     -38.278   5.931  82.171  1.00  0.00     0.239 A 
ATOM      6  C   UNL     1     -40.116   4.512  81.502  1.00  0.00     0.146 A 
ATOM      7  O   UNL     1     -37.352   6.259  82.961  1.00  0.00    -0.285 OA
ATOM      8  C   UNL     1     -39.084   4.803  82.425  1.00  0.00     0.111 A 
ATOM      9  C   UNL     1     -40.942   3.402  81.698  1.00  0.00     0.094 A 
ATOM     10  C   UNL     1     -38.896   3.953  83.541  1.00  0.00     0.134 A 
ATOM     11  C   UNL     1     -40.755   2.566  82.800  1.00  0.00     0.123 A 
ATOM     12  C   UNL     1     -39.733   2.841  83.717  1.00  0.00     0.093 A 
BRANCH   3  13
ATOM     13  C   UNL     1     -39.910   7.146  78.960  1.00  0.00     0.025 A 
ATOM     14  C   UNL     1     -40.867   8.169  79.051  1.00  0.00     0.016 A 
ATOM     15  C   UNL     1     -41.227   8.906  77.921  1.00  0.00     0.051 A 
ATOM     16  C   UNL     1     -40.626   8.644  76.687  1.00  0.00     0.157 A 
ATOM     17  C   UNL     1     -39.287   6.903  77.724  1.00  0.00     0.062 A 
ATOM     18  C   UNL     1     -39.645   7.642  76.587  1.00  0.00     0.158 A 
BRANCH  16  19
ATOM     19  O   UNL     1     -41.008   9.392  75.574  1.00  0.00    -0.504 OA
ATOM     20  H   UNL     1     -41.358   8.958  74.727  1.00  0.00     0.293 HD
ENDBRANCH  16  19
BRANCH  18  21
ATOM     21  O   UNL     1     -39.030   7.387  75.363  1.00  0.00    -0.504 OA
ATOM     22  H   UNL     1     -39.451   7.668  74.487  1.00  0.00     0.293 HD
ENDBRANCH  18  21
ENDBRANCH   3  13
BRANCH  10  23
ATOM     23  O   UNL     1     -37.888   4.203  84.472  1.00  0.00    -0.507 OA
ATOM     24  H   UNL     1     -37.731   5.130  84.853  1.00  0.00     0.293 HD
ENDBRANCH  10  23
BRANCH  11  25
ATOM     25  O   UNL     1     -41.589   1.463  82.976  1.00  0.00    -0.508 OA
ATOM     26  H   UNL     1     -41.336   0.701  83.592  1.00  0.00     0.293 HD
ENDBRANCH  11  25
ENDBRANCH   1   2
BRANCH   1  27
ATOM     27  C   UNL     1     -36.409   7.606  80.001  1.00  0.00     0.339 C 
ATOM     28  C   UNL     1     -35.251   8.294  80.757  1.00  0.00     0.214 C 
ATOM     29  O   UNL     1     -36.128   6.230  79.832  1.00  0.00    -0.332 OA
ATOM     30  C   UNL     1     -33.887   8.096  80.043  1.00  0.00     0.180 C 
ATOM     31  C   UNL     1     -34.967   5.964  79.049  1.00  0.00     0.179 C 
ATOM     32  C   UNL     1     -34.018   7.188  78.805  1.00  0.00     0.177 C 
BRANCH  28  33
ATOM     33  O   UNL     1     -35.521   9.661  80.948  1.00  0.00    -0.384 OA
ATOM     34  H   UNL     1     -35.411  10.115  80.071  1.00  0.00     0.211 HD
ENDBRANCH  28  33
BRANCH  30  35
ATOM     35  O   UNL     1     -32.943   7.560  80.935  1.00  0.00    -0.387 OA
ATOM     36  H   UNL     1     -33.164   6.598  81.043  1.00  0.00     0.211 HD
ENDBRANCH  30  35
BRANCH  31  37
ATOM     37  C   UNL     1     -34.251   4.754  79.677  1.00  0.00     0.191 C 
BRANCH  37  38
ATOM     38  O   UNL     1     -34.320   4.816  81.075  1.00  0.00    -0.394 OA
ATOM     39  H   UNL     1     -33.738   5.574  81.347  1.00  0.00     0.210 HD
ENDBRANCH  37  38
ENDBRANCH  31  37
BRANCH  32  40
ATOM     40  O   UNL     1     -32.745   6.789  78.364  1.00  0.00    -0.387 OA
ATOM     41  H   UNL     1     -32.427   7.489  77.734  1.00  0.00     0.211 HD
ENDBRANCH  32  40
ENDBRANCH   1  27
TORSDOF 12
ENDMDL
