MODEL 1
REMARK VINA RESULT:    -3.451      0.000      0.000
REMARK INTER + INTRA:         -13.407
REMARK INTER:                  -8.696
REMARK INTRA:                  -4.711
REMARK UNBOUND:                -4.711
REMARK SMILES CCCCCCCCCCCCCCCCCCCCCCCCCCCC(=O)[O-]
REMARK SMILES IDX 15 1 16 2 17 3 18 4 19 5 20 6 21 7 22 8 23 9 24 10 25 11
REMARK SMILES IDX 26 12 27 13 28 14 29 15 30 16 14 17 13 18 12 19 11 20 10 21
REMARK SMILES IDX 9 22 8 23 7 24 6 25 5 26 4 27 3 28 2 29 1 30
REMARK H PARENT
REMARK Flexibility Score: inf
ROOT
ATOM      1  C   UNL     1     -95.305 147.735 241.584  1.00  0.00     0.000 C 
ENDROOT
BRANCH   1   2
ATOM      2  C   UNL     1     -93.871 147.386 242.024  1.00  0.00     0.000 C 
BRANCH   2   3
ATOM      3  C   UNL     1     -93.702 145.981 242.632  1.00  0.00     0.000 C 
BRANCH   3   4
ATOM      4  C   UNL     1     -92.964 144.965 241.739  1.00  0.00     0.000 C 
BRANCH   4   5
ATOM      5  C   UNL     1     -92.048 145.613 240.675  1.00  0.00     0.000 C 
BRANCH   5   6
ATOM      6  C   UNL     1     -92.436 145.309 239.213  1.00  0.00     0.000 C 
BRANCH   6   7
ATOM      7  C   UNL     1     -93.914 145.563 238.848  1.00  0.00     0.000 C 
BRANCH   7   8
ATOM      8  C   UNL     1     -94.144 146.514 237.658  1.00  0.00     0.000 C 
BRANCH   8   9
ATOM      9  C   UNL     1     -94.422 147.978 238.043  1.00  0.00     0.000 C 
BRANCH   9  10
ATOM     10  C   UNL     1     -94.891 148.831 236.853  1.00  0.00     0.000 C 
BRANCH  10  11
ATOM     11  C   UNL     1     -94.767 150.345 237.135  1.00  0.00     0.000 C 
BRANCH  11  12
ATOM     12  C   UNL     1     -95.936 151.171 236.569  1.00  0.00     0.006 C 
BRANCH  12  13
ATOM     13  C   UNL     1     -96.164 152.506 237.292  1.00  0.00     0.053 C 
BRANCH  13  14
ATOM     14  C   UNL     1     -97.364 153.231 236.762  1.00  0.00     0.041 C 
ATOM     15  O   UNL     1     -97.403 153.605 235.560  1.00  0.00    -0.550 OA
ATOM     16  O   UNL     1     -98.442 153.496 237.598  1.00  0.00    -0.550 OA
ENDBRANCH  13  14
ENDBRANCH  12  13
ENDBRANCH  11  12
ENDBRANCH  10  11
ENDBRANCH   9  10
ENDBRANCH   8   9
ENDBRANCH   7   8
ENDBRANCH   6   7
ENDBRANCH   5   6
ENDBRANCH   4   5
ENDBRANCH   3   4
ENDBRANCH   2   3
ENDBRANCH   1   2
BRANCH   1  17
ATOM     17  C   UNL     1     -96.265 146.535 241.665  1.00  0.00     0.000 C 
BRANCH  17  18
ATOM     18  C   UNL     1     -97.600 146.794 240.950  1.00  0.00     0.000 C 
BRANCH  18  19
ATOM     19  C   UNL     1     -97.500 146.613 239.425  1.00  0.00     0.000 C 
BRANCH  19  20
ATOM     20  C   UNL     1     -98.033 147.831 238.652  1.00  0.00     0.000 C 
BRANCH  20  21
ATOM     21  C   UNL     1     -97.657 149.167 239.318  1.00  0.00     0.000 C 
BRANCH  21  22
ATOM     22  C   UNL     1     -98.717 150.256 239.092  1.00  0.00    -0.000 C 
BRANCH  22  23
ATOM     23  C   UNL     1     -99.058 151.026 240.379  1.00  0.00    -0.000 C 
BRANCH  23  24
ATOM     24  C   UNL     1     -98.672 150.237 241.650  1.00  0.00    -0.000 C 
BRANCH  24  25
ATOM     25  C   UNL     1     -99.859 149.519 242.314  1.00  0.00    -0.000 C 
BRANCH  25  26
ATOM     26  C   UNL     1     -99.435 148.637 243.497  1.00  0.00    -0.000 C 
BRANCH  26  27
ATOM     27  C   UNL     1     -98.021 149.001 243.973  1.00  0.00    -0.000 C 
BRANCH  27  28
ATOM     28  C   UNL     1     -97.700 148.437 245.366  1.00  0.00    -0.000 C 
BRANCH  28  29
ATOM     29  C   UNL     1     -97.854 149.483 246.479  1.00  0.00    -0.003 C 
ATOM     30  C   UNL     1     -99.308 149.603 246.923  1.00  0.00     0.004 C 
ENDBRANCH  28  29
ENDBRANCH  27  28
ENDBRANCH  26  27
ENDBRANCH  25  26
ENDBRANCH  24  25
ENDBRANCH  23  24
ENDBRANCH  22  23
ENDBRANCH  21  22
ENDBRANCH  20  21
ENDBRANCH  19  20
ENDBRANCH  18  19
ENDBRANCH  17  18
ENDBRANCH   1  17
TORSDOF 26
ENDMDL
MODEL 2
REMARK VINA RESULT:    -3.434      1.723      4.644
REMARK INTER + INTRA:         -13.364
REMARK INTER:                  -7.716
REMARK INTRA:                  -5.648
REMARK UNBOUND:                -4.711
REMARK SMILES CCCCCCCCCCCCCCCCCCCCCCCCCCCC(=O)[O-]
REMARK SMILES IDX 15 1 16 2 17 3 18 4 19 5 20 6 21 7 22 8 23 9 24 10 25 11
REMARK SMILES IDX 26 12 27 13 28 14 29 15 30 16 14 17 13 18 12 19 11 20 10 21
REMARK SMILES IDX 9 22 8 23 7 24 6 25 5 26 4 27 3 28 2 29 1 30
REMARK H PARENT
REMARK Flexibility Score: inf
ROOT
ATOM      1  C   UNL     1     -93.202 147.445 240.804  1.00  0.00     0.000 C 
ENDROOT
BRANCH   1   2
ATOM      2  C   UNL     1     -93.109 145.932 240.532  1.00  0.00     0.000 C 
BRANCH   2   3
ATOM      3  C   UNL     1     -92.972 145.546 239.046  1.00  0.00     0.000 C 
BRANCH   3   4
ATOM      4  C   UNL     1     -94.172 145.924 238.158  1.00  0.00     0.000 C 
BRANCH   4   5
ATOM      5  C   UNL     1     -93.791 146.746 236.905  1.00  0.00     0.000 C 
BRANCH   5   6
ATOM      6  C   UNL     1     -94.648 148.007 236.670  1.00  0.00     0.000 C 
BRANCH   6   7
ATOM      7  C   UNL     1     -94.618 149.055 237.803  1.00  0.00     0.000 C 
BRANCH   7   8
ATOM      8  C   UNL     1     -95.006 150.486 237.386  1.00  0.00     0.000 C 
BRANCH   8   9
ATOM      9  C   UNL     1     -95.216 150.685 235.874  1.00  0.00     0.000 C 
BRANCH   9  10
ATOM     10  C   UNL     1     -96.312 151.716 235.553  1.00  0.00     0.000 C 
BRANCH  10  11
ATOM     11  C   UNL     1     -96.839 152.419 236.824  1.00  0.00     0.000 C 
BRANCH  11  12
ATOM     12  C   UNL     1     -98.286 152.031 237.181  1.00  0.00     0.006 C 
BRANCH  12  13
ATOM     13  C   UNL     1     -98.569 152.000 238.690  1.00  0.00     0.053 C 
BRANCH  13  14
ATOM     14  C   UNL     1     -99.963 152.448 239.008  1.00  0.00     0.041 C 
ATOM     15  O   UNL     1    -100.566 153.244 238.241  1.00  0.00    -0.550 OA
ATOM     16  O   UNL     1    -100.599 151.985 240.153  1.00  0.00    -0.550 OA
ENDBRANCH  13  14
ENDBRANCH  12  13
ENDBRANCH  11  12
ENDBRANCH  10  11
ENDBRANCH   9  10
ENDBRANCH   8   9
ENDBRANCH   7   8
ENDBRANCH   6   7
ENDBRANCH   5   6
ENDBRANCH   4   5
ENDBRANCH   3   4
ENDBRANCH   2   3
ENDBRANCH   1   2
BRANCH   1  17
ATOM     17  C   UNL     1     -94.543 147.859 241.434  1.00  0.00     0.000 C 
BRANCH  17  18
ATOM     18  C   UNL     1     -95.146 146.760 242.322  1.00  0.00     0.000 C 
BRANCH  18  19
ATOM     19  C   UNL     1     -96.315 147.269 243.183  1.00  0.00     0.000 C 
BRANCH  19  20
ATOM     20  C   UNL     1     -96.367 148.804 243.255  1.00  0.00     0.000 C 
BRANCH  20  21
ATOM     21  C   UNL     1     -97.807 149.348 243.278  1.00  0.00     0.000 C 
BRANCH  21  22
ATOM     22  C   UNL     1     -98.237 149.930 241.923  1.00  0.00    -0.000 C 
BRANCH  22  23
ATOM     23  C   UNL     1     -98.691 148.845 240.931  1.00  0.00    -0.000 C 
BRANCH  23  24
ATOM     24  C   UNL     1     -97.696 148.670 239.763  1.00  0.00    -0.000 C 
BRANCH  24  25
ATOM     25  C   UNL     1     -97.528 147.210 239.309  1.00  0.00    -0.000 C 
BRANCH  25  26
ATOM     26  C   UNL     1     -97.977 146.980 237.859  1.00  0.00    -0.000 C 
BRANCH  26  27
ATOM     27  C   UNL     1     -98.292 148.314 237.166  1.00  0.00    -0.000 C 
BRANCH  27  28
ATOM     28  C   UNL     1     -99.666 148.316 236.478  1.00  0.00    -0.000 C 
BRANCH  28  29
ATOM     29  C   UNL     1    -100.646 149.311 237.115  1.00  0.00    -0.003 C 
ATOM     30  C   UNL     1    -101.289 148.723 238.368  1.00  0.00     0.004 C 
ENDBRANCH  28  29
ENDBRANCH  27  28
ENDBRANCH  26  27
ENDBRANCH  25  26
ENDBRANCH  24  25
ENDBRANCH  23  24
ENDBRANCH  22  23
ENDBRANCH  21  22
ENDBRANCH  20  21
ENDBRANCH  19  20
ENDBRANCH  18  19
ENDBRANCH  17  18
ENDBRANCH   1  17
TORSDOF 26
ENDMDL
MODEL 3
REMARK VINA RESULT:    -3.417      3.154      5.871
REMARK INTER + INTRA:         -13.321
REMARK INTER:                  -8.643
REMARK INTRA:                  -4.678
REMARK UNBOUND:                -4.711
REMARK SMILES CCCCCCCCCCCCCCCCCCCCCCCCCCCC(=O)[O-]
REMARK SMILES IDX 15 1 16 2 17 3 18 4 19 5 20 6 21 7 22 8 23 9 24 10 25 11
REMARK SMILES IDX 26 12 27 13 28 14 29 15 30 16 14 17 13 18 12 19 11 20 10 21
REMARK SMILES IDX 9 22 8 23 7 24 6 25 5 26 4 27 3 28 2 29 1 30
REMARK H PARENT
REMARK Flexibility Score: inf
ROOT
ATOM      1  C   UNL     1     -94.398 148.167 239.349  1.00  0.00     0.000 C 
ENDROOT
BRANCH   1   2
ATOM      2  C   UNL     1     -94.027 146.698 239.072  1.00  0.00     0.000 C 
BRANCH   2   3
ATOM      3  C   UNL     1     -93.130 146.042 240.140  1.00  0.00     0.000 C 
BRANCH   3   4
ATOM      4  C   UNL     1     -93.057 146.791 241.484  1.00  0.00     0.000 C 
BRANCH   4   5
ATOM      5  C   UNL     1     -93.459 145.930 242.704  1.00  0.00     0.000 C 
BRANCH   5   6
ATOM      6  C   UNL     1     -94.670 145.002 242.474  1.00  0.00     0.000 C 
BRANCH   6   7
ATOM      7  C   UNL     1     -96.046 145.600 242.833  1.00  0.00     0.000 C 
BRANCH   7   8
ATOM      8  C   UNL     1     -96.873 146.115 241.639  1.00  0.00     0.000 C 
BRANCH   8   9
ATOM      9  C   UNL     1     -97.203 147.618 241.681  1.00  0.00     0.000 C 
BRANCH   9  10
ATOM     10  C   UNL     1     -96.268 148.409 242.611  1.00  0.00     0.000 C 
BRANCH  10  11
ATOM     11  C   UNL     1     -96.981 149.612 243.268  1.00  0.00     0.000 C 
BRANCH  11  12
ATOM     12  C   UNL     1     -98.214 149.213 244.100  1.00  0.00     0.006 C 
BRANCH  12  13
ATOM     13  C   UNL     1     -97.879 148.420 245.371  1.00  0.00     0.053 C 
BRANCH  13  14
ATOM     14  C   UNL     1     -98.311 149.144 246.611  1.00  0.00     0.041 C 
ATOM     15  O   UNL     1     -97.500 149.879 247.234  1.00  0.00    -0.550 OA
ATOM     16  O   UNL     1     -99.611 149.004 247.080  1.00  0.00    -0.550 OA
ENDBRANCH  13  14
ENDBRANCH  12  13
ENDBRANCH  11  12
ENDBRANCH  10  11
ENDBRANCH   9  10
ENDBRANCH   8   9
ENDBRANCH   7   8
ENDBRANCH   6   7
ENDBRANCH   5   6
ENDBRANCH   4   5
ENDBRANCH   3   4
ENDBRANCH   2   3
ENDBRANCH   1   2
BRANCH   1  17
ATOM     17  C   UNL     1     -95.454 148.713 238.373  1.00  0.00     0.000 C 
BRANCH  17  18
ATOM     18  C   UNL     1     -94.912 148.878 236.944  1.00  0.00     0.000 C 
BRANCH  18  19
ATOM     19  C   UNL     1     -94.818 150.352 236.513  1.00  0.00     0.000 C 
BRANCH  19  20
ATOM     20  C   UNL     1     -95.701 150.665 235.294  1.00  0.00     0.000 C 
BRANCH  20  21
ATOM     21  C   UNL     1     -96.434 152.013 235.423  1.00  0.00     0.000 C 
BRANCH  21  22
ATOM     22  C   UNL     1     -96.484 152.518 236.874  1.00  0.00    -0.000 C 
BRANCH  22  23
ATOM     23  C   UNL     1     -97.850 153.121 237.244  1.00  0.00    -0.000 C 
BRANCH  23  24
ATOM     24  C   UNL     1     -98.531 152.354 238.398  1.00  0.00    -0.000 C 
BRANCH  24  25
ATOM     25  C   UNL     1     -98.492 150.825 238.231  1.00  0.00    -0.000 C 
BRANCH  25  26
ATOM     26  C   UNL     1     -98.691 150.075 239.556  1.00  0.00    -0.000 C 
BRANCH  26  27
ATOM     27  C   UNL     1     -99.195 151.025 240.652  1.00  0.00    -0.000 C 
BRANCH  27  28
ATOM     28  C   UNL     1    -100.398 150.458 241.421  1.00  0.00    -0.000 C 
BRANCH  28  29
ATOM     29  C   UNL     1    -100.729 149.013 241.023  1.00  0.00    -0.003 C 
ATOM     30  C   UNL     1    -101.282 148.229 242.209  1.00  0.00     0.004 C 
ENDBRANCH  28  29
ENDBRANCH  27  28
ENDBRANCH  26  27
ENDBRANCH  25  26
ENDBRANCH  24  25
ENDBRANCH  23  24
ENDBRANCH  22  23
ENDBRANCH  21  22
ENDBRANCH  20  21
ENDBRANCH  19  20
ENDBRANCH  18  19
ENDBRANCH  17  18
ENDBRANCH   1  17
TORSDOF 26
ENDMDL
MODEL 4
REMARK VINA RESULT:    -3.412      1.520      6.258
REMARK INTER + INTRA:         -13.309
REMARK INTER:                  -8.125
REMARK INTRA:                  -5.184
REMARK UNBOUND:                -4.711
REMARK SMILES CCCCCCCCCCCCCCCCCCCCCCCCCCCC(=O)[O-]
REMARK SMILES IDX 15 1 16 2 17 3 18 4 19 5 20 6 21 7 22 8 23 9 24 10 25 11
REMARK SMILES IDX 26 12 27 13 28 14 29 15 30 16 14 17 13 18 12 19 11 20 10 21
REMARK SMILES IDX 9 22 8 23 7 24 6 25 5 26 4 27 3 28 2 29 1 30
REMARK H PARENT
REMARK Flexibility Score: inf
ROOT
ATOM      1  C   UNL     1     -94.561 147.765 241.570  1.00  0.00     0.000 C 
ENDROOT
BRANCH   1   2
ATOM      2  C   UNL     1     -95.054 146.536 242.355  1.00  0.00     0.000 C 
BRANCH   2   3
ATOM      3  C   UNL     1     -96.295 145.841 241.762  1.00  0.00     0.000 C 
BRANCH   3   4
ATOM      4  C   UNL     1     -97.475 145.664 242.737  1.00  0.00     0.000 C 
BRANCH   4   5
ATOM      5  C   UNL     1     -97.229 146.270 244.138  1.00  0.00     0.000 C 
BRANCH   5   6
ATOM      6  C   UNL     1     -98.074 147.519 244.462  1.00  0.00     0.000 C 
BRANCH   6   7
ATOM      7  C   UNL     1     -97.297 148.851 244.534  1.00  0.00     0.000 C 
BRANCH   7   8
ATOM      8  C   UNL     1     -97.169 149.612 243.200  1.00  0.00     0.000 C 
BRANCH   8   9
ATOM      9  C   UNL     1     -98.380 149.473 242.258  1.00  0.00     0.000 C 
BRANCH   9  10
ATOM     10  C   UNL     1     -97.993 148.960 240.861  1.00  0.00     0.000 C 
BRANCH  10  11
ATOM     11  C   UNL     1     -99.083 149.260 239.808  1.00  0.00     0.000 C 
BRANCH  11  12
ATOM     12  C   UNL     1     -99.265 150.763 239.527  1.00  0.00     0.006 C 
BRANCH  12  13
ATOM     13  C   UNL     1     -98.742 151.210 238.154  1.00  0.00     0.053 C 
BRANCH  13  14
ATOM     14  C   UNL     1     -98.589 152.698 238.071  1.00  0.00     0.041 C 
ATOM     15  O   UNL     1     -99.582 153.452 238.251  1.00  0.00    -0.550 OA
ATOM     16  O   UNL     1     -97.347 153.255 237.793  1.00  0.00    -0.550 OA
ENDBRANCH  13  14
ENDBRANCH  12  13
ENDBRANCH  11  12
ENDBRANCH  10  11
ENDBRANCH   9  10
ENDBRANCH   8   9
ENDBRANCH   7   8
ENDBRANCH   6   7
ENDBRANCH   5   6
ENDBRANCH   4   5
ENDBRANCH   3   4
ENDBRANCH   2   3
ENDBRANCH   1   2
BRANCH   1  17
ATOM     17  C   UNL     1     -93.208 147.530 240.876  1.00  0.00     0.000 C 
BRANCH  17  18
ATOM     18  C   UNL     1     -92.706 146.085 241.030  1.00  0.00     0.000 C 
BRANCH  18  19
ATOM     19  C   UNL     1     -92.390 145.421 239.678  1.00  0.00     0.000 C 
BRANCH  19  20
ATOM     20  C   UNL     1     -93.574 145.489 238.699  1.00  0.00     0.000 C 
BRANCH  20  21
ATOM     21  C   UNL     1     -93.170 146.034 237.317  1.00  0.00     0.000 C 
BRANCH  21  22
ATOM     22  C   UNL     1     -94.189 147.041 236.761  1.00  0.00    -0.000 C 
BRANCH  22  23
ATOM     23  C   UNL     1     -95.474 147.109 237.604  1.00  0.00    -0.000 C 
BRANCH  23  24
ATOM     24  C   UNL     1     -95.673 148.496 238.253  1.00  0.00    -0.000 C 
BRANCH  24  25
ATOM     25  C   UNL     1     -94.606 149.526 237.846  1.00  0.00    -0.000 C 
BRANCH  25  26
ATOM     26  C   UNL     1     -95.197 150.743 237.121  1.00  0.00    -0.000 C 
BRANCH  26  27
ATOM     27  C   UNL     1     -95.046 150.600 235.599  1.00  0.00    -0.000 C 
BRANCH  27  28
ATOM     28  C   UNL     1     -96.399 150.552 234.871  1.00  0.00    -0.000 C 
BRANCH  28  29
ATOM     29  C   UNL     1     -96.888 149.118 234.624  1.00  0.00    -0.003 C 
ATOM     30  C   UNL     1     -98.111 148.801 235.479  1.00  0.00     0.004 C 
ENDBRANCH  28  29
ENDBRANCH  27  28
ENDBRANCH  26  27
ENDBRANCH  25  26
ENDBRANCH  24  25
ENDBRANCH  23  24
ENDBRANCH  22  23
ENDBRANCH  21  22
ENDBRANCH  20  21
ENDBRANCH  19  20
ENDBRANCH  18  19
ENDBRANCH  17  18
ENDBRANCH   1  17
TORSDOF 26
ENDMDL
MODEL 5
REMARK VINA RESULT:    -3.393      2.425      6.224
REMARK INTER + INTRA:         -13.260
REMARK INTER:                  -7.947
REMARK INTRA:                  -5.313
REMARK UNBOUND:                -4.711
REMARK SMILES CCCCCCCCCCCCCCCCCCCCCCCCCCCC(=O)[O-]
REMARK SMILES IDX 15 1 16 2 17 3 18 4 19 5 20 6 21 7 22 8 23 9 24 10 25 11
REMARK SMILES IDX 26 12 27 13 28 14 29 15 30 16 14 17 13 18 12 19 11 20 10 21
REMARK SMILES IDX 9 22 8 23 7 24 6 25 5 26 4 27 3 28 2 29 1 30
REMARK H PARENT
REMARK Flexibility Score: inf
ROOT
ATOM      1  C   UNL     1     -94.505 148.257 239.050  1.00  0.00     0.000 C 
ENDROOT
BRANCH   1   2
ATOM      2  C   UNL     1     -94.265 146.751 238.835  1.00  0.00     0.000 C 
BRANCH   2   3
ATOM      3  C   UNL     1     -93.487 146.049 239.965  1.00  0.00     0.000 C 
BRANCH   3   4
ATOM      4  C   UNL     1     -92.872 146.990 241.018  1.00  0.00     0.000 C 
BRANCH   4   5
ATOM      5  C   UNL     1     -93.664 147.052 242.345  1.00  0.00     0.000 C 
BRANCH   5   6
ATOM      6  C   UNL     1     -94.748 145.966 242.505  1.00  0.00     0.000 C 
BRANCH   6   7
ATOM      7  C   UNL     1     -96.207 146.462 242.419  1.00  0.00     0.000 C 
BRANCH   7   8
ATOM      8  C   UNL     1     -96.610 147.508 243.476  1.00  0.00     0.000 C 
BRANCH   8   9
ATOM      9  C   UNL     1     -96.540 148.970 242.999  1.00  0.00     0.000 C 
BRANCH   9  10
ATOM     10  C   UNL     1     -97.917 149.653 242.963  1.00  0.00     0.000 C 
BRANCH  10  11
ATOM     11  C   UNL     1     -98.389 149.937 241.520  1.00  0.00     0.000 C 
BRANCH  11  12
ATOM     12  C   UNL     1     -99.915 150.100 241.396  1.00  0.00     0.006 C 
BRANCH  12  13
ATOM     13  C   UNL     1    -100.646 150.182 242.744  1.00  0.00     0.053 C 
BRANCH  13  14
ATOM     14  C   UNL     1    -101.668 151.278 242.762  1.00  0.00     0.041 C 
ATOM     15  O   UNL     1    -102.070 151.791 241.684  1.00  0.00    -0.550 OA
ATOM     16  O   UNL     1    -102.178 151.734 243.971  1.00  0.00    -0.550 OA
ENDBRANCH  13  14
ENDBRANCH  12  13
ENDBRANCH  11  12
ENDBRANCH  10  11
ENDBRANCH   9  10
ENDBRANCH   8   9
ENDBRANCH   7   8
ENDBRANCH   6   7
ENDBRANCH   5   6
ENDBRANCH   4   5
ENDBRANCH   3   4
ENDBRANCH   2   3
ENDBRANCH   1   2
BRANCH   1  17
ATOM     17  C   UNL     1     -95.988 148.601 239.271  1.00  0.00     0.000 C 
BRANCH  17  18
ATOM     18  C   UNL     1     -96.922 147.416 238.983  1.00  0.00     0.000 C 
BRANCH  18  19
ATOM     19  C   UNL     1     -98.297 147.860 238.454  1.00  0.00     0.000 C 
BRANCH  19  20
ATOM     20  C   UNL     1     -98.213 149.136 237.599  1.00  0.00     0.000 C 
BRANCH  20  21
ATOM     21  C   UNL     1     -99.590 149.786 237.369  1.00  0.00     0.000 C 
BRANCH  21  22
ATOM     22  C   UNL     1     -99.598 151.284 237.713  1.00  0.00    -0.000 C 
BRANCH  22  23
ATOM     23  C   UNL     1     -98.284 151.748 238.367  1.00  0.00    -0.000 C 
BRANCH  23  24
ATOM     24  C   UNL     1     -97.639 152.927 237.606  1.00  0.00    -0.000 C 
BRANCH  24  25
ATOM     25  C   UNL     1     -96.594 152.491 236.564  1.00  0.00    -0.000 C 
BRANCH  25  26
ATOM     26  C   UNL     1     -95.441 151.685 237.178  1.00  0.00    -0.000 C 
BRANCH  26  27
ATOM     27  C   UNL     1     -94.975 150.580 236.218  1.00  0.00    -0.000 C 
BRANCH  27  28
ATOM     28  C   UNL     1     -95.845 150.486 234.955  1.00  0.00    -0.000 C 
BRANCH  28  29
ATOM     29  C   UNL     1     -96.135 149.036 234.542  1.00  0.00    -0.003 C 
ATOM     30  C   UNL     1     -95.337 148.053 235.393  1.00  0.00     0.004 C 
ENDBRANCH  28  29
ENDBRANCH  27  28
ENDBRANCH  26  27
ENDBRANCH  25  26
ENDBRANCH  24  25
ENDBRANCH  23  24
ENDBRANCH  22  23
ENDBRANCH  21  22
ENDBRANCH  20  21
ENDBRANCH  19  20
ENDBRANCH  18  19
ENDBRANCH  17  18
ENDBRANCH   1  17
TORSDOF 26
ENDMDL
MODEL 6
REMARK VINA RESULT:    -3.348      3.058      6.700
REMARK INTER + INTRA:         -13.147
REMARK INTER:                  -8.084
REMARK INTRA:                  -5.062
REMARK UNBOUND:                -4.711
REMARK SMILES CCCCCCCCCCCCCCCCCCCCCCCCCCCC(=O)[O-]
REMARK SMILES IDX 15 1 16 2 17 3 18 4 19 5 20 6 21 7 22 8 23 9 24 10 25 11
REMARK SMILES IDX 26 12 27 13 28 14 29 15 30 16 14 17 13 18 12 19 11 20 10 21
REMARK SMILES IDX 9 22 8 23 7 24 6 25 5 26 4 27 3 28 2 29 1 30
REMARK H PARENT
REMARK Flexibility Score: inf
ROOT
ATOM      1  C   UNL     1     -99.198 147.399 240.771  1.00  0.00     0.000 C 
ENDROOT
BRANCH   1   2
ATOM      2  C   UNL     1     -98.253 147.312 239.558  1.00  0.00     0.000 C 
BRANCH   2   3
ATOM      3  C   UNL     1     -97.106 148.341 239.554  1.00  0.00     0.000 C 
BRANCH   3   4
ATOM      4  C   UNL     1     -95.882 147.955 238.702  1.00  0.00     0.000 C 
BRANCH   4   5
ATOM      5  C   UNL     1     -94.526 148.205 239.402  1.00  0.00     0.000 C 
BRANCH   5   6
ATOM      6  C   UNL     1     -93.616 146.965 239.518  1.00  0.00     0.000 C 
BRANCH   6   7
ATOM      7  C   UNL     1     -92.911 146.779 240.878  1.00  0.00     0.000 C 
BRANCH   7   8
ATOM      8  C   UNL     1     -93.702 147.275 242.104  1.00  0.00     0.000 C 
BRANCH   8   9
ATOM      9  C   UNL     1     -94.852 146.352 242.549  1.00  0.00     0.000 C 
BRANCH   9  10
ATOM     10  C   UNL     1     -96.127 147.125 242.924  1.00  0.00     0.000 C 
BRANCH  10  11
ATOM     11  C   UNL     1     -95.909 148.654 242.904  1.00  0.00     0.000 C 
BRANCH  11  12
ATOM     12  C   UNL     1     -97.138 149.454 243.373  1.00  0.00     0.006 C 
BRANCH  12  13
ATOM     13  C   UNL     1     -98.182 148.612 244.121  1.00  0.00     0.053 C 
BRANCH  13  14
ATOM     14  C   UNL     1     -97.866 148.500 245.582  1.00  0.00     0.041 C 
ATOM     15  O   UNL     1     -97.795 149.532 246.300  1.00  0.00    -0.550 OA
ATOM     16  O   UNL     1     -97.649 147.251 246.152  1.00  0.00    -0.550 OA
ENDBRANCH  13  14
ENDBRANCH  12  13
ENDBRANCH  11  12
ENDBRANCH  10  11
ENDBRANCH   9  10
ENDBRANCH   8   9
ENDBRANCH   7   8
ENDBRANCH   6   7
ENDBRANCH   5   6
ENDBRANCH   4   5
ENDBRANCH   3   4
ENDBRANCH   2   3
ENDBRANCH   1   2
BRANCH   1  17
ATOM     17  C   UNL     1    -100.341 148.408 240.568  1.00  0.00     0.000 C 
BRANCH  17  18
ATOM     18  C   UNL     1    -100.348 149.518 241.631  1.00  0.00     0.000 C 
BRANCH  18  19
ATOM     19  C   UNL     1    -100.404 150.927 241.016  1.00  0.00     0.000 C 
BRANCH  19  20
ATOM     20  C   UNL     1     -99.152 151.255 240.185  1.00  0.00     0.000 C 
BRANCH  20  21
ATOM     21  C   UNL     1     -99.426 152.301 239.089  1.00  0.00     0.000 C 
BRANCH  21  22
ATOM     22  C   UNL     1    -100.063 151.685 237.833  1.00  0.00    -0.000 C 
BRANCH  22  23
ATOM     23  C   UNL     1     -99.575 150.251 237.565  1.00  0.00    -0.000 C 
BRANCH  23  24
ATOM     24  C   UNL     1     -99.422 149.959 236.057  1.00  0.00    -0.000 C 
BRANCH  24  25
ATOM     25  C   UNL     1     -98.191 150.628 235.421  1.00  0.00    -0.000 C 
BRANCH  25  26
ATOM     26  C   UNL     1     -96.866 150.036 235.921  1.00  0.00    -0.000 C 
BRANCH  26  27
ATOM     27  C   UNL     1     -96.111 151.047 236.797  1.00  0.00    -0.000 C 
BRANCH  27  28
ATOM     28  C   UNL     1     -96.302 152.497 236.327  1.00  0.00    -0.000 C 
BRANCH  28  29
ATOM     29  C   UNL     1     -96.432 153.486 237.494  1.00  0.00    -0.003 C 
ATOM     30  C   UNL     1     -97.305 154.677 237.110  1.00  0.00     0.004 C 
ENDBRANCH  28  29
ENDBRANCH  27  28
ENDBRANCH  26  27
ENDBRANCH  25  26
ENDBRANCH  24  25
ENDBRANCH  23  24
ENDBRANCH  22  23
ENDBRANCH  21  22
ENDBRANCH  20  21
ENDBRANCH  19  20
ENDBRANCH  18  19
ENDBRANCH  17  18
ENDBRANCH   1  17
TORSDOF 26
ENDMDL
MODEL 7
REMARK VINA RESULT:    -3.334      1.850      6.793
REMARK INTER + INTRA:         -13.112
REMARK INTER:                  -9.649
REMARK INTRA:                  -3.463
REMARK UNBOUND:                -4.711
REMARK SMILES CCCCCCCCCCCCCCCCCCCCCCCCCCCC(=O)[O-]
REMARK SMILES IDX 15 1 16 2 17 3 18 4 19 5 20 6 21 7 22 8 23 9 24 10 25 11
REMARK SMILES IDX 26 12 27 13 28 14 29 15 30 16 14 17 13 18 12 19 11 20 10 21
REMARK SMILES IDX 9 22 8 23 7 24 6 25 5 26 4 27 3 28 2 29 1 30
REMARK H PARENT
REMARK Flexibility Score: inf
ROOT
ATOM      1  C   UNL     1     -98.377 149.802 241.900  1.00  0.00     0.000 C 
ENDROOT
BRANCH   1   2
ATOM      2  C   UNL     1     -99.134 148.651 241.210  1.00  0.00     0.000 C 
BRANCH   2   3
ATOM      3  C   UNL     1     -98.892 148.532 239.693  1.00  0.00     0.000 C 
BRANCH   3   4
ATOM      4  C   UNL     1     -97.455 148.841 239.233  1.00  0.00     0.000 C 
BRANCH   4   5
ATOM      5  C   UNL     1     -96.616 147.584 238.904  1.00  0.00     0.000 C 
BRANCH   5   6
ATOM      6  C   UNL     1     -95.477 147.811 237.889  1.00  0.00     0.000 C 
BRANCH   6   7
ATOM      7  C   UNL     1     -94.859 149.225 237.885  1.00  0.00     0.000 C 
BRANCH   7   8
ATOM      8  C   UNL     1     -94.409 149.744 236.506  1.00  0.00     0.000 C 
BRANCH   8   9
ATOM      9  C   UNL     1     -95.338 150.800 235.878  1.00  0.00     0.000 C 
BRANCH   9  10
ATOM     10  C   UNL     1     -96.183 151.548 236.922  1.00  0.00     0.000 C 
BRANCH  10  11
ATOM     11  C   UNL     1     -97.548 151.995 236.353  1.00  0.00     0.000 C 
BRANCH  11  12
ATOM     12  C   UNL     1     -97.427 152.960 235.159  1.00  0.00     0.006 C 
BRANCH  12  13
ATOM     13  C   UNL     1     -97.915 154.385 235.456  1.00  0.00     0.053 C 
BRANCH  13  14
ATOM     14  C   UNL     1     -97.595 154.805 236.858  1.00  0.00     0.041 C 
ATOM     15  O   UNL     1     -98.408 154.579 237.793  1.00  0.00    -0.550 OA
ATOM     16  O   UNL     1     -96.395 155.450 237.134  1.00  0.00    -0.550 OA
ENDBRANCH  13  14
ENDBRANCH  12  13
ENDBRANCH  11  12
ENDBRANCH  10  11
ENDBRANCH   9  10
ENDBRANCH   8   9
ENDBRANCH   7   8
ENDBRANCH   6   7
ENDBRANCH   5   6
ENDBRANCH   4   5
ENDBRANCH   3   4
ENDBRANCH   2   3
ENDBRANCH   1   2
BRANCH   1  17
ATOM     17  C   UNL     1     -97.709 149.374 243.218  1.00  0.00     0.000 C 
BRANCH  17  18
ATOM     18  C   UNL     1     -96.306 148.782 243.008  1.00  0.00     0.000 C 
BRANCH  18  19
ATOM     19  C   UNL     1     -96.304 147.243 243.019  1.00  0.00     0.000 C 
BRANCH  19  20
ATOM     20  C   UNL     1     -95.147 146.651 242.198  1.00  0.00     0.000 C 
BRANCH  20  21
ATOM     21  C   UNL     1     -94.289 147.732 241.517  1.00  0.00     0.000 C 
BRANCH  21  22
ATOM     22  C   UNL     1     -92.863 147.246 241.211  1.00  0.00    -0.000 C 
BRANCH  22  23
ATOM     23  C   UNL     1     -92.773 145.714 241.096  1.00  0.00    -0.000 C 
BRANCH  23  24
ATOM     24  C   UNL     1     -92.075 145.268 239.793  1.00  0.00    -0.000 C 
BRANCH  24  25
ATOM     25  C   UNL     1     -92.996 145.291 238.561  1.00  0.00    -0.000 C 
BRANCH  25  26
ATOM     26  C   UNL     1     -92.226 145.182 237.238  1.00  0.00    -0.000 C 
BRANCH  26  27
ATOM     27  C   UNL     1     -93.102 145.624 236.056  1.00  0.00    -0.000 C 
BRANCH  27  28
ATOM     28  C   UNL     1     -92.496 146.801 235.276  1.00  0.00    -0.000 C 
BRANCH  28  29
ATOM     29  C   UNL     1     -90.962 146.757 235.235  1.00  0.00    -0.003 C 
ATOM     30  C   UNL     1     -90.468 145.957 234.034  1.00  0.00     0.004 C 
ENDBRANCH  28  29
ENDBRANCH  27  28
ENDBRANCH  26  27
ENDBRANCH  25  26
ENDBRANCH  24  25
ENDBRANCH  23  24
ENDBRANCH  22  23
ENDBRANCH  21  22
ENDBRANCH  20  21
ENDBRANCH  19  20
ENDBRANCH  18  19
ENDBRANCH  17  18
ENDBRANCH   1  17
TORSDOF 26
ENDMDL
MODEL 8
REMARK VINA RESULT:    -3.321      1.832      6.210
REMARK INTER + INTRA:         -13.078
REMARK INTER:                  -7.819
REMARK INTRA:                  -5.260
REMARK UNBOUND:                -4.711
REMARK SMILES CCCCCCCCCCCCCCCCCCCCCCCCCCCC(=O)[O-]
REMARK SMILES IDX 15 1 16 2 17 3 18 4 19 5 20 6 21 7 22 8 23 9 24 10 25 11
REMARK SMILES IDX 26 12 27 13 28 14 29 15 30 16 14 17 13 18 12 19 11 20 10 21
REMARK SMILES IDX 9 22 8 23 7 24 6 25 5 26 4 27 3 28 2 29 1 30
REMARK H PARENT
REMARK Flexibility Score: inf
ROOT
ATOM      1  C   UNL     1     -97.363 147.925 242.280  1.00  0.00     0.000 C 
ENDROOT
BRANCH   1   2
ATOM      2  C   UNL     1     -97.591 149.387 242.710  1.00  0.00     0.000 C 
BRANCH   2   3
ATOM      3  C   UNL     1     -98.689 150.130 241.924  1.00  0.00     0.000 C 
BRANCH   3   4
ATOM      4  C   UNL     1     -99.025 149.535 240.544  1.00  0.00     0.000 C 
BRANCH   4   5
ATOM      5  C   UNL     1     -98.836 150.524 239.370  1.00  0.00     0.000 C 
BRANCH   5   6
ATOM      6  C   UNL     1     -99.410 150.047 238.021  1.00  0.00     0.000 C 
BRANCH   6   7
ATOM      7  C   UNL     1     -99.809 151.164 237.033  1.00  0.00     0.000 C 
BRANCH   7   8
ATOM      8  C   UNL     1     -99.072 151.143 235.681  1.00  0.00     0.000 C 
BRANCH   8   9
ATOM      9  C   UNL     1     -97.609 150.666 235.749  1.00  0.00     0.000 C 
BRANCH   9  10
ATOM     10  C   UNL     1     -96.602 151.827 235.767  1.00  0.00     0.000 C 
BRANCH  10  11
ATOM     11  C   UNL     1     -96.236 152.258 237.205  1.00  0.00     0.000 C 
BRANCH  11  12
ATOM     12  C   UNL     1     -96.536 153.741 237.494  1.00  0.00     0.006 C 
BRANCH  12  13
ATOM     13  C   UNL     1     -97.680 154.322 236.652  1.00  0.00     0.053 C 
BRANCH  13  14
ATOM     14  C   UNL     1     -97.228 155.482 235.818  1.00  0.00     0.041 C 
ATOM     15  O   UNL     1     -96.723 156.499 236.362  1.00  0.00    -0.550 OA
ATOM     16  O   UNL     1     -97.364 155.440 234.436  1.00  0.00    -0.550 OA
ENDBRANCH  13  14
ENDBRANCH  12  13
ENDBRANCH  11  12
ENDBRANCH  10  11
ENDBRANCH   9  10
ENDBRANCH   8   9
ENDBRANCH   7   8
ENDBRANCH   6   7
ENDBRANCH   5   6
ENDBRANCH   4   5
ENDBRANCH   3   4
ENDBRANCH   2   3
ENDBRANCH   1   2
BRANCH   1  17
ATOM     17  C   UNL     1     -96.248 147.232 243.082  1.00  0.00     0.000 C 
BRANCH  17  18
ATOM     18  C   UNL     1     -95.162 146.622 242.182  1.00  0.00     0.000 C 
BRANCH  18  19
ATOM     19  C   UNL     1     -94.083 147.643 241.779  1.00  0.00     0.000 C 
BRANCH  19  20
ATOM     20  C   UNL     1     -93.226 147.157 240.599  1.00  0.00     0.000 C 
BRANCH  20  21
ATOM     21  C   UNL     1     -93.335 145.638 240.372  1.00  0.00     0.000 C 
BRANCH  21  22
ATOM     22  C   UNL     1     -93.928 145.289 238.998  1.00  0.00    -0.000 C 
BRANCH  22  23
ATOM     23  C   UNL     1     -92.990 145.665 237.837  1.00  0.00    -0.000 C 
BRANCH  23  24
ATOM     24  C   UNL     1     -93.768 146.005 236.547  1.00  0.00    -0.000 C 
BRANCH  24  25
ATOM     25  C   UNL     1     -93.574 147.456 236.075  1.00  0.00    -0.000 C 
BRANCH  25  26
ATOM     26  C   UNL     1     -94.802 148.339 236.341  1.00  0.00    -0.000 C 
BRANCH  26  27
ATOM     27  C   UNL     1     -94.733 148.964 237.742  1.00  0.00    -0.000 C 
BRANCH  27  28
ATOM     28  C   UNL     1     -95.928 148.573 238.625  1.00  0.00    -0.000 C 
BRANCH  28  29
ATOM     29  C   UNL     1     -96.832 147.521 237.966  1.00  0.00    -0.003 C 
ATOM     30  C   UNL     1     -97.323 146.501 238.990  1.00  0.00     0.004 C 
ENDBRANCH  28  29
ENDBRANCH  27  28
ENDBRANCH  26  27
ENDBRANCH  25  26
ENDBRANCH  24  25
ENDBRANCH  23  24
ENDBRANCH  22  23
ENDBRANCH  21  22
ENDBRANCH  20  21
ENDBRANCH  19  20
ENDBRANCH  18  19
ENDBRANCH  17  18
ENDBRANCH   1  17
TORSDOF 26
ENDMDL
MODEL 9
REMARK VINA RESULT:    -3.317      3.239      7.079
REMARK INTER + INTRA:         -13.068
REMARK INTER:                  -8.253
REMARK INTRA:                  -4.815
REMARK UNBOUND:                -4.711
REMARK SMILES CCCCCCCCCCCCCCCCCCCCCCCCCCCC(=O)[O-]
REMARK SMILES IDX 15 1 16 2 17 3 18 4 19 5 20 6 21 7 22 8 23 9 24 10 25 11
REMARK SMILES IDX 26 12 27 13 28 14 29 15 30 16 14 17 13 18 12 19 11 20 10 21
REMARK SMILES IDX 9 22 8 23 7 24 6 25 5 26 4 27 3 28 2 29 1 30
REMARK H PARENT
REMARK Flexibility Score: inf
ROOT
ATOM      1  C   UNL     1     -94.350 147.924 238.997  1.00  0.00     0.000 C 
ENDROOT
BRANCH   1   2
ATOM      2  C   UNL     1     -94.637 146.414 239.096  1.00  0.00     0.000 C 
BRANCH   2   3
ATOM      3  C   UNL     1     -93.387 145.522 239.216  1.00  0.00     0.000 C 
BRANCH   3   4
ATOM      4  C   UNL     1     -92.523 145.768 240.467  1.00  0.00     0.000 C 
BRANCH   4   5
ATOM      5  C   UNL     1     -93.033 145.044 241.735  1.00  0.00     0.000 C 
BRANCH   5   6
ATOM      6  C   UNL     1     -93.784 145.943 242.738  1.00  0.00     0.000 C 
BRANCH   6   7
ATOM      7  C   UNL     1     -95.302 145.689 242.855  1.00  0.00     0.000 C 
BRANCH   7   8
ATOM      8  C   UNL     1     -96.202 146.850 242.391  1.00  0.00     0.000 C 
BRANCH   8   9
ATOM      9  C   UNL     1     -95.498 148.216 242.296  1.00  0.00     0.000 C 
BRANCH   9  10
ATOM     10  C   UNL     1     -96.205 149.311 243.111  1.00  0.00     0.000 C 
BRANCH  10  11
ATOM     11  C   UNL     1     -97.725 149.352 242.837  1.00  0.00     0.000 C 
BRANCH  11  12
ATOM     12  C   UNL     1     -98.580 149.222 244.111  1.00  0.00     0.006 C 
BRANCH  12  13
ATOM     13  C   UNL     1     -97.825 148.634 245.312  1.00  0.00     0.053 C 
BRANCH  13  14
ATOM     14  C   UNL     1     -98.250 147.227 245.606  1.00  0.00     0.041 C 
ATOM     15  O   UNL     1     -97.392 146.312 245.714  1.00  0.00    -0.550 OA
ATOM     16  O   UNL     1     -99.598 146.926 245.760  1.00  0.00    -0.550 OA
ENDBRANCH  13  14
ENDBRANCH  12  13
ENDBRANCH  11  12
ENDBRANCH  10  11
ENDBRANCH   9  10
ENDBRANCH   8   9
ENDBRANCH   7   8
ENDBRANCH   6   7
ENDBRANCH   5   6
ENDBRANCH   4   5
ENDBRANCH   3   4
ENDBRANCH   2   3
ENDBRANCH   1   2
BRANCH   1  17
ATOM     17  C   UNL     1     -95.610 148.755 238.697  1.00  0.00     0.000 C 
BRANCH  17  18
ATOM     18  C   UNL     1     -96.888 147.903 238.663  1.00  0.00     0.000 C 
BRANCH  18  19
ATOM     19  C   UNL     1     -98.076 148.642 238.023  1.00  0.00     0.000 C 
BRANCH  19  20
ATOM     20  C   UNL     1     -98.889 149.448 239.049  1.00  0.00     0.000 C 
BRANCH  20  21
ATOM     21  C   UNL     1     -98.472 150.929 239.105  1.00  0.00     0.000 C 
BRANCH  21  22
ATOM     22  C   UNL     1     -98.362 151.562 237.708  1.00  0.00    -0.000 C 
BRANCH  22  23
ATOM     23  C   UNL     1     -96.949 152.093 237.409  1.00  0.00    -0.000 C 
BRANCH  23  24
ATOM     24  C   UNL     1     -96.604 152.016 235.906  1.00  0.00    -0.000 C 
BRANCH  24  25
ATOM     25  C   UNL     1     -96.669 150.591 235.330  1.00  0.00    -0.000 C 
BRANCH  25  26
ATOM     26  C   UNL     1     -95.306 149.884 235.332  1.00  0.00    -0.000 C 
BRANCH  26  27
ATOM     27  C   UNL     1     -95.346 148.617 234.465  1.00  0.00    -0.000 C 
BRANCH  27  28
ATOM     28  C   UNL     1     -94.881 147.365 235.224  1.00  0.00    -0.000 C 
BRANCH  28  29
ATOM     29  C   UNL     1     -93.393 147.416 235.597  1.00  0.00    -0.003 C 
ATOM     30  C   UNL     1     -92.783 146.018 235.617  1.00  0.00     0.004 C 
ENDBRANCH  28  29
ENDBRANCH  27  28
ENDBRANCH  26  27
ENDBRANCH  25  26
ENDBRANCH  24  25
ENDBRANCH  23  24
ENDBRANCH  22  23
ENDBRANCH  21  22
ENDBRANCH  20  21
ENDBRANCH  19  20
ENDBRANCH  18  19
ENDBRANCH  17  18
ENDBRANCH   1  17
TORSDOF 26
ENDMDL
