MODEL 1
REMARK VINA RESULT:    -1.001      0.000      0.000
REMARK INTER + INTRA:          -1.405
REMARK INTER:                  -1.177
REMARK INTRA:                  -0.229
REMARK UNBOUND:                -0.229
REMARK SMILES O=c1c(O)c(-c2ccc(O)cc2)oc2cc(O)cc(O)c12
REMARK SMILES IDX 5 1 3 2 2 3 1 4 21 5 19 6 18 7 16 8 15 9 14 10 13 11 6 12
REMARK SMILES IDX 7 13 8 14 9 15 12 16 11 17 10 18 4 20 20 22 17 24
REMARK H PARENT 10 19 4 21 20 23 17 25
REMARK Flexibility Score: inf
ROOT
ATOM      1  C   UNL     1      10.184  69.505  -0.893  1.00  0.00     0.180 A 
ATOM      2  C   UNL     1       8.918  68.922  -1.098  1.00  0.00     0.208 A 
ATOM      3  C   UNL     1       8.414  68.037  -0.133  1.00  0.00     0.238 A 
ATOM      4  O   UNL     1       7.287  67.499  -0.312  1.00  0.00    -0.285 OA
ATOM      5  C   UNL     1       9.170  67.765   1.026  1.00  0.00     0.111 A 
ATOM      6  C   UNL     1       8.733  66.888   2.048  1.00  0.00     0.134 A 
ATOM      7  C   UNL     1       9.540  66.678   3.177  1.00  0.00     0.093 A 
ATOM      8  C   UNL     1      10.771  67.326   3.303  1.00  0.00     0.123 A 
ATOM      9  C   UNL     1      11.209  68.192   2.296  1.00  0.00     0.094 A 
ATOM     10  C   UNL     1      10.420  68.414   1.163  1.00  0.00     0.146 A 
ATOM     11  O   UNL     1      10.861  69.238   0.219  1.00  0.00    -0.452 OA
ENDROOT
BRANCH   1  12
ATOM     12  C   UNL     1      10.790  70.433  -1.874  1.00  0.00     0.021 A 
ATOM     13  C   UNL     1      10.920  71.794  -1.549  1.00  0.00     0.016 A 
ATOM     14  C   UNL     1      11.510  72.685  -2.450  1.00  0.00     0.047 A 
ATOM     15  C   UNL     1      11.992  72.226  -3.680  1.00  0.00     0.115 A 
ATOM     16  C   UNL     1      11.295  69.974  -3.104  1.00  0.00     0.016 A 
ATOM     17  C   UNL     1      11.887  70.867  -4.004  1.00  0.00     0.047 A 
BRANCH  15  18
ATOM     18  O   UNL     1      12.577  73.125  -4.569  1.00  0.00    -0.508 OA
ATOM     19  H   UNL     1      13.123  73.914  -4.242  1.00  0.00     0.293 HD
ENDBRANCH  15  18
ENDBRANCH   1  12
BRANCH   2  20
ATOM     20  O   UNL     1       8.167  69.245  -2.232  1.00  0.00    -0.502 OA
ATOM     21  H   UNL     1       8.064  68.608  -3.014  1.00  0.00     0.293 HD
ENDBRANCH   2  20
BRANCH   6  22
ATOM     22  O   UNL     1       7.508  66.228   1.952  1.00  0.00    -0.507 OA
ATOM     23  H   UNL     1       7.044  66.092   1.061  1.00  0.00     0.293 HD
ENDBRANCH   6  22
BRANCH   8  24
ATOM     24  O   UNL     1      11.553  67.100   4.434  1.00  0.00    -0.508 OA
ATOM     25  H   UNL     1      11.143  66.808   5.312  1.00  0.00     0.293 HD
ENDBRANCH   8  24
TORSDOF 5
ENDMDL
MODEL 2
REMARK VINA RESULT:    -0.827      1.572      2.522
REMARK INTER + INTRA:          -1.200
REMARK INTER:                  -1.773
REMARK INTRA:                   0.573
REMARK UNBOUND:                -0.229
REMARK SMILES O=c1c(O)c(-c2ccc(O)cc2)oc2cc(O)cc(O)c12
REMARK SMILES IDX 5 1 3 2 2 3 1 4 21 5 19 6 18 7 16 8 15 9 14 10 13 11 6 12
REMARK SMILES IDX 7 13 8 14 9 15 12 16 11 17 10 18 4 20 20 22 17 24
REMARK H PARENT 10 19 4 21 20 23 17 25
REMARK Flexibility Score: inf
ROOT
ATOM      1  C   UNL     1      10.379  69.836  -0.308  1.00  0.00     0.180 A 
ATOM      2  C   UNL     1      10.186  70.354   0.988  1.00  0.00     0.208 A 
ATOM      3  C   UNL     1       9.699  69.504   1.992  1.00  0.00     0.238 A 
ATOM      4  O   UNL     1       9.512  69.959   3.154  1.00  0.00    -0.285 OA
ATOM      5  C   UNL     1       9.432  68.152   1.692  1.00  0.00     0.111 A 
ATOM      6  C   UNL     1       8.942  67.228   2.648  1.00  0.00     0.134 A 
ATOM      7  C   UNL     1       8.710  65.897   2.273  1.00  0.00     0.093 A 
ATOM      8  C   UNL     1       8.957  65.471   0.966  1.00  0.00     0.123 A 
ATOM      9  C   UNL     1       9.440  66.379   0.017  1.00  0.00     0.094 A 
ATOM     10  C   UNL     1       9.677  67.711   0.370  1.00  0.00     0.146 A 
ATOM     11  O   UNL     1      10.130  68.553  -0.550  1.00  0.00    -0.452 OA
ENDROOT
BRANCH   1  12
ATOM     12  C   UNL     1      10.871  70.675  -1.424  1.00  0.00     0.021 A 
ATOM     13  C   UNL     1      11.088  72.047  -1.214  1.00  0.00     0.016 A 
ATOM     14  C   UNL     1      11.574  72.854  -2.246  1.00  0.00     0.047 A 
ATOM     15  C   UNL     1      11.865  72.299  -3.496  1.00  0.00     0.115 A 
ATOM     16  C   UNL     1      11.185  70.119  -2.678  1.00  0.00     0.016 A 
ATOM     17  C   UNL     1      11.673  70.928  -3.709  1.00  0.00     0.047 A 
BRANCH  15  18
ATOM     18  O   UNL     1      12.348  73.116  -4.517  1.00  0.00    -0.508 OA
ATOM     19  H   UNL     1      13.342  73.215  -4.689  1.00  0.00     0.293 HD
ENDBRANCH  15  18
ENDBRANCH   1  12
BRANCH   2  20
ATOM     20  O   UNL     1      10.506  71.685   1.271  1.00  0.00    -0.502 OA
ATOM     21  H   UNL     1      10.088  72.190   2.045  1.00  0.00     0.293 HD
ENDBRANCH   2  20
BRANCH   6  22
ATOM     22  O   UNL     1       8.686  67.623   3.962  1.00  0.00    -0.507 OA
ATOM     23  H   UNL     1       8.967  67.055   4.753  1.00  0.00     0.293 HD
ENDBRANCH   6  22
BRANCH   8  24
ATOM     24  O   UNL     1       8.719  64.143   0.619  1.00  0.00    -0.508 OA
ATOM     25  H   UNL     1       7.870  63.666   0.898  1.00  0.00     0.293 HD
ENDBRANCH   8  24
TORSDOF 5
ENDMDL
MODEL 3
REMARK VINA RESULT:    -0.565      2.719      3.036
REMARK INTER + INTRA:          -0.893
REMARK INTER:                  -1.291
REMARK INTRA:                   0.398
REMARK UNBOUND:                -0.229
REMARK SMILES O=c1c(O)c(-c2ccc(O)cc2)oc2cc(O)cc(O)c12
REMARK SMILES IDX 5 1 3 2 2 3 1 4 21 5 19 6 18 7 16 8 15 9 14 10 13 11 6 12
REMARK SMILES IDX 7 13 8 14 9 15 12 16 11 17 10 18 4 20 20 22 17 24
REMARK H PARENT 10 19 4 21 20 23 17 25
REMARK Flexibility Score: inf
ROOT
ATOM      1  C   UNL     1      10.435  70.655  -0.374  1.00  0.00     0.180 A 
ATOM      2  C   UNL     1      10.388  69.297  -0.004  1.00  0.00     0.208 A 
ATOM      3  C   UNL     1       9.880  68.954   1.258  1.00  0.00     0.238 A 
ATOM      4  O   UNL     1       9.843  67.742   1.604  1.00  0.00    -0.285 OA
ATOM      5  C   UNL     1       9.409  69.968   2.118  1.00  0.00     0.111 A 
ATOM      6  C   UNL     1       8.878  69.707   3.405  1.00  0.00     0.134 A 
ATOM      7  C   UNL     1       8.423  70.772   4.198  1.00  0.00     0.093 A 
ATOM      8  C   UNL     1       8.486  72.086   3.731  1.00  0.00     0.123 A 
ATOM      9  C   UNL     1       9.011  72.350   2.461  1.00  0.00     0.094 A 
ATOM     10  C   UNL     1       9.472  71.304   1.656  1.00  0.00     0.146 A 
ATOM     11  O   UNL     1       9.970  71.582   0.457  1.00  0.00    -0.452 OA
ENDROOT
BRANCH   1  12
ATOM     12  C   UNL     1      10.976  71.096  -1.680  1.00  0.00     0.021 A 
ATOM     13  C   UNL     1      11.466  72.405  -1.818  1.00  0.00     0.016 A 
ATOM     14  C   UNL     1      12.002  72.837  -3.035  1.00  0.00     0.047 A 
ATOM     15  C   UNL     1      12.069  71.962  -4.124  1.00  0.00     0.115 A 
ATOM     16  C   UNL     1      11.064  70.215  -2.773  1.00  0.00     0.016 A 
ATOM     17  C   UNL     1      11.601  70.648  -3.990  1.00  0.00     0.047 A 
BRANCH  15  18
ATOM     18  O   UNL     1      12.604  72.406  -5.332  1.00  0.00    -0.508 OA
ATOM     19  H   UNL     1      12.513  71.862  -6.182  1.00  0.00     0.293 HD
ENDBRANCH  15  18
ENDBRANCH   1  12
BRANCH   2  20
ATOM     20  O   UNL     1      10.815  68.307  -0.895  1.00  0.00    -0.502 OA
ATOM     21  H   UNL     1      11.079  68.517  -1.851  1.00  0.00     0.293 HD
ENDBRANCH   2  20
BRANCH   6  22
ATOM     22  O   UNL     1       8.801  68.405   3.899  1.00  0.00    -0.507 OA
ATOM     23  H   UNL     1       9.357  67.653   3.509  1.00  0.00     0.293 HD
ENDBRANCH   6  22
BRANCH   8  24
ATOM     24  O   UNL     1       8.026  73.125   4.538  1.00  0.00    -0.508 OA
ATOM     25  H   UNL     1       7.738  72.965   5.496  1.00  0.00     0.293 HD
ENDBRANCH   8  24
TORSDOF 5
ENDMDL
MODEL 4
REMARK VINA RESULT:    -0.223      2.020      2.771
REMARK INTER + INTRA:          -0.490
REMARK INTER:                  -1.035
REMARK INTRA:                   0.544
REMARK UNBOUND:                -0.229
REMARK SMILES O=c1c(O)c(-c2ccc(O)cc2)oc2cc(O)cc(O)c12
REMARK SMILES IDX 5 1 3 2 2 3 1 4 21 5 19 6 18 7 16 8 15 9 14 10 13 11 6 12
REMARK SMILES IDX 7 13 8 14 9 15 12 16 11 17 10 18 4 20 20 22 17 24
REMARK H PARENT 10 19 4 21 20 23 17 25
REMARK Flexibility Score: inf
ROOT
ATOM      1  C   UNL     1      10.531  70.831  -0.525  1.00  0.00     0.180 A 
ATOM      2  C   UNL     1      10.287  71.761   0.504  1.00  0.00     0.208 A 
ATOM      3  C   UNL     1       9.742  71.306   1.714  1.00  0.00     0.238 A 
ATOM      4  O   UNL     1       9.509  72.132   2.639  1.00  0.00    -0.285 OA
ATOM      5  C   UNL     1       9.470  69.932   1.883  1.00  0.00     0.111 A 
ATOM      6  C   UNL     1       8.924  69.392   3.073  1.00  0.00     0.134 A 
ATOM      7  C   UNL     1       8.690  68.012   3.166  1.00  0.00     0.093 A 
ATOM      8  C   UNL     1       8.991  67.164   2.098  1.00  0.00     0.123 A 
ATOM      9  C   UNL     1       9.529  67.693   0.920  1.00  0.00     0.094 A 
ATOM     10  C   UNL     1       9.769  69.065   0.806  1.00  0.00     0.146 A 
ATOM     11  O   UNL     1      10.276  69.542  -0.325  1.00  0.00    -0.452 OA
ENDROOT
BRANCH   1  12
ATOM     12  C   UNL     1      11.086  71.237  -1.836  1.00  0.00     0.021 A 
ATOM     13  C   UNL     1      11.628  72.524  -1.989  1.00  0.00     0.016 A 
ATOM     14  C   UNL     1      12.178  72.922  -3.211  1.00  0.00     0.047 A 
ATOM     15  C   UNL     1      12.209  72.035  -4.291  1.00  0.00     0.115 A 
ATOM     16  C   UNL     1      11.139  70.342  -2.921  1.00  0.00     0.016 A 
ATOM     17  C   UNL     1      11.691  70.741  -4.142  1.00  0.00     0.047 A 
BRANCH  15  18
ATOM     18  O   UNL     1      12.759  72.444  -5.503  1.00  0.00    -0.508 OA
ATOM     19  H   UNL     1      12.175  72.744  -6.275  1.00  0.00     0.293 HD
ENDBRANCH  15  18
ENDBRANCH   1  12
BRANCH   2  20
ATOM     20  O   UNL     1      10.612  73.109   0.329  1.00  0.00    -0.502 OA
ATOM     21  H   UNL     1      10.925  73.695   1.095  1.00  0.00     0.293 HD
ENDBRANCH   2  20
BRANCH   6  22
ATOM     22  O   UNL     1       8.614  70.213   4.158  1.00  0.00    -0.507 OA
ATOM     23  H   UNL     1       8.244  69.835   5.023  1.00  0.00     0.293 HD
ENDBRANCH   6  22
BRANCH   8  24
ATOM     24  O   UNL     1       8.750  65.797   2.217  1.00  0.00    -0.508 OA
ATOM     25  H   UNL     1       7.822  65.410   2.096  1.00  0.00     0.293 HD
ENDBRANCH   8  24
TORSDOF 5
ENDMDL
MODEL 5
REMARK VINA RESULT:     0.178      3.051      6.146
REMARK INTER + INTRA:          -0.019
REMARK INTER:                  -0.434
REMARK INTRA:                   0.415
REMARK UNBOUND:                -0.229
REMARK SMILES O=c1c(O)c(-c2ccc(O)cc2)oc2cc(O)cc(O)c12
REMARK SMILES IDX 5 1 3 2 2 3 1 4 21 5 19 6 18 7 16 8 15 9 14 10 13 11 6 12
REMARK SMILES IDX 7 13 8 14 9 15 12 16 11 17 10 18 4 20 20 22 17 24
REMARK H PARENT 10 19 4 21 20 23 17 25
REMARK Flexibility Score: inf
ROOT
ATOM      1  C   UNL     1       9.368  70.508   0.520  1.00  0.00     0.180 A 
ATOM      2  C   UNL     1       8.986  69.194   0.186  1.00  0.00     0.208 A 
ATOM      3  C   UNL     1       9.339  68.684  -1.072  1.00  0.00     0.238 A 
ATOM      4  O   UNL     1       8.993  67.513  -1.387  1.00  0.00    -0.285 OA
ATOM      5  C   UNL     1      10.083  69.484  -1.965  1.00  0.00     0.111 A 
ATOM      6  C   UNL     1      10.482  69.044  -3.251  1.00  0.00     0.134 A 
ATOM      7  C   UNL     1      11.229  69.898  -4.077  1.00  0.00     0.093 A 
ATOM      8  C   UNL     1      11.584  71.177  -3.644  1.00  0.00     0.123 A 
ATOM      9  C   UNL     1      11.191  71.618  -2.376  1.00  0.00     0.094 A 
ATOM     10  C   UNL     1      10.446  70.784  -1.538  1.00  0.00     0.146 A 
ATOM     11  O   UNL     1      10.081  71.227  -0.340  1.00  0.00    -0.452 OA
ENDROOT
BRANCH   1  12
ATOM     12  C   UNL     1       9.016  71.122   1.820  1.00  0.00     0.021 A 
ATOM     13  C   UNL     1       9.003  72.522   1.942  1.00  0.00     0.016 A 
ATOM     14  C   UNL     1       8.652  73.125   3.154  1.00  0.00     0.047 A 
ATOM     15  C   UNL     1       8.295  72.339   4.253  1.00  0.00     0.115 A 
ATOM     16  C   UNL     1       8.637  70.338   2.925  1.00  0.00     0.016 A 
ATOM     17  C   UNL     1       8.285  70.943   4.136  1.00  0.00     0.047 A 
BRANCH  15  18
ATOM     18  O   UNL     1       7.948  72.953   5.455  1.00  0.00    -0.508 OA
ATOM     19  H   UNL     1       7.756  72.411   6.290  1.00  0.00     0.293 HD
ENDBRANCH  15  18
ENDBRANCH   1  12
BRANCH   2  20
ATOM     20  O   UNL     1       8.292  68.405   1.108  1.00  0.00    -0.502 OA
ATOM     21  H   UNL     1       8.586  68.315   2.074  1.00  0.00     0.293 HD
ENDBRANCH   2  20
BRANCH   6  22
ATOM     22  O   UNL     1      10.144  67.771  -3.711  1.00  0.00    -0.507 OA
ATOM     23  H   UNL     1      10.838  67.144  -4.101  1.00  0.00     0.293 HD
ENDBRANCH   6  22
BRANCH   8  24
ATOM     24  O   UNL     1      12.326  72.005  -4.483  1.00  0.00    -0.508 OA
ATOM     25  H   UNL     1      12.133  72.065  -5.476  1.00  0.00     0.293 HD
ENDBRANCH   8  24
TORSDOF 5
ENDMDL
MODEL 6
REMARK VINA RESULT:     0.485      2.789      6.027
REMARK INTER + INTRA:           0.341
REMARK INTER:                  -0.152
REMARK INTRA:                   0.494
REMARK UNBOUND:                -0.229
REMARK SMILES O=c1c(O)c(-c2ccc(O)cc2)oc2cc(O)cc(O)c12
REMARK SMILES IDX 5 1 3 2 2 3 1 4 21 5 19 6 18 7 16 8 15 9 14 10 13 11 6 12
REMARK SMILES IDX 7 13 8 14 9 15 12 16 11 17 10 18 4 20 20 22 17 24
REMARK H PARENT 10 19 4 21 20 23 17 25
REMARK Flexibility Score: inf
ROOT
ATOM      1  C   UNL     1       9.495  68.227  -0.223  1.00  0.00     0.180 A 
ATOM      2  C   UNL     1       9.830  68.828  -1.452  1.00  0.00     0.208 A 
ATOM      3  C   UNL     1       9.935  70.225  -1.517  1.00  0.00     0.238 A 
ATOM      4  O   UNL     1      10.224  70.775  -2.615  1.00  0.00    -0.285 OA
ATOM      5  C   UNL     1       9.725  70.995  -0.354  1.00  0.00     0.111 A 
ATOM      6  C   UNL     1       9.816  72.408  -0.334  1.00  0.00     0.134 A 
ATOM      7  C   UNL     1       9.601  73.102   0.867  1.00  0.00     0.093 A 
ATOM      8  C   UNL     1       9.299  72.413   2.043  1.00  0.00     0.123 A 
ATOM      9  C   UNL     1       9.207  71.017   2.029  1.00  0.00     0.094 A 
ATOM     10  C   UNL     1       9.416  70.307   0.843  1.00  0.00     0.146 A 
ATOM     11  O   UNL     1       9.318  68.983   0.855  1.00  0.00    -0.452 OA
ENDROOT
BRANCH   1  12
ATOM     12  C   UNL     1       9.346  66.761  -0.080  1.00  0.00     0.021 A 
ATOM     13  C   UNL     1       8.897  66.228   1.141  1.00  0.00     0.016 A 
ATOM     14  C   UNL     1       8.728  64.848   1.292  1.00  0.00     0.047 A 
ATOM     15  C   UNL     1       8.989  63.986   0.224  1.00  0.00     0.115 A 
ATOM     16  C   UNL     1       9.588  65.889  -1.157  1.00  0.00     0.016 A 
ATOM     17  C   UNL     1       9.417  64.509  -1.004  1.00  0.00     0.047 A 
BRANCH  15  18
ATOM     18  O   UNL     1       8.818  62.613   0.389  1.00  0.00    -0.508 OA
ATOM     19  H   UNL     1       7.980  62.231   0.815  1.00  0.00     0.293 HD
ENDBRANCH  15  18
ENDBRANCH   1  12
BRANCH   2  20
ATOM     20  O   UNL     1      10.082  68.039  -2.578  1.00  0.00    -0.502 OA
ATOM     21  H   UNL     1      10.999  67.984  -3.007  1.00  0.00     0.293 HD
ENDBRANCH   2  20
BRANCH   6  22
ATOM     22  O   UNL     1      10.116  73.125  -1.493  1.00  0.00    -0.507 OA
ATOM     23  H   UNL     1      11.068  73.219  -1.829  1.00  0.00     0.293 HD
ENDBRANCH   6  22
BRANCH   8  24
ATOM     24  O   UNL     1       9.092  73.125   3.222  1.00  0.00    -0.508 OA
ATOM     25  H   UNL     1       9.524  72.845   4.095  1.00  0.00     0.293 HD
ENDBRANCH   8  24
TORSDOF 5
ENDMDL
MODEL 7
REMARK VINA RESULT:     0.594      3.285      5.298
REMARK INTER + INTRA:           0.470
REMARK INTER:                   0.022
REMARK INTRA:                   0.448
REMARK UNBOUND:                -0.229
REMARK SMILES O=c1c(O)c(-c2ccc(O)cc2)oc2cc(O)cc(O)c12
REMARK SMILES IDX 5 1 3 2 2 3 1 4 21 5 19 6 18 7 16 8 15 9 14 10 13 11 6 12
REMARK SMILES IDX 7 13 8 14 9 15 12 16 11 17 10 18 4 20 20 22 17 24
REMARK H PARENT 10 19 4 21 20 23 17 25
REMARK Flexibility Score: inf
ROOT
ATOM      1  C   UNL     1       9.139  69.686   0.582  1.00  0.00     0.180 A 
ATOM      2  C   UNL     1       9.418  70.159  -0.715  1.00  0.00     0.208 A 
ATOM      3  C   UNL     1       9.661  69.231  -1.739  1.00  0.00     0.238 A 
ATOM      4  O   UNL     1       9.922  69.644  -2.902  1.00  0.00    -0.285 OA
ATOM      5  C   UNL     1       9.601  67.850  -1.456  1.00  0.00     0.111 A 
ATOM      6  C   UNL     1       9.830  66.850  -2.432  1.00  0.00     0.134 A 
ATOM      7  C   UNL     1       9.743  65.496  -2.073  1.00  0.00     0.093 A 
ATOM      8  C   UNL     1       9.433  65.125  -0.763  1.00  0.00     0.123 A 
ATOM      9  C   UNL     1       9.208  66.109   0.206  1.00  0.00     0.094 A 
ATOM     10  C   UNL     1       9.291  67.463  -0.131  1.00  0.00     0.146 A 
ATOM     11  O   UNL     1       9.077  68.378   0.808  1.00  0.00    -0.452 OA
ENDROOT
BRANCH   1  12
ATOM     12  C   UNL     1       8.892  70.603   1.718  1.00  0.00     0.021 A 
ATOM     13  C   UNL     1       8.408  70.085   2.931  1.00  0.00     0.016 A 
ATOM     14  C   UNL     1       8.189  70.928   4.024  1.00  0.00     0.047 A 
ATOM     15  C   UNL     1       8.463  72.295   3.925  1.00  0.00     0.115 A 
ATOM     16  C   UNL     1       9.185  71.976   1.630  1.00  0.00     0.016 A 
ATOM     17  C   UNL     1       8.966  72.818   2.725  1.00  0.00     0.047 A 
BRANCH  15  18
ATOM     18  O   UNL     1       8.238  73.125   5.021  1.00  0.00    -0.508 OA
ATOM     19  H   UNL     1       7.604  72.858   5.766  1.00  0.00     0.293 HD
ENDBRANCH  15  18
ENDBRANCH   1  12
BRANCH   2  20
ATOM     20  O   UNL     1       9.422  71.532  -0.979  1.00  0.00    -0.502 OA
ATOM     21  H   UNL     1       9.682  71.909  -1.884  1.00  0.00     0.293 HD
ENDBRANCH   2  20
BRANCH   6  22
ATOM     22  O   UNL     1      10.140  67.189  -3.749  1.00  0.00    -0.507 OA
ATOM     23  H   UNL     1       9.550  66.910  -4.525  1.00  0.00     0.293 HD
ENDBRANCH   6  22
BRANCH   8  24
ATOM     24  O   UNL     1       9.353  63.774  -0.433  1.00  0.00    -0.508 OA
ATOM     25  H   UNL     1       8.697  63.435   0.261  1.00  0.00     0.293 HD
ENDBRANCH   8  24
TORSDOF 5
ENDMDL
