MODEL 1
REMARK VINA RESULT:     8.459      0.000      0.000
REMARK INTER + INTRA:          16.990
REMARK INTER:                  18.349
REMARK INTRA:                  -1.359
REMARK UNBOUND:                -1.359
REMARK SMILES CCCCCCCCCCCCCCCCCCCCCC(=O)[O-]
REMARK SMILES IDX 12 1 11 2 10 3 9 4 8 5 7 6 6 7 5 8 4 9 3 10 2 11 1 12 13 13
REMARK SMILES IDX 14 14 15 15 16 16 17 17 18 18 19 19 20 20 21 21 22 22 23 23
REMARK SMILES IDX 24 24
REMARK H PARENT
REMARK Flexibility Score: inf
ROOT
ATOM      1  C   UNL     1      19.003   0.937  24.646  1.00  0.00     0.000 C 
ENDROOT
BRANCH   1   2
ATOM      2  C   UNL     1      20.253   1.649  25.182  1.00  0.00     0.000 C 
BRANCH   2   3
ATOM      3  C   UNL     1      21.305   0.637  25.648  1.00  0.00     0.000 C 
BRANCH   3   4
ATOM      4  C   UNL     1      21.273   0.471  27.172  1.00  0.00    -0.000 C 
BRANCH   4   5
ATOM      5  C   UNL     1      19.829   0.474  27.696  1.00  0.00    -0.000 C 
BRANCH   5   6
ATOM      6  C   UNL     1      19.672   1.284  28.993  1.00  0.00    -0.000 C 
BRANCH   6   7
ATOM      7  C   UNL     1      19.007   2.652  28.760  1.00  0.00    -0.000 C 
BRANCH   7   8
ATOM      8  C   UNL     1      19.447   3.708  29.787  1.00  0.00    -0.000 C 
BRANCH   8   9
ATOM      9  C   UNL     1      18.657   3.616  31.104  1.00  0.00    -0.000 C 
BRANCH   9  10
ATOM     10  C   UNL     1      17.242   4.214  30.995  1.00  0.00    -0.000 C 
BRANCH  10  11
ATOM     11  C   UNL     1      16.914   4.866  29.640  1.00  0.00    -0.003 C 
ATOM     12  C   UNL     1      15.419   5.097  29.432  1.00  0.00     0.004 C 
ENDBRANCH  10  11
ENDBRANCH   9  10
ENDBRANCH   8   9
ENDBRANCH   7   8
ENDBRANCH   6   7
ENDBRANCH   5   6
ENDBRANCH   4   5
ENDBRANCH   3   4
ENDBRANCH   2   3
ENDBRANCH   1   2
BRANCH   1  13
ATOM     13  C   UNL     1      17.716   1.357  25.377  1.00  0.00     0.000 C 
BRANCH  13  14
ATOM     14  C   UNL     1      17.150   2.731  24.961  1.00  0.00     0.000 C 
BRANCH  14  15
ATOM     15  C   UNL     1      16.559   3.572  26.110  1.00  0.00     0.000 C 
BRANCH  15  16
ATOM     16  C   UNL     1      15.023   3.551  26.203  1.00  0.00     0.000 C 
BRANCH  16  17
ATOM     17  C   UNL     1      14.423   2.193  25.799  1.00  0.00     0.000 C 
BRANCH  17  18
ATOM     18  C   UNL     1      13.032   2.327  25.159  1.00  0.00     0.000 C 
BRANCH  18  19
ATOM     19  C   UNL     1      13.085   2.285  23.622  1.00  0.00     0.000 C 
BRANCH  19  20
ATOM     20  C   UNL     1      13.711   3.554  23.013  1.00  0.00     0.006 C 
BRANCH  20  21
ATOM     21  C   UNL     1      12.713   4.693  22.753  1.00  0.00     0.053 C 
BRANCH  21  22
ATOM     22  C   UNL     1      13.258   6.026  23.168  1.00  0.00     0.041 C 
ATOM     23  O   UNL     1      13.170   6.401  24.366  1.00  0.00    -0.550 OA
ATOM     24  O   UNL     1      13.895   6.838  22.237  1.00  0.00    -0.550 OA
ENDBRANCH  21  22
ENDBRANCH  20  21
ENDBRANCH  19  20
ENDBRANCH  18  19
ENDBRANCH  17  18
ENDBRANCH  16  17
ENDBRANCH  15  16
ENDBRANCH  14  15
ENDBRANCH  13  14
ENDBRANCH   1  13
TORSDOF 20
ENDMDL
MODEL 2
REMARK VINA RESULT:     8.598      6.829     11.497
REMARK INTER + INTRA:          17.291
REMARK INTER:                  18.362
REMARK INTRA:                  -1.071
REMARK UNBOUND:                -1.359
REMARK SMILES CCCCCCCCCCCCCCCCCCCCCC(=O)[O-]
REMARK SMILES IDX 12 1 11 2 10 3 9 4 8 5 7 6 6 7 5 8 4 9 3 10 2 11 1 12 13 13
REMARK SMILES IDX 14 14 15 15 16 16 17 17 18 18 19 19 20 20 21 21 22 22 23 23
REMARK SMILES IDX 24 24
REMARK H PARENT
REMARK Flexibility Score: inf
ROOT
ATOM      1  C   UNL     1      14.844  10.330  23.059  1.00  0.00     0.000 C 
ENDROOT
BRANCH   1   2
ATOM      2  C   UNL     1      13.911  11.549  23.053  1.00  0.00     0.000 C 
BRANCH   2   3
ATOM      3  C   UNL     1      12.564  11.207  22.407  1.00  0.00     0.000 C 
BRANCH   3   4
ATOM      4  C   UNL     1      11.927  12.448  21.769  1.00  0.00    -0.000 C 
BRANCH   4   5
ATOM      5  C   UNL     1      10.883  13.073  22.706  1.00  0.00    -0.000 C 
BRANCH   5   6
ATOM      6  C   UNL     1      10.878  14.609  22.644  1.00  0.00    -0.000 C 
BRANCH   6   7
ATOM      7  C   UNL     1      11.252  15.147  21.251  1.00  0.00    -0.000 C 
BRANCH   7   8
ATOM      8  C   UNL     1      11.220  16.682  21.181  1.00  0.00    -0.000 C 
BRANCH   8   9
ATOM      9  C   UNL     1      12.234  17.338  22.134  1.00  0.00    -0.000 C 
BRANCH   9  10
ATOM     10  C   UNL     1      11.594  17.821  23.449  1.00  0.00    -0.000 C 
BRANCH  10  11
ATOM     11  C   UNL     1      12.387  17.475  24.723  1.00  0.00    -0.003 C 
ATOM     12  C   UNL     1      11.618  16.562  25.676  1.00  0.00     0.004 C 
ENDBRANCH  10  11
ENDBRANCH   9  10
ENDBRANCH   8   9
ENDBRANCH   7   8
ENDBRANCH   6   7
ENDBRANCH   5   6
ENDBRANCH   4   5
ENDBRANCH   3   4
ENDBRANCH   2   3
ENDBRANCH   1   2
BRANCH   1  13
ATOM     13  C   UNL     1      14.239   9.111  22.340  1.00  0.00     0.000 C 
BRANCH  13  14
ATOM     14  C   UNL     1      13.954   7.896  23.248  1.00  0.00     0.000 C 
BRANCH  14  15
ATOM     15  C   UNL     1      13.834   6.544  22.516  1.00  0.00     0.000 C 
BRANCH  15  16
ATOM     16  C   UNL     1      12.703   5.632  23.024  1.00  0.00     0.000 C 
BRANCH  16  17
ATOM     17  C   UNL     1      13.098   4.145  23.031  1.00  0.00     0.000 C 
BRANCH  17  18
ATOM     18  C   UNL     1      14.250   3.842  24.003  1.00  0.00     0.000 C 
BRANCH  18  19
ATOM     19  C   UNL     1      13.903   2.718  24.995  1.00  0.00     0.000 C 
BRANCH  19  20
ATOM     20  C   UNL     1      15.152   2.078  25.629  1.00  0.00     0.006 C 
BRANCH  20  21
ATOM     21  C   UNL     1      16.421   2.940  25.545  1.00  0.00     0.053 C 
BRANCH  21  22
ATOM     22  C   UNL     1      17.665   2.109  25.466  1.00  0.00     0.041 C 
ATOM     23  O   UNL     1      17.651   1.005  24.859  1.00  0.00    -0.550 OA
ATOM     24  O   UNL     1      18.847   2.570  26.031  1.00  0.00    -0.550 OA
ENDBRANCH  21  22
ENDBRANCH  20  21
ENDBRANCH  19  20
ENDBRANCH  18  19
ENDBRANCH  17  18
ENDBRANCH  16  17
ENDBRANCH  15  16
ENDBRANCH  14  15
ENDBRANCH  13  14
ENDBRANCH   1  13
TORSDOF 20
ENDMDL
MODEL 3
REMARK VINA RESULT:     8.933      2.267      4.071
REMARK INTER + INTRA:          18.019
REMARK INTER:                  19.737
REMARK INTRA:                  -1.718
REMARK UNBOUND:                -1.359
REMARK SMILES CCCCCCCCCCCCCCCCCCCCCC(=O)[O-]
REMARK SMILES IDX 12 1 11 2 10 3 9 4 8 5 7 6 6 7 5 8 4 9 3 10 2 11 1 12 13 13
REMARK SMILES IDX 14 14 15 15 16 16 17 17 18 18 19 19 20 20 21 21 22 22 23 23
REMARK SMILES IDX 24 24
REMARK H PARENT
REMARK Flexibility Score: inf
ROOT
ATOM      1  C   UNL     1      15.183   3.652  25.968  1.00  0.00     0.000 C 
ENDROOT
BRANCH   1   2
ATOM      2  C   UNL     1      16.669   3.313  26.151  1.00  0.00     0.000 C 
BRANCH   2   3
ATOM      3  C   UNL     1      17.242   2.654  24.892  1.00  0.00     0.000 C 
BRANCH   3   4
ATOM      4  C   UNL     1      17.821   1.270  25.209  1.00  0.00    -0.000 C 
BRANCH   4   5
ATOM      5  C   UNL     1      19.353   1.277  25.099  1.00  0.00    -0.000 C 
BRANCH   5   6
ATOM      6  C   UNL     1      20.044   1.350  26.471  1.00  0.00    -0.000 C 
BRANCH   6   7
ATOM      7  C   UNL     1      19.074   1.086  27.638  1.00  0.00    -0.000 C 
BRANCH   7   8
ATOM      8  C   UNL     1      19.577   1.666  28.969  1.00  0.00    -0.000 C 
BRANCH   8   9
ATOM      9  C   UNL     1      19.098   3.108  29.203  1.00  0.00    -0.000 C 
BRANCH   9  10
ATOM     10  C   UNL     1      18.981   3.465  30.697  1.00  0.00    -0.000 C 
BRANCH  10  11
ATOM     11  C   UNL     1      17.787   4.368  31.057  1.00  0.00    -0.003 C 
ATOM     12  C   UNL     1      16.848   4.617  29.878  1.00  0.00     0.004 C 
ENDBRANCH  10  11
ENDBRANCH   9  10
ENDBRANCH   8   9
ENDBRANCH   7   8
ENDBRANCH   6   7
ENDBRANCH   5   6
ENDBRANCH   4   5
ENDBRANCH   3   4
ENDBRANCH   2   3
ENDBRANCH   1   2
BRANCH   1  13
ATOM     13  C   UNL     1      14.284   2.404  25.939  1.00  0.00     0.000 C 
BRANCH  13  14
ATOM     14  C   UNL     1      13.444   2.237  24.656  1.00  0.00     0.000 C 
BRANCH  14  15
ATOM     15  C   UNL     1      13.960   3.014  23.428  1.00  0.00     0.000 C 
BRANCH  15  16
ATOM     16  C   UNL     1      12.913   3.908  22.741  1.00  0.00     0.000 C 
BRANCH  16  17
ATOM     17  C   UNL     1      12.828   5.311  23.368  1.00  0.00     0.000 C 
BRANCH  17  18
ATOM     18  C   UNL     1      13.675   6.349  22.616  1.00  0.00     0.000 C 
BRANCH  18  19
ATOM     19  C   UNL     1      13.865   7.647  23.419  1.00  0.00     0.000 C 
BRANCH  19  20
ATOM     20  C   UNL     1      14.561   8.755  22.606  1.00  0.00     0.006 C 
BRANCH  20  21
ATOM     21  C   UNL     1      15.410   9.722  23.445  1.00  0.00     0.053 C 
BRANCH  21  22
ATOM     22  C   UNL     1      15.205  11.150  23.040  1.00  0.00     0.041 C 
ATOM     23  O   UNL     1      16.175  11.953  23.038  1.00  0.00    -0.550 OA
ATOM     24  O   UNL     1      13.951  11.584  22.631  1.00  0.00    -0.550 OA
ENDBRANCH  21  22
ENDBRANCH  20  21
ENDBRANCH  19  20
ENDBRANCH  18  19
ENDBRANCH  17  18
ENDBRANCH  16  17
ENDBRANCH  15  16
ENDBRANCH  14  15
ENDBRANCH  13  14
ENDBRANCH   1  13
TORSDOF 20
ENDMDL
MODEL 4
REMARK VINA RESULT:     8.941      0.851      4.499
REMARK INTER + INTRA:          18.035
REMARK INTER:                  17.895
REMARK INTRA:                   0.140
REMARK UNBOUND:                -1.359
REMARK SMILES CCCCCCCCCCCCCCCCCCCCCC(=O)[O-]
REMARK SMILES IDX 12 1 11 2 10 3 9 4 8 5 7 6 6 7 5 8 4 9 3 10 2 11 1 12 13 13
REMARK SMILES IDX 14 14 15 15 16 16 17 17 18 18 19 19 20 20 21 21 22 22 23 23
REMARK SMILES IDX 24 24
REMARK H PARENT
REMARK Flexibility Score: inf
ROOT
ATOM      1  C   UNL     1      17.494   4.916  30.048  1.00  0.00     0.000 C 
ENDROOT
BRANCH   1   2
ATOM      2  C   UNL     1      17.902   4.088  31.275  1.00  0.00     0.000 C 
BRANCH   2   3
ATOM      3  C   UNL     1      19.160   3.262  30.986  1.00  0.00     0.000 C 
BRANCH   3   4
ATOM      4  C   UNL     1      19.367   3.082  29.477  1.00  0.00    -0.000 C 
BRANCH   4   5
ATOM      5  C   UNL     1      19.360   1.594  29.095  1.00  0.00    -0.000 C 
BRANCH   5   6
ATOM      6  C   UNL     1      19.096   1.370  27.597  1.00  0.00    -0.000 C 
BRANCH   6   7
ATOM      7  C   UNL     1      18.584   2.637  26.889  1.00  0.00    -0.000 C 
BRANCH   7   8
ATOM      8  C   UNL     1      18.455   2.456  25.368  1.00  0.00    -0.000 C 
BRANCH   8   9
ATOM      9  C   UNL     1      18.532   0.980  24.941  1.00  0.00    -0.000 C 
BRANCH   9  10
ATOM     10  C   UNL     1      19.979   0.489  24.742  1.00  0.00    -0.000 C 
BRANCH  10  11
ATOM     11  C   UNL     1      21.035   1.219  25.591  1.00  0.00    -0.003 C 
ATOM     12  C   UNL     1      22.219   0.330  25.966  1.00  0.00     0.004 C 
ENDBRANCH  10  11
ENDBRANCH   9  10
ENDBRANCH   8   9
ENDBRANCH   7   8
ENDBRANCH   6   7
ENDBRANCH   5   6
ENDBRANCH   4   5
ENDBRANCH   3   4
ENDBRANCH   2   3
ENDBRANCH   1   2
BRANCH   1  13
ATOM     13  C   UNL     1      15.973   4.923  29.811  1.00  0.00     0.000 C 
BRANCH  13  14
ATOM     14  C   UNL     1      15.544   5.136  28.345  1.00  0.00     0.000 C 
BRANCH  14  15
ATOM     15  C   UNL     1      16.065   4.079  27.349  1.00  0.00     0.000 C 
BRANCH  15  16
ATOM     16  C   UNL     1      15.300   4.016  26.015  1.00  0.00     0.000 C 
BRANCH  16  17
ATOM     17  C   UNL     1      15.097   2.575  25.514  1.00  0.00     0.000 C 
BRANCH  17  18
ATOM     18  C   UNL     1      13.615   2.175  25.446  1.00  0.00     0.000 C 
BRANCH  18  19
ATOM     19  C   UNL     1      13.040   2.290  24.024  1.00  0.00     0.000 C 
BRANCH  19  20
ATOM     20  C   UNL     1      13.705   3.409  23.201  1.00  0.00     0.006 C 
BRANCH  20  21
ATOM     21  C   UNL     1      12.744   4.517  22.742  1.00  0.00     0.053 C 
BRANCH  21  22
ATOM     22  C   UNL     1      13.247   5.883  23.096  1.00  0.00     0.041 C 
ATOM     23  O   UNL     1      13.811   6.596  22.225  1.00  0.00    -0.550 OA
ATOM     24  O   UNL     1      13.060   6.382  24.380  1.00  0.00    -0.550 OA
ENDBRANCH  21  22
ENDBRANCH  20  21
ENDBRANCH  19  20
ENDBRANCH  18  19
ENDBRANCH  17  18
ENDBRANCH  16  17
ENDBRANCH  15  16
ENDBRANCH  14  15
ENDBRANCH  13  14
ENDBRANCH   1  13
TORSDOF 20
ENDMDL
MODEL 5
REMARK VINA RESULT:     9.018      3.307      8.094
REMARK INTER + INTRA:          18.204
REMARK INTER:                  19.689
REMARK INTRA:                  -1.485
REMARK UNBOUND:                -1.359
REMARK SMILES CCCCCCCCCCCCCCCCCCCCCC(=O)[O-]
REMARK SMILES IDX 12 1 11 2 10 3 9 4 8 5 7 6 6 7 5 8 4 9 3 10 2 11 1 12 13 13
REMARK SMILES IDX 14 14 15 15 16 16 17 17 18 18 19 19 20 20 21 21 22 22 23 23
REMARK SMILES IDX 24 24
REMARK H PARENT
REMARK Flexibility Score: inf
ROOT
ATOM      1  C   UNL     1      15.066   3.683  25.844  1.00  0.00     0.000 C 
ENDROOT
BRANCH   1   2
ATOM      2  C   UNL     1      14.194   2.421  25.780  1.00  0.00     0.000 C 
BRANCH   2   3
ATOM      3  C   UNL     1      13.340   2.407  24.508  1.00  0.00     0.000 C 
BRANCH   3   4
ATOM      4  C   UNL     1      13.935   3.328  23.435  1.00  0.00    -0.000 C 
BRANCH   4   5
ATOM      5  C   UNL     1      12.829   4.092  22.691  1.00  0.00    -0.000 C 
BRANCH   5   6
ATOM      6  C   UNL     1      12.734   5.564  23.125  1.00  0.00    -0.000 C 
BRANCH   6   7
ATOM      7  C   UNL     1      13.848   6.435  22.516  1.00  0.00    -0.000 C 
BRANCH   7   8
ATOM      8  C   UNL     1      14.053   7.753  23.279  1.00  0.00    -0.000 C 
BRANCH   8   9
ATOM      9  C   UNL     1      14.563   8.886  22.373  1.00  0.00    -0.000 C 
BRANCH   9  10
ATOM     10  C   UNL     1      15.617   9.775  23.060  1.00  0.00    -0.000 C 
BRANCH  10  11
ATOM     11  C   UNL     1      15.237  11.263  23.172  1.00  0.00    -0.003 C 
ATOM     12  C   UNL     1      13.736  11.509  23.037  1.00  0.00     0.004 C 
ENDBRANCH  10  11
ENDBRANCH   9  10
ENDBRANCH   8   9
ENDBRANCH   7   8
ENDBRANCH   6   7
ENDBRANCH   5   6
ENDBRANCH   4   5
ENDBRANCH   3   4
ENDBRANCH   2   3
ENDBRANCH   1   2
BRANCH   1  13
ATOM     13  C   UNL     1      16.552   3.371  26.097  1.00  0.00     0.000 C 
BRANCH  13  14
ATOM     14  C   UNL     1      17.289   2.715  24.911  1.00  0.00     0.000 C 
BRANCH  14  15
ATOM     15  C   UNL     1      17.745   1.261  25.145  1.00  0.00     0.000 C 
BRANCH  15  16
ATOM     16  C   UNL     1      19.126   0.914  24.561  1.00  0.00     0.000 C 
BRANCH  16  17
ATOM     17  C   UNL     1      20.250   0.991  25.609  1.00  0.00     0.000 C 
BRANCH  17  18
ATOM     18  C   UNL     1      19.844   1.791  26.856  1.00  0.00     0.000 C 
BRANCH  18  19
ATOM     19  C   UNL     1      19.733   0.909  28.112  1.00  0.00     0.000 C 
BRANCH  19  20
ATOM     20  C   UNL     1      19.490   1.727  29.395  1.00  0.00     0.006 C 
BRANCH  20  21
ATOM     21  C   UNL     1      18.738   3.048  29.173  1.00  0.00     0.053 C 
BRANCH  21  22
ATOM     22  C   UNL     1      18.559   3.816  30.447  1.00  0.00     0.041 C 
ATOM     23  O   UNL     1      17.527   4.515  30.626  1.00  0.00    -0.550 OA
ATOM     24  O   UNL     1      19.516   3.731  31.451  1.00  0.00    -0.550 OA
ENDBRANCH  21  22
ENDBRANCH  20  21
ENDBRANCH  19  20
ENDBRANCH  18  19
ENDBRANCH  17  18
ENDBRANCH  16  17
ENDBRANCH  15  16
ENDBRANCH  14  15
ENDBRANCH  13  14
ENDBRANCH   1  13
TORSDOF 20
ENDMDL
MODEL 6
REMARK VINA RESULT:     9.021      1.308      2.724
REMARK INTER + INTRA:          18.210
REMARK INTER:                  20.051
REMARK INTRA:                  -1.842
REMARK UNBOUND:                -1.359
REMARK SMILES CCCCCCCCCCCCCCCCCCCCCC(=O)[O-]
REMARK SMILES IDX 12 1 11 2 10 3 9 4 8 5 7 6 6 7 5 8 4 9 3 10 2 11 1 12 13 13
REMARK SMILES IDX 14 14 15 15 16 16 17 17 18 18 19 19 20 20 21 21 22 22 23 23
REMARK SMILES IDX 24 24
REMARK H PARENT
REMARK Flexibility Score: inf
ROOT
ATOM      1  C   UNL     1      20.212   0.955  25.771  1.00  0.00     0.000 C 
ENDROOT
BRANCH   1   2
ATOM      2  C   UNL     1      19.699   0.664  27.188  1.00  0.00     0.000 C 
BRANCH   2   3
ATOM      3  C   UNL     1      19.135   1.932  27.839  1.00  0.00     0.000 C 
BRANCH   3   4
ATOM      4  C   UNL     1      19.483   1.987  29.332  1.00  0.00    -0.000 C 
BRANCH   4   5
ATOM      5  C   UNL     1      19.490   3.435  29.842  1.00  0.00    -0.000 C 
BRANCH   5   6
ATOM      6  C   UNL     1      18.708   3.603  31.155  1.00  0.00    -0.000 C 
BRANCH   6   7
ATOM      7  C   UNL     1      17.350   4.298  30.951  1.00  0.00    -0.000 C 
BRANCH   7   8
ATOM      8  C   UNL     1      17.219   4.952  29.567  1.00  0.00    -0.000 C 
BRANCH   8   9
ATOM      9  C   UNL     1      15.773   4.944  29.043  1.00  0.00    -0.000 C 
BRANCH   9  10
ATOM     10  C   UNL     1      14.753   5.419  30.095  1.00  0.00    -0.000 C 
BRANCH  10  11
ATOM     11  C   UNL     1      13.976   6.693  29.715  1.00  0.00    -0.003 C 
ATOM     12  C   UNL     1      13.198   7.291  30.886  1.00  0.00     0.004 C 
ENDBRANCH  10  11
ENDBRANCH   9  10
ENDBRANCH   8   9
ENDBRANCH   7   8
ENDBRANCH   6   7
ENDBRANCH   5   6
ENDBRANCH   4   5
ENDBRANCH   3   4
ENDBRANCH   2   3
ENDBRANCH   1   2
BRANCH   1  13
ATOM     13  C   UNL     1      20.254   2.458  25.447  1.00  0.00     0.000 C 
BRANCH  13  14
ATOM     14  C   UNL     1      19.034   2.989  24.666  1.00  0.00     0.000 C 
BRANCH  14  15
ATOM     15  C   UNL     1      17.945   1.941  24.358  1.00  0.00     0.000 C 
BRANCH  15  16
ATOM     16  C   UNL     1      16.794   1.885  25.377  1.00  0.00     0.000 C 
BRANCH  16  17
ATOM     17  C   UNL     1      16.381   3.277  25.884  1.00  0.00     0.000 C 
BRANCH  17  18
ATOM     18  C   UNL     1      14.858   3.431  26.021  1.00  0.00     0.000 C 
BRANCH  18  19
ATOM     19  C   UNL     1      14.093   2.208  25.487  1.00  0.00     0.000 C 
BRANCH  19  20
ATOM     20  C   UNL     1      13.218   2.540  24.263  1.00  0.00     0.006 C 
BRANCH  20  21
ATOM     21  C   UNL     1      13.899   3.443  23.222  1.00  0.00     0.053 C 
BRANCH  21  22
ATOM     22  C   UNL     1      13.004   4.556  22.769  1.00  0.00     0.041 C 
ATOM     23  O   UNL     1      11.864   4.302  22.300  1.00  0.00    -0.550 OA
ATOM     24  O   UNL     1      13.416   5.877  22.900  1.00  0.00    -0.550 OA
ENDBRANCH  21  22
ENDBRANCH  20  21
ENDBRANCH  19  20
ENDBRANCH  18  19
ENDBRANCH  17  18
ENDBRANCH  16  17
ENDBRANCH  15  16
ENDBRANCH  14  15
ENDBRANCH  13  14
ENDBRANCH   1  13
TORSDOF 20
ENDMDL
MODEL 7
REMARK VINA RESULT:     9.115      3.010      7.255
REMARK INTER + INTRA:          18.414
REMARK INTER:                  19.247
REMARK INTRA:                  -0.833
REMARK UNBOUND:                -1.359
REMARK SMILES CCCCCCCCCCCCCCCCCCCCCC(=O)[O-]
REMARK SMILES IDX 12 1 11 2 10 3 9 4 8 5 7 6 6 7 5 8 4 9 3 10 2 11 1 12 13 13
REMARK SMILES IDX 14 14 15 15 16 16 17 17 18 18 19 19 20 20 21 21 22 22 23 23
REMARK SMILES IDX 24 24
REMARK H PARENT
REMARK Flexibility Score: inf
ROOT
ATOM      1  C   UNL     1      17.319   3.894  30.622  1.00  0.00     0.000 C 
ENDROOT
BRANCH   1   2
ATOM      2  C   UNL     1      16.713   5.195  30.076  1.00  0.00     0.000 C 
BRANCH   2   3
ATOM      3  C   UNL     1      15.471   4.907  29.226  1.00  0.00     0.000 C 
BRANCH   3   4
ATOM      4  C   UNL     1      15.811   4.918  27.730  1.00  0.00    -0.000 C 
BRANCH   4   5
ATOM      5  C   UNL     1      15.700   3.509  27.131  1.00  0.00    -0.000 C 
BRANCH   5   6
ATOM      6  C   UNL     1      15.010   3.503  25.757  1.00  0.00    -0.000 C 
BRANCH   6   7
ATOM      7  C   UNL     1      14.049   2.314  25.580  1.00  0.00    -0.000 C 
BRANCH   7   8
ATOM      8  C   UNL     1      13.188   2.430  24.313  1.00  0.00    -0.000 C 
BRANCH   8   9
ATOM      9  C   UNL     1      13.813   3.358  23.258  1.00  0.00    -0.000 C 
BRANCH   9  10
ATOM     10  C   UNL     1      12.799   4.348  22.654  1.00  0.00    -0.000 C 
BRANCH  10  11
ATOM     11  C   UNL     1      13.206   5.830  22.742  1.00  0.00    -0.003 C 
ATOM     12  C   UNL     1      13.327   6.333  24.179  1.00  0.00     0.004 C 
ENDBRANCH  10  11
ENDBRANCH   9  10
ENDBRANCH   8   9
ENDBRANCH   7   8
ENDBRANCH   6   7
ENDBRANCH   5   6
ENDBRANCH   4   5
ENDBRANCH   3   4
ENDBRANCH   2   3
ENDBRANCH   1   2
BRANCH   1  13
ATOM     13  C   UNL     1      18.839   3.989  30.841  1.00  0.00     0.000 C 
BRANCH  13  14
ATOM     14  C   UNL     1      19.697   3.324  29.745  1.00  0.00     0.000 C 
BRANCH  14  15
ATOM     15  C   UNL     1      19.327   1.862  29.419  1.00  0.00     0.000 C 
BRANCH  15  16
ATOM     16  C   UNL     1      18.897   1.613  27.963  1.00  0.00     0.000 C 
BRANCH  16  17
ATOM     17  C   UNL     1      18.668   2.918  27.180  1.00  0.00     0.000 C 
BRANCH  17  18
ATOM     18  C   UNL     1      18.127   2.671  25.762  1.00  0.00     0.000 C 
BRANCH  18  19
ATOM     19  C   UNL     1      18.065   1.176  25.408  1.00  0.00     0.000 C 
BRANCH  19  20
ATOM     20  C   UNL     1      19.236   0.726  24.514  1.00  0.00     0.006 C 
BRANCH  20  21
ATOM     21  C   UNL     1      20.444   0.169  25.283  1.00  0.00     0.053 C 
BRANCH  21  22
ATOM     22  C   UNL     1      21.450   1.233  25.602  1.00  0.00     0.041 C 
ATOM     23  O   UNL     1      22.517   0.936  26.201  1.00  0.00    -0.550 OA
ATOM     24  O   UNL     1      21.225   2.545  25.205  1.00  0.00    -0.550 OA
ENDBRANCH  21  22
ENDBRANCH  20  21
ENDBRANCH  19  20
ENDBRANCH  18  19
ENDBRANCH  17  18
ENDBRANCH  16  17
ENDBRANCH  15  16
ENDBRANCH  14  15
ENDBRANCH  13  14
ENDBRANCH   1  13
TORSDOF 20
ENDMDL
MODEL 8
REMARK VINA RESULT:     9.234      2.948      7.336
REMARK INTER + INTRA:          18.671
REMARK INTER:                  19.584
REMARK INTRA:                  -0.914
REMARK UNBOUND:                -1.359
REMARK SMILES CCCCCCCCCCCCCCCCCCCCCC(=O)[O-]
REMARK SMILES IDX 12 1 11 2 10 3 9 4 8 5 7 6 6 7 5 8 4 9 3 10 2 11 1 12 13 13
REMARK SMILES IDX 14 14 15 15 16 16 17 17 18 18 19 19 20 20 21 21 22 22 23 23
REMARK SMILES IDX 24 24
REMARK H PARENT
REMARK Flexibility Score: inf
ROOT
ATOM      1  C   UNL     1      15.440   4.938  29.658  1.00  0.00     0.000 C 
ENDROOT
BRANCH   1   2
ATOM      2  C   UNL     1      15.015   4.404  28.282  1.00  0.00     0.000 C 
BRANCH   2   3
ATOM      3  C   UNL     1      16.174   4.476  27.282  1.00  0.00     0.000 C 
BRANCH   3   4
ATOM      4  C   UNL     1      15.691   4.182  25.857  1.00  0.00    -0.000 C 
BRANCH   4   5
ATOM      5  C   UNL     1      16.117   2.775  25.411  1.00  0.00    -0.000 C 
BRANCH   5   6
ATOM      6  C   UNL     1      15.012   1.728  25.627  1.00  0.00    -0.000 C 
BRANCH   6   7
ATOM      7  C   UNL     1      13.599   2.337  25.577  1.00  0.00    -0.000 C 
BRANCH   7   8
ATOM      8  C   UNL     1      13.002   2.334  24.161  1.00  0.00    -0.000 C 
BRANCH   8   9
ATOM      9  C   UNL     1      13.701   3.334  23.224  1.00  0.00    -0.000 C 
BRANCH   9  10
ATOM     10  C   UNL     1      12.744   4.405  22.668  1.00  0.00    -0.000 C 
BRANCH  10  11
ATOM     11  C   UNL     1      13.299   5.840  22.678  1.00  0.00    -0.003 C 
ATOM     12  C   UNL     1      13.274   6.482  24.064  1.00  0.00     0.004 C 
ENDBRANCH  10  11
ENDBRANCH   9  10
ENDBRANCH   8   9
ENDBRANCH   7   8
ENDBRANCH   6   7
ENDBRANCH   5   6
ENDBRANCH   4   5
ENDBRANCH   3   4
ENDBRANCH   2   3
ENDBRANCH   1   2
BRANCH   1  13
ATOM     13  C   UNL     1      16.969   5.006  29.825  1.00  0.00     0.000 C 
BRANCH  13  14
ATOM     14  C   UNL     1      17.509   4.378  31.126  1.00  0.00     0.000 C 
BRANCH  14  15
ATOM     15  C   UNL     1      18.814   3.571  30.971  1.00  0.00     0.000 C 
BRANCH  15  16
ATOM     16  C   UNL     1      19.203   3.241  29.519  1.00  0.00     0.000 C 
BRANCH  16  17
ATOM     17  C   UNL     1      19.806   1.834  29.371  1.00  0.00     0.000 C 
BRANCH  17  18
ATOM     18  C   UNL     1      19.290   1.096  28.125  1.00  0.00     0.000 C 
BRANCH  18  19
ATOM     19  C   UNL     1      18.796   2.060  27.033  1.00  0.00     0.000 C 
BRANCH  19  20
ATOM     20  C   UNL     1      18.648   1.378  25.659  1.00  0.00     0.006 C 
BRANCH  20  21
ATOM     21  C   UNL     1      19.936   0.731  25.128  1.00  0.00     0.053 C 
BRANCH  21  22
ATOM     22  C   UNL     1      21.157   1.516  25.501  1.00  0.00     0.041 C 
ATOM     23  O   UNL     1      22.141   0.940  26.035  1.00  0.00    -0.550 OA
ATOM     24  O   UNL     1      21.221   2.876  25.225  1.00  0.00    -0.550 OA
ENDBRANCH  21  22
ENDBRANCH  20  21
ENDBRANCH  19  20
ENDBRANCH  18  19
ENDBRANCH  17  18
ENDBRANCH  16  17
ENDBRANCH  15  16
ENDBRANCH  14  15
ENDBRANCH  13  14
ENDBRANCH   1  13
TORSDOF 20
ENDMDL
