MODEL 1
REMARK VINA RESULT:    -4.460      0.000      0.000
REMARK INTER + INTRA:         -10.910
REMARK INTER:                  -8.371
REMARK INTRA:                  -2.539
REMARK UNBOUND:                -2.539
REMARK SMILES CCCCCCCCC=CCCCCCCCC(=O)[O-]
REMARK SMILES IDX 10 1 9 2 11 3 12 4 13 5 14 6 15 7 16 8 17 9 18 10 19 11
REMARK SMILES IDX 20 12 8 13 7 14 6 15 5 16 4 17 3 18 2 19 1 20
REMARK H PARENT
REMARK Flexibility Score: inf
ROOT
ATOM      1  C   UNL     1      15.177  54.959 156.966  1.00  0.00    -0.031 C 
ATOM      2  C   UNL     1      14.293  54.069 156.489  1.00  0.00    -0.031 C 
ENDROOT
BRANCH   1   3
ATOM      3  C   UNL     1      15.266  56.352 156.407  1.00  0.00     0.027 C 
BRANCH   3   4
ATOM      4  C   UNL     1      16.679  56.641 155.875  1.00  0.00     0.004 C 
BRANCH   4   5
ATOM      5  C   UNL     1      17.682  55.520 156.218  1.00  0.00     0.000 C 
BRANCH   5   6
ATOM      6  C   UNL     1      18.863  55.992 157.089  1.00  0.00     0.000 C 
BRANCH   6   7
ATOM      7  C   UNL     1      18.574  57.227 157.964  1.00  0.00     0.000 C 
BRANCH   7   8
ATOM      8  C   UNL     1      17.602  56.983 159.139  1.00  0.00     0.006 C 
BRANCH   8   9
ATOM      9  C   UNL     1      17.997  57.682 160.449  1.00  0.00     0.053 C 
BRANCH   9  10
ATOM     10  C   UNL     1      18.085  59.168 160.286  1.00  0.00     0.041 C 
ATOM     11  O   UNL     1      19.156  59.773 160.552  1.00  0.00    -0.550 OA
ATOM     12  O   UNL     1      16.994  59.880 159.805  1.00  0.00    -0.550 OA
ENDBRANCH   9  10
ENDBRANCH   8   9
ENDBRANCH   7   8
ENDBRANCH   6   7
ENDBRANCH   5   6
ENDBRANCH   4   5
ENDBRANCH   3   4
ENDBRANCH   1   3
BRANCH   2  13
ATOM     13  C   UNL     1      14.216  52.666 157.026  1.00  0.00     0.027 C 
BRANCH  13  14
ATOM     14  C   UNL     1      14.066  52.626 158.558  1.00  0.00     0.004 C 
BRANCH  14  15
ATOM     15  C   UNL     1      15.234  51.942 159.299  1.00  0.00     0.000 C 
BRANCH  15  16
ATOM     16  C   UNL     1      16.507  51.741 158.458  1.00  0.00     0.000 C 
BRANCH  16  17
ATOM     17  C   UNL     1      17.604  52.765 158.780  1.00  0.00    -0.000 C 
BRANCH  17  18
ATOM     18  C   UNL     1      17.372  53.404 160.157  1.00  0.00    -0.000 C 
BRANCH  18  19
ATOM     19  C   UNL     1      18.659  53.988 160.762  1.00  0.00    -0.003 C 
ATOM     20  C   UNL     1      19.885  53.758 159.878  1.00  0.00     0.004 C 
ENDBRANCH  18  19
ENDBRANCH  17  18
ENDBRANCH  16  17
ENDBRANCH  15  16
ENDBRANCH  14  15
ENDBRANCH  13  14
ENDBRANCH   2  13
TORSDOF 15
ENDMDL
MODEL 2
REMARK VINA RESULT:    -4.454      2.088      3.214
REMARK INTER + INTRA:         -10.898
REMARK INTER:                  -8.029
REMARK INTRA:                  -2.870
REMARK UNBOUND:                -2.539
REMARK SMILES CCCCCCCCC=CCCCCCCCC(=O)[O-]
REMARK SMILES IDX 10 1 9 2 11 3 12 4 13 5 14 6 15 7 16 8 17 9 18 10 19 11
REMARK SMILES IDX 20 12 8 13 7 14 6 15 5 16 4 17 3 18 2 19 1 20
REMARK H PARENT
REMARK Flexibility Score: inf
ROOT
ATOM      1  C   UNL     1      16.112  56.112 156.702  1.00  0.00    -0.031 C 
ATOM      2  C   UNL     1      15.146  55.242 157.036  1.00  0.00    -0.031 C 
ENDROOT
BRANCH   1   3
ATOM      3  C   UNL     1      16.604  57.148 157.673  1.00  0.00     0.027 C 
BRANCH   3   4
ATOM      4  C   UNL     1      18.115  57.379 157.510  1.00  0.00     0.004 C 
BRANCH   4   5
ATOM      5  C   UNL     1      18.880  57.256 158.845  1.00  0.00     0.000 C 
BRANCH   5   6
ATOM      6  C   UNL     1      18.033  57.620 160.079  1.00  0.00     0.000 C 
BRANCH   6   7
ATOM      7  C   UNL     1      17.772  56.457 161.056  1.00  0.00     0.000 C 
BRANCH   7   8
ATOM      8  C   UNL     1      18.875  56.233 162.113  1.00  0.00     0.006 C 
BRANCH   8   9
ATOM      9  C   UNL     1      19.559  54.859 162.040  1.00  0.00     0.053 C 
BRANCH   9  10
ATOM     10  C   UNL     1      20.803  54.897 161.208  1.00  0.00     0.041 C 
ATOM     11  O   UNL     1      21.432  55.976 161.056  1.00  0.00    -0.550 OA
ATOM     12  O   UNL     1      21.289  53.731 160.632  1.00  0.00    -0.550 OA
ENDBRANCH   9  10
ENDBRANCH   8   9
ENDBRANCH   7   8
ENDBRANCH   6   7
ENDBRANCH   5   6
ENDBRANCH   4   5
ENDBRANCH   3   4
ENDBRANCH   1   3
BRANCH   2  13
ATOM     13  C   UNL     1      14.632  54.218 156.061  1.00  0.00     0.027 C 
BRANCH  13  14
ATOM     14  C   UNL     1      14.402  52.843 156.713  1.00  0.00     0.004 C 
BRANCH  14  15
ATOM     15  C   UNL     1      14.025  52.897 158.209  1.00  0.00     0.000 C 
BRANCH  15  16
ATOM     16  C   UNL     1      14.849  51.970 159.120  1.00  0.00     0.000 C 
BRANCH  16  17
ATOM     17  C   UNL     1      16.346  51.974 158.779  1.00  0.00    -0.000 C 
BRANCH  17  18
ATOM     18  C   UNL     1      17.062  53.146 159.464  1.00  0.00    -0.000 C 
BRANCH  18  19
ATOM     19  C   UNL     1      18.349  53.561 158.733  1.00  0.00    -0.003 C 
ATOM     20  C   UNL     1      18.280  53.308 157.227  1.00  0.00     0.004 C 
ENDBRANCH  18  19
ENDBRANCH  17  18
ENDBRANCH  16  17
ENDBRANCH  15  16
ENDBRANCH  14  15
ENDBRANCH  13  14
ENDBRANCH   2  13
TORSDOF 15
ENDMDL
MODEL 3
REMARK VINA RESULT:    -4.425      1.297      2.652
REMARK INTER + INTRA:         -10.844
REMARK INTER:                  -8.943
REMARK INTRA:                  -1.901
REMARK UNBOUND:                -2.539
REMARK SMILES CCCCCCCCC=CCCCCCCCC(=O)[O-]
REMARK SMILES IDX 10 1 9 2 11 3 12 4 13 5 14 6 15 7 16 8 17 9 18 10 19 11
REMARK SMILES IDX 20 12 8 13 7 14 6 15 5 16 4 17 3 18 2 19 1 20
REMARK H PARENT
REMARK Flexibility Score: inf
ROOT
ATOM      1  C   UNL     1      14.574  52.701 157.569  1.00  0.00    -0.031 C 
ATOM      2  C   UNL     1      14.350  52.276 158.822  1.00  0.00    -0.031 C 
ENDROOT
BRANCH   1   3
ATOM      3  C   UNL     1      13.495  53.369 156.764  1.00  0.00     0.027 C 
BRANCH   3   4
ATOM      4  C   UNL     1      14.008  54.675 156.135  1.00  0.00     0.004 C 
BRANCH   4   5
ATOM      5  C   UNL     1      15.260  55.225 156.851  1.00  0.00     0.000 C 
BRANCH   5   6
ATOM      6  C   UNL     1      15.493  56.731 156.619  1.00  0.00     0.000 C 
BRANCH   6   7
ATOM      7  C   UNL     1      16.748  57.309 157.301  1.00  0.00     0.000 C 
BRANCH   7   8
ATOM      8  C   UNL     1      17.112  56.661 158.654  1.00  0.00     0.006 C 
BRANCH   8   9
ATOM      9  C   UNL     1      17.824  57.600 159.641  1.00  0.00     0.053 C 
BRANCH   9  10
ATOM     10  C   UNL     1      18.935  58.361 158.985  1.00  0.00     0.041 C 
ATOM     11  O   UNL     1      18.910  59.619 158.953  1.00  0.00    -0.550 OA
ATOM     12  O   UNL     1      20.017  57.681 158.443  1.00  0.00    -0.550 OA
ENDBRANCH   9  10
ENDBRANCH   8   9
ENDBRANCH   7   8
ENDBRANCH   6   7
ENDBRANCH   5   6
ENDBRANCH   4   5
ENDBRANCH   3   4
ENDBRANCH   1   3
BRANCH   2  13
ATOM     13  C   UNL     1      15.419  51.584 159.624  1.00  0.00     0.027 C 
BRANCH  13  14
ATOM     14  C   UNL     1      16.810  51.691 158.974  1.00  0.00     0.004 C 
BRANCH  14  15
ATOM     15  C   UNL     1      17.568  52.997 159.292  1.00  0.00     0.000 C 
BRANCH  15  16
ATOM     16  C   UNL     1      18.645  53.389 158.266  1.00  0.00     0.000 C 
BRANCH  16  17
ATOM     17  C   UNL     1      19.800  54.187 158.888  1.00  0.00    -0.000 C 
BRANCH  17  18
ATOM     18  C   UNL     1      20.310  53.509 160.167  1.00  0.00    -0.000 C 
BRANCH  18  19
ATOM     19  C   UNL     1      20.466  54.494 161.337  1.00  0.00    -0.003 C 
ATOM     20  C   UNL     1      19.249  54.509 162.263  1.00  0.00     0.004 C 
ENDBRANCH  18  19
ENDBRANCH  17  18
ENDBRANCH  16  17
ENDBRANCH  15  16
ENDBRANCH  14  15
ENDBRANCH  13  14
ENDBRANCH   2  13
TORSDOF 15
ENDMDL
MODEL 4
REMARK VINA RESULT:    -4.418      2.562      4.705
REMARK INTER + INTRA:         -10.832
REMARK INTER:                  -8.753
REMARK INTRA:                  -2.078
REMARK UNBOUND:                -2.539
REMARK SMILES CCCCCCCCC=CCCCCCCCC(=O)[O-]
REMARK SMILES IDX 10 1 9 2 11 3 12 4 13 5 14 6 15 7 16 8 17 9 18 10 19 11
REMARK SMILES IDX 20 12 8 13 7 14 6 15 5 16 4 17 3 18 2 19 1 20
REMARK H PARENT
REMARK Flexibility Score: inf
ROOT
ATOM      1  C   UNL     1      17.835  52.959 158.886  1.00  0.00    -0.031 C 
ATOM      2  C   UNL     1      16.807  52.646 159.690  1.00  0.00    -0.031 C 
ENDROOT
BRANCH   1   3
ATOM      3  C   UNL     1      18.774  54.085 159.217  1.00  0.00     0.027 C 
BRANCH   3   4
ATOM      4  C   UNL     1      18.812  54.341 160.733  1.00  0.00     0.004 C 
BRANCH   4   5
ATOM      5  C   UNL     1      20.228  54.184 161.325  1.00  0.00     0.000 C 
BRANCH   5   6
ATOM      6  C   UNL     1      21.222  53.488 160.375  1.00  0.00     0.000 C 
BRANCH   6   7
ATOM      7  C   UNL     1      22.569  54.213 160.195  1.00  0.00     0.000 C 
BRANCH   7   8
ATOM      8  C   UNL     1      22.580  55.690 160.646  1.00  0.00     0.006 C 
BRANCH   8   9
ATOM      9  C   UNL     1      23.396  55.963 161.919  1.00  0.00     0.053 C 
BRANCH   9  10
ATOM     10  C   UNL     1      22.643  56.815 162.894  1.00  0.00     0.041 C 
ATOM     11  O   UNL     1      23.101  57.013 164.050  1.00  0.00    -0.550 OA
ATOM     12  O   UNL     1      21.454  57.422 162.512  1.00  0.00    -0.550 OA
ENDBRANCH   9  10
ENDBRANCH   8   9
ENDBRANCH   7   8
ENDBRANCH   6   7
ENDBRANCH   5   6
ENDBRANCH   4   5
ENDBRANCH   3   4
ENDBRANCH   1   3
BRANCH   2  13
ATOM     13  C   UNL     1      15.849  51.537 159.352  1.00  0.00     0.027 C 
BRANCH  13  14
ATOM     14  C   UNL     1      14.380  51.998 159.367  1.00  0.00     0.004 C 
BRANCH  14  15
ATOM     15  C   UNL     1      13.983  52.915 158.191  1.00  0.00     0.000 C 
BRANCH  15  16
ATOM     16  C   UNL     1      14.573  52.514 156.828  1.00  0.00     0.000 C 
BRANCH  16  17
ATOM     17  C   UNL     1      15.396  53.636 156.179  1.00  0.00    -0.000 C 
BRANCH  17  18
ATOM     18  C   UNL     1      15.280  54.938 156.985  1.00  0.00    -0.000 C 
BRANCH  18  19
ATOM     19  C   UNL     1      16.481  55.873 156.772  1.00  0.00    -0.003 C 
ATOM     20  C   UNL     1      16.646  56.889 157.902  1.00  0.00     0.004 C 
ENDBRANCH  18  19
ENDBRANCH  17  18
ENDBRANCH  16  17
ENDBRANCH  15  16
ENDBRANCH  14  15
ENDBRANCH  13  14
ENDBRANCH   2  13
TORSDOF 15
ENDMDL
MODEL 5
REMARK VINA RESULT:    -4.409      2.400      4.998
REMARK INTER + INTRA:         -10.813
REMARK INTER:                  -8.663
REMARK INTRA:                  -2.151
REMARK UNBOUND:                -2.539
REMARK SMILES CCCCCCCCC=CCCCCCCCC(=O)[O-]
REMARK SMILES IDX 10 1 9 2 11 3 12 4 13 5 14 6 15 7 16 8 17 9 18 10 19 11
REMARK SMILES IDX 20 12 8 13 7 14 6 15 5 16 4 17 3 18 2 19 1 20
REMARK H PARENT
REMARK Flexibility Score: inf
ROOT
ATOM      1  C   UNL     1      17.075  52.951 159.734  1.00  0.00    -0.031 C 
ATOM      2  C   UNL     1      17.954  53.116 158.735  1.00  0.00    -0.031 C 
ENDROOT
BRANCH   1   3
ATOM      3  C   UNL     1      15.998  51.904 159.666  1.00  0.00     0.027 C 
BRANCH   3   4
ATOM      4  C   UNL     1      15.320  51.903 158.286  1.00  0.00     0.004 C 
BRANCH   4   5
ATOM      5  C   UNL     1      14.091  52.835 158.229  1.00  0.00     0.000 C 
BRANCH   5   6
ATOM      6  C   UNL     1      14.052  53.730 156.974  1.00  0.00     0.000 C 
BRANCH   6   7
ATOM      7  C   UNL     1      15.351  53.747 156.146  1.00  0.00     0.000 C 
BRANCH   7   8
ATOM      8  C   UNL     1      16.092  55.102 156.122  1.00  0.00     0.006 C 
BRANCH   8   9
ATOM      9  C   UNL     1      15.903  55.954 157.387  1.00  0.00     0.053 C 
BRANCH   9  10
ATOM     10  C   UNL     1      16.905  57.065 157.467  1.00  0.00     0.041 C 
ATOM     11  O   UNL     1      17.986  56.992 156.827  1.00  0.00    -0.550 OA
ATOM     12  O   UNL     1      16.627  58.198 158.220  1.00  0.00    -0.550 OA
ENDBRANCH   9  10
ENDBRANCH   8   9
ENDBRANCH   7   8
ENDBRANCH   6   7
ENDBRANCH   5   6
ENDBRANCH   4   5
ENDBRANCH   3   4
ENDBRANCH   1   3
BRANCH   2  13
ATOM     13  C   UNL     1      19.019  54.177 158.786  1.00  0.00     0.027 C 
BRANCH  13  14
ATOM     14  C   UNL     1      19.056  54.914 160.137  1.00  0.00     0.004 C 
BRANCH  14  15
ATOM     15  C   UNL     1      20.299  54.611 161.000  1.00  0.00     0.000 C 
BRANCH  15  16
ATOM     16  C   UNL     1      21.261  53.565 160.407  1.00  0.00     0.000 C 
BRANCH  16  17
ATOM     17  C   UNL     1      22.670  54.122 160.161  1.00  0.00    -0.000 C 
BRANCH  17  18
ATOM     18  C   UNL     1      22.859  55.471 160.869  1.00  0.00    -0.000 C 
BRANCH  18  19
ATOM     19  C   UNL     1      24.077  55.481 161.807  1.00  0.00    -0.003 C 
ATOM     20  C   UNL     1      24.846  54.159 161.790  1.00  0.00     0.004 C 
ENDBRANCH  18  19
ENDBRANCH  17  18
ENDBRANCH  16  17
ENDBRANCH  15  16
ENDBRANCH  14  15
ENDBRANCH  13  14
ENDBRANCH   2  13
TORSDOF 15
ENDMDL
MODEL 6
REMARK VINA RESULT:    -4.404      2.123      4.561
REMARK INTER + INTRA:         -10.805
REMARK INTER:                  -8.732
REMARK INTRA:                  -2.073
REMARK UNBOUND:                -2.539
REMARK SMILES CCCCCCCCC=CCCCCCCCC(=O)[O-]
REMARK SMILES IDX 10 1 9 2 11 3 12 4 13 5 14 6 15 7 16 8 17 9 18 10 19 11
REMARK SMILES IDX 20 12 8 13 7 14 6 15 5 16 4 17 3 18 2 19 1 20
REMARK H PARENT
REMARK Flexibility Score: inf
ROOT
ATOM      1  C   UNL     1      14.295  52.617 158.663  1.00  0.00    -0.031 C 
ATOM      2  C   UNL     1      14.212  52.654 157.324  1.00  0.00    -0.031 C 
ENDROOT
BRANCH   1   3
ATOM      3  C   UNL     1      15.207  51.649 159.365  1.00  0.00     0.027 C 
BRANCH   3   4
ATOM      4  C   UNL     1      16.549  51.524 158.626  1.00  0.00     0.004 C 
BRANCH   4   5
ATOM      5  C   UNL     1      17.473  52.736 158.867  1.00  0.00     0.000 C 
BRANCH   5   6
ATOM      6  C   UNL     1      17.288  53.389 160.250  1.00  0.00     0.000 C 
BRANCH   6   7
ATOM      7  C   UNL     1      18.512  54.164 160.774  1.00  0.00     0.000 C 
BRANCH   7   8
ATOM      8  C   UNL     1      19.713  54.220 159.805  1.00  0.00     0.006 C 
BRANCH   8   9
ATOM      9  C   UNL     1      20.982  53.524 160.321  1.00  0.00     0.053 C 
BRANCH   9  10
ATOM     10  C   UNL     1      22.059  54.507 160.663  1.00  0.00     0.041 C 
ATOM     11  O   UNL     1      23.262  54.251 160.392  1.00  0.00    -0.550 OA
ATOM     12  O   UNL     1      21.730  55.723 161.247  1.00  0.00    -0.550 OA
ENDBRANCH   9  10
ENDBRANCH   8   9
ENDBRANCH   7   8
ENDBRANCH   6   7
ENDBRANCH   5   6
ENDBRANCH   4   5
ENDBRANCH   3   4
ENDBRANCH   1   3
BRANCH   2  13
ATOM     13  C   UNL     1      13.284  53.603 156.616  1.00  0.00     0.027 C 
BRANCH  13  14
ATOM     14  C   UNL     1      14.035  54.735 155.893  1.00  0.00     0.004 C 
BRANCH  14  15
ATOM     15  C   UNL     1      15.573  54.630 155.960  1.00  0.00     0.000 C 
BRANCH  15  16
ATOM     16  C   UNL     1      16.297  55.936 156.333  1.00  0.00     0.000 C 
BRANCH  16  17
ATOM     17  C   UNL     1      16.431  56.131 157.850  1.00  0.00    -0.000 C 
BRANCH  17  18
ATOM     18  C   UNL     1      16.902  57.555 158.181  1.00  0.00    -0.000 C 
BRANCH  18  19
ATOM     19  C   UNL     1      18.100  57.572 159.145  1.00  0.00    -0.003 C 
ATOM     20  C   UNL     1      19.440  57.695 158.420  1.00  0.00     0.004 C 
ENDBRANCH  18  19
ENDBRANCH  17  18
ENDBRANCH  16  17
ENDBRANCH  15  16
ENDBRANCH  14  15
ENDBRANCH  13  14
ENDBRANCH   2  13
TORSDOF 15
ENDMDL
MODEL 7
REMARK VINA RESULT:    -4.398      1.234      4.083
REMARK INTER + INTRA:         -10.793
REMARK INTER:                  -8.369
REMARK INTRA:                  -2.424
REMARK UNBOUND:                -2.539
REMARK SMILES CCCCCCCCC=CCCCCCCCC(=O)[O-]
REMARK SMILES IDX 10 1 9 2 11 3 12 4 13 5 14 6 15 7 16 8 17 9 18 10 19 11
REMARK SMILES IDX 20 12 8 13 7 14 6 15 5 16 4 17 3 18 2 19 1 20
REMARK H PARENT
REMARK Flexibility Score: inf
ROOT
ATOM      1  C   UNL     1      18.459  53.253 159.065  1.00  0.00    -0.031 C 
ATOM      2  C   UNL     1      17.399  53.333 159.883  1.00  0.00    -0.031 C 
ENDROOT
BRANCH   1   3
ATOM      3  C   UNL     1      19.630  54.185 159.205  1.00  0.00     0.027 C 
BRANCH   3   4
ATOM      4  C   UNL     1      20.560  53.732 160.342  1.00  0.00     0.004 C 
BRANCH   4   5
ATOM      5  C   UNL     1      20.686  54.788 161.460  1.00  0.00     0.000 C 
BRANCH   5   6
ATOM      6  C   UNL     1      19.400  54.965 162.291  1.00  0.00     0.000 C 
BRANCH   6   7
ATOM      7  C   UNL     1      18.912  56.419 162.435  1.00  0.00     0.000 C 
BRANCH   7   8
ATOM      8  C   UNL     1      18.173  56.985 161.203  1.00  0.00     0.006 C 
BRANCH   8   9
ATOM      9  C   UNL     1      19.017  57.927 160.330  1.00  0.00     0.053 C 
BRANCH   9  10
ATOM     10  C   UNL     1      18.299  59.206 160.031  1.00  0.00     0.041 C 
ATOM     11  O   UNL     1      17.048  59.277 160.158  1.00  0.00    -0.550 OA
ATOM     12  O   UNL     1      19.015  60.333 159.648  1.00  0.00    -0.550 OA
ENDBRANCH   9  10
ENDBRANCH   8   9
ENDBRANCH   7   8
ENDBRANCH   6   7
ENDBRANCH   5   6
ENDBRANCH   4   5
ENDBRANCH   3   4
ENDBRANCH   1   3
BRANCH   2  13
ATOM     13  C   UNL     1      16.214  52.419 159.733  1.00  0.00     0.027 C 
BRANCH  13  14
ATOM     14  C   UNL     1      16.312  51.522 158.485  1.00  0.00     0.004 C 
BRANCH  14  15
ATOM     15  C   UNL     1      15.452  51.988 157.291  1.00  0.00     0.000 C 
BRANCH  15  16
ATOM     16  C   UNL     1      14.275  52.909 157.659  1.00  0.00     0.000 C 
BRANCH  16  17
ATOM     17  C   UNL     1      14.102  54.077 156.678  1.00  0.00    -0.000 C 
BRANCH  17  18
ATOM     18  C   UNL     1      15.454  54.730 156.357  1.00  0.00    -0.000 C 
BRANCH  18  19
ATOM     19  C   UNL     1      15.553  56.172 156.882  1.00  0.00    -0.003 C 
ATOM     20  C   UNL     1      16.712  56.367 157.859  1.00  0.00     0.004 C 
ENDBRANCH  18  19
ENDBRANCH  17  18
ENDBRANCH  16  17
ENDBRANCH  15  16
ENDBRANCH  14  15
ENDBRANCH  13  14
ENDBRANCH   2  13
TORSDOF 15
ENDMDL
MODEL 8
REMARK VINA RESULT:    -4.385      1.332      3.837
REMARK INTER + INTRA:         -10.769
REMARK INTER:                  -8.216
REMARK INTRA:                  -2.553
REMARK UNBOUND:                -2.539
REMARK SMILES CCCCCCCCC=CCCCCCCCC(=O)[O-]
REMARK SMILES IDX 10 1 9 2 11 3 12 4 13 5 14 6 15 7 16 8 17 9 18 10 19 11
REMARK SMILES IDX 20 12 8 13 7 14 6 15 5 16 4 17 3 18 2 19 1 20
REMARK H PARENT
REMARK Flexibility Score: inf
ROOT
ATOM      1  C   UNL     1      18.190  55.017 158.414  1.00  0.00    -0.031 C 
ATOM      2  C   UNL     1      17.445  55.341 157.346  1.00  0.00    -0.031 C 
ENDROOT
BRANCH   1   3
ATOM      3  C   UNL     1      19.253  53.957 158.335  1.00  0.00     0.027 C 
BRANCH   3   4
ATOM      4  C   UNL     1      19.997  53.823 159.674  1.00  0.00     0.004 C 
BRANCH   4   5
ATOM      5  C   UNL     1      19.065  54.012 160.890  1.00  0.00     0.000 C 
BRANCH   5   6
ATOM      6  C   UNL     1      19.558  55.078 161.887  1.00  0.00     0.000 C 
BRANCH   6   7
ATOM      7  C   UNL     1      18.804  56.421 161.832  1.00  0.00     0.000 C 
BRANCH   7   8
ATOM      8  C   UNL     1      19.452  57.497 160.934  1.00  0.00     0.006 C 
BRANCH   8   9
ATOM      9  C   UNL     1      18.658  58.809 160.835  1.00  0.00     0.053 C 
BRANCH   9  10
ATOM     10  C   UNL     1      18.049  58.993 159.479  1.00  0.00     0.041 C 
ATOM     11  O   UNL     1      16.862  59.395 159.366  1.00  0.00    -0.550 OA
ATOM     12  O   UNL     1      18.807  58.758 158.339  1.00  0.00    -0.550 OA
ENDBRANCH   9  10
ENDBRANCH   8   9
ENDBRANCH   7   8
ENDBRANCH   6   7
ENDBRANCH   5   6
ENDBRANCH   4   5
ENDBRANCH   3   4
ENDBRANCH   1   3
BRANCH   2  13
ATOM     13  C   UNL     1      16.364  56.384 157.425  1.00  0.00     0.027 C 
BRANCH  13  14
ATOM     14  C   UNL     1      15.154  56.050 156.533  1.00  0.00     0.004 C 
BRANCH  14  15
ATOM     15  C   UNL     1      15.048  54.566 156.125  1.00  0.00     0.000 C 
BRANCH  15  16
ATOM     16  C   UNL     1      13.884  53.796 156.774  1.00  0.00     0.000 C 
BRANCH  16  17
ATOM     17  C   UNL     1      14.357  52.727 157.769  1.00  0.00    -0.000 C 
BRANCH  17  18
ATOM     18  C   UNL     1      15.710  52.140 157.343  1.00  0.00    -0.000 C 
BRANCH  18  19
ATOM     19  C   UNL     1      16.448  51.456 158.505  1.00  0.00    -0.003 C 
ATOM     20  C   UNL     1      16.170  52.118 159.854  1.00  0.00     0.004 C 
ENDBRANCH  18  19
ENDBRANCH  17  18
ENDBRANCH  16  17
ENDBRANCH  15  16
ENDBRANCH  14  15
ENDBRANCH  13  14
ENDBRANCH   2  13
TORSDOF 15
ENDMDL
MODEL 9
REMARK VINA RESULT:    -4.358      1.983      4.912
REMARK INTER + INTRA:         -10.719
REMARK INTER:                  -8.131
REMARK INTRA:                  -2.588
REMARK UNBOUND:                -2.539
REMARK SMILES CCCCCCCCC=CCCCCCCCC(=O)[O-]
REMARK SMILES IDX 10 1 9 2 11 3 12 4 13 5 14 6 15 7 16 8 17 9 18 10 19 11
REMARK SMILES IDX 20 12 8 13 7 14 6 15 5 16 4 17 3 18 2 19 1 20
REMARK H PARENT
REMARK Flexibility Score: inf
ROOT
ATOM      1  C   UNL     1      17.183  53.112 159.821  1.00  0.00    -0.031 C 
ATOM      2  C   UNL     1      18.348  52.957 159.174  1.00  0.00    -0.031 C 
ENDROOT
BRANCH   1   3
ATOM      3  C   UNL     1      16.084  52.092 159.711  1.00  0.00     0.027 C 
BRANCH   3   4
ATOM      4  C   UNL     1      15.502  52.062 158.288  1.00  0.00     0.004 C 
BRANCH   4   5
ATOM      5  C   UNL     1      14.106  52.716 158.206  1.00  0.00     0.000 C 
BRANCH   5   6
ATOM      6  C   UNL     1      13.968  53.735 157.059  1.00  0.00     0.000 C 
BRANCH   6   7
ATOM      7  C   UNL     1      15.288  54.388 156.604  1.00  0.00     0.000 C 
BRANCH   7   8
ATOM      8  C   UNL     1      15.464  55.864 157.021  1.00  0.00     0.006 C 
BRANCH   8   9
ATOM      9  C   UNL     1      16.785  56.169 157.745  1.00  0.00     0.053 C 
BRANCH   9  10
ATOM     10  C   UNL     1      17.856  56.606 156.794  1.00  0.00     0.041 C 
ATOM     11  O   UNL     1      18.693  55.775 156.355  1.00  0.00    -0.550 OA
ATOM     12  O   UNL     1      17.905  57.925 156.362  1.00  0.00    -0.550 OA
ENDBRANCH   9  10
ENDBRANCH   8   9
ENDBRANCH   7   8
ENDBRANCH   6   7
ENDBRANCH   5   6
ENDBRANCH   4   5
ENDBRANCH   3   4
ENDBRANCH   1   3
BRANCH   2  13
ATOM     13  C   UNL     1      19.442  53.986 159.261  1.00  0.00     0.027 C 
BRANCH  13  14
ATOM     14  C   UNL     1      20.563  53.579 160.234  1.00  0.00     0.004 C 
BRANCH  14  15
ATOM     15  C   UNL     1      20.630  54.423 161.524  1.00  0.00     0.000 C 
BRANCH  15  16
ATOM     16  C   UNL     1      19.282  54.627 162.237  1.00  0.00     0.000 C 
BRANCH  16  17
ATOM     17  C   UNL     1      18.922  56.108 162.422  1.00  0.00    -0.000 C 
BRANCH  17  18
ATOM     18  C   UNL     1      18.022  56.601 161.281  1.00  0.00    -0.000 C 
BRANCH  18  19
ATOM     19  C   UNL     1      18.535  57.902 160.644  1.00  0.00    -0.003 C 
ATOM     20  C   UNL     1      19.753  57.681 159.748  1.00  0.00     0.004 C 
ENDBRANCH  18  19
ENDBRANCH  17  18
ENDBRANCH  16  17
ENDBRANCH  15  16
ENDBRANCH  14  15
ENDBRANCH  13  14
ENDBRANCH   2  13
TORSDOF 15
ENDMDL
