MODEL 1
REMARK VINA RESULT:    -7.177      0.000      0.000
REMARK INTER + INTRA:         -10.941
REMARK INTER:                  -9.485
REMARK INTRA:                  -1.456
REMARK UNBOUND:                -1.456
REMARK SMILES CC[C@@H](C=C[C@H](C)[C@H]1CC[C@@H]2C3=CC[C@H]4C[C@H](O)CC[C@@]4(C)[C@@H]3CC[C@@]21C)C(C)C
REMARK SMILES IDX 6 1 7 2 5 3 4 4 3 5 2 6 1 7 28 8 29 9 30 10 8 11 9 12 26 13
REMARK SMILES IDX 10 14 11 15 25 16 27 17 12 18 24 19 23 20 13 21 21 22 14 23
REMARK SMILES IDX 15 24 20 25 22 26 16 27 19 28 17 29 18 30
REMARK H PARENT 18 31
REMARK Flexibility Score: inf
ROOT
ATOM      1  C   UNL     1      44.313   9.065 118.479  1.00  0.00     0.012 C 
ATOM      2  C   UNL     1      43.002   8.400 118.935  1.00  0.00     0.012 C 
ENDROOT
BRANCH   1   3
ATOM      3  C   UNL     1      45.294   8.945 119.630  1.00  0.00    -0.028 C 
ATOM      4  C   UNL     1      45.573   9.864 120.576  1.00  0.00    -0.027 C 
BRANCH   4   5
ATOM      5  C   UNL     1      45.015  11.273 120.684  1.00  0.00     0.014 C 
BRANCH   5   6
ATOM      6  C   UNL     1      46.146  12.199 121.192  1.00  0.00     0.004 C 
ATOM      7  C   UNL     1      47.547  11.706 120.834  1.00  0.00     0.004 C 
ENDBRANCH   5   6
BRANCH   5   8
ATOM      8  C   UNL     1      43.722  11.312 121.557  1.00  0.00    -0.011 C 
ATOM      9  C   UNL     1      43.876  12.302 122.721  1.00  0.00     0.008 C 
ATOM     10  C   UNL     1      42.440  11.625 120.766  1.00  0.00     0.008 C 
ENDBRANCH   5   8
ENDBRANCH   4   5
ENDBRANCH   1   3
BRANCH   1  11
ATOM     11  C   UNL     1      44.906   8.361 117.207  1.00  0.00     0.002 C 
ATOM     12  C   UNL     1      43.936   7.380 116.547  1.00  0.00     0.005 C 
ATOM     13  C   UNL     1      45.378   9.271 116.016  1.00  0.00    -0.023 C 
ATOM     14  C   UNL     1      44.553   7.066 115.200  1.00  0.00     0.009 C 
ATOM     15  C   UNL     1      45.336   8.319 114.769  1.00  0.00     0.021 C 
ATOM     16  C   UNL     1      46.777   9.907 116.243  1.00  0.00     0.008 C 
ATOM     17  C   UNL     1      44.381  10.436 115.770  1.00  0.00     0.012 C 
ATOM     18  C   UNL     1      46.675   7.916 114.146  1.00  0.00    -0.067 C 
ATOM     19  C   UNL     1      47.915   8.901 116.137  1.00  0.00     0.009 C 
ATOM     20  C   UNL     1      48.027   8.352 114.702  1.00  0.00     0.021 C 
ATOM     21  C   UNL     1      46.651   7.268 112.963  1.00  0.00    -0.027 C 
ATOM     22  C   UNL     1      49.216   7.299 114.481  1.00  0.00    -0.023 C 
ATOM     23  C   UNL     1      47.924   6.819 112.313  1.00  0.00     0.031 C 
ATOM     24  C   UNL     1      48.821   6.215 113.403  1.00  0.00     0.002 C 
ATOM     25  C   UNL     1      50.472   8.106 114.010  1.00  0.00     0.010 C 
ATOM     26  C   UNL     1      49.561   6.544 115.796  1.00  0.00     0.012 C 
ATOM     27  C   UNL     1      50.022   5.441 112.804  1.00  0.00     0.036 C 
ATOM     28  C   UNL     1      51.623   7.240 113.490  1.00  0.00     0.032 C 
ATOM     29  C   UNL     1      51.152   6.363 112.331  1.00  0.00     0.114 C 
BRANCH  29  30
ATOM     30  O   UNL     1      52.239   5.604 111.868  1.00  0.00    -0.393 OA
ATOM     31  H   UNL     1      52.028   5.345 110.932  1.00  0.00     0.210 HD
ENDBRANCH  29  30
ENDBRANCH   1  11
TORSDOF 6
ENDMDL
MODEL 2
REMARK VINA RESULT:    -6.550      9.627     13.010
REMARK INTER + INTRA:         -10.112
REMARK INTER:                  -7.725
REMARK INTRA:                  -2.387
REMARK UNBOUND:                -1.456
REMARK SMILES CC[C@@H](C=C[C@H](C)[C@H]1CC[C@@H]2C3=CC[C@H]4C[C@H](O)CC[C@@]4(C)[C@@H]3CC[C@@]21C)C(C)C
REMARK SMILES IDX 6 1 7 2 5 3 4 4 3 5 2 6 1 7 28 8 29 9 30 10 8 11 9 12 26 13
REMARK SMILES IDX 10 14 11 15 25 16 27 17 12 18 24 19 23 20 13 21 21 22 14 23
REMARK SMILES IDX 15 24 20 25 22 26 16 27 19 28 17 29 18 30
REMARK H PARENT 18 31
REMARK Flexibility Score: inf
ROOT
ATOM      1  C   UNL     1      38.499  13.548 106.380  1.00  0.00     0.012 C 
ATOM      2  C   UNL     1      39.211  12.984 105.136  1.00  0.00     0.012 C 
ENDROOT
BRANCH   1   3
ATOM      3  C   UNL     1      37.325  12.632 106.670  1.00  0.00    -0.028 C 
ATOM      4  C   UNL     1      36.567  12.589 107.783  1.00  0.00    -0.027 C 
BRANCH   4   5
ATOM      5  C   UNL     1      36.744  13.410 109.049  1.00  0.00     0.014 C 
BRANCH   5   6
ATOM      6  C   UNL     1      36.821  12.434 110.247  1.00  0.00     0.004 C 
ATOM      7  C   UNL     1      38.216  11.856 110.476  1.00  0.00     0.004 C 
ENDBRANCH   5   6
BRANCH   5   8
ATOM      8  C   UNL     1      35.634  14.499 109.187  1.00  0.00    -0.011 C 
ATOM      9  C   UNL     1      35.599  15.070 110.612  1.00  0.00     0.008 C 
ATOM     10  C   UNL     1      35.745  15.642 108.164  1.00  0.00     0.008 C 
ENDBRANCH   5   8
ENDBRANCH   4   5
ENDBRANCH   1   3
BRANCH   1  11
ATOM     11  C   UNL     1      39.457  13.586 107.624  1.00  0.00     0.002 C 
ATOM     12  C   UNL     1      40.525  12.493 107.604  1.00  0.00     0.005 C 
ATOM     13  C   UNL     1      40.277  14.901 107.879  1.00  0.00    -0.023 C 
ATOM     14  C   UNL     1      41.513  12.892 108.681  1.00  0.00     0.009 C 
ATOM     15  C   UNL     1      41.492  14.429 108.753  1.00  0.00     0.021 C 
ATOM     16  C   UNL     1      39.447  16.026 108.556  1.00  0.00     0.008 C 
ATOM     17  C   UNL     1      40.833  15.482 106.551  1.00  0.00     0.012 C 
ATOM     18  C   UNL     1      41.529  14.889 110.212  1.00  0.00    -0.067 C 
ATOM     19  C   UNL     1      39.140  15.742 110.021  1.00  0.00     0.009 C 
ATOM     20  C   UNL     1      40.434  15.732 110.858  1.00  0.00     0.021 C 
ATOM     21  C   UNL     1      42.657  14.662 110.917  1.00  0.00    -0.027 C 
ATOM     22  C   UNL     1      40.214  15.464 112.423  1.00  0.00    -0.023 C 
ATOM     23  C   UNL     1      42.750  15.061 112.358  1.00  0.00     0.031 C 
ATOM     24  C   UNL     1      41.431  14.670 113.040  1.00  0.00     0.002 C 
ATOM     25  C   UNL     1      40.064  16.860 113.118  1.00  0.00     0.010 C 
ATOM     26  C   UNL     1      38.930  14.627 112.684  1.00  0.00     0.012 C 
ATOM     27  C   UNL     1      41.529  14.747 114.584  1.00  0.00     0.036 C 
ATOM     28  C   UNL     1      40.118  16.814 114.647  1.00  0.00     0.032 C 
ATOM     29  C   UNL     1      41.426  16.180 115.119  1.00  0.00     0.114 C 
BRANCH  29  30
ATOM     30  O   UNL     1      41.447  16.179 116.524  1.00  0.00    -0.393 OA
ATOM     31  H   UNL     1      40.507  16.288 116.823  1.00  0.00     0.210 HD
ENDBRANCH  29  30
ENDBRANCH   1  11
TORSDOF 6
ENDMDL
MODEL 3
REMARK VINA RESULT:    -6.452      9.363     12.921
REMARK INTER + INTRA:          -9.982
REMARK INTER:                  -7.594
REMARK INTRA:                  -2.388
REMARK UNBOUND:                -1.456
REMARK SMILES CC[C@@H](C=C[C@H](C)[C@H]1CC[C@@H]2C3=CC[C@H]4C[C@H](O)CC[C@@]4(C)[C@@H]3CC[C@@]21C)C(C)C
REMARK SMILES IDX 6 1 7 2 5 3 4 4 3 5 2 6 1 7 28 8 29 9 30 10 8 11 9 12 26 13
REMARK SMILES IDX 10 14 11 15 25 16 27 17 12 18 24 19 23 20 13 21 21 22 14 23
REMARK SMILES IDX 15 24 20 25 22 26 16 27 19 28 17 29 18 30
REMARK H PARENT 18 31
REMARK Flexibility Score: inf
ROOT
ATOM      1  C   UNL     1      38.616  13.253 106.164  1.00  0.00     0.012 C 
ATOM      2  C   UNL     1      39.032  12.113 105.217  1.00  0.00     0.012 C 
ENDROOT
BRANCH   1   3
ATOM      3  C   UNL     1      37.220  12.926 106.661  1.00  0.00    -0.028 C 
ATOM      4  C   UNL     1      36.862  11.987 107.559  1.00  0.00    -0.027 C 
BRANCH   4   5
ATOM      5  C   UNL     1      37.768  10.981 108.249  1.00  0.00     0.014 C 
BRANCH   5   6
ATOM      6  C   UNL     1      37.393   9.569 107.738  1.00  0.00     0.004 C 
ATOM      7  C   UNL     1      38.545   8.844 107.044  1.00  0.00     0.004 C 
ENDBRANCH   5   6
BRANCH   5   8
ATOM      8  C   UNL     1      37.713  11.130 109.801  1.00  0.00    -0.011 C 
ATOM      9  C   UNL     1      39.127  11.187 110.397  1.00  0.00     0.008 C 
ATOM     10  C   UNL     1      36.888  12.334 110.287  1.00  0.00     0.008 C 
ENDBRANCH   5   8
ENDBRANCH   4   5
ENDBRANCH   1   3
BRANCH   1  11
ATOM     11  C   UNL     1      39.595  13.375 107.385  1.00  0.00     0.002 C 
ATOM     12  C   UNL     1      40.793  12.428 107.302  1.00  0.00     0.005 C 
ATOM     13  C   UNL     1      40.249  14.775 107.665  1.00  0.00    -0.023 C 
ATOM     14  C   UNL     1      41.752  12.916 108.368  1.00  0.00     0.009 C 
ATOM     15  C   UNL     1      41.538  14.435 108.494  1.00  0.00     0.021 C 
ATOM     16  C   UNL     1      39.303  15.763 108.401  1.00  0.00     0.008 C 
ATOM     17  C   UNL     1      40.690  15.463 106.345  1.00  0.00     0.012 C 
ATOM     18  C   UNL     1      41.559  14.850 109.967  1.00  0.00    -0.067 C 
ATOM     19  C   UNL     1      39.076  15.397 109.862  1.00  0.00     0.009 C 
ATOM     20  C   UNL     1      40.383  15.526 110.667  1.00  0.00     0.021 C 
ATOM     21  C   UNL     1      42.725  14.748 110.636  1.00  0.00    -0.027 C 
ATOM     22  C   UNL     1      40.244  15.184 112.227  1.00  0.00    -0.023 C 
ATOM     23  C   UNL     1      42.808  15.110 112.087  1.00  0.00     0.031 C 
ATOM     24  C   UNL     1      41.568  14.532 112.787  1.00  0.00     0.002 C 
ATOM     25  C   UNL     1      39.937  16.526 112.972  1.00  0.00     0.010 C 
ATOM     26  C   UNL     1      39.084  14.181 112.490  1.00  0.00     0.012 C 
ATOM     27  C   UNL     1      41.700  14.573 114.329  1.00  0.00     0.036 C 
ATOM     28  C   UNL     1      40.040  16.441 114.498  1.00  0.00     0.032 C 
ATOM     29  C   UNL     1      41.430  15.964 114.916  1.00  0.00     0.114 C 
BRANCH  29  30
ATOM     30  O   UNL     1      41.492  15.922 116.319  1.00  0.00    -0.393 OA
ATOM     31  H   UNL     1      41.410  14.967 116.579  1.00  0.00     0.210 HD
ENDBRANCH  29  30
ENDBRANCH   1  11
TORSDOF 6
ENDMDL
MODEL 4
REMARK VINA RESULT:    -6.443      9.654     12.506
REMARK INTER + INTRA:          -9.971
REMARK INTER:                  -7.578
REMARK INTRA:                  -2.393
REMARK UNBOUND:                -1.456
REMARK SMILES CC[C@@H](C=C[C@H](C)[C@H]1CC[C@@H]2C3=CC[C@H]4C[C@H](O)CC[C@@]4(C)[C@@H]3CC[C@@]21C)C(C)C
REMARK SMILES IDX 6 1 7 2 5 3 4 4 3 5 2 6 1 7 28 8 29 9 30 10 8 11 9 12 26 13
REMARK SMILES IDX 10 14 11 15 25 16 27 17 12 18 24 19 23 20 13 21 21 22 14 23
REMARK SMILES IDX 15 24 20 25 22 26 16 27 19 28 17 29 18 30
REMARK H PARENT 18 31
REMARK Flexibility Score: inf
ROOT
ATOM      1  C   UNL     1      34.223   2.047 113.589  1.00  0.00     0.012 C 
ATOM      2  C   UNL     1      33.449   3.269 114.115  1.00  0.00     0.012 C 
ENDROOT
BRANCH   1   3
ATOM      3  C   UNL     1      34.028   2.015 112.085  1.00  0.00    -0.028 C 
ATOM      4  C   UNL     1      34.580   2.829 111.163  1.00  0.00    -0.027 C 
BRANCH   4   5
ATOM      5  C   UNL     1      35.488   4.020 111.413  1.00  0.00     0.014 C 
BRANCH   5   6
ATOM      6  C   UNL     1      34.727   5.300 110.991  1.00  0.00     0.004 C 
ATOM      7  C   UNL     1      34.499   6.282 112.139  1.00  0.00     0.004 C 
ENDBRANCH   5   6
BRANCH   5   8
ATOM      8  C   UNL     1      36.872   3.844 110.713  1.00  0.00    -0.011 C 
ATOM      9  C   UNL     1      38.021   4.061 111.707  1.00  0.00     0.008 C 
ATOM     10  C   UNL     1      37.044   2.494 109.995  1.00  0.00     0.008 C 
ENDBRANCH   5   8
ENDBRANCH   4   5
ENDBRANCH   1   3
BRANCH   1  11
ATOM     11  C   UNL     1      35.755   2.149 113.920  1.00  0.00     0.002 C 
ATOM     12  C   UNL     1      36.110   3.352 114.793  1.00  0.00     0.005 C 
ATOM     13  C   UNL     1      36.428   0.940 114.663  1.00  0.00    -0.023 C 
ATOM     14  C   UNL     1      37.530   3.094 115.255  1.00  0.00     0.009 C 
ATOM     15  C   UNL     1      37.698   1.567 115.339  1.00  0.00     0.021 C 
ATOM     16  C   UNL     1      36.770  -0.249 113.724  1.00  0.00     0.008 C 
ATOM     17  C   UNL     1      35.507   0.386 115.783  1.00  0.00     0.012 C 
ATOM     18  C   UNL     1      39.065   1.156 114.787  1.00  0.00    -0.067 C 
ATOM     19  C   UNL     1      37.942   0.040 112.795  1.00  0.00     0.009 C 
ATOM     20  C   UNL     1      39.244   0.215 113.598  1.00  0.00     0.021 C 
ATOM     21  C   UNL     1      40.162   1.524 115.479  1.00  0.00    -0.027 C 
ATOM     22  C   UNL     1      40.546   0.502 112.706  1.00  0.00    -0.023 C 
ATOM     23  C   UNL     1      41.532   1.179 114.979  1.00  0.00     0.031 C 
ATOM     24  C   UNL     1      41.560   1.443 113.466  1.00  0.00     0.002 C 
ATOM     25  C   UNL     1      41.210  -0.881 112.395  1.00  0.00     0.010 C 
ATOM     26  C   UNL     1      40.177   1.201 111.367  1.00  0.00     0.012 C 
ATOM     27  C   UNL     1      43.002   1.420 112.900  1.00  0.00     0.036 C 
ATOM     28  C   UNL     1      42.611  -0.787 111.784  1.00  0.00     0.032 C 
ATOM     29  C   UNL     1      43.545   0.000 112.702  1.00  0.00     0.114 C 
BRANCH  29  30
ATOM     30  O   UNL     1      44.822   0.043 112.119  1.00  0.00    -0.393 OA
ATOM     31  H   UNL     1      44.819   0.805 111.482  1.00  0.00     0.210 HD
ENDBRANCH  29  30
ENDBRANCH   1  11
TORSDOF 6
ENDMDL
MODEL 5
REMARK VINA RESULT:    -6.441      6.649     10.317
REMARK INTER + INTRA:          -9.969
REMARK INTER:                  -8.582
REMARK INTRA:                  -1.386
REMARK UNBOUND:                -1.456
REMARK SMILES CC[C@@H](C=C[C@H](C)[C@H]1CC[C@@H]2C3=CC[C@H]4C[C@H](O)CC[C@@]4(C)[C@@H]3CC[C@@]21C)C(C)C
REMARK SMILES IDX 6 1 7 2 5 3 4 4 3 5 2 6 1 7 28 8 29 9 30 10 8 11 9 12 26 13
REMARK SMILES IDX 10 14 11 15 25 16 27 17 12 18 24 19 23 20 13 21 21 22 14 23
REMARK SMILES IDX 15 24 20 25 22 26 16 27 19 28 17 29 18 30
REMARK H PARENT 18 31
REMARK Flexibility Score: inf
ROOT
ATOM      1  C   UNL     1      41.082  13.574 109.715  1.00  0.00     0.012 C 
ATOM      2  C   UNL     1      41.084  15.095 109.477  1.00  0.00     0.012 C 
ENDROOT
BRANCH   1   3
ATOM      3  C   UNL     1      41.890  12.950 108.592  1.00  0.00    -0.028 C 
ATOM      4  C   UNL     1      41.442  12.500 107.403  1.00  0.00    -0.027 C 
BRANCH   4   5
ATOM      5  C   UNL     1      40.002  12.452 106.921  1.00  0.00     0.014 C 
BRANCH   5   6
ATOM      6  C   UNL     1      39.256  11.375 107.745  1.00  0.00     0.004 C 
ATOM      7  C   UNL     1      38.051  11.918 108.511  1.00  0.00     0.004 C 
ENDBRANCH   5   6
BRANCH   5   8
ATOM      8  C   UNL     1      39.921  12.240 105.377  1.00  0.00    -0.011 C 
ATOM      9  C   UNL     1      39.665  10.764 105.039  1.00  0.00     0.008 C 
ATOM     10  C   UNL     1      38.880  13.129 104.675  1.00  0.00     0.008 C 
ENDBRANCH   5   8
ENDBRANCH   4   5
ENDBRANCH   1   3
BRANCH   1  11
ATOM     11  C   UNL     1      41.728  13.205 111.097  1.00  0.00     0.002 C 
ATOM     12  C   UNL     1      42.326  14.407 111.829  1.00  0.00     0.005 C 
ATOM     13  C   UNL     1      40.812  12.531 112.180  1.00  0.00    -0.023 C 
ATOM     14  C   UNL     1      42.595  13.914 113.236  1.00  0.00     0.009 C 
ATOM     15  C   UNL     1      41.537  12.838 113.538  1.00  0.00     0.021 C 
ATOM     16  C   UNL     1      40.594  11.011 111.944  1.00  0.00     0.008 C 
ATOM     17  C   UNL     1      39.408  13.192 112.219  1.00  0.00     0.012 C 
ATOM     18  C   UNL     1      42.177  11.661 114.276  1.00  0.00    -0.067 C 
ATOM     19  C   UNL     1      41.833  10.176 112.239  1.00  0.00     0.009 C 
ATOM     20  C   UNL     1      42.184  10.233 113.738  1.00  0.00     0.021 C 
ATOM     21  C   UNL     1      42.625  11.871 115.531  1.00  0.00    -0.027 C 
ATOM     22  C   UNL     1      43.465   9.364 114.157  1.00  0.00    -0.023 C 
ATOM     23  C   UNL     1      43.288  10.769 116.300  1.00  0.00     0.031 C 
ATOM     24  C   UNL     1      44.249  10.044 115.346  1.00  0.00     0.002 C 
ATOM     25  C   UNL     1      42.948   7.948 114.580  1.00  0.00     0.010 C 
ATOM     26  C   UNL     1      44.460   9.207 112.972  1.00  0.00     0.012 C 
ATOM     27  C   UNL     1      45.213   9.095 116.103  1.00  0.00     0.036 C 
ATOM     28  C   UNL     1      43.998   7.071 115.269  1.00  0.00     0.032 C 
ATOM     29  C   UNL     1      44.554   7.771 116.508  1.00  0.00     0.114 C 
BRANCH  29  30
ATOM     30  O   UNL     1      45.494   6.927 117.122  1.00  0.00    -0.393 OA
ATOM     31  H   UNL     1      46.319   6.971 116.572  1.00  0.00     0.210 HD
ENDBRANCH  29  30
ENDBRANCH   1  11
TORSDOF 6
ENDMDL
MODEL 6
REMARK VINA RESULT:    -6.322      9.383     12.862
REMARK INTER + INTRA:          -9.811
REMARK INTER:                  -8.187
REMARK INTRA:                  -1.624
REMARK UNBOUND:                -1.456
REMARK SMILES CC[C@@H](C=C[C@H](C)[C@H]1CC[C@@H]2C3=CC[C@H]4C[C@H](O)CC[C@@]4(C)[C@@H]3CC[C@@]21C)C(C)C
REMARK SMILES IDX 6 1 7 2 5 3 4 4 3 5 2 6 1 7 28 8 29 9 30 10 8 11 9 12 26 13
REMARK SMILES IDX 10 14 11 15 25 16 27 17 12 18 24 19 23 20 13 21 21 22 14 23
REMARK SMILES IDX 15 24 20 25 22 26 16 27 19 28 17 29 18 30
REMARK H PARENT 18 31
REMARK Flexibility Score: inf
ROOT
ATOM      1  C   UNL     1      41.627  13.627 113.666  1.00  0.00     0.012 C 
ATOM      2  C   UNL     1      42.044  14.011 115.096  1.00  0.00     0.012 C 
ENDROOT
BRANCH   1   3
ATOM      3  C   UNL     1      40.878  12.311 113.762  1.00  0.00    -0.028 C 
ATOM      4  C   UNL     1      41.377  11.065 113.632  1.00  0.00    -0.027 C 
BRANCH   4   5
ATOM      5  C   UNL     1      42.806  10.677 113.294  1.00  0.00     0.014 C 
BRANCH   5   6
ATOM      6  C   UNL     1      42.854  10.272 111.802  1.00  0.00     0.004 C 
ATOM      7  C   UNL     1      42.878  11.462 110.845  1.00  0.00     0.004 C 
ENDBRANCH   5   6
BRANCH   5   8
ATOM      8  C   UNL     1      43.348   9.584 114.267  1.00  0.00    -0.011 C 
ATOM      9  C   UNL     1      44.497   8.795 113.621  1.00  0.00     0.008 C 
ATOM     10  C   UNL     1      43.788  10.126 115.638  1.00  0.00     0.008 C 
ENDBRANCH   5   8
ENDBRANCH   4   5
ENDBRANCH   1   3
BRANCH   1  11
ATOM     11  C   UNL     1      40.696  14.717 113.024  1.00  0.00     0.002 C 
ATOM     12  C   UNL     1      40.724  16.054 113.765  1.00  0.00     0.005 C 
ATOM     13  C   UNL     1      40.957  15.117 111.528  1.00  0.00    -0.023 C 
ATOM     14  C   UNL     1      40.041  17.032 112.832  1.00  0.00     0.009 C 
ATOM     15  C   UNL     1      40.320  16.546 111.399  1.00  0.00     0.021 C 
ATOM     16  C   UNL     1      40.374  14.103 110.506  1.00  0.00     0.008 C 
ATOM     17  C   UNL     1      42.477  15.236 111.235  1.00  0.00     0.012 C 
ATOM     18  C   UNL     1      39.059  16.680 110.542  1.00  0.00    -0.067 C 
ATOM     19  C   UNL     1      38.853  14.147 110.421  1.00  0.00     0.009 C 
ATOM     20  C   UNL     1      38.378  15.499 109.857  1.00  0.00     0.021 C 
ATOM     21  C   UNL     1      38.618  17.923 110.258  1.00  0.00    -0.027 C 
ATOM     22  C   UNL     1      36.787  15.637 109.706  1.00  0.00    -0.023 C 
ATOM     23  C   UNL     1      37.373  18.125 109.449  1.00  0.00     0.031 C 
ATOM     24  C   UNL     1      36.320  17.125 109.949  1.00  0.00     0.002 C 
ATOM     25  C   UNL     1      36.416  15.177 108.256  1.00  0.00     0.010 C 
ATOM     26  C   UNL     1      36.037  14.740 110.731  1.00  0.00     0.012 C 
ATOM     27  C   UNL     1      34.906  17.450 109.404  1.00  0.00     0.036 C 
ATOM     28  C   UNL     1      34.977  15.496 107.840  1.00  0.00     0.032 C 
ATOM     29  C   UNL     1      34.705  16.995 107.954  1.00  0.00     0.114 C 
BRANCH  29  30
ATOM     30  O   UNL     1      33.387  17.249 107.542  1.00  0.00    -0.393 OA
ATOM     31  H   UNL     1      33.135  18.133 107.918  1.00  0.00     0.210 HD
ENDBRANCH  29  30
ENDBRANCH   1  11
TORSDOF 6
ENDMDL
MODEL 7
REMARK VINA RESULT:    -6.117      9.539     13.363
REMARK INTER + INTRA:          -9.539
REMARK INTER:                  -7.788
REMARK INTRA:                  -1.751
REMARK UNBOUND:                -1.456
REMARK SMILES CC[C@@H](C=C[C@H](C)[C@H]1CC[C@@H]2C3=CC[C@H]4C[C@H](O)CC[C@@]4(C)[C@@H]3CC[C@@]21C)C(C)C
REMARK SMILES IDX 6 1 7 2 5 3 4 4 3 5 2 6 1 7 28 8 29 9 30 10 8 11 9 12 26 13
REMARK SMILES IDX 10 14 11 15 25 16 27 17 12 18 24 19 23 20 13 21 21 22 14 23
REMARK SMILES IDX 15 24 20 25 22 26 16 27 19 28 17 29 18 30
REMARK H PARENT 18 31
REMARK Flexibility Score: inf
ROOT
ATOM      1  C   UNL     1      37.306   9.888 106.517  1.00  0.00     0.012 C 
ATOM      2  C   UNL     1      37.013  10.464 105.120  1.00  0.00     0.012 C 
ENDROOT
BRANCH   1   3
ATOM      3  C   UNL     1      38.572   9.060 106.396  1.00  0.00    -0.028 C 
ATOM      4  C   UNL     1      38.703   7.726 106.541  1.00  0.00    -0.027 C 
BRANCH   4   5
ATOM      5  C   UNL     1      37.620   6.731 106.921  1.00  0.00     0.014 C 
BRANCH   5   6
ATOM      6  C   UNL     1      37.715   6.478 108.445  1.00  0.00     0.004 C 
ATOM      7  C   UNL     1      36.355   6.359 109.130  1.00  0.00     0.004 C 
ENDBRANCH   5   6
BRANCH   5   8
ATOM      8  C   UNL     1      37.703   5.435 106.056  1.00  0.00    -0.011 C 
ATOM      9  C   UNL     1      38.812   4.504 106.566  1.00  0.00     0.008 C 
ATOM     10  C   UNL     1      36.375   4.664 105.951  1.00  0.00     0.008 C 
ENDBRANCH   5   8
ENDBRANCH   4   5
ENDBRANCH   1   3
BRANCH   1  11
ATOM     11  C   UNL     1      37.521  11.027 107.577  1.00  0.00     0.002 C 
ATOM     12  C   UNL     1      36.817  12.335 107.215  1.00  0.00     0.005 C 
ATOM     13  C   UNL     1      37.057  10.753 109.052  1.00  0.00    -0.023 C 
ATOM     14  C   UNL     1      36.871  13.170 108.478  1.00  0.00     0.009 C 
ATOM     15  C   UNL     1      36.855  12.186 109.660  1.00  0.00     0.021 C 
ATOM     16  C   UNL     1      38.060   9.889 109.865  1.00  0.00     0.008 C 
ATOM     17  C   UNL     1      35.691  10.016 109.084  1.00  0.00     0.012 C 
ATOM     18  C   UNL     1      37.843  12.640 110.737  1.00  0.00    -0.067 C 
ATOM     19  C   UNL     1      39.334  10.640 110.233  1.00  0.00     0.009 C 
ATOM     20  C   UNL     1      39.024  11.794 111.205  1.00  0.00     0.021 C 
ATOM     21  C   UNL     1      37.568  13.777 111.409  1.00  0.00    -0.027 C 
ATOM     22  C   UNL     1      40.308  12.635 111.674  1.00  0.00    -0.023 C 
ATOM     23  C   UNL     1      38.508  14.292 112.455  1.00  0.00     0.031 C 
ATOM     24  C   UNL     1      39.938  14.151 111.913  1.00  0.00     0.002 C 
ATOM     25  C   UNL     1      40.833  11.983 112.997  1.00  0.00     0.010 C 
ATOM     26  C   UNL     1      41.437  12.594 110.605  1.00  0.00     0.012 C 
ATOM     27  C   UNL     1      40.964  14.932 112.771  1.00  0.00     0.036 C 
ATOM     28  C   UNL     1      41.886  12.813 113.736  1.00  0.00     0.032 C 
ATOM     29  C   UNL     1      41.341  14.202 114.066  1.00  0.00     0.114 C 
BRANCH  29  30
ATOM     30  O   UNL     1      42.326  14.922 114.762  1.00  0.00    -0.393 OA
ATOM     31  H   UNL     1      42.117  14.829 115.728  1.00  0.00     0.210 HD
ENDBRANCH  29  30
ENDBRANCH   1  11
TORSDOF 6
ENDMDL
MODEL 8
REMARK VINA RESULT:    -6.049      8.419     11.109
REMARK INTER + INTRA:          -9.449
REMARK INTER:                  -7.825
REMARK INTRA:                  -1.624
REMARK UNBOUND:                -1.456
REMARK SMILES CC[C@@H](C=C[C@H](C)[C@H]1CC[C@@H]2C3=CC[C@H]4C[C@H](O)CC[C@@]4(C)[C@@H]3CC[C@@]21C)C(C)C
REMARK SMILES IDX 6 1 7 2 5 3 4 4 3 5 2 6 1 7 28 8 29 9 30 10 8 11 9 12 26 13
REMARK SMILES IDX 10 14 11 15 25 16 27 17 12 18 24 19 23 20 13 21 21 22 14 23
REMARK SMILES IDX 15 24 20 25 22 26 16 27 19 28 17 29 18 30
REMARK H PARENT 18 31
REMARK Flexibility Score: inf
ROOT
ATOM      1  C   UNL     1      41.870  13.821 113.451  1.00  0.00     0.012 C 
ATOM      2  C   UNL     1      41.883  15.028 114.406  1.00  0.00     0.012 C 
ENDROOT
BRANCH   1   3
ATOM      3  C   UNL     1      41.193  12.681 114.188  1.00  0.00    -0.028 C 
ATOM      4  C   UNL     1      41.615  11.407 114.304  1.00  0.00    -0.027 C 
BRANCH   4   5
ATOM      5  C   UNL     1      42.848  10.784 113.671  1.00  0.00     0.014 C 
BRANCH   5   6
ATOM      6  C   UNL     1      42.462  10.286 112.258  1.00  0.00     0.004 C 
ATOM      7  C   UNL     1      41.092   9.613 112.200  1.00  0.00     0.004 C 
ENDBRANCH   5   6
BRANCH   5   8
ATOM      8  C   UNL     1      43.469   9.683 114.586  1.00  0.00    -0.011 C 
ATOM      9  C   UNL     1      44.477   8.826 113.806  1.00  0.00     0.008 C 
ATOM     10  C   UNL     1      44.121  10.226 115.869  1.00  0.00     0.008 C 
ENDBRANCH   5   8
ENDBRANCH   4   5
ENDBRANCH   1   3
BRANCH   1  11
ATOM     11  C   UNL     1      41.080  14.139 112.131  1.00  0.00     0.002 C 
ATOM     12  C   UNL     1      40.248  15.419 112.214  1.00  0.00     0.005 C 
ATOM     13  C   UNL     1      41.904  14.317 110.806  1.00  0.00    -0.023 C 
ATOM     14  C   UNL     1      39.840  15.712 110.784  1.00  0.00     0.009 C 
ATOM     15  C   UNL     1      40.961  15.167 109.883  1.00  0.00     0.021 C 
ATOM     16  C   UNL     1      42.329  12.971 110.158  1.00  0.00     0.008 C 
ATOM     17  C   UNL     1      43.201  15.132 111.057  1.00  0.00     0.012 C 
ATOM     18  C   UNL     1      40.363  14.473 108.658  1.00  0.00    -0.067 C 
ATOM     19  C   UNL     1      41.166  12.219 109.523  1.00  0.00     0.009 C 
ATOM     20  C   UNL     1      40.599  13.003 108.324  1.00  0.00     0.021 C 
ATOM     21  C   UNL     1      39.719  15.237 107.751  1.00  0.00    -0.027 C 
ATOM     22  C   UNL     1      39.381  12.281 107.570  1.00  0.00    -0.023 C 
ATOM     23  C   UNL     1      39.085  14.617 106.543  1.00  0.00     0.031 C 
ATOM     24  C   UNL     1      38.361  13.340 106.996  1.00  0.00     0.002 C 
ATOM     25  C   UNL     1      39.993  11.425 106.411  1.00  0.00     0.010 C 
ATOM     26  C   UNL     1      38.591  11.346 108.529  1.00  0.00     0.012 C 
ATOM     27  C   UNL     1      37.416  12.789 105.899  1.00  0.00     0.036 C 
ATOM     28  C   UNL     1      38.964  10.881 105.416  1.00  0.00     0.032 C 
ATOM     29  C   UNL     1      38.159  12.023 104.798  1.00  0.00     0.114 C 
BRANCH  29  30
ATOM     30  O   UNL     1      37.246  11.487 103.875  1.00  0.00    -0.393 OA
ATOM     31  H   UNL     1      37.157  12.151 103.143  1.00  0.00     0.210 HD
ENDBRANCH  29  30
ENDBRANCH   1  11
TORSDOF 6
ENDMDL
MODEL 9
REMARK VINA RESULT:    -6.005     10.258     13.549
REMARK INTER + INTRA:          -9.392
REMARK INTER:                  -7.314
REMARK INTRA:                  -2.078
REMARK UNBOUND:                -1.456
REMARK SMILES CC[C@@H](C=C[C@H](C)[C@H]1CC[C@@H]2C3=CC[C@H]4C[C@H](O)CC[C@@]4(C)[C@@H]3CC[C@@]21C)C(C)C
REMARK SMILES IDX 6 1 7 2 5 3 4 4 3 5 2 6 1 7 28 8 29 9 30 10 8 11 9 12 26 13
REMARK SMILES IDX 10 14 11 15 25 16 27 17 12 18 24 19 23 20 13 21 21 22 14 23
REMARK SMILES IDX 15 24 20 25 22 26 16 27 19 28 17 29 18 30
REMARK H PARENT 18 31
REMARK Flexibility Score: inf
ROOT
ATOM      1  C   UNL     1      34.486  -0.132 113.498  1.00  0.00     0.012 C 
ATOM      2  C   UNL     1      33.496   1.038 113.352  1.00  0.00     0.012 C 
ENDROOT
BRANCH   1   3
ATOM      3  C   UNL     1      34.436  -0.918 112.201  1.00  0.00    -0.028 C 
ATOM      4  C   UNL     1      34.995  -0.595 111.018  1.00  0.00    -0.027 C 
BRANCH   4   5
ATOM      5  C   UNL     1      35.764   0.671 110.678  1.00  0.00     0.014 C 
BRANCH   5   6
ATOM      6  C   UNL     1      34.832   1.594 109.859  1.00  0.00     0.004 C 
ATOM      7  C   UNL     1      34.643   2.978 110.477  1.00  0.00     0.004 C 
ENDBRANCH   5   6
BRANCH   5   8
ATOM      8  C   UNL     1      37.118   0.347 109.973  1.00  0.00    -0.011 C 
ATOM      9  C   UNL     1      36.964  -0.836 109.005  1.00  0.00     0.008 C 
ATOM     10  C   UNL     1      37.748   1.546 109.242  1.00  0.00     0.008 C 
ENDBRANCH   5   8
ENDBRANCH   4   5
ENDBRANCH   1   3
BRANCH   1  11
ATOM     11  C   UNL     1      35.949   0.379 113.748  1.00  0.00     0.002 C 
ATOM     12  C   UNL     1      36.009   1.755 114.413  1.00  0.00     0.005 C 
ATOM     13  C   UNL     1      36.892  -0.504 114.641  1.00  0.00    -0.023 C 
ATOM     14  C   UNL     1      37.450   1.915 114.852  1.00  0.00     0.009 C 
ATOM     15  C   UNL     1      37.977   0.503 115.163  1.00  0.00     0.021 C 
ATOM     16  C   UNL     1      37.507  -1.713 113.884  1.00  0.00     0.008 C 
ATOM     17  C   UNL     1      36.132  -1.075 115.869  1.00  0.00     0.012 C 
ATOM     18  C   UNL     1      39.402   0.343 114.628  1.00  0.00    -0.067 C 
ATOM     19  C   UNL     1      38.575  -1.307 112.876  1.00  0.00     0.009 C 
ATOM     20  C   UNL     1      39.799  -0.705 113.592  1.00  0.00     0.021 C 
ATOM     21  C   UNL     1      40.381   1.065 115.211  1.00  0.00    -0.027 C 
ATOM     22  C   UNL     1      40.993  -0.265 112.615  1.00  0.00    -0.023 C 
ATOM     23  C   UNL     1      41.792   0.977 114.717  1.00  0.00     0.031 C 
ATOM     24  C   UNL     1      41.755   0.997 113.182  1.00  0.00     0.002 C 
ATOM     25  C   UNL     1      41.968  -1.484 112.494  1.00  0.00     0.010 C 
ATOM     26  C   UNL     1      40.466   0.106 111.200  1.00  0.00     0.012 C 
ATOM     27  C   UNL     1      43.159   1.225 112.569  1.00  0.00     0.036 C 
ATOM     28  C   UNL     1      43.305  -1.161 111.822  1.00  0.00     0.032 C 
ATOM     29  C   UNL     1      44.026  -0.041 112.571  1.00  0.00     0.114 C 
BRANCH  29  30
ATOM     30  O   UNL     1      45.255   0.209 111.938  1.00  0.00    -0.393 OA
ATOM     31  H   UNL     1      45.710  -0.669 111.844  1.00  0.00     0.210 HD
ENDBRANCH  29  30
ENDBRANCH   1  11
TORSDOF 6
ENDMDL
