MODEL 1
REMARK VINA RESULT:    -2.982      0.000      0.000
REMARK INTER + INTRA:          -8.246
REMARK INTER:                  -7.514
REMARK INTRA:                  -0.732
REMARK UNBOUND:                -0.732
REMARK SMILES CCCCCCCCCCCCCCCCCCCCCCCCCCCC(=O)[O-]
REMARK SMILES IDX 15 1 16 2 17 3 18 4 19 5 20 6 21 7 22 8 23 9 24 10 25 11
REMARK SMILES IDX 26 12 27 13 28 14 29 15 30 16 14 17 13 18 12 19 11 20 10 21
REMARK SMILES IDX 9 22 8 23 7 24 6 25 5 26 4 27 3 28 2 29 1 30
REMARK H PARENT
REMARK Flexibility Score: inf
ROOT
ATOM      1  C   UNL     1      33.962  47.046  26.783  1.00  0.00     0.000 C 
ENDROOT
BRANCH   1   2
ATOM      2  C   UNL     1      33.264  46.570  25.492  1.00  0.00     0.000 C 
BRANCH   2   3
ATOM      3  C   UNL     1      32.777  45.115  25.597  1.00  0.00     0.000 C 
BRANCH   3   4
ATOM      4  C   UNL     1      33.065  44.495  26.974  1.00  0.00     0.000 C 
BRANCH   4   5
ATOM      5  C   UNL     1      34.398  43.734  27.011  1.00  0.00     0.000 C 
BRANCH   5   6
ATOM      6  C   UNL     1      35.114  43.814  25.656  1.00  0.00     0.000 C 
BRANCH   6   7
ATOM      7  C   UNL     1      36.531  43.215  25.688  1.00  0.00     0.000 C 
BRANCH   7   8
ATOM      8  C   UNL     1      36.890  42.394  24.430  1.00  0.00     0.000 C 
BRANCH   8   9
ATOM      9  C   UNL     1      38.086  41.456  24.673  1.00  0.00     0.000 C 
BRANCH   9  10
ATOM     10  C   UNL     1      37.657  40.028  25.047  1.00  0.00     0.000 C 
BRANCH  10  11
ATOM     11  C   UNL     1      37.293  39.894  26.536  1.00  0.00     0.000 C 
BRANCH  11  12
ATOM     12  C   UNL     1      37.671  38.521  27.124  1.00  0.00     0.006 C 
BRANCH  12  13
ATOM     13  C   UNL     1      36.927  37.330  26.498  1.00  0.00     0.053 C 
BRANCH  13  14
ATOM     14  C   UNL     1      37.701  36.053  26.619  1.00  0.00     0.041 C 
ATOM     15  O   UNL     1      37.140  34.948  26.392  1.00  0.00    -0.550 OA
ATOM     16  O   UNL     1      39.035  36.079  27.016  1.00  0.00    -0.550 OA
ENDBRANCH  13  14
ENDBRANCH  12  13
ENDBRANCH  11  12
ENDBRANCH  10  11
ENDBRANCH   9  10
ENDBRANCH   8   9
ENDBRANCH   7   8
ENDBRANCH   6   7
ENDBRANCH   5   6
ENDBRANCH   4   5
ENDBRANCH   3   4
ENDBRANCH   2   3
ENDBRANCH   1   2
BRANCH   1  17
ATOM     17  C   UNL     1      33.727  48.532  27.103  1.00  0.00     0.000 C 
BRANCH  17  18
ATOM     18  C   UNL     1      34.563  49.470  26.218  1.00  0.00     0.000 C 
BRANCH  18  19
ATOM     19  C   UNL     1      34.603  50.914  26.745  1.00  0.00     0.000 C 
BRANCH  19  20
ATOM     20  C   UNL     1      33.233  51.519  27.110  1.00  0.00     0.000 C 
BRANCH  20  21
ATOM     21  C   UNL     1      32.852  52.761  26.276  1.00  0.00     0.000 C 
BRANCH  21  22
ATOM     22  C   UNL     1      31.333  52.986  26.226  1.00  0.00    -0.000 C 
BRANCH  22  23
ATOM     23  C   UNL     1      31.001  54.408  25.760  1.00  0.00    -0.000 C 
BRANCH  23  24
ATOM     24  C   UNL     1      31.737  54.743  24.453  1.00  0.00    -0.000 C 
BRANCH  24  25
ATOM     25  C   UNL     1      31.236  53.904  23.266  1.00  0.00    -0.000 C 
BRANCH  25  26
ATOM     26  C   UNL     1      30.417  52.680  23.717  1.00  0.00    -0.000 C 
BRANCH  26  27
ATOM     27  C   UNL     1      30.857  51.385  23.014  1.00  0.00    -0.000 C 
BRANCH  27  28
ATOM     28  C   UNL     1      31.167  50.251  24.008  1.00  0.00    -0.000 C 
BRANCH  28  29
ATOM     29  C   UNL     1      30.137  50.166  25.144  1.00  0.00    -0.003 C 
ATOM     30  C   UNL     1      30.657  49.398  26.360  1.00  0.00     0.004 C 
ENDBRANCH  28  29
ENDBRANCH  27  28
ENDBRANCH  26  27
ENDBRANCH  25  26
ENDBRANCH  24  25
ENDBRANCH  23  24
ENDBRANCH  22  23
ENDBRANCH  21  22
ENDBRANCH  20  21
ENDBRANCH  19  20
ENDBRANCH  18  19
ENDBRANCH  17  18
ENDBRANCH   1  17
TORSDOF 26
ENDMDL
MODEL 2
REMARK VINA RESULT:    -2.361      5.978     14.791
REMARK INTER + INTRA:          -6.681
REMARK INTER:                  -5.782
REMARK INTRA:                  -0.899
REMARK UNBOUND:                -0.732
REMARK SMILES CCCCCCCCCCCCCCCCCCCCCCCCCCCC(=O)[O-]
REMARK SMILES IDX 15 1 16 2 17 3 18 4 19 5 20 6 21 7 22 8 23 9 24 10 25 11
REMARK SMILES IDX 26 12 27 13 28 14 29 15 30 16 14 17 13 18 12 19 11 20 10 21
REMARK SMILES IDX 9 22 8 23 7 24 6 25 5 26 4 27 3 28 2 29 1 30
REMARK H PARENT
REMARK Flexibility Score: inf
ROOT
ATOM      1  C   UNL     1      36.462  42.319  24.758  1.00  0.00     0.000 C 
ENDROOT
BRANCH   1   2
ATOM      2  C   UNL     1      36.700  42.392  26.281  1.00  0.00     0.000 C 
BRANCH   2   3
ATOM      3  C   UNL     1      37.480  43.654  26.688  1.00  0.00     0.000 C 
BRANCH   3   4
ATOM      4  C   UNL     1      37.075  44.887  25.865  1.00  0.00     0.000 C 
BRANCH   4   5
ATOM      5  C   UNL     1      36.812  46.121  26.741  1.00  0.00     0.000 C 
BRANCH   5   6
ATOM      6  C   UNL     1      35.306  46.346  26.934  1.00  0.00     0.000 C 
BRANCH   6   7
ATOM      7  C   UNL     1      34.751  47.485  26.061  1.00  0.00     0.000 C 
BRANCH   7   8
ATOM      8  C   UNL     1      34.835  48.877  26.724  1.00  0.00     0.000 C 
BRANCH   8   9
ATOM      9  C   UNL     1      34.067  49.945  25.926  1.00  0.00     0.000 C 
BRANCH   9  10
ATOM     10  C   UNL     1      32.547  49.707  25.919  1.00  0.00     0.000 C 
BRANCH  10  11
ATOM     11  C   UNL     1      31.754  50.980  25.577  1.00  0.00     0.000 C 
BRANCH  11  12
ATOM     12  C   UNL     1      32.252  52.220  26.342  1.00  0.00     0.006 C 
BRANCH  12  13
ATOM     13  C   UNL     1      32.215  53.528  25.533  1.00  0.00     0.053 C 
BRANCH  13  14
ATOM     14  C   UNL     1      30.998  53.620  24.664  1.00  0.00     0.041 C 
ATOM     15  O   UNL     1      29.865  53.813  25.179  1.00  0.00    -0.550 OA
ATOM     16  O   UNL     1      31.110  53.459  23.286  1.00  0.00    -0.550 OA
ENDBRANCH  13  14
ENDBRANCH  12  13
ENDBRANCH  11  12
ENDBRANCH  10  11
ENDBRANCH   9  10
ENDBRANCH   8   9
ENDBRANCH   7   8
ENDBRANCH   6   7
ENDBRANCH   5   6
ENDBRANCH   4   5
ENDBRANCH   3   4
ENDBRANCH   2   3
ENDBRANCH   1   2
BRANCH   1  17
ATOM     17  C   UNL     1      37.065  41.070  24.095  1.00  0.00     0.000 C 
BRANCH  17  18
ATOM     18  C   UNL     1      38.166  40.417  24.947  1.00  0.00     0.000 C 
BRANCH  18  19
ATOM     19  C   UNL     1      37.606  39.560  26.096  1.00  0.00     0.000 C 
BRANCH  19  20
ATOM     20  C   UNL     1      37.330  38.085  25.740  1.00  0.00     0.000 C 
BRANCH  20  21
ATOM     21  C   UNL     1      38.039  37.073  26.665  1.00  0.00     0.000 C 
BRANCH  21  22
ATOM     22  C   UNL     1      38.881  36.056  25.880  1.00  0.00    -0.000 C 
BRANCH  22  23
ATOM     23  C   UNL     1      39.716  35.184  26.824  1.00  0.00    -0.000 C 
BRANCH  23  24
ATOM     24  C   UNL     1      41.071  35.843  27.125  1.00  0.00    -0.000 C 
BRANCH  24  25
ATOM     25  C   UNL     1      42.251  34.881  26.908  1.00  0.00    -0.000 C 
BRANCH  25  26
ATOM     26  C   UNL     1      43.612  35.594  27.005  1.00  0.00    -0.000 C 
BRANCH  26  27
ATOM     27  C   UNL     1      43.483  37.125  26.936  1.00  0.00    -0.000 C 
BRANCH  27  28
ATOM     28  C   UNL     1      44.830  37.818  26.664  1.00  0.00    -0.000 C 
BRANCH  28  29
ATOM     29  C   UNL     1      44.670  39.132  25.883  1.00  0.00    -0.003 C 
ATOM     30  C   UNL     1      44.058  38.926  24.497  1.00  0.00     0.004 C 
ENDBRANCH  28  29
ENDBRANCH  27  28
ENDBRANCH  26  27
ENDBRANCH  25  26
ENDBRANCH  24  25
ENDBRANCH  23  24
ENDBRANCH  22  23
ENDBRANCH  21  22
ENDBRANCH  20  21
ENDBRANCH  19  20
ENDBRANCH  18  19
ENDBRANCH  17  18
ENDBRANCH   1  17
TORSDOF 26
ENDMDL
MODEL 3
REMARK VINA RESULT:    -2.203      4.498     12.437
REMARK INTER + INTRA:          -6.282
REMARK INTER:                  -5.222
REMARK INTRA:                  -1.060
REMARK UNBOUND:                -0.732
REMARK SMILES CCCCCCCCCCCCCCCCCCCCCCCCCCCC(=O)[O-]
REMARK SMILES IDX 15 1 16 2 17 3 18 4 19 5 20 6 21 7 22 8 23 9 24 10 25 11
REMARK SMILES IDX 26 12 27 13 28 14 29 15 30 16 14 17 13 18 12 19 11 20 10 21
REMARK SMILES IDX 9 22 8 23 7 24 6 25 5 26 4 27 3 28 2 29 1 30
REMARK H PARENT
REMARK Flexibility Score: inf
ROOT
ATOM      1  C   UNL     1      32.215  46.741  24.248  1.00  0.00     0.000 C 
ENDROOT
BRANCH   1   2
ATOM      2  C   UNL     1      33.420  47.431  24.924  1.00  0.00     0.000 C 
BRANCH   2   3
ATOM      3  C   UNL     1      32.990  48.597  25.830  1.00  0.00     0.000 C 
BRANCH   3   4
ATOM      4  C   UNL     1      33.816  48.671  27.125  1.00  0.00     0.000 C 
BRANCH   4   5
ATOM      5  C   UNL     1      34.860  49.797  27.095  1.00  0.00     0.000 C 
BRANCH   5   6
ATOM      6  C   UNL     1      34.589  50.767  25.937  1.00  0.00     0.000 C 
BRANCH   6   7
ATOM      7  C   UNL     1      34.257  52.192  26.411  1.00  0.00     0.000 C 
BRANCH   7   8
ATOM      8  C   UNL     1      32.874  52.319  27.088  1.00  0.00     0.000 C 
BRANCH   8   9
ATOM      9  C   UNL     1      32.372  53.773  27.109  1.00  0.00     0.000 C 
BRANCH   9  10
ATOM     10  C   UNL     1      30.837  53.873  27.123  1.00  0.00     0.000 C 
BRANCH  10  11
ATOM     11  C   UNL     1      30.263  54.311  25.764  1.00  0.00     0.000 C 
BRANCH  11  12
ATOM     12  C   UNL     1      29.534  53.173  25.027  1.00  0.00     0.006 C 
BRANCH  12  13
ATOM     13  C   UNL     1      30.370  52.476  23.940  1.00  0.00     0.053 C 
BRANCH  13  14
ATOM     14  C   UNL     1      30.599  51.027  24.246  1.00  0.00     0.041 C 
ATOM     15  O   UNL     1      31.489  50.383  23.628  1.00  0.00    -0.550 OA
ATOM     16  O   UNL     1      29.808  50.378  25.188  1.00  0.00    -0.550 OA
ENDBRANCH  13  14
ENDBRANCH  12  13
ENDBRANCH  11  12
ENDBRANCH  10  11
ENDBRANCH   9  10
ENDBRANCH   8   9
ENDBRANCH   7   8
ENDBRANCH   6   7
ENDBRANCH   5   6
ENDBRANCH   4   5
ENDBRANCH   3   4
ENDBRANCH   2   3
ENDBRANCH   1   2
BRANCH   1  17
ATOM     17  C   UNL     1      32.285  45.206  24.274  1.00  0.00     0.000 C 
BRANCH  17  18
ATOM     18  C   UNL     1      33.581  44.680  24.913  1.00  0.00     0.000 C 
BRANCH  18  19
ATOM     19  C   UNL     1      33.802  45.206  26.342  1.00  0.00     0.000 C 
BRANCH  19  20
ATOM     20  C   UNL     1      35.265  45.191  26.829  1.00  0.00     0.000 C 
BRANCH  20  21
ATOM     21  C   UNL     1      35.824  43.777  27.093  1.00  0.00     0.000 C 
BRANCH  21  22
ATOM     22  C   UNL     1      37.123  43.509  26.316  1.00  0.00    -0.000 C 
BRANCH  22  23
ATOM     23  C   UNL     1      37.989  42.469  27.034  1.00  0.00    -0.000 C 
BRANCH  23  24
ATOM     24  C   UNL     1      37.331  41.081  26.988  1.00  0.00    -0.000 C 
BRANCH  24  25
ATOM     25  C   UNL     1      37.135  40.572  25.551  1.00  0.00    -0.000 C 
BRANCH  25  26
ATOM     26  C   UNL     1      37.315  39.047  25.440  1.00  0.00    -0.000 C 
BRANCH  26  27
ATOM     27  C   UNL     1      37.632  38.391  26.794  1.00  0.00    -0.000 C 
BRANCH  27  28
ATOM     28  C   UNL     1      37.195  36.915  26.850  1.00  0.00    -0.000 C 
BRANCH  28  29
ATOM     29  C   UNL     1      38.370  35.963  27.125  1.00  0.00    -0.003 C 
ATOM     30  C   UNL     1      38.972  35.380  25.847  1.00  0.00     0.004 C 
ENDBRANCH  28  29
ENDBRANCH  27  28
ENDBRANCH  26  27
ENDBRANCH  25  26
ENDBRANCH  24  25
ENDBRANCH  23  24
ENDBRANCH  22  23
ENDBRANCH  21  22
ENDBRANCH  20  21
ENDBRANCH  19  20
ENDBRANCH  18  19
ENDBRANCH  17  18
ENDBRANCH   1  17
TORSDOF 26
ENDMDL
MODEL 4
REMARK VINA RESULT:    -2.036      1.260      1.974
REMARK INTER + INTRA:          -5.864
REMARK INTER:                  -4.828
REMARK INTRA:                  -1.036
REMARK UNBOUND:                -0.732
REMARK SMILES CCCCCCCCCCCCCCCCCCCCCCCCCCCC(=O)[O-]
REMARK SMILES IDX 15 1 16 2 17 3 18 4 19 5 20 6 21 7 22 8 23 9 24 10 25 11
REMARK SMILES IDX 26 12 27 13 28 14 29 15 30 16 14 17 13 18 12 19 11 20 10 21
REMARK SMILES IDX 9 22 8 23 7 24 6 25 5 26 4 27 3 28 2 29 1 30
REMARK H PARENT
REMARK Flexibility Score: inf
ROOT
ATOM      1  C   UNL     1      32.525  46.559  23.884  1.00  0.00     0.000 C 
ENDROOT
BRANCH   1   2
ATOM      2  C   UNL     1      32.182  45.109  24.287  1.00  0.00     0.000 C 
BRANCH   2   3
ATOM      3  C   UNL     1      31.675  45.012  25.736  1.00  0.00     0.000 C 
BRANCH   3   4
ATOM      4  C   UNL     1      32.820  45.005  26.762  1.00  0.00     0.000 C 
BRANCH   4   5
ATOM      5  C   UNL     1      33.745  43.789  26.604  1.00  0.00     0.000 C 
BRANCH   5   6
ATOM      6  C   UNL     1      35.113  44.208  26.047  1.00  0.00     0.000 C 
BRANCH   6   7
ATOM      7  C   UNL     1      35.985  43.010  25.632  1.00  0.00     0.000 C 
BRANCH   7   8
ATOM      8  C   UNL     1      37.475  43.163  26.011  1.00  0.00     0.000 C 
BRANCH   8   9
ATOM      9  C   UNL     1      37.932  42.083  27.007  1.00  0.00     0.000 C 
BRANCH   9  10
ATOM     10  C   UNL     1      37.413  40.681  26.646  1.00  0.00     0.000 C 
BRANCH  10  11
ATOM     11  C   UNL     1      38.510  39.606  26.734  1.00  0.00     0.000 C 
BRANCH  11  12
ATOM     12  C   UNL     1      38.060  38.242  26.179  1.00  0.00     0.006 C 
BRANCH  12  13
ATOM     13  C   UNL     1      38.309  37.053  27.124  1.00  0.00     0.053 C 
BRANCH  13  14
ATOM     14  C   UNL     1      38.164  35.736  26.425  1.00  0.00     0.041 C 
ATOM     15  O   UNL     1      39.180  35.030  26.189  1.00  0.00    -0.550 OA
ATOM     16  O   UNL     1      36.911  35.303  26.002  1.00  0.00    -0.550 OA
ENDBRANCH  13  14
ENDBRANCH  12  13
ENDBRANCH  11  12
ENDBRANCH  10  11
ENDBRANCH   9  10
ENDBRANCH   8   9
ENDBRANCH   7   8
ENDBRANCH   6   7
ENDBRANCH   5   6
ENDBRANCH   4   5
ENDBRANCH   3   4
ENDBRANCH   2   3
ENDBRANCH   1   2
BRANCH   1  17
ATOM     17  C   UNL     1      32.679  47.515  25.078  1.00  0.00     0.000 C 
BRANCH  17  18
ATOM     18  C   UNL     1      34.138  47.660  25.539  1.00  0.00     0.000 C 
BRANCH  18  19
ATOM     19  C   UNL     1      34.731  49.045  25.227  1.00  0.00     0.000 C 
BRANCH  19  20
ATOM     20  C   UNL     1      34.683  50.057  26.389  1.00  0.00     0.000 C 
BRANCH  20  21
ATOM     21  C   UNL     1      34.446  51.515  25.942  1.00  0.00     0.000 C 
BRANCH  21  22
ATOM     22  C   UNL     1      34.111  52.440  27.123  1.00  0.00    -0.000 C 
BRANCH  22  23
ATOM     23  C   UNL     1      32.690  52.999  26.999  1.00  0.00    -0.000 C 
BRANCH  23  24
ATOM     24  C   UNL     1      32.430  53.526  25.580  1.00  0.00    -0.000 C 
BRANCH  24  25
ATOM     25  C   UNL     1      31.096  54.284  25.471  1.00  0.00    -0.000 C 
BRANCH  25  26
ATOM     26  C   UNL     1      30.209  53.748  24.333  1.00  0.00    -0.000 C 
BRANCH  26  27
ATOM     27  C   UNL     1      29.063  52.860  24.847  1.00  0.00    -0.000 C 
BRANCH  27  28
ATOM     28  C   UNL     1      29.524  51.880  25.942  1.00  0.00    -0.000 C 
BRANCH  28  29
ATOM     29  C   UNL     1      29.712  50.450  25.412  1.00  0.00    -0.003 C 
ATOM     30  C   UNL     1      31.173  50.119  25.106  1.00  0.00     0.004 C 
ENDBRANCH  28  29
ENDBRANCH  27  28
ENDBRANCH  26  27
ENDBRANCH  25  26
ENDBRANCH  24  25
ENDBRANCH  23  24
ENDBRANCH  22  23
ENDBRANCH  21  22
ENDBRANCH  20  21
ENDBRANCH  19  20
ENDBRANCH  18  19
ENDBRANCH  17  18
ENDBRANCH   1  17
TORSDOF 26
ENDMDL
MODEL 5
REMARK VINA RESULT:    -1.931     18.405     21.238
REMARK INTER + INTRA:          -5.599
REMARK INTER:                  -4.428
REMARK INTRA:                  -1.171
REMARK UNBOUND:                -0.732
REMARK SMILES CCCCCCCCCCCCCCCCCCCCCCCCCCCC(=O)[O-]
REMARK SMILES IDX 15 1 16 2 17 3 18 4 19 5 20 6 21 7 22 8 23 9 24 10 25 11
REMARK SMILES IDX 26 12 27 13 28 14 29 15 30 16 14 17 13 18 12 19 11 20 10 21
REMARK SMILES IDX 9 22 8 23 7 24 6 25 5 26 4 27 3 28 2 29 1 30
REMARK H PARENT
REMARK Flexibility Score: inf
ROOT
ATOM      1  C   UNL     1      28.087  49.315   7.734  1.00  0.00     0.000 C 
ENDROOT
BRANCH   1   2
ATOM      2  C   UNL     1      28.071  50.858   7.757  1.00  0.00     0.000 C 
BRANCH   2   3
ATOM      3  C   UNL     1      26.781  51.436   7.152  1.00  0.00     0.000 C 
BRANCH   3   4
ATOM      4  C   UNL     1      26.494  52.867   7.634  1.00  0.00     0.000 C 
BRANCH   4   5
ATOM      5  C   UNL     1      27.348  53.917   6.906  1.00  0.00     0.000 C 
BRANCH   5   6
ATOM      6  C   UNL     1      28.446  54.467   7.827  1.00  0.00     0.000 C 
BRANCH   6   7
ATOM      7  C   UNL     1      29.625  53.495   8.003  1.00  0.00     0.000 C 
BRANCH   7   8
ATOM      8  C   UNL     1      30.934  53.974   7.337  1.00  0.00     0.000 C 
BRANCH   8   9
ATOM      9  C   UNL     1      31.875  52.804   7.002  1.00  0.00     0.000 C 
BRANCH   9  10
ATOM     10  C   UNL     1      31.135  51.461   6.875  1.00  0.00     0.000 C 
BRANCH  10  11
ATOM     11  C   UNL     1      32.027  50.261   7.236  1.00  0.00     0.000 C 
BRANCH  11  12
ATOM     12  C   UNL     1      31.266  49.152   7.986  1.00  0.00     0.006 C 
BRANCH  12  13
ATOM     13  C   UNL     1      31.311  47.773   7.305  1.00  0.00     0.053 C 
BRANCH  13  14
ATOM     14  C   UNL     1      31.014  46.660   8.263  1.00  0.00     0.041 C 
ATOM     15  O   UNL     1      29.854  46.172   8.326  1.00  0.00    -0.550 OA
ATOM     16  O   UNL     1      32.009  46.184   9.110  1.00  0.00    -0.550 OA
ENDBRANCH  13  14
ENDBRANCH  12  13
ENDBRANCH  11  12
ENDBRANCH  10  11
ENDBRANCH   9  10
ENDBRANCH   8   9
ENDBRANCH   7   8
ENDBRANCH   6   7
ENDBRANCH   5   6
ENDBRANCH   4   5
ENDBRANCH   3   4
ENDBRANCH   2   3
ENDBRANCH   1   2
BRANCH   1  17
ATOM     17  C   UNL     1      28.091  48.674   9.132  1.00  0.00     0.000 C 
BRANCH  17  18
ATOM     18  C   UNL     1      26.679  48.319   9.626  1.00  0.00     0.000 C 
BRANCH  18  19
ATOM     19  C   UNL     1      25.570  48.816   8.683  1.00  0.00     0.000 C 
BRANCH  19  20
ATOM     20  C   UNL     1      24.894  47.724   7.830  1.00  0.00     0.000 C 
BRANCH  20  21
ATOM     21  C   UNL     1      25.684  46.399   7.765  1.00  0.00     0.000 C 
BRANCH  21  22
ATOM     22  C   UNL     1      24.979  45.342   6.902  1.00  0.00    -0.000 C 
BRANCH  22  23
ATOM     23  C   UNL     1      25.212  43.932   7.457  1.00  0.00    -0.000 C 
BRANCH  23  24
ATOM     24  C   UNL     1      26.712  43.657   7.642  1.00  0.00    -0.000 C 
BRANCH  24  25
ATOM     25  C   UNL     1      27.068  42.177   7.424  1.00  0.00    -0.000 C 
BRANCH  25  26
ATOM     26  C   UNL     1      27.297  41.428   8.749  1.00  0.00    -0.000 C 
BRANCH  26  27
ATOM     27  C   UNL     1      26.894  39.946   8.666  1.00  0.00    -0.000 C 
BRANCH  27  28
ATOM     28  C   UNL     1      26.678  39.475   7.217  1.00  0.00    -0.000 C 
BRANCH  28  29
ATOM     29  C   UNL     1      25.321  38.781   7.018  1.00  0.00    -0.003 C 
ATOM     30  C   UNL     1      25.207  37.470   7.795  1.00  0.00     0.004 C 
ENDBRANCH  28  29
ENDBRANCH  27  28
ENDBRANCH  26  27
ENDBRANCH  25  26
ENDBRANCH  24  25
ENDBRANCH  23  24
ENDBRANCH  22  23
ENDBRANCH  21  22
ENDBRANCH  20  21
ENDBRANCH  19  20
ENDBRANCH  18  19
ENDBRANCH  17  18
ENDBRANCH   1  17
TORSDOF 26
ENDMDL
MODEL 6
REMARK VINA RESULT:    -1.787      5.340     13.711
REMARK INTER + INTRA:          -5.234
REMARK INTER:                  -5.657
REMARK INTRA:                   0.423
REMARK UNBOUND:                -0.732
REMARK SMILES CCCCCCCCCCCCCCCCCCCCCCCCCCCC(=O)[O-]
REMARK SMILES IDX 15 1 16 2 17 3 18 4 19 5 20 6 21 7 22 8 23 9 24 10 25 11
REMARK SMILES IDX 26 12 27 13 28 14 29 15 30 16 14 17 13 18 12 19 11 20 10 21
REMARK SMILES IDX 9 22 8 23 7 24 6 25 5 26 4 27 3 28 2 29 1 30
REMARK H PARENT
REMARK Flexibility Score: inf
ROOT
ATOM      1  C   UNL     1      36.953  43.285  24.492  1.00  0.00     0.000 C 
ENDROOT
BRANCH   1   2
ATOM      2  C   UNL     1      38.183  43.327  25.423  1.00  0.00     0.000 C 
BRANCH   2   3
ATOM      3  C   UNL     1      37.789  43.477  26.902  1.00  0.00     0.000 C 
BRANCH   3   4
ATOM      4  C   UNL     1      36.741  44.580  27.123  1.00  0.00     0.000 C 
BRANCH   4   5
ATOM      5  C   UNL     1      37.288  45.983  26.820  1.00  0.00     0.000 C 
BRANCH   5   6
ATOM      6  C   UNL     1      36.196  47.048  26.989  1.00  0.00     0.000 C 
BRANCH   6   7
ATOM      7  C   UNL     1      35.124  46.990  25.888  1.00  0.00     0.000 C 
BRANCH   7   8
ATOM      8  C   UNL     1      33.676  47.043  26.424  1.00  0.00     0.000 C 
BRANCH   8   9
ATOM      9  C   UNL     1      33.367  48.378  27.124  1.00  0.00     0.000 C 
BRANCH   9  10
ATOM     10  C   UNL     1      32.064  49.026  26.624  1.00  0.00     0.000 C 
BRANCH  10  11
ATOM     11  C   UNL     1      32.317  50.329  25.846  1.00  0.00     0.000 C 
BRANCH  11  12
ATOM     12  C   UNL     1      31.969  50.211  24.351  1.00  0.00     0.006 C 
BRANCH  12  13
ATOM     13  C   UNL     1      30.501  50.520  24.010  1.00  0.00     0.053 C 
BRANCH  13  14
ATOM     14  C   UNL     1      29.998  51.736  24.726  1.00  0.00     0.041 C 
ATOM     15  O   UNL     1      30.584  52.842  24.584  1.00  0.00    -0.550 OA
ATOM     16  O   UNL     1      28.902  51.641  25.578  1.00  0.00    -0.550 OA
ENDBRANCH  13  14
ENDBRANCH  12  13
ENDBRANCH  11  12
ENDBRANCH  10  11
ENDBRANCH   9  10
ENDBRANCH   8   9
ENDBRANCH   7   8
ENDBRANCH   6   7
ENDBRANCH   5   6
ENDBRANCH   4   5
ENDBRANCH   3   4
ENDBRANCH   2   3
ENDBRANCH   1   2
BRANCH   1  17
ATOM     17  C   UNL     1      36.604  41.875  23.988  1.00  0.00     0.000 C 
BRANCH  17  18
ATOM     18  C   UNL     1      37.504  40.787  24.595  1.00  0.00     0.000 C 
BRANCH  18  19
ATOM     19  C   UNL     1      37.160  40.472  26.061  1.00  0.00     0.000 C 
BRANCH  19  20
ATOM     20  C   UNL     1      38.072  39.433  26.742  1.00  0.00     0.000 C 
BRANCH  20  21
ATOM     21  C   UNL     1      39.518  39.921  26.972  1.00  0.00     0.000 C 
BRANCH  21  22
ATOM     22  C   UNL     1      40.510  38.757  27.125  1.00  0.00    -0.000 C 
BRANCH  22  23
ATOM     23  C   UNL     1      41.957  39.250  27.023  1.00  0.00    -0.000 C 
BRANCH  23  24
ATOM     24  C   UNL     1      42.883  38.132  26.520  1.00  0.00    -0.000 C 
BRANCH  24  25
ATOM     25  C   UNL     1      42.492  36.752  27.074  1.00  0.00    -0.000 C 
BRANCH  25  26
ATOM     26  C   UNL     1      40.969  36.525  27.061  1.00  0.00    -0.000 C 
BRANCH  26  27
ATOM     27  C   UNL     1      40.595  35.051  26.836  1.00  0.00    -0.000 C 
BRANCH  27  28
ATOM     28  C   UNL     1      39.233  34.890  26.135  1.00  0.00    -0.000 C 
BRANCH  28  29
ATOM     29  C   UNL     1      38.050  35.158  27.078  1.00  0.00    -0.003 C 
ATOM     30  C   UNL     1      36.779  35.565  26.332  1.00  0.00     0.004 C 
ENDBRANCH  28  29
ENDBRANCH  27  28
ENDBRANCH  26  27
ENDBRANCH  25  26
ENDBRANCH  24  25
ENDBRANCH  23  24
ENDBRANCH  22  23
ENDBRANCH  21  22
ENDBRANCH  20  21
ENDBRANCH  19  20
ENDBRANCH  18  19
ENDBRANCH  17  18
ENDBRANCH   1  17
TORSDOF 26
ENDMDL
MODEL 7
REMARK VINA RESULT:    -1.694      5.190     13.133
REMARK INTER + INTRA:          -5.001
REMARK INTER:                  -4.628
REMARK INTRA:                  -0.373
REMARK UNBOUND:                -0.732
REMARK SMILES CCCCCCCCCCCCCCCCCCCCCCCCCCCC(=O)[O-]
REMARK SMILES IDX 15 1 16 2 17 3 18 4 19 5 20 6 21 7 22 8 23 9 24 10 25 11
REMARK SMILES IDX 26 12 27 13 28 14 29 15 30 16 14 17 13 18 12 19 11 20 10 21
REMARK SMILES IDX 9 22 8 23 7 24 6 25 5 26 4 27 3 28 2 29 1 30
REMARK H PARENT
REMARK Flexibility Score: inf
ROOT
ATOM      1  C   UNL     1      34.056  46.872  25.106  1.00  0.00     0.000 C 
ENDROOT
BRANCH   1   2
ATOM      2  C   UNL     1      33.934  48.408  25.016  1.00  0.00     0.000 C 
BRANCH   2   3
ATOM      3  C   UNL     1      32.950  48.975  26.053  1.00  0.00     0.000 C 
BRANCH   3   4
ATOM      4  C   UNL     1      31.501  48.531  25.794  1.00  0.00     0.000 C 
BRANCH   4   5
ATOM      5  C   UNL     1      30.472  49.561  26.284  1.00  0.00     0.000 C 
BRANCH   5   6
ATOM      6  C   UNL     1      30.070  50.517  25.153  1.00  0.00     0.000 C 
BRANCH   6   7
ATOM      7  C   UNL     1      28.654  51.092  25.327  1.00  0.00     0.000 C 
BRANCH   7   8
ATOM      8  C   UNL     1      28.625  52.616  25.573  1.00  0.00     0.000 C 
BRANCH   8   9
ATOM      9  C   UNL     1      29.331  53.004  26.884  1.00  0.00     0.000 C 
BRANCH   9  10
ATOM     10  C   UNL     1      30.781  53.468  26.666  1.00  0.00     0.000 C 
BRANCH  10  11
ATOM     11  C   UNL     1      30.866  54.765  25.843  1.00  0.00     0.000 C 
BRANCH  11  12
ATOM     12  C   UNL     1      31.371  54.531  24.406  1.00  0.00     0.006 C 
BRANCH  12  13
ATOM     13  C   UNL     1      31.318  53.066  23.940  1.00  0.00     0.053 C 
BRANCH  13  14
ATOM     14  C   UNL     1      31.274  52.949  22.447  1.00  0.00     0.041 C 
ATOM     15  O   UNL     1      31.265  51.814  21.902  1.00  0.00    -0.550 OA
ATOM     16  O   UNL     1      31.279  54.094  21.656  1.00  0.00    -0.550 OA
ENDBRANCH  13  14
ENDBRANCH  12  13
ENDBRANCH  11  12
ENDBRANCH  10  11
ENDBRANCH   9  10
ENDBRANCH   8   9
ENDBRANCH   7   8
ENDBRANCH   6   7
ENDBRANCH   5   6
ENDBRANCH   4   5
ENDBRANCH   3   4
ENDBRANCH   2   3
ENDBRANCH   1   2
BRANCH   1  17
ATOM     17  C   UNL     1      34.896  46.386  26.299  1.00  0.00     0.000 C 
BRANCH  17  18
ATOM     18  C   UNL     1      36.358  46.102  25.920  1.00  0.00     0.000 C 
BRANCH  18  19
ATOM     19  C   UNL     1      37.217  45.673  27.122  1.00  0.00     0.000 C 
BRANCH  19  20
ATOM     20  C   UNL     1      37.803  44.250  27.036  1.00  0.00     0.000 C 
BRANCH  20  21
ATOM     21  C   UNL     1      36.745  43.129  27.112  1.00  0.00     0.000 C 
BRANCH  21  22
ATOM     22  C   UNL     1      36.377  42.580  25.725  1.00  0.00    -0.000 C 
BRANCH  22  23
ATOM     23  C   UNL     1      37.628  42.143  24.955  1.00  0.00    -0.000 C 
BRANCH  23  24
ATOM     24  C   UNL     1      38.157  40.802  25.483  1.00  0.00    -0.000 C 
BRANCH  24  25
ATOM     25  C   UNL     1      37.610  40.464  26.880  1.00  0.00    -0.000 C 
BRANCH  25  26
ATOM     26  C   UNL     1      36.996  39.054  26.944  1.00  0.00    -0.000 C 
BRANCH  26  27
ATOM     27  C   UNL     1      38.060  37.954  27.103  1.00  0.00    -0.000 C 
BRANCH  27  28
ATOM     28  C   UNL     1      37.928  36.849  26.040  1.00  0.00    -0.000 C 
BRANCH  28  29
ATOM     29  C   UNL     1      38.507  35.505  26.511  1.00  0.00    -0.003 C 
ATOM     30  C   UNL     1      39.945  35.625  27.016  1.00  0.00     0.004 C 
ENDBRANCH  28  29
ENDBRANCH  27  28
ENDBRANCH  26  27
ENDBRANCH  25  26
ENDBRANCH  24  25
ENDBRANCH  23  24
ENDBRANCH  22  23
ENDBRANCH  21  22
ENDBRANCH  20  21
ENDBRANCH  19  20
ENDBRANCH  18  19
ENDBRANCH  17  18
ENDBRANCH   1  17
TORSDOF 26
ENDMDL
MODEL 8
REMARK VINA RESULT:    -1.618      2.618      3.993
REMARK INTER + INTRA:          -4.808
REMARK INTER:                  -4.036
REMARK INTRA:                  -0.771
REMARK UNBOUND:                -0.732
REMARK SMILES CCCCCCCCCCCCCCCCCCCCCCCCCCCC(=O)[O-]
REMARK SMILES IDX 15 1 16 2 17 3 18 4 19 5 20 6 21 7 22 8 23 9 24 10 25 11
REMARK SMILES IDX 26 12 27 13 28 14 29 15 30 16 14 17 13 18 12 19 11 20 10 21
REMARK SMILES IDX 9 22 8 23 7 24 6 25 5 26 4 27 3 28 2 29 1 30
REMARK H PARENT
REMARK Flexibility Score: inf
ROOT
ATOM      1  C   UNL     1      35.770  46.287  27.076  1.00  0.00     0.000 C 
ENDROOT
BRANCH   1   2
ATOM      2  C   UNL     1      37.018  45.879  26.265  1.00  0.00     0.000 C 
BRANCH   2   3
ATOM      3  C   UNL     1      38.293  45.869  27.125  1.00  0.00     0.000 C 
BRANCH   3   4
ATOM      4  C   UNL     1      39.002  44.504  27.112  1.00  0.00     0.000 C 
BRANCH   4   5
ATOM      5  C   UNL     1      38.045  43.346  26.791  1.00  0.00     0.000 C 
BRANCH   5   6
ATOM      6  C   UNL     1      38.374  42.724  25.427  1.00  0.00     0.000 C 
BRANCH   6   7
ATOM      7  C   UNL     1      37.223  41.873  24.861  1.00  0.00     0.000 C 
BRANCH   7   8
ATOM      8  C   UNL     1      36.606  40.898  25.888  1.00  0.00     0.000 C 
BRANCH   8   9
ATOM      9  C   UNL     1      37.496  39.664  26.121  1.00  0.00     0.000 C 
BRANCH   9  10
ATOM     10  C   UNL     1      38.837  40.014  26.788  1.00  0.00     0.000 C 
BRANCH  10  11
ATOM     11  C   UNL     1      39.686  38.768  27.090  1.00  0.00     0.000 C 
BRANCH  11  12
ATOM     12  C   UNL     1      41.183  38.977  26.794  1.00  0.00     0.006 C 
BRANCH  12  13
ATOM     13  C   UNL     1      42.066  37.746  27.062  1.00  0.00     0.053 C 
BRANCH  13  14
ATOM     14  C   UNL     1      43.523  38.046  26.886  1.00  0.00     0.041 C 
ATOM     15  O   UNL     1      44.332  37.118  26.616  1.00  0.00    -0.550 OA
ATOM     16  O   UNL     1      43.994  39.344  27.054  1.00  0.00    -0.550 OA
ENDBRANCH  13  14
ENDBRANCH  12  13
ENDBRANCH  11  12
ENDBRANCH  10  11
ENDBRANCH   9  10
ENDBRANCH   8   9
ENDBRANCH   7   8
ENDBRANCH   6   7
ENDBRANCH   5   6
ENDBRANCH   4   5
ENDBRANCH   3   4
ENDBRANCH   2   3
ENDBRANCH   1   2
BRANCH   1  17
ATOM     17  C   UNL     1      35.500  47.800  27.078  1.00  0.00     0.000 C 
BRANCH  17  18
ATOM     18  C   UNL     1      35.263  48.364  25.668  1.00  0.00     0.000 C 
BRANCH  18  19
ATOM     19  C   UNL     1      33.807  48.204  25.196  1.00  0.00     0.000 C 
BRANCH  19  20
ATOM     20  C   UNL     1      32.806  49.209  25.800  1.00  0.00     0.000 C 
BRANCH  20  21
ATOM     21  C   UNL     1      31.402  48.620  26.056  1.00  0.00     0.000 C 
BRANCH  21  22
ATOM     22  C   UNL     1      30.527  49.549  26.911  1.00  0.00    -0.000 C 
BRANCH  22  23
ATOM     23  C   UNL     1      29.367  50.124  26.090  1.00  0.00    -0.000 C 
BRANCH  23  24
ATOM     24  C   UNL     1      29.524  51.641  25.907  1.00  0.00    -0.000 C 
BRANCH  24  25
ATOM     25  C   UNL     1      29.882  52.024  24.462  1.00  0.00    -0.000 C 
BRANCH  25  26
ATOM     26  C   UNL     1      31.374  51.809  24.151  1.00  0.00    -0.000 C 
BRANCH  26  27
ATOM     27  C   UNL     1      32.263  52.925  24.724  1.00  0.00    -0.000 C 
BRANCH  27  28
ATOM     28  C   UNL     1      31.654  54.325  24.523  1.00  0.00    -0.000 C 
BRANCH  28  29
ATOM     29  C   UNL     1      30.891  54.819  25.762  1.00  0.00    -0.003 C 
ATOM     30  C   UNL     1      31.248  54.040  27.028  1.00  0.00     0.004 C 
ENDBRANCH  28  29
ENDBRANCH  27  28
ENDBRANCH  26  27
ENDBRANCH  25  26
ENDBRANCH  24  25
ENDBRANCH  23  24
ENDBRANCH  22  23
ENDBRANCH  21  22
ENDBRANCH  20  21
ENDBRANCH  19  20
ENDBRANCH  18  19
ENDBRANCH  17  18
ENDBRANCH   1  17
TORSDOF 26
ENDMDL
