MODEL 1
REMARK VINA RESULT:    -3.195      0.000      0.000
REMARK INTER + INTRA:          -5.735
REMARK INTER:                  -5.436
REMARK INTRA:                  -0.298
REMARK UNBOUND:                -0.298
REMARK SMILES CCCCCCCCCCCCCC(=O)[O-]
REMARK SMILES IDX 8 1 9 2 10 3 11 4 12 5 13 6 14 7 15 8 16 9 7 10 6 11 5 12
REMARK SMILES IDX 4 13 3 14 2 15 1 16
REMARK H PARENT
REMARK Flexibility Score: inf
ROOT
ATOM      1  C   UNL     1      13.729   8.934  15.113  1.00  0.00     0.000 C 
ENDROOT
BRANCH   1   2
ATOM      2  C   UNL     1      12.496   9.844  15.266  1.00  0.00     0.000 C 
BRANCH   2   3
ATOM      3  C   UNL     1      12.512  11.111  14.392  1.00  0.00     0.000 C 
BRANCH   3   4
ATOM      4  C   UNL     1      12.179  12.388  15.183  1.00  0.00     0.000 C 
BRANCH   4   5
ATOM      5  C   UNL     1      13.379  13.339  15.301  1.00  0.00     0.006 C 
BRANCH   5   6
ATOM      6  C   UNL     1      12.994  14.806  15.064  1.00  0.00     0.053 C 
BRANCH   6   7
ATOM      7  C   UNL     1      13.260  15.193  13.644  1.00  0.00     0.041 C 
ATOM      8  O   UNL     1      13.159  14.338  12.725  1.00  0.00    -0.550 OA
ATOM      9  O   UNL     1      13.669  16.485  13.341  1.00  0.00    -0.550 OA
ENDBRANCH   6   7
ENDBRANCH   5   6
ENDBRANCH   4   5
ENDBRANCH   3   4
ENDBRANCH   2   3
ENDBRANCH   1   2
BRANCH   1  10
ATOM     10  C   UNL     1      13.419   7.453  15.390  1.00  0.00     0.000 C 
BRANCH  10  11
ATOM     11  C   UNL     1      12.604   7.252  16.679  1.00  0.00    -0.000 C 
BRANCH  11  12
ATOM     12  C   UNL     1      12.577   5.783  17.135  1.00  0.00    -0.000 C 
BRANCH  12  13
ATOM     13  C   UNL     1      12.548   5.636  18.666  1.00  0.00    -0.000 C 
BRANCH  13  14
ATOM     14  C   UNL     1      12.393   4.191  19.180  1.00  0.00    -0.000 C 
BRANCH  14  15
ATOM     15  C   UNL     1      11.313   4.031  20.272  1.00  0.00    -0.003 C 
ATOM     16  C   UNL     1      11.770   3.127  21.417  1.00  0.00     0.004 C 
ENDBRANCH  14  15
ENDBRANCH  13  14
ENDBRANCH  12  13
ENDBRANCH  11  12
ENDBRANCH  10  11
ENDBRANCH   1  10
TORSDOF 12
ENDMDL
MODEL 2
REMARK VINA RESULT:    -3.065      0.985      1.459
REMARK INTER + INTRA:          -5.514
REMARK INTER:                  -5.111
REMARK INTRA:                  -0.403
REMARK UNBOUND:                -0.298
REMARK SMILES CCCCCCCCCCCCCC(=O)[O-]
REMARK SMILES IDX 8 1 9 2 10 3 11 4 12 5 13 6 14 7 15 8 16 9 7 10 6 11 5 12
REMARK SMILES IDX 4 13 3 14 2 15 1 16
REMARK H PARENT
REMARK Flexibility Score: inf
ROOT
ATOM      1  C   UNL     1      12.717   9.653  14.866  1.00  0.00     0.000 C 
ENDROOT
BRANCH   1   2
ATOM      2  C   UNL     1      12.920  11.117  15.302  1.00  0.00     0.000 C 
BRANCH   2   3
ATOM      3  C   UNL     1      11.856  12.101  14.784  1.00  0.00     0.000 C 
BRANCH   3   4
ATOM      4  C   UNL     1      11.804  12.175  13.248  1.00  0.00     0.000 C 
BRANCH   4   5
ATOM      5  C   UNL     1      12.841  13.148  12.668  1.00  0.00     0.006 C 
BRANCH   5   6
ATOM      6  C   UNL     1      13.171  14.299  13.630  1.00  0.00     0.053 C 
BRANCH   6   7
ATOM      7  C   UNL     1      13.377  15.570  12.870  1.00  0.00     0.041 C 
ATOM      8  O   UNL     1      12.936  15.686  11.696  1.00  0.00    -0.550 OA
ATOM      9  O   UNL     1      14.099  16.611  13.440  1.00  0.00    -0.550 OA
ENDBRANCH   6   7
ENDBRANCH   5   6
ENDBRANCH   4   5
ENDBRANCH   3   4
ENDBRANCH   2   3
ENDBRANCH   1   2
BRANCH   1  10
ATOM     10  C   UNL     1      13.783   8.705  15.440  1.00  0.00     0.000 C 
BRANCH  10  11
ATOM     11  C   UNL     1      13.316   7.239  15.467  1.00  0.00    -0.000 C 
BRANCH  11  12
ATOM     12  C   UNL     1      12.514   6.902  16.736  1.00  0.00    -0.000 C 
BRANCH  12  13
ATOM     13  C   UNL     1      12.969   5.588  17.395  1.00  0.00    -0.000 C 
BRANCH  13  14
ATOM     14  C   UNL     1      12.489   5.385  18.845  1.00  0.00    -0.000 C 
BRANCH  14  15
ATOM     15  C   UNL     1      12.200   3.912  19.205  1.00  0.00    -0.003 C 
ATOM     16  C   UNL     1      11.455   3.770  20.533  1.00  0.00     0.004 C 
ENDBRANCH  14  15
ENDBRANCH  13  14
ENDBRANCH  12  13
ENDBRANCH  11  12
ENDBRANCH  10  11
ENDBRANCH   1  10
TORSDOF 12
ENDMDL
MODEL 3
REMARK VINA RESULT:    -2.954      1.679      2.343
REMARK INTER + INTRA:          -5.324
REMARK INTER:                  -4.727
REMARK INTRA:                  -0.597
REMARK UNBOUND:                -0.298
REMARK SMILES CCCCCCCCCCCCCC(=O)[O-]
REMARK SMILES IDX 8 1 9 2 10 3 11 4 12 5 13 6 14 7 15 8 16 9 7 10 6 11 5 12
REMARK SMILES IDX 4 13 3 14 2 15 1 16
REMARK H PARENT
REMARK Flexibility Score: inf
ROOT
ATOM      1  C   UNL     1      13.118  10.646  15.072  1.00  0.00     0.000 C 
ENDROOT
BRANCH   1   2
ATOM      2  C   UNL     1      12.175  11.568  14.276  1.00  0.00     0.000 C 
BRANCH   2   3
ATOM      3  C   UNL     1      11.678  12.806  15.044  1.00  0.00     0.000 C 
BRANCH   3   4
ATOM      4  C   UNL     1      12.813  13.569  15.749  1.00  0.00     0.000 C 
BRANCH   4   5
ATOM      5  C   UNL     1      13.778  14.238  14.760  1.00  0.00     0.006 C 
BRANCH   5   6
ATOM      6  C   UNL     1      13.181  15.495  14.112  1.00  0.00     0.053 C 
BRANCH   6   7
ATOM      7  C   UNL     1      13.198  15.372  12.622  1.00  0.00     0.041 C 
ATOM      8  O   UNL     1      13.522  16.358  11.909  1.00  0.00    -0.550 OA
ATOM      9  O   UNL     1      12.809  14.183  12.019  1.00  0.00    -0.550 OA
ENDBRANCH   6   7
ENDBRANCH   5   6
ENDBRANCH   4   5
ENDBRANCH   3   4
ENDBRANCH   2   3
ENDBRANCH   1   2
BRANCH   1  10
ATOM     10  C   UNL     1      12.729   9.161  14.973  1.00  0.00     0.000 C 
BRANCH  10  11
ATOM     11  C   UNL     1      13.875   8.221  15.382  1.00  0.00    -0.000 C 
BRANCH  11  12
ATOM     12  C   UNL     1      13.416   6.759  15.522  1.00  0.00    -0.000 C 
BRANCH  12  13
ATOM     13  C   UNL     1      12.598   6.513  16.802  1.00  0.00    -0.000 C 
BRANCH  13  14
ATOM     14  C   UNL     1      12.957   5.225  17.567  1.00  0.00    -0.000 C 
BRANCH  14  15
ATOM     15  C   UNL     1      13.526   4.105  16.670  1.00  0.00    -0.003 C 
ATOM     16  C   UNL     1      13.295   2.712  17.257  1.00  0.00     0.004 C 
ENDBRANCH  14  15
ENDBRANCH  13  14
ENDBRANCH  12  13
ENDBRANCH  11  12
ENDBRANCH  10  11
ENDBRANCH   1  10
TORSDOF 12
ENDMDL
MODEL 4
REMARK VINA RESULT:    -2.689      4.970      9.817
REMARK INTER + INTRA:          -4.873
REMARK INTER:                  -4.450
REMARK INTRA:                  -0.424
REMARK UNBOUND:                -0.298
REMARK SMILES CCCCCCCCCCCCCC(=O)[O-]
REMARK SMILES IDX 8 1 9 2 10 3 11 4 12 5 13 6 14 7 15 8 16 9 7 10 6 11 5 12
REMARK SMILES IDX 4 13 3 14 2 15 1 16
REMARK H PARENT
REMARK Flexibility Score: inf
ROOT
ATOM      1  C   UNL     1      12.643   9.270  15.180  1.00  0.00     0.000 C 
ENDROOT
BRANCH   1   2
ATOM      2  C   UNL     1      13.767   8.233  15.359  1.00  0.00     0.000 C 
BRANCH   2   3
ATOM      3  C   UNL     1      13.288   6.795  15.628  1.00  0.00     0.000 C 
BRANCH   3   4
ATOM      4  C   UNL     1      12.580   6.644  16.986  1.00  0.00     0.000 C 
BRANCH   4   5
ATOM      5  C   UNL     1      12.964   5.345  17.710  1.00  0.00     0.006 C 
BRANCH   5   6
ATOM      6  C   UNL     1      12.427   5.291  19.147  1.00  0.00     0.053 C 
BRANCH   6   7
ATOM      7  C   UNL     1      12.069   3.887  19.518  1.00  0.00     0.041 C 
ATOM      8  O   UNL     1      12.405   2.930  18.772  1.00  0.00    -0.550 OA
ATOM      9  O   UNL     1      11.321   3.640  20.661  1.00  0.00    -0.550 OA
ENDBRANCH   6   7
ENDBRANCH   5   6
ENDBRANCH   4   5
ENDBRANCH   3   4
ENDBRANCH   2   3
ENDBRANCH   1   2
BRANCH   1  10
ATOM     10  C   UNL     1      13.173  10.701  14.990  1.00  0.00     0.000 C 
BRANCH  10  11
ATOM     11  C   UNL     1      12.056  11.706  14.661  1.00  0.00    -0.000 C 
BRANCH  11  12
ATOM     12  C   UNL     1      12.243  13.051  15.383  1.00  0.00    -0.000 C 
BRANCH  12  13
ATOM     13  C   UNL     1      13.215  13.990  14.647  1.00  0.00    -0.000 C 
BRANCH  13  14
ATOM     14  C   UNL     1      13.174  13.896  13.110  1.00  0.00    -0.000 C 
BRANCH  14  15
ATOM     15  C   UNL     1      13.030  15.262  12.406  1.00  0.00    -0.003 C 
ATOM     16  C   UNL     1      13.617  16.409  13.229  1.00  0.00     0.004 C 
ENDBRANCH  14  15
ENDBRANCH  13  14
ENDBRANCH  12  13
ENDBRANCH  11  12
ENDBRANCH  10  11
ENDBRANCH   1  10
TORSDOF 12
ENDMDL
MODEL 5
REMARK VINA RESULT:    -2.487      4.373      9.107
REMARK INTER + INTRA:          -4.529
REMARK INTER:                  -4.016
REMARK INTRA:                  -0.513
REMARK UNBOUND:                -0.298
REMARK SMILES CCCCCCCCCCCCCC(=O)[O-]
REMARK SMILES IDX 8 1 9 2 10 3 11 4 12 5 13 6 14 7 15 8 16 9 7 10 6 11 5 12
REMARK SMILES IDX 4 13 3 14 2 15 1 16
REMARK H PARENT
REMARK Flexibility Score: inf
ROOT
ATOM      1  C   UNL     1      12.193  11.588  14.647  1.00  0.00     0.000 C 
ENDROOT
BRANCH   1   2
ATOM      2  C   UNL     1      13.284  10.620  15.142  1.00  0.00     0.000 C 
BRANCH   2   3
ATOM      3  C   UNL     1      12.846   9.148  15.246  1.00  0.00     0.000 C 
BRANCH   3   4
ATOM      4  C   UNL     1      14.015   8.162  15.073  1.00  0.00     0.000 C 
BRANCH   4   5
ATOM      5  C   UNL     1      13.637   6.725  15.462  1.00  0.00     0.006 C 
BRANCH   5   6
ATOM      6  C   UNL     1      12.585   6.674  16.579  1.00  0.00     0.053 C 
BRANCH   6   7
ATOM      7  C   UNL     1      12.815   5.486  17.458  1.00  0.00     0.041 C 
ATOM      8  O   UNL     1      12.682   5.587  18.706  1.00  0.00    -0.550 OA
ATOM      9  O   UNL     1      13.222   4.280  16.904  1.00  0.00    -0.550 OA
ENDBRANCH   6   7
ENDBRANCH   5   6
ENDBRANCH   4   5
ENDBRANCH   3   4
ENDBRANCH   2   3
ENDBRANCH   1   2
BRANCH   1  10
ATOM     10  C   UNL     1      12.059  12.842  15.528  1.00  0.00     0.000 C 
BRANCH  10  11
ATOM     11  C   UNL     1      13.272  13.780  15.406  1.00  0.00    -0.000 C 
BRANCH  11  12
ATOM     12  C   UNL     1      12.922  15.106  14.710  1.00  0.00    -0.000 C 
BRANCH  12  13
ATOM     13  C   UNL     1      13.551  15.228  13.311  1.00  0.00    -0.000 C 
BRANCH  13  14
ATOM     14  C   UNL     1      12.653  14.760  12.150  1.00  0.00    -0.000 C 
BRANCH  14  15
ATOM     15  C   UNL     1      12.802  13.261  11.812  1.00  0.00    -0.003 C 
ATOM     16  C   UNL     1      11.452  12.556  11.677  1.00  0.00     0.004 C 
ENDBRANCH  14  15
ENDBRANCH  13  14
ENDBRANCH  12  13
ENDBRANCH  11  12
ENDBRANCH  10  11
ENDBRANCH   1  10
TORSDOF 12
ENDMDL
MODEL 6
REMARK VINA RESULT:    -2.207      4.051      8.940
REMARK INTER + INTRA:          -4.054
REMARK INTER:                  -3.389
REMARK INTRA:                  -0.666
REMARK UNBOUND:                -0.298
REMARK SMILES CCCCCCCCCCCCCC(=O)[O-]
REMARK SMILES IDX 8 1 9 2 10 3 11 4 12 5 13 6 14 7 15 8 16 9 7 10 6 11 5 12
REMARK SMILES IDX 4 13 3 14 2 15 1 16
REMARK H PARENT
REMARK Flexibility Score: inf
ROOT
ATOM      1  C   UNL     1      12.704  11.170  14.660  1.00  0.00     0.000 C 
ENDROOT
BRANCH   1   2
ATOM      2  C   UNL     1      12.553   9.783  15.313  1.00  0.00     0.000 C 
BRANCH   2   3
ATOM      3  C   UNL     1      13.814   8.902  15.264  1.00  0.00     0.000 C 
BRANCH   3   4
ATOM      4  C   UNL     1      13.496   7.398  15.296  1.00  0.00     0.000 C 
BRANCH   4   5
ATOM      5  C   UNL     1      12.521   7.024  16.423  1.00  0.00     0.006 C 
BRANCH   5   6
ATOM      6  C   UNL     1      12.767   5.611  16.970  1.00  0.00     0.053 C 
BRANCH   6   7
ATOM      7  C   UNL     1      12.874   5.640  18.461  1.00  0.00     0.041 C 
ATOM      8  O   UNL     1      13.531   6.550  19.032  1.00  0.00    -0.550 OA
ATOM      9  O   UNL     1      12.287   4.635  19.220  1.00  0.00    -0.550 OA
ENDBRANCH   6   7
ENDBRANCH   5   6
ENDBRANCH   4   5
ENDBRANCH   3   4
ENDBRANCH   2   3
ENDBRANCH   1   2
BRANCH   1  10
ATOM     10  C   UNL     1      11.369  11.740  14.150  1.00  0.00     0.000 C 
BRANCH  10  11
ATOM     11  C   UNL     1      11.473  12.295  12.719  1.00  0.00    -0.000 C 
BRANCH  11  12
ATOM     12  C   UNL     1      12.837  12.949  12.439  1.00  0.00    -0.000 C 
BRANCH  12  13
ATOM     13  C   UNL     1      12.764  14.486  12.408  1.00  0.00    -0.000 C 
BRANCH  13  14
ATOM     14  C   UNL     1      13.504  15.197  13.558  1.00  0.00    -0.000 C 
BRANCH  14  15
ATOM     15  C   UNL     1      12.844  14.999  14.940  1.00  0.00    -0.003 C 
ATOM     16  C   UNL     1      13.632  14.040  15.832  1.00  0.00     0.004 C 
ENDBRANCH  14  15
ENDBRANCH  13  14
ENDBRANCH  12  13
ENDBRANCH  11  12
ENDBRANCH  10  11
ENDBRANCH   1  10
TORSDOF 12
ENDMDL
MODEL 7
REMARK VINA RESULT:    -2.005      1.386      2.421
REMARK INTER + INTRA:          -3.709
REMARK INTER:                  -3.263
REMARK INTRA:                  -0.446
REMARK UNBOUND:                -0.298
REMARK SMILES CCCCCCCCCCCCCC(=O)[O-]
REMARK SMILES IDX 8 1 9 2 10 3 11 4 12 5 13 6 14 7 15 8 16 9 7 10 6 11 5 12
REMARK SMILES IDX 4 13 3 14 2 15 1 16
REMARK H PARENT
REMARK Flexibility Score: inf
ROOT
ATOM      1  C   UNL     1      12.448   6.983  16.612  1.00  0.00     0.000 C 
ENDROOT
BRANCH   1   2
ATOM      2  C   UNL     1      13.301   7.317  15.373  1.00  0.00     0.000 C 
BRANCH   2   3
ATOM      3  C   UNL     1      13.840   8.758  15.326  1.00  0.00     0.000 C 
BRANCH   3   4
ATOM      4  C   UNL     1      12.743   9.800  15.047  1.00  0.00     0.000 C 
BRANCH   4   5
ATOM      5  C   UNL     1      13.239  11.243  15.224  1.00  0.00     0.006 C 
BRANCH   5   6
ATOM      6  C   UNL     1      12.341  12.266  14.515  1.00  0.00     0.053 C 
BRANCH   6   7
ATOM      7  C   UNL     1      12.975  13.620  14.537  1.00  0.00     0.041 C 
ATOM      8  O   UNL     1      13.200  14.197  15.633  1.00  0.00    -0.550 OA
ATOM      9  O   UNL     1      13.274  14.266  13.345  1.00  0.00    -0.550 OA
ENDBRANCH   6   7
ENDBRANCH   5   6
ENDBRANCH   4   5
ENDBRANCH   3   4
ENDBRANCH   2   3
ENDBRANCH   1   2
BRANCH   1  10
ATOM     10  C   UNL     1      12.876   5.674  17.298  1.00  0.00     0.000 C 
BRANCH  10  11
ATOM     11  C   UNL     1      13.679   4.754  16.364  1.00  0.00    -0.000 C 
BRANCH  11  12
ATOM     12  C   UNL     1      13.853   3.338  16.940  1.00  0.00    -0.000 C 
BRANCH  12  13
ATOM     13  C   UNL     1      12.545   2.764  17.512  1.00  0.00    -0.000 C 
BRANCH  13  14
ATOM     14  C   UNL     1      12.547   2.528  19.034  1.00  0.00    -0.000 C 
BRANCH  14  15
ATOM     15  C   UNL     1      11.839   3.640  19.838  1.00  0.00    -0.003 C 
ATOM     16  C   UNL     1      11.581   3.237  21.290  1.00  0.00     0.004 C 
ENDBRANCH  14  15
ENDBRANCH  13  14
ENDBRANCH  12  13
ENDBRANCH  11  12
ENDBRANCH  10  11
ENDBRANCH   1  10
TORSDOF 12
ENDMDL
MODEL 8
REMARK VINA RESULT:    -1.525      1.685      2.124
REMARK INTER + INTRA:          -2.893
REMARK INTER:                  -2.654
REMARK INTRA:                  -0.240
REMARK UNBOUND:                -0.298
REMARK SMILES CCCCCCCCCCCCCC(=O)[O-]
REMARK SMILES IDX 8 1 9 2 10 3 11 4 12 5 13 6 14 7 15 8 16 9 7 10 6 11 5 12
REMARK SMILES IDX 4 13 3 14 2 15 1 16
REMARK H PARENT
REMARK Flexibility Score: inf
ROOT
ATOM      1  C   UNL     1      13.858   8.990  15.144  1.00  0.00     0.000 C 
ENDROOT
BRANCH   1   2
ATOM      2  C   UNL     1      12.583   9.855  15.165  1.00  0.00     0.000 C 
BRANCH   2   3
ATOM      3  C   UNL     1      12.829  11.374  15.151  1.00  0.00     0.000 C 
BRANCH   3   4
ATOM      4  C   UNL     1      11.877  12.127  14.206  1.00  0.00     0.000 C 
BRANCH   4   5
ATOM      5  C   UNL     1      12.619  13.074  13.251  1.00  0.00     0.006 C 
BRANCH   5   6
ATOM      6  C   UNL     1      13.261  14.262  13.982  1.00  0.00     0.053 C 
BRANCH   6   7
ATOM      7  C   UNL     1      13.315  15.458  13.085  1.00  0.00     0.041 C 
ATOM      8  O   UNL     1      12.927  15.372  11.890  1.00  0.00    -0.550 OA
ATOM      9  O   UNL     1      13.838  16.655  13.555  1.00  0.00    -0.550 OA
ENDBRANCH   6   7
ENDBRANCH   5   6
ENDBRANCH   4   5
ENDBRANCH   3   4
ENDBRANCH   2   3
ENDBRANCH   1   2
BRANCH   1  10
ATOM     10  C   UNL     1      13.569   7.492  15.338  1.00  0.00     0.000 C 
BRANCH  10  11
ATOM     11  C   UNL     1      14.369   6.606  14.368  1.00  0.00    -0.000 C 
BRANCH  11  12
ATOM     12  C   UNL     1      14.370   5.126  14.787  1.00  0.00    -0.000 C 
BRANCH  12  13
ATOM     13  C   UNL     1      14.202   4.939  16.305  1.00  0.00    -0.000 C 
BRANCH  13  14
ATOM     14  C   UNL     1      12.759   4.670  16.773  1.00  0.00    -0.000 C 
BRANCH  14  15
ATOM     15  C   UNL     1      12.233   5.702  17.794  1.00  0.00    -0.003 C 
ATOM     16  C   UNL     1      13.321   6.181  18.755  1.00  0.00     0.004 C 
ENDBRANCH  14  15
ENDBRANCH  13  14
ENDBRANCH  12  13
ENDBRANCH  11  12
ENDBRANCH  10  11
ENDBRANCH   1  10
TORSDOF 12
ENDMDL
MODEL 9
REMARK VINA RESULT:    -1.365      4.270      8.693
REMARK INTER + INTRA:          -2.621
REMARK INTER:                  -2.038
REMARK INTRA:                  -0.582
REMARK UNBOUND:                -0.298
REMARK SMILES CCCCCCCCCCCCCC(=O)[O-]
REMARK SMILES IDX 8 1 9 2 10 3 11 4 12 5 13 6 14 7 15 8 16 9 7 10 6 11 5 12
REMARK SMILES IDX 4 13 3 14 2 15 1 16
REMARK H PARENT
REMARK Flexibility Score: inf
ROOT
ATOM      1  C   UNL     1      13.100   7.955  16.536  1.00  0.00     0.000 C 
ENDROOT
BRANCH   1   2
ATOM      2  C   UNL     1      12.374   6.596  16.546  1.00  0.00     0.000 C 
BRANCH   2   3
ATOM      3  C   UNL     1      13.173   5.439  17.173  1.00  0.00     0.000 C 
BRANCH   3   4
ATOM      4  C   UNL     1      13.538   4.343  16.156  1.00  0.00     0.000 C 
BRANCH   4   5
ATOM      5  C   UNL     1      14.867   4.622  15.440  1.00  0.00     0.006 C 
BRANCH   5   6
ATOM      6  C   UNL     1      14.688   5.478  14.178  1.00  0.00     0.053 C 
BRANCH   6   7
ATOM      7  C   UNL     1      15.494   4.917  13.049  1.00  0.00     0.041 C 
ATOM      8  O   UNL     1      16.715   4.655  13.211  1.00  0.00    -0.550 OA
ATOM      9  O   UNL     1      14.908   4.730  11.804  1.00  0.00    -0.550 OA
ENDBRANCH   6   7
ENDBRANCH   5   6
ENDBRANCH   4   5
ENDBRANCH   3   4
ENDBRANCH   2   3
ENDBRANCH   1   2
BRANCH   1  10
ATOM     10  C   UNL     1      12.940   8.710  15.205  1.00  0.00     0.000 C 
BRANCH  10  11
ATOM     11  C   UNL     1      13.093  10.232  15.368  1.00  0.00    -0.000 C 
BRANCH  11  12
ATOM     12  C   UNL     1      12.144  11.020  14.448  1.00  0.00    -0.000 C 
BRANCH  12  13
ATOM     13  C   UNL     1      11.907  12.461  14.932  1.00  0.00    -0.000 C 
BRANCH  13  14
ATOM     14  C   UNL     1      13.179  13.229  15.339  1.00  0.00    -0.000 C 
BRANCH  14  15
ATOM     15  C   UNL     1      13.116  14.742  15.039  1.00  0.00    -0.003 C 
ATOM     16  C   UNL     1      13.313  15.052  13.555  1.00  0.00     0.004 C 
ENDBRANCH  14  15
ENDBRANCH  13  14
ENDBRANCH  12  13
ENDBRANCH  11  12
ENDBRANCH  10  11
ENDBRANCH   1  10
TORSDOF 12
ENDMDL
