MODEL 1
REMARK VINA RESULT:    -7.075      0.000      0.000
REMARK INTER + INTRA:          -8.746
REMARK INTER:                  -8.523
REMARK INTRA:                  -0.224
REMARK UNBOUND:                -0.224
REMARK SMILES O=c1c(O)c(-c2ccc(O)c(O)c2)oc2cc(O)cc(O)c12
REMARK SMILES IDX 5 1 3 2 2 3 1 4 22 5 20 6 19 7 17 8 16 9 15 10 14 11 6 12
REMARK SMILES IDX 7 13 8 14 9 15 13 16 11 17 10 18 12 20 4 22 21 24 18 26
REMARK H PARENT 10 19 12 21 4 23 21 25 18 27
REMARK Flexibility Score: inf
ROOT
ATOM      1  C   UNL     1       7.431  -0.130 -12.840  1.00  0.00     0.180 A 
ATOM      2  C   UNL     1       8.358   0.909 -12.653  1.00  0.00     0.208 A 
ATOM      3  C   UNL     1       7.965   2.230 -12.920  1.00  0.00     0.238 A 
ATOM      4  O   UNL     1       8.823   3.146 -12.823  1.00  0.00    -0.285 OA
ATOM      5  C   UNL     1       6.633   2.503 -13.316  1.00  0.00     0.111 A 
ATOM      6  C   UNL     1       6.112   3.808 -13.568  1.00  0.00     0.134 A 
ATOM      7  C   UNL     1       4.807   3.948 -14.057  1.00  0.00     0.093 A 
ATOM      8  C   UNL     1       3.984   2.837 -14.242  1.00  0.00     0.123 A 
ATOM      9  C   UNL     1       4.464   1.562 -13.945  1.00  0.00     0.094 A 
ATOM     10  C   UNL     1       5.774   1.386 -13.493  1.00  0.00     0.146 A 
ATOM     11  O   UNL     1       6.198   0.154 -13.243  1.00  0.00    -0.452 OA
ENDROOT
BRANCH   1  12
ATOM     12  C   UNL     1       7.775  -1.549 -12.593  1.00  0.00     0.025 A 
ATOM     13  C   UNL     1       7.889  -2.469 -13.651  1.00  0.00     0.016 A 
ATOM     14  C   UNL     1       8.191  -3.808 -13.391  1.00  0.00     0.051 A 
ATOM     15  C   UNL     1       8.369  -4.251 -12.074  1.00  0.00     0.157 A 
ATOM     16  C   UNL     1       7.933  -2.002 -11.273  1.00  0.00     0.062 A 
ATOM     17  C   UNL     1       8.236  -3.343 -11.011  1.00  0.00     0.158 A 
BRANCH  15  18
ATOM     18  O   UNL     1       8.672  -5.587 -11.819  1.00  0.00    -0.504 OA
ATOM     19  H   UNL     1       9.435  -6.058 -12.292  1.00  0.00     0.293 HD
ENDBRANCH  15  18
BRANCH  17  20
ATOM     20  O   UNL     1       8.400  -3.753  -9.688  1.00  0.00    -0.504 OA
ATOM     21  H   UNL     1       9.238  -3.544  -9.160  1.00  0.00     0.293 HD
ENDBRANCH  17  20
ENDBRANCH   1  12
BRANCH   2  22
ATOM     22  O   UNL     1       9.646   0.627 -12.189  1.00  0.00    -0.502 OA
ATOM     23  H   UNL     1      10.127  -0.238 -12.407  1.00  0.00     0.293 HD
ENDBRANCH   2  22
BRANCH   6  24
ATOM     24  O   UNL     1       6.817   4.992 -13.335  1.00  0.00    -0.507 OA
ATOM     25  H   UNL     1       6.426   5.826 -12.922  1.00  0.00     0.293 HD
ENDBRANCH   6  24
BRANCH   8  26
ATOM     26  O   UNL     1       2.685   3.015 -14.713  1.00  0.00    -0.508 OA
ATOM     27  H   UNL     1       2.230   2.317 -15.289  1.00  0.00     0.293 HD
ENDBRANCH   8  26
TORSDOF 6
ENDMDL
MODEL 2
REMARK VINA RESULT:    -6.813      1.400      2.920
REMARK INTER + INTRA:          -8.431
REMARK INTER:                  -8.240
REMARK INTRA:                  -0.192
REMARK UNBOUND:                -0.224
REMARK SMILES O=c1c(O)c(-c2ccc(O)c(O)c2)oc2cc(O)cc(O)c12
REMARK SMILES IDX 5 1 3 2 2 3 1 4 22 5 20 6 19 7 17 8 16 9 15 10 14 11 6 12
REMARK SMILES IDX 7 13 8 14 9 15 13 16 11 17 10 18 12 20 4 22 21 24 18 26
REMARK H PARENT 10 19 12 21 4 23 21 25 18 27
REMARK Flexibility Score: inf
ROOT
ATOM      1  C   UNL     1       7.121  -0.618 -12.766  1.00  0.00     0.180 A 
ATOM      2  C   UNL     1       5.918  -0.579 -13.491  1.00  0.00     0.208 A 
ATOM      3  C   UNL     1       5.457   0.654 -13.981  1.00  0.00     0.238 A 
ATOM      4  O   UNL     1       4.343   0.692 -14.564  1.00  0.00    -0.285 OA
ATOM      5  C   UNL     1       6.232   1.823 -13.789  1.00  0.00     0.111 A 
ATOM      6  C   UNL     1       5.885   3.117 -14.282  1.00  0.00     0.134 A 
ATOM      7  C   UNL     1       6.676   4.222 -13.940  1.00  0.00     0.093 A 
ATOM      8  C   UNL     1       7.834   4.070 -13.179  1.00  0.00     0.123 A 
ATOM      9  C   UNL     1       8.213   2.801 -12.739  1.00  0.00     0.094 A 
ATOM     10  C   UNL     1       7.425   1.686 -13.031  1.00  0.00     0.146 A 
ATOM     11  O   UNL     1       7.810   0.501 -12.574  1.00  0.00    -0.452 OA
ENDROOT
BRANCH   1  12
ATOM     12  C   UNL     1       7.664  -1.876 -12.206  1.00  0.00     0.025 A 
ATOM     13  C   UNL     1       8.825  -2.471 -12.732  1.00  0.00     0.016 A 
ATOM     14  C   UNL     1       9.305  -3.672 -12.203  1.00  0.00     0.051 A 
ATOM     15  C   UNL     1       8.627  -4.302 -11.152  1.00  0.00     0.157 A 
ATOM     16  C   UNL     1       6.976  -2.523 -11.167  1.00  0.00     0.062 A 
ATOM     17  C   UNL     1       7.455  -3.726 -10.634  1.00  0.00     0.158 A 
BRANCH  15  18
ATOM     18  O   UNL     1       9.110  -5.499 -10.624  1.00  0.00    -0.504 OA
ATOM     19  H   UNL     1       9.941  -5.945 -10.994  1.00  0.00     0.293 HD
ENDBRANCH  15  18
BRANCH  17  20
ATOM     20  O   UNL     1       6.753  -4.332  -9.593  1.00  0.00    -0.504 OA
ATOM     21  H   UNL     1       5.805  -4.670  -9.709  1.00  0.00     0.293 HD
ENDBRANCH  17  20
ENDBRANCH   1  12
BRANCH   2  22
ATOM     22  O   UNL     1       5.206  -1.756 -13.735  1.00  0.00    -0.502 OA
ATOM     23  H   UNL     1       4.442  -1.803 -14.399  1.00  0.00     0.293 HD
ENDBRANCH   2  22
BRANCH   6  24
ATOM     24  O   UNL     1       4.798   3.370 -15.124  1.00  0.00    -0.507 OA
ATOM     25  H   UNL     1       4.053   4.022 -14.927  1.00  0.00     0.293 HD
ENDBRANCH   6  24
BRANCH   8  26
ATOM     26  O   UNL     1       8.606   5.188 -12.872  1.00  0.00    -0.508 OA
ATOM     27  H   UNL     1       8.485   6.067 -13.362  1.00  0.00     0.293 HD
ENDBRANCH   8  26
TORSDOF 6
ENDMDL
MODEL 3
REMARK VINA RESULT:    -6.359      1.570      6.871
REMARK INTER + INTRA:          -7.884
REMARK INTER:                  -7.570
REMARK INTRA:                  -0.314
REMARK UNBOUND:                -0.224
REMARK SMILES O=c1c(O)c(-c2ccc(O)c(O)c2)oc2cc(O)cc(O)c12
REMARK SMILES IDX 5 1 3 2 2 3 1 4 22 5 20 6 19 7 17 8 16 9 15 10 14 11 6 12
REMARK SMILES IDX 7 13 8 14 9 15 13 16 11 17 10 18 12 20 4 22 21 24 18 26
REMARK H PARENT 10 19 12 21 4 23 21 25 18 27
REMARK Flexibility Score: inf
ROOT
ATOM      1  C   UNL     1       7.383   0.559 -13.235  1.00  0.00     0.180 A 
ATOM      2  C   UNL     1       8.485   0.322 -14.073  1.00  0.00     0.208 A 
ATOM      3  C   UNL     1       9.177  -0.894 -13.961  1.00  0.00     0.238 A 
ATOM      4  O   UNL     1      10.208  -1.068 -14.662  1.00  0.00    -0.285 OA
ATOM      5  C   UNL     1       8.724  -1.883 -13.054  1.00  0.00     0.111 A 
ATOM      6  C   UNL     1       9.321  -3.169 -12.890  1.00  0.00     0.134 A 
ATOM      7  C   UNL     1       8.851  -4.026 -11.886  1.00  0.00     0.093 A 
ATOM      8  C   UNL     1       7.769  -3.668 -11.083  1.00  0.00     0.123 A 
ATOM      9  C   UNL     1       7.143  -2.436 -11.271  1.00  0.00     0.094 A 
ATOM     10  C   UNL     1       7.612  -1.545 -12.239  1.00  0.00     0.146 A 
ATOM     11  O   UNL     1       7.001  -0.374 -12.370  1.00  0.00    -0.452 OA
ENDROOT
BRANCH   1  12
ATOM     12  C   UNL     1       6.612   1.822 -13.283  1.00  0.00     0.025 A 
ATOM     13  C   UNL     1       7.060   2.979 -12.621  1.00  0.00     0.016 A 
ATOM     14  C   UNL     1       6.303   4.153 -12.660  1.00  0.00     0.051 A 
ATOM     15  C   UNL     1       5.083   4.185 -13.348  1.00  0.00     0.157 A 
ATOM     16  C   UNL     1       5.378   1.853 -13.953  1.00  0.00     0.062 A 
ATOM     17  C   UNL     1       4.618   3.028 -13.994  1.00  0.00     0.158 A 
BRANCH  15  18
ATOM     18  O   UNL     1       4.332   5.359 -13.387  1.00  0.00    -0.504 OA
ATOM     19  H   UNL     1       3.490   5.469 -12.833  1.00  0.00     0.293 HD
ENDBRANCH  15  18
BRANCH  17  20
ATOM     20  O   UNL     1       3.405   3.025 -14.682  1.00  0.00    -0.504 OA
ATOM     21  H   UNL     1       3.287   2.539 -15.562  1.00  0.00     0.293 HD
ENDBRANCH  17  20
ENDBRANCH   1  12
BRANCH   2  22
ATOM     22  O   UNL     1       8.870   1.280 -15.016  1.00  0.00    -0.502 OA
ATOM     23  H   UNL     1       9.252   2.180 -14.752  1.00  0.00     0.293 HD
ENDBRANCH   2  22
BRANCH   6  24
ATOM     24  O   UNL     1      10.351  -3.664 -13.695  1.00  0.00    -0.507 OA
ATOM     25  H   UNL     1      10.917  -3.106 -14.317  1.00  0.00     0.293 HD
ENDBRANCH   6  24
BRANCH   8  26
ATOM     26  O   UNL     1       7.318  -4.552 -10.105  1.00  0.00    -0.508 OA
ATOM     27  H   UNL     1       6.337  -4.792 -10.019  1.00  0.00     0.293 HD
ENDBRANCH   8  26
TORSDOF 6
ENDMDL
MODEL 4
REMARK VINA RESULT:    -6.303      1.860      7.309
REMARK INTER + INTRA:          -7.816
REMARK INTER:                  -7.532
REMARK INTRA:                  -0.284
REMARK UNBOUND:                -0.224
REMARK SMILES O=c1c(O)c(-c2ccc(O)c(O)c2)oc2cc(O)cc(O)c12
REMARK SMILES IDX 5 1 3 2 2 3 1 4 22 5 20 6 19 7 17 8 16 9 15 10 14 11 6 12
REMARK SMILES IDX 7 13 8 14 9 15 13 16 11 17 10 18 12 20 4 22 21 24 18 26
REMARK H PARENT 10 19 12 21 4 23 21 25 18 27
REMARK Flexibility Score: inf
ROOT
ATOM      1  C   UNL     1       6.594  -1.636 -13.069  1.00  0.00     0.180 A 
ATOM      2  C   UNL     1       6.242  -2.300 -11.882  1.00  0.00     0.208 A 
ATOM      3  C   UNL     1       7.015  -3.392 -11.456  1.00  0.00     0.238 A 
ATOM      4  O   UNL     1       6.649  -4.028 -10.434  1.00  0.00    -0.285 OA
ATOM      5  C   UNL     1       8.165  -3.771 -12.191  1.00  0.00     0.111 A 
ATOM      6  C   UNL     1       9.047  -4.832 -11.827  1.00  0.00     0.134 A 
ATOM      7  C   UNL     1      10.094  -5.186 -12.688  1.00  0.00     0.093 A 
ATOM      8  C   UNL     1      10.329  -4.477 -13.866  1.00  0.00     0.123 A 
ATOM      9  C   UNL     1       9.506  -3.402 -14.203  1.00  0.00     0.094 A 
ATOM     10  C   UNL     1       8.431  -3.050 -13.385  1.00  0.00     0.146 A 
ATOM     11  O   UNL     1       7.659  -2.035 -13.754  1.00  0.00    -0.452 OA
ENDROOT
BRANCH   1  12
ATOM     12  C   UNL     1       5.820  -0.486 -13.590  1.00  0.00     0.025 A 
ATOM     13  C   UNL     1       4.584  -0.668 -14.235  1.00  0.00     0.016 A 
ATOM     14  C   UNL     1       3.884   0.430 -14.741  1.00  0.00     0.051 A 
ATOM     15  C   UNL     1       4.412   1.722 -14.622  1.00  0.00     0.157 A 
ATOM     16  C   UNL     1       6.356   0.808 -13.493  1.00  0.00     0.062 A 
ATOM     17  C   UNL     1       5.656   1.910 -13.997  1.00  0.00     0.158 A 
BRANCH  15  18
ATOM     18  O   UNL     1       3.709   2.816 -15.125  1.00  0.00    -0.504 OA
ATOM     19  H   UNL     1       2.814   3.094 -14.740  1.00  0.00     0.293 HD
ENDBRANCH  15  18
BRANCH  17  20
ATOM     20  O   UNL     1       6.213   3.182 -13.869  1.00  0.00    -0.504 OA
ATOM     21  H   UNL     1       7.215   3.330 -13.839  1.00  0.00     0.293 HD
ENDBRANCH  17  20
ENDBRANCH   1  12
BRANCH   2  22
ATOM     22  O   UNL     1       5.148  -1.863 -11.130  1.00  0.00    -0.502 OA
ATOM     23  H   UNL     1       4.969  -2.189 -10.188  1.00  0.00     0.293 HD
ENDBRANCH   2  22
BRANCH   6  24
ATOM     24  O   UNL     1       8.959  -5.551 -10.631  1.00  0.00    -0.507 OA
ATOM     25  H   UNL     1       9.640  -5.521  -9.888  1.00  0.00     0.293 HD
ENDBRANCH   6  24
BRANCH   8  26
ATOM     26  O   UNL     1      11.390  -4.845 -14.690  1.00  0.00    -0.508 OA
ATOM     27  H   UNL     1      12.328  -4.962 -14.325  1.00  0.00     0.293 HD
ENDBRANCH   8  26
TORSDOF 6
ENDMDL
MODEL 5
REMARK VINA RESULT:    -6.261      2.296      3.122
REMARK INTER + INTRA:          -7.766
REMARK INTER:                  -7.466
REMARK INTRA:                  -0.300
REMARK UNBOUND:                -0.224
REMARK SMILES O=c1c(O)c(-c2ccc(O)c(O)c2)oc2cc(O)cc(O)c12
REMARK SMILES IDX 5 1 3 2 2 3 1 4 22 5 20 6 19 7 17 8 16 9 15 10 14 11 6 12
REMARK SMILES IDX 7 13 8 14 9 15 13 16 11 17 10 18 12 20 4 22 21 24 18 26
REMARK H PARENT 10 19 12 21 4 23 21 25 18 27
REMARK Flexibility Score: inf
ROOT
ATOM      1  C   UNL     1       7.169   2.585 -13.163  1.00  0.00     0.180 A 
ATOM      2  C   UNL     1       7.849   3.719 -13.639  1.00  0.00     0.208 A 
ATOM      3  C   UNL     1       7.226   4.974 -13.551  1.00  0.00     0.238 A 
ATOM      4  O   UNL     1       7.809   5.973 -14.047  1.00  0.00    -0.285 OA
ATOM      5  C   UNL     1       5.956   5.090 -12.935  1.00  0.00     0.111 A 
ATOM      6  C   UNL     1       5.252   6.318 -12.750  1.00  0.00     0.134 A 
ATOM      7  C   UNL     1       3.954   6.297 -12.223  1.00  0.00     0.093 A 
ATOM      8  C   UNL     1       3.361   5.103 -11.817  1.00  0.00     0.123 A 
ATOM      9  C   UNL     1       4.061   3.903 -11.942  1.00  0.00     0.094 A 
ATOM     10  C   UNL     1       5.341   3.886 -12.499  1.00  0.00     0.146 A 
ATOM     11  O   UNL     1       5.964   2.721 -12.621  1.00  0.00    -0.452 OA
ENDROOT
BRANCH   1  12
ATOM     12  C   UNL     1       7.753   1.227 -13.235  1.00  0.00     0.025 A 
ATOM     13  C   UNL     1       7.369   0.316 -14.235  1.00  0.00     0.016 A 
ATOM     14  C   UNL     1       7.916  -0.969 -14.268  1.00  0.00     0.051 A 
ATOM     15  C   UNL     1       8.842  -1.368 -13.296  1.00  0.00     0.157 A 
ATOM     16  C   UNL     1       8.665   0.815 -12.250  1.00  0.00     0.062 A 
ATOM     17  C   UNL     1       9.216  -0.472 -12.281  1.00  0.00     0.158 A 
BRANCH  15  18
ATOM     18  O   UNL     1       9.388  -2.650 -13.333  1.00  0.00    -0.504 OA
ATOM     19  H   UNL     1      10.347  -2.827 -13.057  1.00  0.00     0.293 HD
ENDBRANCH  15  18
BRANCH  17  20
ATOM     20  O   UNL     1      10.130  -0.841 -11.294  1.00  0.00    -0.504 OA
ATOM     21  H   UNL     1      10.922  -0.258 -11.050  1.00  0.00     0.293 HD
ENDBRANCH  17  20
ENDBRANCH   1  12
BRANCH   2  22
ATOM     22  O   UNL     1       9.134   3.595 -14.174  1.00  0.00    -0.502 OA
ATOM     23  H   UNL     1       9.890   3.143 -13.674  1.00  0.00     0.293 HD
ENDBRANCH   2  22
BRANCH   6  24
ATOM     24  O   UNL     1       5.784   7.578 -13.039  1.00  0.00    -0.507 OA
ATOM     25  H   UNL     1       5.332   8.457 -12.835  1.00  0.00     0.293 HD
ENDBRANCH   6  24
BRANCH   8  26
ATOM     26  O   UNL     1       2.075   5.122 -11.281  1.00  0.00    -0.508 OA
ATOM     27  H   UNL     1       1.541   5.981 -11.214  1.00  0.00     0.293 HD
ENDBRANCH   8  26
TORSDOF 6
ENDMDL
MODEL 6
REMARK VINA RESULT:    -6.143      1.941      7.294
REMARK INTER + INTRA:          -7.624
REMARK INTER:                  -7.460
REMARK INTRA:                  -0.164
REMARK UNBOUND:                -0.224
REMARK SMILES O=c1c(O)c(-c2ccc(O)c(O)c2)oc2cc(O)cc(O)c12
REMARK SMILES IDX 5 1 3 2 2 3 1 4 22 5 20 6 19 7 17 8 16 9 15 10 14 11 6 12
REMARK SMILES IDX 7 13 8 14 9 15 13 16 11 17 10 18 12 20 4 22 21 24 18 26
REMARK H PARENT 10 19 12 21 4 23 21 25 18 27
REMARK Flexibility Score: inf
ROOT
ATOM      1  C   UNL     1       7.983  -0.791 -12.919  1.00  0.00     0.180 A 
ATOM      2  C   UNL     1       7.104  -1.767 -12.422  1.00  0.00     0.208 A 
ATOM      3  C   UNL     1       7.473  -3.119 -12.495  1.00  0.00     0.238 A 
ATOM      4  O   UNL     1       6.649  -3.991 -12.117  1.00  0.00    -0.285 OA
ATOM      5  C   UNL     1       8.743  -3.476 -13.013  1.00  0.00     0.111 A 
ATOM      6  C   UNL     1       9.241  -4.812 -13.092  1.00  0.00     0.134 A 
ATOM      7  C   UNL     1      10.469  -5.054 -13.721  1.00  0.00     0.093 A 
ATOM      8  C   UNL     1      11.244  -4.007 -14.215  1.00  0.00     0.123 A 
ATOM      9  C   UNL     1      10.793  -2.692 -14.093  1.00  0.00     0.094 A 
ATOM     10  C   UNL     1       9.555  -2.421 -13.506  1.00  0.00     0.146 A 
ATOM     11  O   UNL     1       9.153  -1.159 -13.429  1.00  0.00    -0.452 OA
ENDROOT
BRANCH   1  12
ATOM     12  C   UNL     1       7.658   0.653 -12.891  1.00  0.00     0.025 A 
ATOM     13  C   UNL     1       6.560   1.171 -13.600  1.00  0.00     0.016 A 
ATOM     14  C   UNL     1       6.287   2.541 -13.578  1.00  0.00     0.051 A 
ATOM     15  C   UNL     1       7.113   3.415 -12.859  1.00  0.00     0.157 A 
ATOM     16  C   UNL     1       8.496   1.536 -12.190  1.00  0.00     0.062 A 
ATOM     17  C   UNL     1       8.225   2.909 -12.165  1.00  0.00     0.158 A 
BRANCH  15  18
ATOM     18  O   UNL     1       6.837   4.781 -12.837  1.00  0.00    -0.504 OA
ATOM     19  H   UNL     1       7.545   5.469 -13.064  1.00  0.00     0.293 HD
ENDBRANCH  15  18
BRANCH  17  20
ATOM     20  O   UNL     1       9.071   3.753 -11.447  1.00  0.00    -0.504 OA
ATOM     21  H   UNL     1      10.031   3.917 -11.727  1.00  0.00     0.293 HD
ENDBRANCH  17  20
ENDBRANCH   1  12
BRANCH   2  22
ATOM     22  O   UNL     1       5.888  -1.389 -11.845  1.00  0.00    -0.502 OA
ATOM     23  H   UNL     1       5.834  -0.787 -11.032  1.00  0.00     0.293 HD
ENDBRANCH   2  22
BRANCH   6  24
ATOM     24  O   UNL     1       8.589  -5.925 -12.553  1.00  0.00    -0.507 OA
ATOM     25  H   UNL     1       7.805  -6.397 -12.977  1.00  0.00     0.293 HD
ENDBRANCH   6  24
BRANCH   8  26
ATOM     26  O   UNL     1      12.468  -4.284 -14.819  1.00  0.00    -0.508 OA
ATOM     27  H   UNL     1      13.313  -3.790 -14.556  1.00  0.00     0.293 HD
ENDBRANCH   8  26
TORSDOF 6
ENDMDL
MODEL 7
REMARK VINA RESULT:    -6.054      2.078      7.288
REMARK INTER + INTRA:          -7.516
REMARK INTER:                  -7.244
REMARK INTRA:                  -0.272
REMARK UNBOUND:                -0.224
REMARK SMILES O=c1c(O)c(-c2ccc(O)c(O)c2)oc2cc(O)cc(O)c12
REMARK SMILES IDX 5 1 3 2 2 3 1 4 22 5 20 6 19 7 17 8 16 9 15 10 14 11 6 12
REMARK SMILES IDX 7 13 8 14 9 15 13 16 11 17 10 18 12 20 4 22 21 24 18 26
REMARK H PARENT 10 19 12 21 4 23 21 25 18 27
REMARK Flexibility Score: inf
ROOT
ATOM      1  C   UNL     1       5.433   1.493 -13.477  1.00  0.00     0.180 A 
ATOM      2  C   UNL     1       4.484   0.790 -14.237  1.00  0.00     0.208 A 
ATOM      3  C   UNL     1       4.617  -0.601 -14.376  1.00  0.00     0.238 A 
ATOM      4  O   UNL     1       3.806  -1.213 -15.119  1.00  0.00    -0.285 OA
ATOM      5  C   UNL     1       5.665  -1.280 -13.707  1.00  0.00     0.111 A 
ATOM      6  C   UNL     1       5.868  -2.692 -13.740  1.00  0.00     0.134 A 
ATOM      7  C   UNL     1       7.001  -3.241 -13.126  1.00  0.00     0.093 A 
ATOM      8  C   UNL     1       7.902  -2.438 -12.428  1.00  0.00     0.123 A 
ATOM      9  C   UNL     1       7.683  -1.063 -12.342  1.00  0.00     0.094 A 
ATOM     10  C   UNL     1       6.583  -0.481 -12.976  1.00  0.00     0.146 A 
ATOM     11  O   UNL     1       6.424   0.834 -12.888  1.00  0.00    -0.452 OA
ENDROOT
BRANCH   1  12
ATOM     12  C   UNL     1       5.369   2.961 -13.296  1.00  0.00     0.025 A 
ATOM     13  C   UNL     1       6.248   3.822 -13.976  1.00  0.00     0.016 A 
ATOM     14  C   UNL     1       6.185   5.203 -13.771  1.00  0.00     0.051 A 
ATOM     15  C   UNL     1       5.253   5.742 -12.874  1.00  0.00     0.157 A 
ATOM     16  C   UNL     1       4.452   3.505 -12.382  1.00  0.00     0.062 A 
ATOM     17  C   UNL     1       4.385   4.888 -12.175  1.00  0.00     0.158 A 
BRANCH  15  18
ATOM     18  O   UNL     1       5.190   7.120 -12.674  1.00  0.00    -0.504 OA
ATOM     19  H   UNL     1       5.753   7.580 -11.966  1.00  0.00     0.293 HD
ENDBRANCH  15  18
BRANCH  17  20
ATOM     20  O   UNL     1       3.451   5.392 -11.270  1.00  0.00    -0.504 OA
ATOM     21  H   UNL     1       2.653   4.850 -10.963  1.00  0.00     0.293 HD
ENDBRANCH  17  20
ENDBRANCH   1  12
BRANCH   2  22
ATOM     22  O   UNL     1       3.413   1.468 -14.827  1.00  0.00    -0.502 OA
ATOM     23  H   UNL     1       2.500   1.526 -14.393  1.00  0.00     0.293 HD
ENDBRANCH   2  22
BRANCH   6  24
ATOM     24  O   UNL     1       4.984  -3.598 -14.334  1.00  0.00    -0.507 OA
ATOM     25  H   UNL     1       5.245  -4.302 -15.009  1.00  0.00     0.293 HD
ENDBRANCH   6  24
BRANCH   8  26
ATOM     26  O   UNL     1       9.009  -3.021 -11.814  1.00  0.00    -0.508 OA
ATOM     27  H   UNL     1       8.920  -3.559 -10.961  1.00  0.00     0.293 HD
ENDBRANCH   8  26
TORSDOF 6
ENDMDL
MODEL 8
REMARK VINA RESULT:    -5.990      2.228      2.601
REMARK INTER + INTRA:          -7.439
REMARK INTER:                  -7.128
REMARK INTRA:                  -0.311
REMARK UNBOUND:                -0.224
REMARK SMILES O=c1c(O)c(-c2ccc(O)c(O)c2)oc2cc(O)cc(O)c12
REMARK SMILES IDX 5 1 3 2 2 3 1 4 22 5 20 6 19 7 17 8 16 9 15 10 14 11 6 12
REMARK SMILES IDX 7 13 8 14 9 15 13 16 11 17 10 18 12 20 4 22 21 24 18 26
REMARK H PARENT 10 19 12 21 4 23 21 25 18 27
REMARK Flexibility Score: inf
ROOT
ATOM      1  C   UNL     1       6.094   0.960 -13.693  1.00  0.00     0.180 A 
ATOM      2  C   UNL     1       7.326   1.564 -13.999  1.00  0.00     0.208 A 
ATOM      3  C   UNL     1       7.455   2.955 -13.865  1.00  0.00     0.238 A 
ATOM      4  O   UNL     1       8.536   3.496 -14.211  1.00  0.00    -0.285 OA
ATOM      5  C   UNL     1       6.369   3.720 -13.372  1.00  0.00     0.111 A 
ATOM      6  C   UNL     1       6.403   5.130 -13.152  1.00  0.00     0.134 A 
ATOM      7  C   UNL     1       5.234   5.796 -12.762  1.00  0.00     0.093 A 
ATOM      8  C   UNL     1       4.052   5.096 -12.522  1.00  0.00     0.123 A 
ATOM      9  C   UNL     1       4.023   3.711 -12.681  1.00  0.00     0.094 A 
ATOM     10  C   UNL     1       5.161   3.023 -13.106  1.00  0.00     0.146 A 
ATOM     11  O   UNL     1       5.084   1.707 -13.265  1.00  0.00    -0.452 OA
ENDROOT
BRANCH   1  12
ATOM     12  C   UNL     1       5.876  -0.499 -13.824  1.00  0.00     0.025 A 
ATOM     13  C   UNL     1       5.243  -1.046 -14.954  1.00  0.00     0.016 A 
ATOM     14  C   UNL     1       5.026  -2.424 -15.043  1.00  0.00     0.051 A 
ATOM     15  C   UNL     1       5.425  -3.272 -14.002  1.00  0.00     0.157 A 
ATOM     16  C   UNL     1       6.255  -1.350 -12.773  1.00  0.00     0.062 A 
ATOM     17  C   UNL     1       6.040  -2.731 -12.861  1.00  0.00     0.158 A 
BRANCH  15  18
ATOM     18  O   UNL     1       5.210  -4.646 -14.096  1.00  0.00    -0.504 OA
ATOM     19  H   UNL     1       5.869  -5.314 -13.714  1.00  0.00     0.293 HD
ENDBRANCH  15  18
BRANCH  17  20
ATOM     20  O   UNL     1       6.442  -3.547 -11.804  1.00  0.00    -0.504 OA
ATOM     21  H   UNL     1       7.368  -3.484 -11.398  1.00  0.00     0.293 HD
ENDBRANCH  17  20
ENDBRANCH   1  12
BRANCH   2  22
ATOM     22  O   UNL     1       8.409   0.782 -14.411  1.00  0.00    -0.502 OA
ATOM     23  H   UNL     1       9.227   0.636 -13.832  1.00  0.00     0.293 HD
ENDBRANCH   2  22
BRANCH   6  24
ATOM     24  O   UNL     1       7.553   5.915 -13.276  1.00  0.00    -0.507 OA
ATOM     25  H   UNL     1       7.611   6.895 -13.042  1.00  0.00     0.293 HD
ENDBRANCH   6  24
BRANCH   8  26
ATOM     26  O   UNL     1       2.913   5.790 -12.119  1.00  0.00    -0.508 OA
ATOM     27  H   UNL     1       2.233   5.373 -11.493  1.00  0.00     0.293 HD
ENDBRANCH   8  26
TORSDOF 6
ENDMDL
MODEL 9
REMARK VINA RESULT:    -4.540     15.981     16.830
REMARK INTER + INTRA:          -5.693
REMARK INTER:                  -5.395
REMARK INTRA:                  -0.299
REMARK UNBOUND:                -0.224
REMARK SMILES O=c1c(O)c(-c2ccc(O)c(O)c2)oc2cc(O)cc(O)c12
REMARK SMILES IDX 5 1 3 2 2 3 1 4 22 5 20 6 19 7 17 8 16 9 15 10 14 11 6 12
REMARK SMILES IDX 7 13 8 14 9 15 13 16 11 17 10 18 12 20 4 22 21 24 18 26
REMARK H PARENT 10 19 12 21 4 23 21 25 18 27
REMARK Flexibility Score: inf
ROOT
ATOM      1  C   UNL     1       8.630  -2.372   3.295  1.00  0.00     0.180 A 
ATOM      2  C   UNL     1      10.035  -2.381   3.326  1.00  0.00     0.208 A 
ATOM      3  C   UNL     1      10.720  -1.170   3.510  1.00  0.00     0.238 A 
ATOM      4  O   UNL     1      11.978  -1.175   3.462  1.00  0.00    -0.285 OA
ATOM      5  C   UNL     1       9.993   0.028   3.718  1.00  0.00     0.111 A 
ATOM      6  C   UNL     1      10.583   1.304   3.961  1.00  0.00     0.134 A 
ATOM      7  C   UNL     1       9.765   2.439   4.047  1.00  0.00     0.093 A 
ATOM      8  C   UNL     1       8.378   2.333   3.963  1.00  0.00     0.123 A 
ATOM      9  C   UNL     1       7.787   1.083   3.781  1.00  0.00     0.094 A 
ATOM     10  C   UNL     1       8.577  -0.061   3.653  1.00  0.00     0.146 A 
ATOM     11  O   UNL     1       7.976  -1.229   3.460  1.00  0.00    -0.452 OA
ENDROOT
BRANCH   1  12
ATOM     12  C   UNL     1       7.838  -3.606   3.090  1.00  0.00     0.025 A 
ATOM     13  C   UNL     1       7.679  -4.171   1.812  1.00  0.00     0.016 A 
ATOM     14  C   UNL     1       6.905  -5.322   1.640  1.00  0.00     0.051 A 
ATOM     15  C   UNL     1       6.269  -5.917   2.737  1.00  0.00     0.157 A 
ATOM     16  C   UNL     1       7.180  -4.193   4.183  1.00  0.00     0.062 A 
ATOM     17  C   UNL     1       6.405  -5.347   4.014  1.00  0.00     0.158 A 
BRANCH  15  18
ATOM     18  O   UNL     1       5.501  -7.067   2.562  1.00  0.00    -0.504 OA
ATOM     19  H   UNL     1       5.047  -7.272   1.680  1.00  0.00     0.293 HD
ENDBRANCH  15  18
BRANCH  17  20
ATOM     20  O   UNL     1       5.779  -5.911   5.125  1.00  0.00    -0.504 OA
ATOM     21  H   UNL     1       6.079  -5.708   6.071  1.00  0.00     0.293 HD
ENDBRANCH  17  20
ENDBRANCH   1  12
BRANCH   2  22
ATOM     22  O   UNL     1      10.733  -3.585   3.195  1.00  0.00    -0.502 OA
ATOM     23  H   UNL     1      10.279  -4.452   2.935  1.00  0.00     0.293 HD
ENDBRANCH   2  22
BRANCH   6  24
ATOM     24  O   UNL     1      11.953   1.512   4.149  1.00  0.00    -0.507 OA
ATOM     25  H   UNL     1      12.477   1.211   4.957  1.00  0.00     0.293 HD
ENDBRANCH   6  24
BRANCH   8  26
ATOM     26  O   UNL     1       7.594   3.480   4.070  1.00  0.00    -0.508 OA
ATOM     27  H   UNL     1       7.737   4.152   4.815  1.00  0.00     0.293 HD
ENDBRANCH   8  26
TORSDOF 6
ENDMDL
