MODEL 1
REMARK VINA RESULT:    -6.575      0.000      0.000
REMARK INTER + INTRA:          -7.544
REMARK INTER:                  -7.921
REMARK INTRA:                   0.376
REMARK UNBOUND:                 0.376
REMARK SMILES O=c1c(O)c(-c2ccc(O)c(O)c2)oc2cc(O)cc(O)c12
REMARK SMILES IDX 5 1 3 2 2 3 1 4 22 5 20 6 19 7 17 8 16 9 15 10 14 11 6 12
REMARK SMILES IDX 7 13 8 14 9 15 13 16 11 17 10 18 12 20 4 22 21 24 18 26
REMARK H PARENT 10 19 12 21 4 23 21 25 18 27
REMARK Flexibility Score: inf
ROOT
ATOM      1  C   UNL     1       6.857  15.299   8.029  1.00  0.00     0.180 A 
ATOM      2  C   UNL     1       6.773  14.685   9.294  1.00  0.00     0.208 A 
ATOM      3  C   UNL     1       6.494  13.312   9.363  1.00  0.00     0.238 A 
ATOM      4  O   UNL     1       6.405  12.753  10.490  1.00  0.00    -0.285 OA
ATOM      5  C   UNL     1       6.324  12.574   8.173  1.00  0.00     0.111 A 
ATOM      6  C   UNL     1       6.043  11.186   8.156  1.00  0.00     0.134 A 
ATOM      7  C   UNL     1       5.896  10.522   6.929  1.00  0.00     0.093 A 
ATOM      8  C   UNL     1       6.025  11.214   5.724  1.00  0.00     0.123 A 
ATOM      9  C   UNL     1       6.302  12.585   5.735  1.00  0.00     0.094 A 
ATOM     10  C   UNL     1       6.449  13.266   6.946  1.00  0.00     0.146 A 
ATOM     11  O   UNL     1       6.706  14.570   6.928  1.00  0.00    -0.452 OA
ENDROOT
BRANCH   1  12
ATOM     12  C   UNL     1       7.130  16.747   7.875  1.00  0.00     0.025 A 
ATOM     13  C   UNL     1       7.838  17.426   8.879  1.00  0.00     0.016 A 
ATOM     14  C   UNL     1       8.124  18.787   8.745  1.00  0.00     0.051 A 
ATOM     15  C   UNL     1       7.723  19.486   7.602  1.00  0.00     0.157 A 
ATOM     16  C   UNL     1       6.744  17.445   6.717  1.00  0.00     0.062 A 
ATOM     17  C   UNL     1       7.033  18.811   6.580  1.00  0.00     0.158 A 
BRANCH  15  18
ATOM     18  O   UNL     1       8.022  20.844   7.498  1.00  0.00    -0.504 OA
ATOM     19  H   UNL     1       7.435  21.556   7.916  1.00  0.00     0.293 HD
ENDBRANCH  15  18
BRANCH  17  20
ATOM     20  O   UNL     1       6.642  19.498   5.432  1.00  0.00    -0.504 OA
ATOM     21  H   UNL     1       5.664  19.632   5.199  1.00  0.00     0.293 HD
ENDBRANCH  17  20
ENDBRANCH   1  12
BRANCH   2  22
ATOM     22  O   UNL     1       6.995  15.428  10.456  1.00  0.00    -0.502 OA
ATOM     23  H   UNL     1       7.840  15.967  10.603  1.00  0.00     0.293 HD
ENDBRANCH   2  22
BRANCH   6  24
ATOM     24  O   UNL     1       5.910  10.466   9.343  1.00  0.00    -0.507 OA
ATOM     25  H   UNL     1       6.694   9.979   9.763  1.00  0.00     0.293 HD
ENDBRANCH   6  24
BRANCH   8  26
ATOM     26  O   UNL     1       5.876  10.529   4.519  1.00  0.00    -0.508 OA
ATOM     27  H   UNL     1       6.590  10.561   3.801  1.00  0.00     0.293 HD
ENDBRANCH   8  26
TORSDOF 6
ENDMDL
MODEL 2
REMARK VINA RESULT:    -6.479      2.753      6.396
REMARK INTER + INTRA:          -7.428
REMARK INTER:                  -7.146
REMARK INTRA:                  -0.282
REMARK UNBOUND:                 0.376
REMARK SMILES O=c1c(O)c(-c2ccc(O)c(O)c2)oc2cc(O)cc(O)c12
REMARK SMILES IDX 5 1 3 2 2 3 1 4 22 5 20 6 19 7 17 8 16 9 15 10 14 11 6 12
REMARK SMILES IDX 7 13 8 14 9 15 13 16 11 17 10 18 12 20 4 22 21 24 18 26
REMARK H PARENT 10 19 12 21 4 23 21 25 18 27
REMARK Flexibility Score: inf
ROOT
ATOM      1  C   UNL     1       6.109  12.730   4.920  1.00  0.00     0.180 A 
ATOM      2  C   UNL     1       5.924  11.628   5.777  1.00  0.00     0.208 A 
ATOM      3  C   UNL     1       6.070  11.814   7.160  1.00  0.00     0.238 A 
ATOM      4  O   UNL     1       5.918  10.831   7.937  1.00  0.00    -0.285 OA
ATOM      5  C   UNL     1       6.377  13.094   7.664  1.00  0.00     0.111 A 
ATOM      6  C   UNL     1       6.538  13.365   9.045  1.00  0.00     0.134 A 
ATOM      7  C   UNL     1       6.835  14.670   9.466  1.00  0.00     0.093 A 
ATOM      8  C   UNL     1       6.973  15.705   8.540  1.00  0.00     0.123 A 
ATOM      9  C   UNL     1       6.815  15.443   7.175  1.00  0.00     0.094 A 
ATOM     10  C   UNL     1       6.522  14.150   6.734  1.00  0.00     0.146 A 
ATOM     11  O   UNL     1       6.383  13.927   5.431  1.00  0.00    -0.452 OA
ENDROOT
BRANCH   1  12
ATOM     12  C   UNL     1       5.990  12.611   3.449  1.00  0.00     0.025 A 
ATOM     13  C   UNL     1       4.716  12.591   2.859  1.00  0.00     0.016 A 
ATOM     14  C   UNL     1       4.581  12.499   1.472  1.00  0.00     0.051 A 
ATOM     15  C   UNL     1       5.712  12.443   0.652  1.00  0.00     0.157 A 
ATOM     16  C   UNL     1       7.127  12.575   2.623  1.00  0.00     0.062 A 
ATOM     17  C   UNL     1       6.993  12.485   1.229  1.00  0.00     0.158 A 
BRANCH  15  18
ATOM     18  O   UNL     1       5.545  12.350  -0.729  1.00  0.00    -0.504 OA
ATOM     19  H   UNL     1       5.614  11.467  -1.221  1.00  0.00     0.293 HD
ENDBRANCH  15  18
BRANCH  17  20
ATOM     20  O   UNL     1       8.125  12.444   0.417  1.00  0.00    -0.504 OA
ATOM     21  H   UNL     1       8.069  12.611  -0.581  1.00  0.00     0.293 HD
ENDBRANCH  17  20
ENDBRANCH   1  12
BRANCH   2  22
ATOM     22  O   UNL     1       5.571  10.380   5.257  1.00  0.00    -0.502 OA
ATOM     23  H   UNL     1       5.940   9.513   5.629  1.00  0.00     0.293 HD
ENDBRANCH   2  22
BRANCH   6  24
ATOM     24  O   UNL     1       6.405  12.353   9.995  1.00  0.00    -0.507 OA
ATOM     25  H   UNL     1       6.081  11.426   9.745  1.00  0.00     0.293 HD
ENDBRANCH   6  24
BRANCH   8  26
ATOM     26  O   UNL     1       7.267  16.992   8.986  1.00  0.00    -0.508 OA
ATOM     27  H   UNL     1       8.091  17.487   8.668  1.00  0.00     0.293 HD
ENDBRANCH   8  26
TORSDOF 6
ENDMDL
MODEL 3
REMARK VINA RESULT:    -6.467      2.154      3.232
REMARK INTER + INTRA:          -7.414
REMARK INTER:                  -7.413
REMARK INTRA:                  -0.001
REMARK UNBOUND:                 0.376
REMARK SMILES O=c1c(O)c(-c2ccc(O)c(O)c2)oc2cc(O)cc(O)c12
REMARK SMILES IDX 5 1 3 2 2 3 1 4 22 5 20 6 19 7 17 8 16 9 15 10 14 11 6 12
REMARK SMILES IDX 7 13 8 14 9 15 13 16 11 17 10 18 12 20 4 22 21 24 18 26
REMARK H PARENT 10 19 12 21 4 23 21 25 18 27
REMARK Flexibility Score: inf
ROOT
ATOM      1  C   UNL     1       6.724  14.935   5.824  1.00  0.00     0.180 A 
ATOM      2  C   UNL     1       5.995  13.884   6.414  1.00  0.00     0.208 A 
ATOM      3  C   UNL     1       5.807  12.699   5.687  1.00  0.00     0.238 A 
ATOM      4  O   UNL     1       5.146  11.755   6.201  1.00  0.00    -0.285 OA
ATOM      5  C   UNL     1       6.364  12.576   4.398  1.00  0.00     0.111 A 
ATOM      6  C   UNL     1       6.222  11.413   3.601  1.00  0.00     0.134 A 
ATOM      7  C   UNL     1       6.814  11.366   2.330  1.00  0.00     0.093 A 
ATOM      8  C   UNL     1       7.543  12.452   1.842  1.00  0.00     0.123 A 
ATOM      9  C   UNL     1       7.685  13.603   2.624  1.00  0.00     0.094 A 
ATOM     10  C   UNL     1       7.102  13.672   3.892  1.00  0.00     0.146 A 
ATOM     11  O   UNL     1       7.248  14.779   4.612  1.00  0.00    -0.452 OA
ENDROOT
BRANCH   1  12
ATOM     12  C   UNL     1       6.950  16.223   6.520  1.00  0.00     0.025 A 
ATOM     13  C   UNL     1       7.509  16.223   7.808  1.00  0.00     0.016 A 
ATOM     14  C   UNL     1       7.750  17.426   8.475  1.00  0.00     0.051 A 
ATOM     15  C   UNL     1       7.451  18.647   7.862  1.00  0.00     0.157 A 
ATOM     16  C   UNL     1       6.669  17.452   5.897  1.00  0.00     0.062 A 
ATOM     17  C   UNL     1       6.911  18.661   6.564  1.00  0.00     0.158 A 
BRANCH  15  18
ATOM     18  O   UNL     1       7.700  19.832   8.553  1.00  0.00    -0.504 OA
ATOM     19  H   UNL     1       7.931  19.840   9.540  1.00  0.00     0.293 HD
ENDBRANCH  15  18
BRANCH  17  20
ATOM     20  O   UNL     1       6.625  19.875   5.942  1.00  0.00    -0.504 OA
ATOM     21  H   UNL     1       6.039  19.923   5.116  1.00  0.00     0.293 HD
ENDBRANCH  17  20
ENDBRANCH   1  12
BRANCH   2  22
ATOM     22  O   UNL     1       5.497  14.013   7.713  1.00  0.00    -0.502 OA
ATOM     23  H   UNL     1       6.097  14.192   8.510  1.00  0.00     0.293 HD
ENDBRANCH   2  22
BRANCH   6  24
ATOM     24  O   UNL     1       5.502  10.311   4.061  1.00  0.00    -0.507 OA
ATOM     25  H   UNL     1       5.701   9.371   3.738  1.00  0.00     0.293 HD
ENDBRANCH   6  24
BRANCH   8  26
ATOM     26  O   UNL     1       8.122  12.378   0.576  1.00  0.00    -0.508 OA
ATOM     27  H   UNL     1       7.558  12.392  -0.265  1.00  0.00     0.293 HD
ENDBRANCH   8  26
TORSDOF 6
ENDMDL
MODEL 4
REMARK VINA RESULT:    -6.406      4.730      8.134
REMARK INTER + INTRA:          -7.341
REMARK INTER:                  -7.435
REMARK INTRA:                   0.094
REMARK UNBOUND:                 0.376
REMARK SMILES O=c1c(O)c(-c2ccc(O)c(O)c2)oc2cc(O)cc(O)c12
REMARK SMILES IDX 5 1 3 2 2 3 1 4 22 5 20 6 19 7 17 8 16 9 15 10 14 11 6 12
REMARK SMILES IDX 7 13 8 14 9 15 13 16 11 17 10 18 12 20 4 22 21 24 18 26
REMARK H PARENT 10 19 12 21 4 23 21 25 18 27
REMARK Flexibility Score: inf
ROOT
ATOM      1  C   UNL     1       5.639  12.051   2.822  1.00  0.00     0.180 A 
ATOM      2  C   UNL     1       6.712  11.627   2.015  1.00  0.00     0.208 A 
ATOM      3  C   UNL     1       6.560  11.648   0.620  1.00  0.00     0.238 A 
ATOM      4  O   UNL     1       7.510  11.260  -0.113  1.00  0.00    -0.285 OA
ATOM      5  C   UNL     1       5.352  12.107   0.057  1.00  0.00     0.111 A 
ATOM      6  C   UNL     1       5.119  12.163  -1.339  1.00  0.00     0.134 A 
ATOM      7  C   UNL     1       3.892  12.641  -1.821  1.00  0.00     0.093 A 
ATOM      8  C   UNL     1       2.896  13.065  -0.939  1.00  0.00     0.123 A 
ATOM      9  C   UNL     1       3.120  13.013   0.441  1.00  0.00     0.094 A 
ATOM     10  C   UNL     1       4.335  12.537   0.942  1.00  0.00     0.146 A 
ATOM     11  O   UNL     1       4.519  12.492   2.257  1.00  0.00    -0.452 OA
ENDROOT
BRANCH   1  12
ATOM     12  C   UNL     1       5.716  12.041   4.301  1.00  0.00     0.025 A 
ATOM     13  C   UNL     1       5.140  13.094   5.029  1.00  0.00     0.016 A 
ATOM     14  C   UNL     1       5.182  13.095   6.425  1.00  0.00     0.051 A 
ATOM     15  C   UNL     1       5.785  12.040   7.116  1.00  0.00     0.157 A 
ATOM     16  C   UNL     1       6.303  10.970   4.997  1.00  0.00     0.062 A 
ATOM     17  C   UNL     1       6.346  10.969   6.399  1.00  0.00     0.158 A 
BRANCH  15  18
ATOM     18  O   UNL     1       5.814  12.070   8.510  1.00  0.00    -0.504 OA
ATOM     19  H   UNL     1       6.333  12.774   9.021  1.00  0.00     0.293 HD
ENDBRANCH  15  18
BRANCH  17  20
ATOM     20  O   UNL     1       6.935   9.906   7.082  1.00  0.00    -0.504 OA
ATOM     21  H   UNL     1       7.820  10.011   7.567  1.00  0.00     0.293 HD
ENDBRANCH  17  20
ENDBRANCH   1  12
BRANCH   2  22
ATOM     22  O   UNL     1       7.917  11.223   2.596  1.00  0.00    -0.502 OA
ATOM     23  H   UNL     1       7.957  10.776   3.505  1.00  0.00     0.293 HD
ENDBRANCH   2  22
BRANCH   6  24
ATOM     24  O   UNL     1       6.094  11.747  -2.246  1.00  0.00    -0.507 OA
ATOM     25  H   UNL     1       6.895  12.327  -2.471  1.00  0.00     0.293 HD
ENDBRANCH   6  24
BRANCH   8  26
ATOM     26  O   UNL     1       1.687  13.538  -1.444  1.00  0.00    -0.508 OA
ATOM     27  H   UNL     1       0.878  13.668  -0.847  1.00  0.00     0.293 HD
ENDBRANCH   8  26
TORSDOF 6
ENDMDL
MODEL 5
REMARK VINA RESULT:    -6.367      2.337      4.715
REMARK INTER + INTRA:          -7.293
REMARK INTER:                  -7.619
REMARK INTRA:                   0.326
REMARK UNBOUND:                 0.376
REMARK SMILES O=c1c(O)c(-c2ccc(O)c(O)c2)oc2cc(O)cc(O)c12
REMARK SMILES IDX 5 1 3 2 2 3 1 4 22 5 20 6 19 7 17 8 16 9 15 10 14 11 6 12
REMARK SMILES IDX 7 13 8 14 9 15 13 16 11 17 10 18 12 20 4 22 21 24 18 26
REMARK H PARENT 10 19 12 21 4 23 21 25 18 27
REMARK Flexibility Score: inf
ROOT
ATOM      1  C   UNL     1       7.437  18.597   8.091  1.00  0.00     0.180 A 
ATOM      2  C   UNL     1       6.986  18.596   6.757  1.00  0.00     0.208 A 
ATOM      3  C   UNL     1       6.852  17.370   6.088  1.00  0.00     0.238 A 
ATOM      4  O   UNL     1       6.460  17.357   4.889  1.00  0.00    -0.285 OA
ATOM      5  C   UNL     1       7.149  16.170   6.765  1.00  0.00     0.111 A 
ATOM      6  C   UNL     1       7.037  14.892   6.164  1.00  0.00     0.134 A 
ATOM      7  C   UNL     1       7.344  13.744   6.909  1.00  0.00     0.093 A 
ATOM      8  C   UNL     1       7.758  13.846   8.238  1.00  0.00     0.123 A 
ATOM      9  C   UNL     1       7.871  15.105   8.837  1.00  0.00     0.094 A 
ATOM     10  C   UNL     1       7.572  16.261   8.112  1.00  0.00     0.146 A 
ATOM     11  O   UNL     1       7.694  17.445   8.703  1.00  0.00    -0.452 OA
ENDROOT
BRANCH   1  12
ATOM     12  C   UNL     1       7.621  19.851   8.858  1.00  0.00     0.025 A 
ATOM     13  C   UNL     1       7.938  21.036   8.175  1.00  0.00     0.016 A 
ATOM     14  C   UNL     1       8.097  22.234   8.875  1.00  0.00     0.051 A 
ATOM     15  C   UNL     1       7.926  22.272  10.263  1.00  0.00     0.157 A 
ATOM     16  C   UNL     1       7.430  19.893  10.250  1.00  0.00     0.062 A 
ATOM     17  C   UNL     1       7.587  21.096  10.954  1.00  0.00     0.158 A 
BRANCH  15  18
ATOM     18  O   UNL     1       8.093  23.482  10.934  1.00  0.00    -0.504 OA
ATOM     19  H   UNL     1       8.759  24.181  10.625  1.00  0.00     0.293 HD
ENDBRANCH  15  18
BRANCH  17  20
ATOM     20  O   UNL     1       7.402  21.129  12.335  1.00  0.00    -0.504 OA
ATOM     21  H   UNL     1       6.479  21.062  12.749  1.00  0.00     0.293 HD
ENDBRANCH  17  20
ENDBRANCH   1  12
BRANCH   2  22
ATOM     22  O   UNL     1       6.650  19.796   6.124  1.00  0.00    -0.502 OA
ATOM     23  H   UNL     1       6.801  19.948   5.134  1.00  0.00     0.293 HD
ENDBRANCH   2  22
BRANCH   6  24
ATOM     24  O   UNL     1       6.625  14.757   4.838  1.00  0.00    -0.507 OA
ATOM     25  H   UNL     1       6.827  13.923   4.299  1.00  0.00     0.293 HD
ENDBRANCH   6  24
BRANCH   8  26
ATOM     26  O   UNL     1       8.055  12.689   8.956  1.00  0.00    -0.508 OA
ATOM     27  H   UNL     1       7.435  12.340   9.677  1.00  0.00     0.293 HD
ENDBRANCH   8  26
TORSDOF 6
ENDMDL
MODEL 6
REMARK VINA RESULT:    -6.303      1.355      2.968
REMARK INTER + INTRA:          -7.217
REMARK INTER:                  -7.314
REMARK INTRA:                   0.097
REMARK UNBOUND:                 0.376
REMARK SMILES O=c1c(O)c(-c2ccc(O)c(O)c2)oc2cc(O)cc(O)c12
REMARK SMILES IDX 5 1 3 2 2 3 1 4 22 5 20 6 19 7 17 8 16 9 15 10 14 11 6 12
REMARK SMILES IDX 7 13 8 14 9 15 13 16 11 17 10 18 12 20 4 22 21 24 18 26
REMARK H PARENT 10 19 12 21 4 23 21 25 18 27
REMARK Flexibility Score: inf
ROOT
ATOM      1  C   UNL     1       6.924  15.946   6.955  1.00  0.00     0.180 A 
ATOM      2  C   UNL     1       7.054  15.567   5.605  1.00  0.00     0.208 A 
ATOM      3  C   UNL     1       6.873  14.219   5.260  1.00  0.00     0.238 A 
ATOM      4  O   UNL     1       6.998  13.865   4.056  1.00  0.00    -0.285 OA
ATOM      5  C   UNL     1       6.548  13.280   6.261  1.00  0.00     0.111 A 
ATOM      6  C   UNL     1       6.346  11.904   5.995  1.00  0.00     0.134 A 
ATOM      7  C   UNL     1       6.016  11.035   7.046  1.00  0.00     0.093 A 
ATOM      8  C   UNL     1       5.883  11.512   8.351  1.00  0.00     0.123 A 
ATOM      9  C   UNL     1       6.081  12.870   8.619  1.00  0.00     0.094 A 
ATOM     10  C   UNL     1       6.413  13.753   7.588  1.00  0.00     0.146 A 
ATOM     11  O   UNL     1       6.601  15.037   7.870  1.00  0.00    -0.452 OA
ENDROOT
BRANCH   1  12
ATOM     12  C   UNL     1       7.118  17.346   7.401  1.00  0.00     0.025 A 
ATOM     13  C   UNL     1       7.911  17.606   8.530  1.00  0.00     0.016 A 
ATOM     14  C   UNL     1       8.125  18.919   8.956  1.00  0.00     0.051 A 
ATOM     15  C   UNL     1       7.565  19.991   8.254  1.00  0.00     0.157 A 
ATOM     16  C   UNL     1       6.572  18.425   6.684  1.00  0.00     0.062 A 
ATOM     17  C   UNL     1       6.788  19.744   7.110  1.00  0.00     0.158 A 
BRANCH  15  18
ATOM     18  O   UNL     1       7.794  21.290   8.705  1.00  0.00    -0.504 OA
ATOM     19  H   UNL     1       8.515  21.504   9.385  1.00  0.00     0.293 HD
ENDBRANCH  15  18
BRANCH  17  20
ATOM     20  O   UNL     1       6.238  20.809   6.398  1.00  0.00    -0.504 OA
ATOM     21  H   UNL     1       5.360  20.718   5.899  1.00  0.00     0.293 HD
ENDBRANCH  17  20
ENDBRANCH   1  12
BRANCH   2  22
ATOM     22  O   UNL     1       7.328  16.525   4.626  1.00  0.00    -0.502 OA
ATOM     23  H   UNL     1       8.108  16.438   3.985  1.00  0.00     0.293 HD
ENDBRANCH   2  22
BRANCH   6  24
ATOM     24  O   UNL     1       6.471  11.396   4.702  1.00  0.00    -0.507 OA
ATOM     25  H   UNL     1       7.001  10.554   4.509  1.00  0.00     0.293 HD
ENDBRANCH   6  24
BRANCH   8  26
ATOM     26  O   UNL     1       5.552  10.627   9.376  1.00  0.00    -0.508 OA
ATOM     27  H   UNL     1       5.039   9.773   9.192  1.00  0.00     0.293 HD
ENDBRANCH   8  26
TORSDOF 6
ENDMDL
MODEL 7
REMARK VINA RESULT:    -6.122      3.324      4.850
REMARK INTER + INTRA:          -6.998
REMARK INTER:                  -6.975
REMARK INTRA:                  -0.023
REMARK UNBOUND:                 0.376
REMARK SMILES O=c1c(O)c(-c2ccc(O)c(O)c2)oc2cc(O)cc(O)c12
REMARK SMILES IDX 5 1 3 2 2 3 1 4 22 5 20 6 19 7 17 8 16 9 15 10 14 11 6 12
REMARK SMILES IDX 7 13 8 14 9 15 13 16 11 17 10 18 12 20 4 22 21 24 18 26
REMARK H PARENT 10 19 12 21 4 23 21 25 18 27
REMARK Flexibility Score: inf
ROOT
ATOM      1  C   UNL     1       6.440  12.786   8.324  1.00  0.00     0.180 A 
ATOM      2  C   UNL     1       5.976  11.467   8.154  1.00  0.00     0.208 A 
ATOM      3  C   UNL     1       5.851  10.955   6.854  1.00  0.00     0.238 A 
ATOM      4  O   UNL     1       5.427   9.778   6.690  1.00  0.00    -0.285 OA
ATOM      5  C   UNL     1       6.208  11.757   5.751  1.00  0.00     0.111 A 
ATOM      6  C   UNL     1       6.115  11.314   4.409  1.00  0.00     0.134 A 
ATOM      7  C   UNL     1       6.498  12.171   3.367  1.00  0.00     0.093 A 
ATOM      8  C   UNL     1       6.972  13.456   3.637  1.00  0.00     0.123 A 
ATOM      9  C   UNL     1       7.066  13.899   4.961  1.00  0.00     0.094 A 
ATOM     10  C   UNL     1       6.687  13.062   6.014  1.00  0.00     0.146 A 
ATOM     11  O   UNL     1       6.781  13.509   7.261  1.00  0.00    -0.452 OA
ENDROOT
BRANCH   1  12
ATOM     12  C   UNL     1       6.581  13.404   9.663  1.00  0.00     0.025 A 
ATOM     13  C   UNL     1       7.766  14.084   9.987  1.00  0.00     0.016 A 
ATOM     14  C   UNL     1       7.913  14.693  11.236  1.00  0.00     0.051 A 
ATOM     15  C   UNL     1       6.876  14.646  12.173  1.00  0.00     0.157 A 
ATOM     16  C   UNL     1       5.531  13.375  10.597  1.00  0.00     0.062 A 
ATOM     17  C   UNL     1       5.677  13.987  11.851  1.00  0.00     0.158 A 
BRANCH  15  18
ATOM     18  O   UNL     1       7.053  15.260  13.411  1.00  0.00    -0.504 OA
ATOM     19  H   UNL     1       7.426  16.198  13.498  1.00  0.00     0.293 HD
ENDBRANCH  15  18
BRANCH  17  20
ATOM     20  O   UNL     1       4.634  13.948  12.775  1.00  0.00    -0.504 OA
ATOM     21  H   UNL     1       4.474  14.706  13.429  1.00  0.00     0.293 HD
ENDBRANCH  17  20
ENDBRANCH   1  12
BRANCH   2  22
ATOM     22  O   UNL     1       5.677  10.676   9.266  1.00  0.00    -0.502 OA
ATOM     23  H   UNL     1       4.958  10.929   9.934  1.00  0.00     0.293 HD
ENDBRANCH   2  22
BRANCH   6  24
ATOM     24  O   UNL     1       5.646  10.036   4.106  1.00  0.00    -0.507 OA
ATOM     25  H   UNL     1       4.723   9.726   4.386  1.00  0.00     0.293 HD
ENDBRANCH   6  24
BRANCH   8  26
ATOM     26  O   UNL     1       7.347  14.286   2.583  1.00  0.00    -0.508 OA
ATOM     27  H   UNL     1       6.658  14.745   1.999  1.00  0.00     0.293 HD
ENDBRANCH   8  26
TORSDOF 6
ENDMDL
MODEL 8
REMARK VINA RESULT:    -6.057      4.450      7.307
REMARK INTER + INTRA:          -6.920
REMARK INTER:                  -6.589
REMARK INTRA:                  -0.331
REMARK UNBOUND:                 0.376
REMARK SMILES O=c1c(O)c(-c2ccc(O)c(O)c2)oc2cc(O)cc(O)c12
REMARK SMILES IDX 5 1 3 2 2 3 1 4 22 5 20 6 19 7 17 8 16 9 15 10 14 11 6 12
REMARK SMILES IDX 7 13 8 14 9 15 13 16 11 17 10 18 12 20 4 22 21 24 18 26
REMARK H PARENT 10 19 12 21 4 23 21 25 18 27
REMARK Flexibility Score: inf
ROOT
ATOM      1  C   UNL     1       5.548  12.133   2.928  1.00  0.00     0.180 A 
ATOM      2  C   UNL     1       5.851  10.795   2.609  1.00  0.00     0.208 A 
ATOM      3  C   UNL     1       5.235  10.208   1.493  1.00  0.00     0.238 A 
ATOM      4  O   UNL     1       5.490   9.006   1.205  1.00  0.00    -0.285 OA
ATOM      5  C   UNL     1       4.348  10.969   0.706  1.00  0.00     0.111 A 
ATOM      6  C   UNL     1       3.689  10.453  -0.437  1.00  0.00     0.134 A 
ATOM      7  C   UNL     1       2.826  11.279  -1.173  1.00  0.00     0.093 A 
ATOM      8  C   UNL     1       2.610  12.604  -0.793  1.00  0.00     0.123 A 
ATOM      9  C   UNL     1       3.258  13.119   0.335  1.00  0.00     0.094 A 
ATOM     10  C   UNL     1       4.119  12.313   1.084  1.00  0.00     0.146 A 
ATOM     11  O   UNL     1       4.718  12.825   2.154  1.00  0.00    -0.452 OA
ENDROOT
BRANCH   1  12
ATOM     12  C   UNL     1       6.142  12.816   4.100  1.00  0.00     0.025 A 
ATOM     13  C   UNL     1       7.336  13.539   3.945  1.00  0.00     0.016 A 
ATOM     14  C   UNL     1       7.903  14.208   5.032  1.00  0.00     0.051 A 
ATOM     15  C   UNL     1       7.282  14.180   6.284  1.00  0.00     0.157 A 
ATOM     16  C   UNL     1       5.507  12.805   5.354  1.00  0.00     0.062 A 
ATOM     17  C   UNL     1       6.075  13.478   6.446  1.00  0.00     0.158 A 
BRANCH  15  18
ATOM     18  O   UNL     1       7.873  14.856   7.350  1.00  0.00    -0.504 OA
ATOM     19  H   UNL     1       7.777  15.857   7.472  1.00  0.00     0.293 HD
ENDBRANCH  15  18
BRANCH  17  20
ATOM     20  O   UNL     1       5.442  13.457   7.688  1.00  0.00    -0.504 OA
ATOM     21  H   UNL     1       5.743  12.832   8.427  1.00  0.00     0.293 HD
ENDBRANCH  17  20
ENDBRANCH   1  12
BRANCH   2  22
ATOM     22  O   UNL     1       6.772  10.077   3.377  1.00  0.00    -0.502 OA
ATOM     23  H   UNL     1       6.798   9.065   3.387  1.00  0.00     0.293 HD
ENDBRANCH   2  22
BRANCH   6  24
ATOM     24  O   UNL     1       3.884   9.133  -0.844  1.00  0.00    -0.507 OA
ATOM     25  H   UNL     1       3.183   8.418  -0.687  1.00  0.00     0.293 HD
ENDBRANCH   6  24
BRANCH   8  26
ATOM     26  O   UNL     1       1.749  13.403  -1.543  1.00  0.00    -0.508 OA
ATOM     27  H   UNL     1       0.939  13.014  -2.012  1.00  0.00     0.293 HD
ENDBRANCH   8  26
TORSDOF 6
ENDMDL
MODEL 9
REMARK VINA RESULT:    -6.023      3.561      7.260
REMARK INTER + INTRA:          -6.880
REMARK INTER:                  -6.559
REMARK INTRA:                  -0.321
REMARK UNBOUND:                 0.376
REMARK SMILES O=c1c(O)c(-c2ccc(O)c(O)c2)oc2cc(O)cc(O)c12
REMARK SMILES IDX 5 1 3 2 2 3 1 4 22 5 20 6 19 7 17 8 16 9 15 10 14 11 6 12
REMARK SMILES IDX 7 13 8 14 9 15 13 16 11 17 10 18 12 20 4 22 21 24 18 26
REMARK H PARENT 10 19 12 21 4 23 21 25 18 27
REMARK Flexibility Score: inf
ROOT
ATOM      1  C   UNL     1       5.740  12.486   3.581  1.00  0.00     0.180 A 
ATOM      2  C   UNL     1       6.661  13.548   3.677  1.00  0.00     0.208 A 
ATOM      3  C   UNL     1       7.166  13.894   4.940  1.00  0.00     0.238 A 
ATOM      4  O   UNL     1       7.983  14.851   5.039  1.00  0.00    -0.285 OA
ATOM      5  C   UNL     1       6.763  13.165   6.077  1.00  0.00     0.111 A 
ATOM      6  C   UNL     1       7.229  13.448   7.384  1.00  0.00     0.134 A 
ATOM      7  C   UNL     1       6.785  12.670   8.463  1.00  0.00     0.093 A 
ATOM      8  C   UNL     1       5.890  11.618   8.263  1.00  0.00     0.123 A 
ATOM      9  C   UNL     1       5.427  11.333   6.975  1.00  0.00     0.094 A 
ATOM     10  C   UNL     1       5.854  12.098   5.886  1.00  0.00     0.146 A 
ATOM     11  O   UNL     1       5.394  11.811   4.673  1.00  0.00    -0.452 OA
ENDROOT
BRANCH   1  12
ATOM     12  C   UNL     1       5.148  12.073   2.288  1.00  0.00     0.025 A 
ATOM     13  C   UNL     1       5.665  10.953   1.619  1.00  0.00     0.016 A 
ATOM     14  C   UNL     1       5.109  10.533   0.409  1.00  0.00     0.051 A 
ATOM     15  C   UNL     1       4.020  11.214  -0.144  1.00  0.00     0.157 A 
ATOM     16  C   UNL     1       4.040  12.745   1.743  1.00  0.00     0.062 A 
ATOM     17  C   UNL     1       3.479  12.323   0.528  1.00  0.00     0.158 A 
BRANCH  15  18
ATOM     18  O   UNL     1       3.487  10.772  -1.355  1.00  0.00    -0.504 OA
ATOM     19  H   UNL     1       2.518  10.930  -1.605  1.00  0.00     0.293 HD
ENDBRANCH  15  18
BRANCH  17  20
ATOM     20  O   UNL     1       2.385  12.998  -0.010  1.00  0.00    -0.504 OA
ATOM     21  H   UNL     1       1.644  13.364   0.578  1.00  0.00     0.293 HD
ENDBRANCH  17  20
ENDBRANCH   1  12
BRANCH   2  22
ATOM     22  O   UNL     1       7.082  14.222   2.529  1.00  0.00    -0.502 OA
ATOM     23  H   UNL     1       6.771  13.960   1.600  1.00  0.00     0.293 HD
ENDBRANCH   2  22
BRANCH   6  24
ATOM     24  O   UNL     1       8.124  14.492   7.616  1.00  0.00    -0.507 OA
ATOM     25  H   UNL     1       7.892  15.453   7.392  1.00  0.00     0.293 HD
ENDBRANCH   6  24
BRANCH   8  26
ATOM     26  O   UNL     1       5.467  10.859   9.353  1.00  0.00    -0.508 OA
ATOM     27  H   UNL     1       5.435  11.248  10.288  1.00  0.00     0.293 HD
ENDBRANCH   8  26
TORSDOF 6
ENDMDL
