MODEL 1
REMARK VINA RESULT:    -7.478      0.000      0.000
REMARK INTER + INTRA:          -9.557
REMARK INTER:                  -9.226
REMARK INTRA:                  -0.331
REMARK UNBOUND:                -0.331
REMARK SMILES Oc1cc(O)c2cc(O)c(-c3cc(O)c(O)c(O)c3)[o+]c2c1
REMARK SMILES IDX 10 1 20 2 21 3 22 4 2 5 3 6 4 7 6 8 7 9 8 10 11 11 12 12
REMARK SMILES IDX 13 13 19 14 15 15 17 16 14 17 16 19 18 21 9 23 1 25 5 27
REMARK H PARENT 14 18 16 20 18 22 9 24 1 26 5 28
REMARK Flexibility Score: inf
ROOT
ATOM      1  C   UNL     1     -24.833 -19.964 -13.693  1.00  0.00     0.402 A 
ATOM      2  O   UNL     1     -24.955 -20.876 -14.654  1.00  0.00    -0.202 OA
ATOM      3  C   UNL     1     -24.971 -22.184 -14.421  1.00  0.00     0.368 A 
ATOM      4  C   UNL     1     -25.106 -23.065 -15.497  1.00  0.00     0.162 A 
ATOM      5  C   UNL     1     -25.130 -24.445 -15.279  1.00  0.00     0.128 A 
ATOM      6  C   UNL     1     -25.017 -24.947 -13.980  1.00  0.00     0.093 A 
ATOM      7  C   UNL     1     -24.882 -24.085 -12.885  1.00  0.00     0.136 A 
ATOM      8  C   UNL     1     -24.855 -22.683 -13.100  1.00  0.00     0.125 A 
ATOM      9  C   UNL     1     -24.708 -21.745 -12.066  1.00  0.00     0.078 A 
ATOM     10  C   UNL     1     -24.686 -20.378 -12.356  1.00  0.00     0.223 A 
ENDROOT
BRANCH   1  11
ATOM     11  C   UNL     1     -24.838 -18.534 -14.080  1.00  0.00     0.091 A 
ATOM     12  C   UNL     1     -23.625 -17.835 -14.156  1.00  0.00     0.068 A 
ATOM     13  C   UNL     1     -23.591 -16.489 -14.538  1.00  0.00     0.162 A 
ATOM     14  C   UNL     1     -26.028 -17.876 -14.426  1.00  0.00     0.068 A 
ATOM     15  C   UNL     1     -24.797 -15.825 -14.864  1.00  0.00     0.200 A 
ATOM     16  C   UNL     1     -26.008 -16.528 -14.810  1.00  0.00     0.162 A 
BRANCH  13  17
ATOM     17  O   UNL     1     -22.346 -15.857 -14.580  1.00  0.00    -0.504 OA
ATOM     18  H   UNL     1     -21.482 -16.325 -14.810  1.00  0.00     0.293 HD
ENDBRANCH  13  17
BRANCH  15  19
ATOM     19  O   UNL     1     -24.834 -14.482 -15.247  1.00  0.00    -0.502 OA
ATOM     20  H   UNL     1     -25.154 -14.159 -16.148  1.00  0.00     0.293 HD
ENDBRANCH  15  19
BRANCH  16  21
ATOM     21  O   UNL     1     -27.195 -15.879 -15.147  1.00  0.00    -0.504 OA
ATOM     22  H   UNL     1     -27.286 -14.871 -15.083  1.00  0.00     0.293 HD
ENDBRANCH  16  21
ENDBRANCH   1  11
BRANCH  10  23
ATOM     23  O   UNL     1     -24.490 -19.448 -11.335  1.00  0.00    -0.500 OA
ATOM     24  H   UNL     1     -24.554 -19.710 -10.358  1.00  0.00     0.294 HD
ENDBRANCH  10  23
BRANCH   5  25
ATOM     25  O   UNL     1     -25.264 -25.330 -16.348  1.00  0.00    -0.507 OA
ATOM     26  H   UNL     1     -25.119 -26.325 -16.233  1.00  0.00     0.293 HD
ENDBRANCH   5  25
BRANCH   7  27
ATOM     27  O   UNL     1     -24.778 -24.666 -11.618  1.00  0.00    -0.507 OA
ATOM     28  H   UNL     1     -24.107 -25.378 -11.370  1.00  0.00     0.293 HD
ENDBRANCH   7  27
TORSDOF 7
ENDMDL
MODEL 2
REMARK VINA RESULT:    -7.428      4.141      7.283
REMARK INTER + INTRA:          -9.496
REMARK INTER:                  -9.154
REMARK INTRA:                  -0.341
REMARK UNBOUND:                -0.331
REMARK SMILES Oc1cc(O)c2cc(O)c(-c3cc(O)c(O)c(O)c3)[o+]c2c1
REMARK SMILES IDX 10 1 20 2 21 3 22 4 2 5 3 6 4 7 6 8 7 9 8 10 11 11 12 12
REMARK SMILES IDX 13 13 19 14 15 15 17 16 14 17 16 19 18 21 9 23 1 25 5 27
REMARK H PARENT 14 18 16 20 18 22 9 24 1 26 5 28
REMARK Flexibility Score: inf
ROOT
ATOM      1  C   UNL     1     -26.754 -22.128 -10.773  1.00  0.00     0.402 A 
ATOM      2  O   UNL     1     -27.293 -20.913 -10.730  1.00  0.00    -0.202 OA
ATOM      3  C   UNL     1     -27.897 -20.421  -9.653  1.00  0.00     0.368 A 
ATOM      4  C   UNL     1     -28.431 -19.130  -9.704  1.00  0.00     0.162 A 
ATOM      5  C   UNL     1     -29.069 -18.587  -8.585  1.00  0.00     0.128 A 
ATOM      6  C   UNL     1     -29.174 -19.337  -7.412  1.00  0.00     0.093 A 
ATOM      7  C   UNL     1     -28.647 -20.632  -7.335  1.00  0.00     0.136 A 
ATOM      8  C   UNL     1     -28.000 -21.189  -8.468  1.00  0.00     0.125 A 
ATOM      9  C   UNL     1     -27.455 -22.483  -8.489  1.00  0.00     0.078 A 
ATOM     10  C   UNL     1     -26.836 -22.966  -9.645  1.00  0.00     0.223 A 
ENDROOT
BRANCH   1  11
ATOM     11  C   UNL     1     -26.098 -22.559 -12.030  1.00  0.00     0.091 A 
ATOM     12  C   UNL     1     -26.791 -23.394 -12.918  1.00  0.00     0.068 A 
ATOM     13  C   UNL     1     -26.210 -23.804 -14.123  1.00  0.00     0.162 A 
ATOM     14  C   UNL     1     -24.817 -22.104 -12.378  1.00  0.00     0.068 A 
ATOM     15  C   UNL     1     -24.909 -23.360 -14.458  1.00  0.00     0.200 A 
ATOM     16  C   UNL     1     -24.224 -22.507 -13.582  1.00  0.00     0.162 A 
BRANCH  13  17
ATOM     17  O   UNL     1     -26.956 -24.645 -14.951  1.00  0.00    -0.504 OA
ATOM     18  H   UNL     1     -27.963 -24.627 -15.016  1.00  0.00     0.293 HD
ENDBRANCH  13  17
BRANCH  15  19
ATOM     19  O   UNL     1     -24.269 -23.736 -15.642  1.00  0.00    -0.502 OA
ATOM     20  H   UNL     1     -23.590 -24.480 -15.707  1.00  0.00     0.293 HD
ENDBRANCH  15  19
BRANCH  16  21
ATOM     21  O   UNL     1     -22.948 -22.057 -13.918  1.00  0.00    -0.504 OA
ATOM     22  H   UNL     1     -22.114 -22.502 -13.553  1.00  0.00     0.293 HD
ENDBRANCH  16  21
ENDBRANCH   1  11
BRANCH  10  23
ATOM     23  O   UNL     1     -26.339 -24.269  -9.682  1.00  0.00    -0.500 OA
ATOM     24  H   UNL     1     -25.597 -24.536 -10.318  1.00  0.00     0.294 HD
ENDBRANCH  10  23
BRANCH   5  25
ATOM     25  O   UNL     1     -29.604 -17.301  -8.628  1.00  0.00    -0.507 OA
ATOM     26  H   UNL     1     -29.026 -16.482  -8.481  1.00  0.00     0.293 HD
ENDBRANCH   5  25
BRANCH   7  27
ATOM     27  O   UNL     1     -28.790 -21.315  -6.124  1.00  0.00    -0.507 OA
ATOM     28  H   UNL     1     -29.656 -21.391  -5.611  1.00  0.00     0.293 HD
ENDBRANCH   7  27
TORSDOF 7
ENDMDL
MODEL 3
REMARK VINA RESULT:    -7.392      3.740      5.606
REMARK INTER + INTRA:          -9.452
REMARK INTER:                  -9.410
REMARK INTRA:                  -0.042
REMARK UNBOUND:                -0.331
REMARK SMILES Oc1cc(O)c2cc(O)c(-c3cc(O)c(O)c(O)c3)[o+]c2c1
REMARK SMILES IDX 10 1 20 2 21 3 22 4 2 5 3 6 4 7 6 8 7 9 8 10 11 11 12 12
REMARK SMILES IDX 13 13 19 14 15 15 17 16 14 17 16 19 18 21 9 23 1 25 5 27
REMARK H PARENT 14 18 16 20 18 22 9 24 1 26 5 28
REMARK Flexibility Score: inf
ROOT
ATOM      1  C   UNL     1     -26.168 -21.556 -11.129  1.00  0.00     0.402 A 
ATOM      2  O   UNL     1     -26.408 -22.674 -11.809  1.00  0.00    -0.202 OA
ATOM      3  C   UNL     1     -25.551 -23.198 -12.678  1.00  0.00     0.368 A 
ATOM      4  C   UNL     1     -25.892 -24.378 -13.343  1.00  0.00     0.162 A 
ATOM      5  C   UNL     1     -25.008 -24.953 -14.260  1.00  0.00     0.128 A 
ATOM      6  C   UNL     1     -23.777 -24.343 -14.514  1.00  0.00     0.093 A 
ATOM      7  C   UNL     1     -23.411 -23.160 -13.861  1.00  0.00     0.136 A 
ATOM      8  C   UNL     1     -24.306 -22.572 -12.930  1.00  0.00     0.125 A 
ATOM      9  C   UNL     1     -24.030 -21.380 -12.240  1.00  0.00     0.078 A 
ATOM     10  C   UNL     1     -24.964 -20.858 -11.341  1.00  0.00     0.223 A 
ENDROOT
BRANCH   1  11
ATOM     11  C   UNL     1     -27.200 -21.078 -10.179  1.00  0.00     0.091 A 
ATOM     12  C   UNL     1     -27.697 -21.952  -9.202  1.00  0.00     0.068 A 
ATOM     13  C   UNL     1     -28.658 -21.529  -8.277  1.00  0.00     0.162 A 
ATOM     14  C   UNL     1     -27.652 -19.749 -10.201  1.00  0.00     0.068 A 
ATOM     15  C   UNL     1     -29.125 -20.194  -8.318  1.00  0.00     0.200 A 
ATOM     16  C   UNL     1     -28.613 -19.312  -9.279  1.00  0.00     0.162 A 
BRANCH  13  17
ATOM     17  O   UNL     1     -29.113 -22.459  -7.341  1.00  0.00    -0.504 OA
ATOM     18  H   UNL     1     -29.735 -22.236  -6.578  1.00  0.00     0.293 HD
ENDBRANCH  13  17
BRANCH  15  19
ATOM     19  O   UNL     1     -30.086 -19.708  -7.427  1.00  0.00    -0.502 OA
ATOM     20  H   UNL     1     -30.134 -19.961  -6.452  1.00  0.00     0.293 HD
ENDBRANCH  15  19
BRANCH  16  21
ATOM     21  O   UNL     1     -29.062 -17.992  -9.310  1.00  0.00    -0.504 OA
ATOM     22  H   UNL     1     -28.911 -17.361  -8.532  1.00  0.00     0.293 HD
ENDBRANCH  16  21
ENDBRANCH   1  11
BRANCH  10  23
ATOM     23  O   UNL     1     -24.713 -19.649 -10.693  1.00  0.00    -0.500 OA
ATOM     24  H   UNL     1     -23.771 -19.293 -10.577  1.00  0.00     0.294 HD
ENDBRANCH  10  23
BRANCH   5  25
ATOM     25  O   UNL     1     -25.341 -26.130 -14.926  1.00  0.00    -0.507 OA
ATOM     26  H   UNL     1     -24.745 -26.518 -15.647  1.00  0.00     0.293 HD
ENDBRANCH   5  25
BRANCH   7  27
ATOM     27  O   UNL     1     -22.161 -22.614 -14.168  1.00  0.00    -0.507 OA
ATOM     28  H   UNL     1     -21.299 -22.869 -13.708  1.00  0.00     0.293 HD
ENDBRANCH   7  27
TORSDOF 7
ENDMDL
MODEL 4
REMARK VINA RESULT:    -7.340      3.998      5.638
REMARK INTER + INTRA:          -9.387
REMARK INTER:                  -9.133
REMARK INTRA:                  -0.254
REMARK UNBOUND:                -0.331
REMARK SMILES Oc1cc(O)c2cc(O)c(-c3cc(O)c(O)c(O)c3)[o+]c2c1
REMARK SMILES IDX 10 1 20 2 21 3 22 4 2 5 3 6 4 7 6 8 7 9 8 10 11 11 12 12
REMARK SMILES IDX 13 13 19 14 15 15 17 16 14 17 16 19 18 21 9 23 1 25 5 27
REMARK H PARENT 14 18 16 20 18 22 9 24 1 26 5 28
REMARK Flexibility Score: inf
ROOT
ATOM      1  C   UNL     1     -26.244 -21.655 -11.112  1.00  0.00     0.402 A 
ATOM      2  O   UNL     1     -26.664 -22.520 -12.032  1.00  0.00    -0.202 OA
ATOM      3  C   UNL     1     -25.876 -23.018 -12.979  1.00  0.00     0.368 A 
ATOM      4  C   UNL     1     -26.409 -23.924 -13.899  1.00  0.00     0.162 A 
ATOM      5  C   UNL     1     -25.602 -24.467 -14.903  1.00  0.00     0.128 A 
ATOM      6  C   UNL     1     -24.256 -24.101 -14.987  1.00  0.00     0.093 A 
ATOM      7  C   UNL     1     -23.698 -23.196 -14.077  1.00  0.00     0.136 A 
ATOM      8  C   UNL     1     -24.513 -22.641 -13.057  1.00  0.00     0.125 A 
ATOM      9  C   UNL     1     -24.044 -21.716 -12.110  1.00  0.00     0.078 A 
ATOM     10  C   UNL     1     -24.909 -21.209 -11.137  1.00  0.00     0.223 A 
ENDROOT
BRANCH   1  11
ATOM     11  C   UNL     1     -27.216 -21.179 -10.102  1.00  0.00     0.091 A 
ATOM     12  C   UNL     1     -27.663 -19.850 -10.146  1.00  0.00     0.068 A 
ATOM     13  C   UNL     1     -28.596 -19.372  -9.220  1.00  0.00     0.162 A 
ATOM     14  C   UNL     1     -27.745 -22.045  -9.132  1.00  0.00     0.068 A 
ATOM     15  C   UNL     1     -29.109 -20.245  -8.231  1.00  0.00     0.200 A 
ATOM     16  C   UNL     1     -28.681 -21.579  -8.199  1.00  0.00     0.162 A 
BRANCH  13  17
ATOM     17  O   UNL     1     -28.985 -18.035  -9.320  1.00  0.00    -0.504 OA
ATOM     18  H   UNL     1     -28.954 -17.499 -10.175  1.00  0.00     0.293 HD
ENDBRANCH  13  17
BRANCH  15  19
ATOM     19  O   UNL     1     -30.038 -19.831  -7.274  1.00  0.00    -0.502 OA
ATOM     20  H   UNL     1     -30.215 -20.319  -6.408  1.00  0.00     0.293 HD
ENDBRANCH  15  19
BRANCH  16  21
ATOM     21  O   UNL     1     -29.197 -22.444  -7.235  1.00  0.00    -0.504 OA
ATOM     22  H   UNL     1     -29.851 -23.179  -7.476  1.00  0.00     0.293 HD
ENDBRANCH  16  21
ENDBRANCH   1  11
BRANCH  10  23
ATOM     23  O   UNL     1     -24.456 -20.252 -10.227  1.00  0.00    -0.500 OA
ATOM     24  H   UNL     1     -23.468 -20.096 -10.068  1.00  0.00     0.294 HD
ENDBRANCH  10  23
BRANCH   5  25
ATOM     25  O   UNL     1     -26.127 -25.371 -15.824  1.00  0.00    -0.507 OA
ATOM     26  H   UNL     1     -26.715 -26.142 -15.533  1.00  0.00     0.293 HD
ENDBRANCH   5  25
BRANCH   7  27
ATOM     27  O   UNL     1     -22.343 -22.884 -14.227  1.00  0.00    -0.507 OA
ATOM     28  H   UNL     1     -21.624 -23.558 -14.445  1.00  0.00     0.293 HD
ENDBRANCH   7  27
TORSDOF 7
ENDMDL
MODEL 5
REMARK VINA RESULT:    -7.274      4.240      7.906
REMARK INTER + INTRA:          -9.306
REMARK INTER:                  -8.934
REMARK INTRA:                  -0.372
REMARK UNBOUND:                -0.331
REMARK SMILES Oc1cc(O)c2cc(O)c(-c3cc(O)c(O)c(O)c3)[o+]c2c1
REMARK SMILES IDX 10 1 20 2 21 3 22 4 2 5 3 6 4 7 6 8 7 9 8 10 11 11 12 12
REMARK SMILES IDX 13 13 19 14 15 15 17 16 14 17 16 19 18 21 9 23 1 25 5 27
REMARK H PARENT 14 18 16 20 18 22 9 24 1 26 5 28
REMARK Flexibility Score: inf
ROOT
ATOM      1  C   UNL     1     -26.177 -23.834 -10.515  1.00  0.00     0.402 A 
ATOM      2  O   UNL     1     -26.590 -24.041 -11.762  1.00  0.00    -0.202 OA
ATOM      3  C   UNL     1     -25.913 -23.636 -12.831  1.00  0.00     0.368 A 
ATOM      4  C   UNL     1     -26.428 -23.903 -14.103  1.00  0.00     0.162 A 
ATOM      5  C   UNL     1     -25.735 -23.491 -15.245  1.00  0.00     0.128 A 
ATOM      6  C   UNL     1     -24.522 -22.809 -15.114  1.00  0.00     0.093 A 
ATOM      7  C   UNL     1     -23.986 -22.530 -13.851  1.00  0.00     0.136 A 
ATOM      8  C   UNL     1     -24.686 -22.944 -12.689  1.00  0.00     0.125 A 
ATOM      9  C   UNL     1     -24.232 -22.695 -11.384  1.00  0.00     0.078 A 
ATOM     10  C   UNL     1     -24.980 -23.130 -10.286  1.00  0.00     0.223 A 
ENDROOT
BRANCH   1  11
ATOM     11  C   UNL     1     -27.017 -24.344  -9.405  1.00  0.00     0.091 A 
ATOM     12  C   UNL     1     -28.170 -23.639  -9.033  1.00  0.00     0.068 A 
ATOM     13  C   UNL     1     -28.997 -24.102  -8.003  1.00  0.00     0.162 A 
ATOM     14  C   UNL     1     -26.712 -25.549  -8.754  1.00  0.00     0.068 A 
ATOM     15  C   UNL     1     -28.672 -25.306  -7.335  1.00  0.00     0.200 A 
ATOM     16  C   UNL     1     -27.532 -26.024  -7.721  1.00  0.00     0.162 A 
BRANCH  13  17
ATOM     17  O   UNL     1     -30.122 -23.340  -7.681  1.00  0.00    -0.504 OA
ATOM     18  H   UNL     1     -30.782 -22.991  -8.360  1.00  0.00     0.293 HD
ENDBRANCH  13  17
BRANCH  15  19
ATOM     19  O   UNL     1     -29.451 -25.821  -6.296  1.00  0.00    -0.502 OA
ATOM     20  H   UNL     1     -29.076 -26.155  -5.419  1.00  0.00     0.293 HD
ENDBRANCH  15  19
BRANCH  16  21
ATOM     21  O   UNL     1     -27.220 -27.219  -7.074  1.00  0.00    -0.504 OA
ATOM     22  H   UNL     1     -26.293 -27.395  -6.702  1.00  0.00     0.293 HD
ENDBRANCH  16  21
ENDBRANCH   1  11
BRANCH  10  23
ATOM     23  O   UNL     1     -24.555 -22.840  -8.989  1.00  0.00    -0.500 OA
ATOM     24  H   UNL     1     -24.557 -21.893  -8.629  1.00  0.00     0.294 HD
ENDBRANCH  10  23
BRANCH   5  25
ATOM     25  O   UNL     1     -26.241 -23.754 -16.516  1.00  0.00    -0.507 OA
ATOM     26  H   UNL     1     -25.630 -23.914 -17.307  1.00  0.00     0.293 HD
ENDBRANCH   5  25
BRANCH   7  27
ATOM     27  O   UNL     1     -22.767 -21.846 -13.807  1.00  0.00    -0.507 OA
ATOM     28  H   UNL     1     -22.088 -21.938 -13.065  1.00  0.00     0.293 HD
ENDBRANCH   7  27
TORSDOF 7
ENDMDL
MODEL 6
REMARK VINA RESULT:    -7.078      5.002      8.370
REMARK INTER + INTRA:          -9.064
REMARK INTER:                  -8.881
REMARK INTRA:                  -0.184
REMARK UNBOUND:                -0.331
REMARK SMILES Oc1cc(O)c2cc(O)c(-c3cc(O)c(O)c(O)c3)[o+]c2c1
REMARK SMILES IDX 10 1 20 2 21 3 22 4 2 5 3 6 4 7 6 8 7 9 8 10 11 11 12 12
REMARK SMILES IDX 13 13 19 14 15 15 17 16 14 17 16 19 18 21 9 23 1 25 5 27
REMARK H PARENT 14 18 16 20 18 22 9 24 1 26 5 28
REMARK Flexibility Score: inf
ROOT
ATOM      1  C   UNL     1     -27.336 -21.081  -9.751  1.00  0.00     0.402 A 
ATOM      2  O   UNL     1     -27.812 -21.394  -8.549  1.00  0.00    -0.202 OA
ATOM      3  C   UNL     1     -28.469 -20.534  -7.778  1.00  0.00     0.368 A 
ATOM      4  C   UNL     1     -28.934 -20.957  -6.531  1.00  0.00     0.162 A 
ATOM      5  C   UNL     1     -29.632 -20.074  -5.701  1.00  0.00     0.128 A 
ATOM      6  C   UNL     1     -29.864 -18.762  -6.121  1.00  0.00     0.093 A 
ATOM      7  C   UNL     1     -29.409 -18.314  -7.367  1.00  0.00     0.136 A 
ATOM      8  C   UNL     1     -28.699 -19.205  -8.212  1.00  0.00     0.125 A 
ATOM      9  C   UNL     1     -28.193 -18.840  -9.470  1.00  0.00     0.078 A 
ATOM     10  C   UNL     1     -27.499 -19.773 -10.245  1.00  0.00     0.223 A 
ENDROOT
BRANCH   1  11
ATOM     11  C   UNL     1     -26.628 -22.132 -10.520  1.00  0.00     0.091 A 
ATOM     12  C   UNL     1     -25.543 -22.801  -9.936  1.00  0.00     0.068 A 
ATOM     13  C   UNL     1     -24.865 -23.812 -10.625  1.00  0.00     0.162 A 
ATOM     14  C   UNL     1     -27.056 -22.511 -11.801  1.00  0.00     0.068 A 
ATOM     15  C   UNL     1     -25.287 -24.175 -11.925  1.00  0.00     0.200 A 
ATOM     16  C   UNL     1     -26.386 -23.523 -12.502  1.00  0.00     0.162 A 
BRANCH  13  17
ATOM     17  O   UNL     1     -23.787 -24.426  -9.983  1.00  0.00    -0.504 OA
ATOM     18  H   UNL     1     -22.866 -24.518 -10.386  1.00  0.00     0.293 HD
ENDBRANCH  13  17
BRANCH  15  19
ATOM     19  O   UNL     1     -24.651 -25.172 -12.670  1.00  0.00    -0.502 OA
ATOM     20  H   UNL     1     -24.898 -26.150 -12.634  1.00  0.00     0.293 HD
ENDBRANCH  15  19
BRANCH  16  21
ATOM     21  O   UNL     1     -26.812 -23.891 -13.777  1.00  0.00    -0.504 OA
ATOM     22  H   UNL     1     -27.333 -24.746 -13.938  1.00  0.00     0.293 HD
ENDBRANCH  16  21
ENDBRANCH   1  11
BRANCH  10  23
ATOM     23  O   UNL     1     -26.953 -19.397 -11.473  1.00  0.00    -0.500 OA
ATOM     24  H   UNL     1     -26.007 -19.042 -11.547  1.00  0.00     0.294 HD
ENDBRANCH  10  23
BRANCH   5  25
ATOM     25  O   UNL     1     -30.098 -20.489  -4.456  1.00  0.00    -0.507 OA
ATOM     26  H   UNL     1     -31.088 -20.600  -4.271  1.00  0.00     0.293 HD
ENDBRANCH   5  25
BRANCH   7  27
ATOM     27  O   UNL     1     -29.685 -16.988  -7.715  1.00  0.00    -0.507 OA
ATOM     28  H   UNL     1     -29.032 -16.224  -7.617  1.00  0.00     0.293 HD
ENDBRANCH   7  27
TORSDOF 7
ENDMDL
MODEL 7
REMARK VINA RESULT:    -7.012      4.111      6.083
REMARK INTER + INTRA:          -8.983
REMARK INTER:                  -8.710
REMARK INTRA:                  -0.273
REMARK UNBOUND:                -0.331
REMARK SMILES Oc1cc(O)c2cc(O)c(-c3cc(O)c(O)c(O)c3)[o+]c2c1
REMARK SMILES IDX 10 1 20 2 21 3 22 4 2 5 3 6 4 7 6 8 7 9 8 10 11 11 12 12
REMARK SMILES IDX 13 13 19 14 15 15 17 16 14 17 16 19 18 21 9 23 1 25 5 27
REMARK H PARENT 14 18 16 20 18 22 9 24 1 26 5 28
REMARK Flexibility Score: inf
ROOT
ATOM      1  C   UNL     1     -27.144 -21.705 -10.650  1.00  0.00     0.402 A 
ATOM      2  O   UNL     1     -25.962 -21.354 -11.147  1.00  0.00    -0.202 OA
ATOM      3  C   UNL     1     -25.332 -22.046 -12.091  1.00  0.00     0.368 A 
ATOM      4  C   UNL     1     -24.093 -21.595 -12.552  1.00  0.00     0.162 A 
ATOM      5  C   UNL     1     -23.411 -22.301 -13.547  1.00  0.00     0.128 A 
ATOM      6  C   UNL     1     -23.971 -23.464 -14.083  1.00  0.00     0.093 A 
ATOM      7  C   UNL     1     -25.212 -23.936 -13.638  1.00  0.00     0.136 A 
ATOM      8  C   UNL     1     -25.907 -23.224 -12.627  1.00  0.00     0.125 A 
ATOM      9  C   UNL     1     -27.148 -23.630 -12.110  1.00  0.00     0.078 A 
ATOM     10  C   UNL     1     -27.771 -22.879 -11.110  1.00  0.00     0.223 A 
ENDROOT
BRANCH   1  11
ATOM     11  C   UNL     1     -27.749 -20.845  -9.606  1.00  0.00     0.091 A 
ATOM     12  C   UNL     1     -28.277 -19.596  -9.962  1.00  0.00     0.068 A 
ATOM     13  C   UNL     1     -28.874 -18.767  -9.006  1.00  0.00     0.162 A 
ATOM     14  C   UNL     1     -27.855 -21.278  -8.275  1.00  0.00     0.068 A 
ATOM     15  C   UNL     1     -28.958 -19.200  -7.661  1.00  0.00     0.200 A 
ATOM     16  C   UNL     1     -28.451 -20.458  -7.308  1.00  0.00     0.162 A 
BRANCH  13  17
ATOM     17  O   UNL     1     -29.367 -17.533  -9.433  1.00  0.00    -0.504 OA
ATOM     18  H   UNL     1     -30.343 -17.345  -9.612  1.00  0.00     0.293 HD
ENDBRANCH  13  17
BRANCH  15  19
ATOM     19  O   UNL     1     -29.536 -18.420  -6.656  1.00  0.00    -0.502 OA
ATOM     20  H   UNL     1     -29.688 -18.737  -5.710  1.00  0.00     0.293 HD
ENDBRANCH  15  19
BRANCH  16  21
ATOM     21  O   UNL     1     -28.547 -20.892  -5.986  1.00  0.00    -0.504 OA
ATOM     22  H   UNL     1     -29.056 -21.733  -5.739  1.00  0.00     0.293 HD
ENDBRANCH  16  21
ENDBRANCH   1  11
BRANCH  10  23
ATOM     23  O   UNL     1     -28.980 -23.308 -10.561  1.00  0.00    -0.500 OA
ATOM     24  H   UNL     1     -29.009 -23.943  -9.772  1.00  0.00     0.294 HD
ENDBRANCH  10  23
BRANCH   5  25
ATOM     25  O   UNL     1     -22.174 -21.857 -14.012  1.00  0.00    -0.507 OA
ATOM     26  H   UNL     1     -21.738 -22.265 -14.830  1.00  0.00     0.293 HD
ENDBRANCH   5  25
BRANCH   7  27
ATOM     27  O   UNL     1     -25.704 -25.104 -14.227  1.00  0.00    -0.507 OA
ATOM     28  H   UNL     1     -26.359 -25.734 -13.785  1.00  0.00     0.293 HD
ENDBRANCH   7  27
TORSDOF 7
ENDMDL
MODEL 8
REMARK VINA RESULT:    -6.939      4.107      6.006
REMARK INTER + INTRA:          -8.892
REMARK INTER:                  -8.623
REMARK INTRA:                  -0.269
REMARK UNBOUND:                -0.331
REMARK SMILES Oc1cc(O)c2cc(O)c(-c3cc(O)c(O)c(O)c3)[o+]c2c1
REMARK SMILES IDX 10 1 20 2 21 3 22 4 2 5 3 6 4 7 6 8 7 9 8 10 11 11 12 12
REMARK SMILES IDX 13 13 19 14 15 15 17 16 14 17 16 19 18 21 9 23 1 25 5 27
REMARK H PARENT 14 18 16 20 18 22 9 24 1 26 5 28
REMARK Flexibility Score: inf
ROOT
ATOM      1  C   UNL     1     -27.175 -21.683 -10.673  1.00  0.00     0.402 A 
ATOM      2  O   UNL     1     -25.995 -21.318 -11.167  1.00  0.00    -0.202 OA
ATOM      3  C   UNL     1     -25.345 -22.014 -12.094  1.00  0.00     0.368 A 
ATOM      4  C   UNL     1     -24.111 -21.548 -12.553  1.00  0.00     0.162 A 
ATOM      5  C   UNL     1     -23.408 -22.259 -13.529  1.00  0.00     0.128 A 
ATOM      6  C   UNL     1     -23.941 -23.441 -14.049  1.00  0.00     0.093 A 
ATOM      7  C   UNL     1     -25.177 -23.929 -13.605  1.00  0.00     0.136 A 
ATOM      8  C   UNL     1     -25.894 -23.212 -12.613  1.00  0.00     0.125 A 
ATOM      9  C   UNL     1     -27.131 -23.633 -12.098  1.00  0.00     0.078 A 
ATOM     10  C   UNL     1     -27.776 -22.876 -11.117  1.00  0.00     0.223 A 
ENDROOT
BRANCH   1  11
ATOM     11  C   UNL     1     -27.804 -20.816  -9.649  1.00  0.00     0.091 A 
ATOM     12  C   UNL     1     -27.860 -21.250  -8.317  1.00  0.00     0.068 A 
ATOM     13  C   UNL     1     -28.429 -20.449  -7.321  1.00  0.00     0.162 A 
ATOM     14  C   UNL     1     -28.297 -19.543  -9.974  1.00  0.00     0.068 A 
ATOM     15  C   UNL     1     -28.944 -19.176  -7.659  1.00  0.00     0.200 A 
ATOM     16  C   UNL     1     -28.869 -18.730  -8.986  1.00  0.00     0.162 A 
BRANCH  13  17
ATOM     17  O   UNL     1     -28.459 -20.954  -6.019  1.00  0.00    -0.504 OA
ATOM     18  H   UNL     1     -28.348 -21.930  -5.788  1.00  0.00     0.293 HD
ENDBRANCH  13  17
BRANCH  15  19
ATOM     19  O   UNL     1     -29.530 -18.328  -6.715  1.00  0.00    -0.502 OA
ATOM     20  H   UNL     1     -29.160 -17.425  -6.458  1.00  0.00     0.293 HD
ENDBRANCH  15  19
BRANCH  16  21
ATOM     21  O   UNL     1     -29.363 -17.469  -9.317  1.00  0.00    -0.504 OA
ATOM     22  H   UNL     1     -30.291 -17.171  -9.036  1.00  0.00     0.293 HD
ENDBRANCH  16  21
ENDBRANCH   1  11
BRANCH  10  23
ATOM     23  O   UNL     1     -28.981 -23.318 -10.570  1.00  0.00    -0.500 OA
ATOM     24  H   UNL     1     -29.024 -23.738  -9.648  1.00  0.00     0.294 HD
ENDBRANCH  10  23
BRANCH   5  25
ATOM     25  O   UNL     1     -22.176 -21.800 -13.992  1.00  0.00    -0.507 OA
ATOM     26  H   UNL     1     -22.104 -21.221 -14.820  1.00  0.00     0.293 HD
ENDBRANCH   5  25
BRANCH   7  27
ATOM     27  O   UNL     1     -25.643 -25.117 -14.177  1.00  0.00    -0.507 OA
ATOM     28  H   UNL     1     -26.009 -25.897 -13.651  1.00  0.00     0.293 HD
ENDBRANCH   7  27
TORSDOF 7
ENDMDL
MODEL 9
REMARK VINA RESULT:    -6.929      3.721      7.594
REMARK INTER + INTRA:          -8.880
REMARK INTER:                  -8.601
REMARK INTRA:                  -0.279
REMARK UNBOUND:                -0.331
REMARK SMILES Oc1cc(O)c2cc(O)c(-c3cc(O)c(O)c(O)c3)[o+]c2c1
REMARK SMILES IDX 10 1 20 2 21 3 22 4 2 5 3 6 4 7 6 8 7 9 8 10 11 11 12 12
REMARK SMILES IDX 13 13 19 14 15 15 17 16 14 17 16 19 18 21 9 23 1 25 5 27
REMARK H PARENT 14 18 16 20 18 22 9 24 1 26 5 28
REMARK Flexibility Score: inf
ROOT
ATOM      1  C   UNL     1     -26.517 -23.127 -10.910  1.00  0.00     0.402 A 
ATOM      2  O   UNL     1     -26.418 -23.666 -12.122  1.00  0.00    -0.202 OA
ATOM      3  C   UNL     1     -25.916 -23.019 -13.169  1.00  0.00     0.368 A 
ATOM      4  C   UNL     1     -25.850 -23.671 -14.402  1.00  0.00     0.162 A 
ATOM      5  C   UNL     1     -25.323 -23.016 -15.519  1.00  0.00     0.128 A 
ATOM      6  C   UNL     1     -24.861 -21.703 -15.401  1.00  0.00     0.093 A 
ATOM      7  C   UNL     1     -24.915 -21.028 -14.176  1.00  0.00     0.136 A 
ATOM      8  C   UNL     1     -25.451 -21.688 -13.040  1.00  0.00     0.125 A 
ATOM      9  C   UNL     1     -25.558 -21.085 -11.775  1.00  0.00     0.078 A 
ATOM     10  C   UNL     1     -26.102 -21.798 -10.703  1.00  0.00     0.223 A 
ENDROOT
BRANCH   1  11
ATOM     11  C   UNL     1     -27.087 -23.954  -9.820  1.00  0.00     0.091 A 
ATOM     12  C   UNL     1     -26.325 -24.998  -9.276  1.00  0.00     0.068 A 
ATOM     13  C   UNL     1     -26.823 -25.786  -8.233  1.00  0.00     0.162 A 
ATOM     14  C   UNL     1     -28.353 -23.679  -9.281  1.00  0.00     0.068 A 
ATOM     15  C   UNL     1     -28.109 -25.518  -7.708  1.00  0.00     0.200 A 
ATOM     16  C   UNL     1     -28.863 -24.460  -8.235  1.00  0.00     0.162 A 
BRANCH  13  17
ATOM     17  O   UNL     1     -26.011 -26.814  -7.750  1.00  0.00    -0.504 OA
ATOM     18  H   UNL     1     -25.910 -27.713  -8.199  1.00  0.00     0.293 HD
ENDBRANCH  13  17
BRANCH  15  19
ATOM     19  O   UNL     1     -28.669 -26.269  -6.671  1.00  0.00    -0.502 OA
ATOM     20  H   UNL     1     -29.235 -27.093  -6.810  1.00  0.00     0.293 HD
ENDBRANCH  15  19
BRANCH  16  21
ATOM     21  O   UNL     1     -30.125 -24.186  -7.709  1.00  0.00    -0.504 OA
ATOM     22  H   UNL     1     -30.876 -23.827  -8.288  1.00  0.00     0.293 HD
ENDBRANCH  16  21
ENDBRANCH   1  11
BRANCH  10  23
ATOM     23  O   UNL     1     -26.255 -21.184  -9.460  1.00  0.00    -0.500 OA
ATOM     24  H   UNL     1     -26.994 -21.454  -8.821  1.00  0.00     0.294 HD
ENDBRANCH  10  23
BRANCH   5  25
ATOM     25  O   UNL     1     -25.254 -23.660 -16.753  1.00  0.00    -0.507 OA
ATOM     26  H   UNL     1     -25.657 -23.251 -17.588  1.00  0.00     0.293 HD
ENDBRANCH   5  25
BRANCH   7  27
ATOM     27  O   UNL     1     -24.430 -19.717 -14.140  1.00  0.00    -0.507 OA
ATOM     28  H   UNL     1     -24.352 -19.116 -14.948  1.00  0.00     0.293 HD
ENDBRANCH   7  27
TORSDOF 7
ENDMDL
