MODEL 1
REMARK VINA RESULT:    -4.167      0.000      0.000
REMARK INTER + INTRA:         -13.083
REMARK INTER:                  -9.526
REMARK INTRA:                  -3.556
REMARK UNBOUND:                -3.556
REMARK SMILES CCCCCCCCCCCCCCCCCCCCCCCC(=O)[O-]
REMARK SMILES IDX 13 1 14 2 15 3 16 4 17 5 18 6 19 7 20 8 21 9 22 10 23 11
REMARK SMILES IDX 24 12 25 13 26 14 12 15 11 16 10 17 9 18 8 19 7 20 6 21 5 22
REMARK SMILES IDX 4 23 3 24 2 25 1 26
REMARK H PARENT
REMARK Flexibility Score: inf
ROOT
ATOM      1  C   UNL     1     -22.893   5.861  21.337  1.00  0.00     0.000 C 
ENDROOT
BRANCH   1   2
ATOM      2  C   UNL     1     -24.077   6.804  21.081  1.00  0.00     0.000 C 
BRANCH   2   3
ATOM      3  C   UNL     1     -23.658   7.978  20.182  1.00  0.00     0.000 C 
BRANCH   3   4
ATOM      4  C   UNL     1     -22.149   8.263  20.242  1.00  0.00     0.000 C 
BRANCH   4   5
ATOM      5  C   UNL     1     -21.481   8.214  18.856  1.00  0.00     0.000 C 
BRANCH   5   6
ATOM      6  C   UNL     1     -22.344   7.488  17.812  1.00  0.00     0.000 C 
BRANCH   6   7
ATOM      7  C   UNL     1     -21.547   6.460  16.995  1.00  0.00     0.000 C 
BRANCH   7   8
ATOM      8  C   UNL     1     -20.510   7.157  16.102  1.00  0.00     0.000 C 
BRANCH   8   9
ATOM      9  C   UNL     1     -19.152   6.431  16.078  1.00  0.00     0.000 C 
BRANCH   9  10
ATOM     10  C   UNL     1     -18.282   6.639  17.331  1.00  0.00     0.006 C 
BRANCH  10  11
ATOM     11  C   UNL     1     -18.108   5.359  18.158  1.00  0.00     0.053 C 
BRANCH  11  12
ATOM     12  C   UNL     1     -17.946   5.692  19.607  1.00  0.00     0.041 C 
ATOM     13  O   UNL     1     -17.340   4.899  20.376  1.00  0.00    -0.550 OA
ATOM     14  O   UNL     1     -18.507   6.853  20.119  1.00  0.00    -0.550 OA
ENDBRANCH  11  12
ENDBRANCH  10  11
ENDBRANCH   9  10
ENDBRANCH   8   9
ENDBRANCH   7   8
ENDBRANCH   6   7
ENDBRANCH   5   6
ENDBRANCH   4   5
ENDBRANCH   3   4
ENDBRANCH   2   3
ENDBRANCH   1   2
BRANCH   1  15
ATOM     15  C   UNL     1     -22.835   4.695  20.336  1.00  0.00     0.000 C 
BRANCH  15  16
ATOM     16  C   UNL     1     -21.401   4.356  19.904  1.00  0.00     0.000 C 
BRANCH  16  17
ATOM     17  C   UNL     1     -20.681   3.531  20.978  1.00  0.00     0.000 C 
BRANCH  17  18
ATOM     18  C   UNL     1     -20.148   2.217  20.392  1.00  0.00    -0.000 C 
BRANCH  18  19
ATOM     19  C   UNL     1     -21.104   1.031  20.612  1.00  0.00    -0.000 C 
BRANCH  19  20
ATOM     20  C   UNL     1     -22.148   1.227  21.730  1.00  0.00    -0.000 C 
BRANCH  20  21
ATOM     21  C   UNL     1     -23.601   0.917  21.330  1.00  0.00    -0.000 C 
BRANCH  21  22
ATOM     22  C   UNL     1     -24.596   1.979  21.820  1.00  0.00    -0.000 C 
BRANCH  22  23
ATOM     23  C   UNL     1     -25.321   1.504  23.088  1.00  0.00    -0.000 C 
BRANCH  23  24
ATOM     24  C   UNL     1     -25.202   2.506  24.248  1.00  0.00    -0.000 C 
BRANCH  24  25
ATOM     25  C   UNL     1     -24.942   3.941  23.765  1.00  0.00    -0.003 C 
ATOM     26  C   UNL     1     -26.054   4.883  24.220  1.00  0.00     0.004 C 
ENDBRANCH  24  25
ENDBRANCH  23  24
ENDBRANCH  22  23
ENDBRANCH  21  22
ENDBRANCH  20  21
ENDBRANCH  19  20
ENDBRANCH  18  19
ENDBRANCH  17  18
ENDBRANCH  16  17
ENDBRANCH  15  16
ENDBRANCH   1  15
TORSDOF 22
ENDMDL
MODEL 2
REMARK VINA RESULT:    -3.977      1.696      4.440
REMARK INTER + INTRA:         -12.648
REMARK INTER:                  -8.916
REMARK INTRA:                  -3.733
REMARK UNBOUND:                -3.556
REMARK SMILES CCCCCCCCCCCCCCCCCCCCCCCC(=O)[O-]
REMARK SMILES IDX 13 1 14 2 15 3 16 4 17 5 18 6 19 7 20 8 21 9 22 10 23 11
REMARK SMILES IDX 24 12 25 13 26 14 12 15 11 16 10 17 9 18 8 19 7 20 6 21 5 22
REMARK SMILES IDX 4 23 3 24 2 25 1 26
REMARK H PARENT
REMARK Flexibility Score: inf
ROOT
ATOM      1  C   UNL     1     -20.494   5.154  20.559  1.00  0.00     0.000 C 
ENDROOT
BRANCH   1   2
ATOM      2  C   UNL     1     -19.183   5.230  19.764  1.00  0.00     0.000 C 
BRANCH   2   3
ATOM      3  C   UNL     1     -18.623   6.661  19.767  1.00  0.00     0.000 C 
BRANCH   3   4
ATOM      4  C   UNL     1     -18.398   7.215  18.351  1.00  0.00     0.000 C 
BRANCH   4   5
ATOM      5  C   UNL     1     -18.291   6.103  17.291  1.00  0.00     0.000 C 
BRANCH   5   6
ATOM      6  C   UNL     1     -18.975   6.483  15.968  1.00  0.00     0.000 C 
BRANCH   6   7
ATOM      7  C   UNL     1     -20.366   7.103  16.176  1.00  0.00     0.000 C 
BRANCH   7   8
ATOM      8  C   UNL     1     -21.403   6.019  16.505  1.00  0.00     0.000 C 
BRANCH   8   9
ATOM      9  C   UNL     1     -22.349   6.421  17.652  1.00  0.00     0.000 C 
BRANCH   9  10
ATOM     10  C   UNL     1     -22.045   7.786  18.296  1.00  0.00     0.006 C 
BRANCH  10  11
ATOM     11  C   UNL     1     -23.263   8.402  18.994  1.00  0.00     0.053 C 
BRANCH  11  12
ATOM     12  C   UNL     1     -23.256   8.064  20.451  1.00  0.00     0.041 C 
ATOM     13  O   UNL     1     -24.324   7.731  21.031  1.00  0.00    -0.550 OA
ATOM     14  O   UNL     1     -22.080   8.164  21.181  1.00  0.00    -0.550 OA
ENDBRANCH  11  12
ENDBRANCH  10  11
ENDBRANCH   9  10
ENDBRANCH   8   9
ENDBRANCH   7   8
ENDBRANCH   6   7
ENDBRANCH   5   6
ENDBRANCH   4   5
ENDBRANCH   3   4
ENDBRANCH   2   3
ENDBRANCH   1   2
BRANCH   1  15
ATOM     15  C   UNL     1     -21.424   4.034  20.065  1.00  0.00     0.000 C 
BRANCH  15  16
ATOM     16  C   UNL     1     -22.810   4.079  20.726  1.00  0.00     0.000 C 
BRANCH  16  17
ATOM     17  C   UNL     1     -22.739   4.735  22.111  1.00  0.00     0.000 C 
BRANCH  17  18
ATOM     18  C   UNL     1     -24.097   4.659  22.823  1.00  0.00    -0.000 C 
BRANCH  18  19
ATOM     19  C   UNL     1     -24.162   3.534  23.871  1.00  0.00    -0.000 C 
BRANCH  19  20
ATOM     20  C   UNL     1     -25.222   2.447  23.603  1.00  0.00    -0.000 C 
BRANCH  20  21
ATOM     21  C   UNL     1     -25.020   1.641  22.307  1.00  0.00    -0.000 C 
BRANCH  21  22
ATOM     22  C   UNL     1     -24.491   0.222  22.563  1.00  0.00    -0.000 C 
BRANCH  22  23
ATOM     23  C   UNL     1     -23.471  -0.183  21.489  1.00  0.00    -0.000 C 
BRANCH  23  24
ATOM     24  C   UNL     1     -22.098   0.476  21.699  1.00  0.00    -0.000 C 
BRANCH  24  25
ATOM     25  C   UNL     1     -21.212   0.409  20.445  1.00  0.00    -0.003 C 
ATOM     26  C   UNL     1     -19.803   0.914  20.742  1.00  0.00     0.004 C 
ENDBRANCH  24  25
ENDBRANCH  23  24
ENDBRANCH  22  23
ENDBRANCH  21  22
ENDBRANCH  20  21
ENDBRANCH  19  20
ENDBRANCH  18  19
ENDBRANCH  17  18
ENDBRANCH  16  17
ENDBRANCH  15  16
ENDBRANCH   1  15
TORSDOF 22
ENDMDL
MODEL 3
REMARK VINA RESULT:    -3.973      2.497      7.400
REMARK INTER + INTRA:         -12.640
REMARK INTER:                  -8.362
REMARK INTRA:                  -4.278
REMARK UNBOUND:                -3.556
REMARK SMILES CCCCCCCCCCCCCCCCCCCCCCCC(=O)[O-]
REMARK SMILES IDX 13 1 14 2 15 3 16 4 17 5 18 6 19 7 20 8 21 9 22 10 23 11
REMARK SMILES IDX 24 12 25 13 26 14 12 15 11 16 10 17 9 18 8 19 7 20 6 21 5 22
REMARK SMILES IDX 4 23 3 24 2 25 1 26
REMARK H PARENT
REMARK Flexibility Score: inf
ROOT
ATOM      1  C   UNL     1     -22.897   5.839  21.299  1.00  0.00     0.000 C 
ENDROOT
BRANCH   1   2
ATOM      2  C   UNL     1     -22.950   4.632  20.350  1.00  0.00     0.000 C 
BRANCH   2   3
ATOM      3  C   UNL     1     -21.534   4.178  19.962  1.00  0.00     0.000 C 
BRANCH   3   4
ATOM      4  C   UNL     1     -20.440   4.871  20.790  1.00  0.00     0.000 C 
BRANCH   4   5
ATOM      5  C   UNL     1     -19.735   3.909  21.763  1.00  0.00     0.000 C 
BRANCH   5   6
ATOM      6  C   UNL     1     -20.267   2.470  21.657  1.00  0.00     0.000 C 
BRANCH   6   7
ATOM      7  C   UNL     1     -20.737   1.911  23.009  1.00  0.00     0.000 C 
BRANCH   7   8
ATOM      8  C   UNL     1     -21.772   2.845  23.657  1.00  0.00     0.000 C 
BRANCH   8   9
ATOM      9  C   UNL     1     -23.215   2.542  23.212  1.00  0.00     0.000 C 
BRANCH   9  10
ATOM     10  C   UNL     1     -23.455   1.104  22.720  1.00  0.00     0.006 C 
BRANCH  10  11
ATOM     11  C   UNL     1     -23.725   1.025  21.212  1.00  0.00     0.053 C 
BRANCH  11  12
ATOM     12  C   UNL     1     -23.243  -0.281  20.664  1.00  0.00     0.041 C 
ATOM     13  O   UNL     1     -23.968  -1.308  20.740  1.00  0.00    -0.550 OA
ATOM     14  O   UNL     1     -21.972  -0.376  20.113  1.00  0.00    -0.550 OA
ENDBRANCH  11  12
ENDBRANCH  10  11
ENDBRANCH   9  10
ENDBRANCH   8   9
ENDBRANCH   7   8
ENDBRANCH   6   7
ENDBRANCH   5   6
ENDBRANCH   4   5
ENDBRANCH   3   4
ENDBRANCH   2   3
ENDBRANCH   1   2
BRANCH   1  15
ATOM     15  C   UNL     1     -24.086   6.795  21.111  1.00  0.00     0.000 C 
BRANCH  15  16
ATOM     16  C   UNL     1     -23.732   8.019  20.254  1.00  0.00     0.000 C 
BRANCH  16  17
ATOM     17  C   UNL     1     -22.212   8.174  20.114  1.00  0.00     0.000 C 
BRANCH  17  18
ATOM     18  C   UNL     1     -21.812   8.339  18.642  1.00  0.00    -0.000 C 
BRANCH  18  19
ATOM     19  C   UNL     1     -22.415   7.254  17.732  1.00  0.00    -0.000 C 
BRANCH  19  20
ATOM     20  C   UNL     1     -21.389   6.362  17.005  1.00  0.00    -0.000 C 
BRANCH  20  21
ATOM     21  C   UNL     1     -20.436   7.103  16.051  1.00  0.00    -0.000 C 
BRANCH  21  22
ATOM     22  C   UNL     1     -18.956   6.796  16.325  1.00  0.00    -0.000 C 
BRANCH  22  23
ATOM     23  C   UNL     1     -18.773   6.201  17.728  1.00  0.00    -0.000 C 
BRANCH  23  24
ATOM     24  C   UNL     1     -18.267   7.235  18.747  1.00  0.00    -0.000 C 
BRANCH  24  25
ATOM     25  C   UNL     1     -17.288   6.632  19.766  1.00  0.00    -0.003 C 
ATOM     26  C   UNL     1     -16.998   5.168  19.447  1.00  0.00     0.004 C 
ENDBRANCH  24  25
ENDBRANCH  23  24
ENDBRANCH  22  23
ENDBRANCH  21  22
ENDBRANCH  20  21
ENDBRANCH  19  20
ENDBRANCH  18  19
ENDBRANCH  17  18
ENDBRANCH  16  17
ENDBRANCH  15  16
ENDBRANCH   1  15
TORSDOF 22
ENDMDL
MODEL 4
REMARK VINA RESULT:    -3.973      2.253      7.389
REMARK INTER + INTRA:         -12.638
REMARK INTER:                  -8.193
REMARK INTRA:                  -4.446
REMARK UNBOUND:                -3.556
REMARK SMILES CCCCCCCCCCCCCCCCCCCCCCCC(=O)[O-]
REMARK SMILES IDX 13 1 14 2 15 3 16 4 17 5 18 6 19 7 20 8 21 9 22 10 23 11
REMARK SMILES IDX 24 12 25 13 26 14 12 15 11 16 10 17 9 18 8 19 7 20 6 21 5 22
REMARK SMILES IDX 4 23 3 24 2 25 1 26
REMARK H PARENT
REMARK Flexibility Score: inf
ROOT
ATOM      1  C   UNL     1     -22.482   4.374  20.151  1.00  0.00     0.000 C 
ENDROOT
BRANCH   1   2
ATOM      2  C   UNL     1     -21.173   3.571  20.119  1.00  0.00     0.000 C 
BRANCH   2   3
ATOM      3  C   UNL     1     -20.645   3.327  21.542  1.00  0.00     0.000 C 
BRANCH   3   4
ATOM      4  C   UNL     1     -20.490   1.834  21.870  1.00  0.00     0.000 C 
BRANCH   4   5
ATOM      5  C   UNL     1     -20.751   0.929  20.652  1.00  0.00     0.000 C 
BRANCH   5   6
ATOM      6  C   UNL     1     -21.556  -0.329  21.015  1.00  0.00     0.000 C 
BRANCH   6   7
ATOM      7  C   UNL     1     -23.015  -0.256  20.540  1.00  0.00     0.000 C 
BRANCH   7   8
ATOM      8  C   UNL     1     -23.941   0.181  21.686  1.00  0.00     0.000 C 
BRANCH   8   9
ATOM      9  C   UNL     1     -24.368   1.657  21.582  1.00  0.00     0.000 C 
BRANCH   9  10
ATOM     10  C   UNL     1     -24.650   2.348  22.928  1.00  0.00     0.006 C 
BRANCH  10  11
ATOM     11  C   UNL     1     -23.416   2.417  23.835  1.00  0.00     0.053 C 
BRANCH  11  12
ATOM     12  C   UNL     1     -23.261   3.793  24.402  1.00  0.00     0.041 C 
ATOM     13  O   UNL     1     -22.114   4.251  24.650  1.00  0.00    -0.550 OA
ATOM     14  O   UNL     1     -24.384   4.551  24.701  1.00  0.00    -0.550 OA
ENDBRANCH  11  12
ENDBRANCH  10  11
ENDBRANCH   9  10
ENDBRANCH   8   9
ENDBRANCH   7   8
ENDBRANCH   6   7
ENDBRANCH   5   6
ENDBRANCH   4   5
ENDBRANCH   3   4
ENDBRANCH   2   3
ENDBRANCH   1   2
BRANCH   1  15
ATOM     15  C   UNL     1     -22.456   5.510  21.187  1.00  0.00     0.000 C 
BRANCH  15  16
ATOM     16  C   UNL     1     -23.854   6.071  21.486  1.00  0.00     0.000 C 
BRANCH  16  17
ATOM     17  C   UNL     1     -24.081   7.404  20.761  1.00  0.00     0.000 C 
BRANCH  17  18
ATOM     18  C   UNL     1     -22.759   8.164  20.589  1.00  0.00    -0.000 C 
BRANCH  18  19
ATOM     19  C   UNL     1     -22.516   8.624  19.140  1.00  0.00    -0.000 C 
BRANCH  19  20
ATOM     20  C   UNL     1     -22.691   7.530  18.067  1.00  0.00    -0.000 C 
BRANCH  20  21
ATOM     21  C   UNL     1     -21.470   7.303  17.158  1.00  0.00    -0.000 C 
BRANCH  21  22
ATOM     22  C   UNL     1     -20.435   6.351  17.774  1.00  0.00    -0.000 C 
BRANCH  22  23
ATOM     23  C   UNL     1     -19.257   7.135  18.369  1.00  0.00    -0.000 C 
BRANCH  23  24
ATOM     24  C   UNL     1     -19.210   7.057  19.904  1.00  0.00    -0.000 C 
BRANCH  24  25
ATOM     25  C   UNL     1     -18.345   5.893  20.411  1.00  0.00    -0.003 C 
ATOM     26  C   UNL     1     -17.142   5.666  19.500  1.00  0.00     0.004 C 
ENDBRANCH  24  25
ENDBRANCH  23  24
ENDBRANCH  22  23
ENDBRANCH  21  22
ENDBRANCH  20  21
ENDBRANCH  19  20
ENDBRANCH  18  19
ENDBRANCH  17  18
ENDBRANCH  16  17
ENDBRANCH  15  16
ENDBRANCH   1  15
TORSDOF 22
ENDMDL
MODEL 5
REMARK VINA RESULT:    -3.926      2.385      7.469
REMARK INTER + INTRA:         -12.531
REMARK INTER:                  -8.786
REMARK INTRA:                  -3.745
REMARK UNBOUND:                -3.556
REMARK SMILES CCCCCCCCCCCCCCCCCCCCCCCC(=O)[O-]
REMARK SMILES IDX 13 1 14 2 15 3 16 4 17 5 18 6 19 7 20 8 21 9 22 10 23 11
REMARK SMILES IDX 24 12 25 13 26 14 12 15 11 16 10 17 9 18 8 19 7 20 6 21 5 22
REMARK SMILES IDX 4 23 3 24 2 25 1 26
REMARK H PARENT
REMARK Flexibility Score: inf
ROOT
ATOM      1  C   UNL     1     -22.982   5.465  21.308  1.00  0.00     0.000 C 
ENDROOT
BRANCH   1   2
ATOM      2  C   UNL     1     -22.750   4.736  19.976  1.00  0.00     0.000 C 
BRANCH   2   3
ATOM      3  C   UNL     1     -21.350   4.101  19.936  1.00  0.00     0.000 C 
BRANCH   3   4
ATOM      4  C   UNL     1     -20.973   3.412  21.257  1.00  0.00     0.000 C 
BRANCH   4   5
ATOM      5  C   UNL     1     -20.397   2.000  21.045  1.00  0.00     0.000 C 
BRANCH   5   6
ATOM      6  C   UNL     1     -21.441   1.014  20.497  1.00  0.00     0.000 C 
BRANCH   6   7
ATOM      7  C   UNL     1     -22.320   0.407  21.601  1.00  0.00     0.000 C 
BRANCH   7   8
ATOM      8  C   UNL     1     -23.791   0.809  21.411  1.00  0.00     0.000 C 
BRANCH   8   9
ATOM      9  C   UNL     1     -24.168   2.089  22.181  1.00  0.00     0.000 C 
BRANCH   9  10
ATOM     10  C   UNL     1     -25.466   1.993  23.003  1.00  0.00     0.006 C 
BRANCH  10  11
ATOM     11  C   UNL     1     -25.306   2.519  24.435  1.00  0.00     0.053 C 
BRANCH  11  12
ATOM     12  C   UNL     1     -24.961   3.975  24.421  1.00  0.00     0.041 C 
ATOM     13  O   UNL     1     -23.970   4.399  25.072  1.00  0.00    -0.550 OA
ATOM     14  O   UNL     1     -25.762   4.871  23.727  1.00  0.00    -0.550 OA
ENDBRANCH  11  12
ENDBRANCH  10  11
ENDBRANCH   9  10
ENDBRANCH   8   9
ENDBRANCH   7   8
ENDBRANCH   6   7
ENDBRANCH   5   6
ENDBRANCH   4   5
ENDBRANCH   3   4
ENDBRANCH   2   3
ENDBRANCH   1   2
BRANCH   1  15
ATOM     15  C   UNL     1     -23.802   6.755  21.143  1.00  0.00     0.000 C 
BRANCH  15  16
ATOM     16  C   UNL     1     -22.936   7.961  20.750  1.00  0.00     0.000 C 
BRANCH  16  17
ATOM     17  C   UNL     1     -23.267   8.440  19.332  1.00  0.00     0.000 C 
BRANCH  17  18
ATOM     18  C   UNL     1     -22.116   8.127  18.366  1.00  0.00    -0.000 C 
BRANCH  18  19
ATOM     19  C   UNL     1     -22.490   7.071  17.311  1.00  0.00    -0.000 C 
BRANCH  19  20
ATOM     20  C   UNL     1     -21.317   6.208  16.802  1.00  0.00    -0.000 C 
BRANCH  20  21
ATOM     21  C   UNL     1     -20.254   6.964  15.986  1.00  0.00    -0.000 C 
BRANCH  21  22
ATOM     22  C   UNL     1     -18.826   6.727  16.498  1.00  0.00    -0.000 C 
BRANCH  22  23
ATOM     23  C   UNL     1     -18.842   6.220  17.947  1.00  0.00    -0.000 C 
BRANCH  23  24
ATOM     24  C   UNL     1     -18.546   7.332  18.966  1.00  0.00    -0.000 C 
BRANCH  24  25
ATOM     25  C   UNL     1     -19.230   7.090  20.320  1.00  0.00    -0.003 C 
ATOM     26  C   UNL     1     -18.434   6.101  21.168  1.00  0.00     0.004 C 
ENDBRANCH  24  25
ENDBRANCH  23  24
ENDBRANCH  22  23
ENDBRANCH  21  22
ENDBRANCH  20  21
ENDBRANCH  19  20
ENDBRANCH  18  19
ENDBRANCH  17  18
ENDBRANCH  16  17
ENDBRANCH  15  16
ENDBRANCH   1  15
TORSDOF 22
ENDMDL
MODEL 6
REMARK VINA RESULT:    -3.916      1.248      2.562
REMARK INTER + INTRA:         -12.508
REMARK INTER:                  -8.719
REMARK INTRA:                  -3.789
REMARK UNBOUND:                -3.556
REMARK SMILES CCCCCCCCCCCCCCCCCCCCCCCC(=O)[O-]
REMARK SMILES IDX 13 1 14 2 15 3 16 4 17 5 18 6 19 7 20 8 21 9 22 10 23 11
REMARK SMILES IDX 24 12 25 13 26 14 12 15 11 16 10 17 9 18 8 19 7 20 6 21 5 22
REMARK SMILES IDX 4 23 3 24 2 25 1 26
REMARK H PARENT
REMARK Flexibility Score: inf
ROOT
ATOM      1  C   UNL     1     -23.614   7.971  20.219  1.00  0.00     0.000 C 
ENDROOT
BRANCH   1   2
ATOM      2  C   UNL     1     -22.251   7.783  19.536  1.00  0.00     0.000 C 
BRANCH   2   3
ATOM      3  C   UNL     1     -22.416   7.640  18.015  1.00  0.00     0.000 C 
BRANCH   3   4
ATOM      4  C   UNL     1     -22.256   6.189  17.534  1.00  0.00     0.000 C 
BRANCH   4   5
ATOM      5  C   UNL     1     -21.447   6.083  16.229  1.00  0.00     0.000 C 
BRANCH   5   6
ATOM      6  C   UNL     1     -20.241   7.036  16.205  1.00  0.00     0.000 C 
BRANCH   6   7
ATOM      7  C   UNL     1     -18.900   6.295  16.095  1.00  0.00     0.000 C 
BRANCH   7   8
ATOM      8  C   UNL     1     -17.970   6.672  17.258  1.00  0.00     0.000 C 
BRANCH   8   9
ATOM      9  C   UNL     1     -18.723   7.282  18.456  1.00  0.00     0.000 C 
BRANCH   9  10
ATOM     10  C   UNL     1     -18.751   6.404  19.720  1.00  0.00     0.006 C 
BRANCH  10  11
ATOM     11  C   UNL     1     -19.417   5.042  19.487  1.00  0.00     0.053 C 
BRANCH  11  12
ATOM     12  C   UNL     1     -18.441   3.935  19.737  1.00  0.00     0.041 C 
ATOM     13  O   UNL     1     -17.231   4.196  19.971  1.00  0.00    -0.550 OA
ATOM     14  O   UNL     1     -18.857   2.613  19.663  1.00  0.00    -0.550 OA
ENDBRANCH  11  12
ENDBRANCH  10  11
ENDBRANCH   9  10
ENDBRANCH   8   9
ENDBRANCH   7   8
ENDBRANCH   6   7
ENDBRANCH   5   6
ENDBRANCH   4   5
ENDBRANCH   3   4
ENDBRANCH   2   3
ENDBRANCH   1   2
BRANCH   1  15
ATOM     15  C   UNL     1     -23.996   6.783  21.118  1.00  0.00     0.000 C 
BRANCH  15  16
ATOM     16  C   UNL     1     -22.829   5.811  21.342  1.00  0.00     0.000 C 
BRANCH  16  17
ATOM     17  C   UNL     1     -23.097   4.461  20.665  1.00  0.00     0.000 C 
BRANCH  17  18
ATOM     18  C   UNL     1     -22.141   3.384  21.196  1.00  0.00    -0.000 C 
BRANCH  18  19
ATOM     19  C   UNL     1     -22.714   1.961  21.074  1.00  0.00    -0.000 C 
BRANCH  19  20
ATOM     20  C   UNL     1     -23.464   1.445  22.319  1.00  0.00    -0.000 C 
BRANCH  20  21
ATOM     21  C   UNL     1     -24.986   1.674  22.308  1.00  0.00    -0.000 C 
BRANCH  21  22
ATOM     22  C   UNL     1     -25.501   2.328  23.598  1.00  0.00    -0.000 C 
BRANCH  22  23
ATOM     23  C   UNL     1     -25.073   3.800  23.674  1.00  0.00    -0.000 C 
BRANCH  23  24
ATOM     24  C   UNL     1     -25.117   4.356  25.106  1.00  0.00    -0.000 C 
BRANCH  24  25
ATOM     25  C   UNL     1     -23.736   4.362  25.781  1.00  0.00    -0.003 C 
ATOM     26  C   UNL     1     -22.624   4.154  24.756  1.00  0.00     0.004 C 
ENDBRANCH  24  25
ENDBRANCH  23  24
ENDBRANCH  22  23
ENDBRANCH  21  22
ENDBRANCH  20  21
ENDBRANCH  19  20
ENDBRANCH  18  19
ENDBRANCH  17  18
ENDBRANCH  16  17
ENDBRANCH  15  16
ENDBRANCH   1  15
TORSDOF 22
ENDMDL
MODEL 7
REMARK VINA RESULT:    -3.863      2.809      7.045
REMARK INTER + INTRA:         -12.387
REMARK INTER:                  -8.920
REMARK INTRA:                  -3.467
REMARK UNBOUND:                -3.556
REMARK SMILES CCCCCCCCCCCCCCCCCCCCCCCC(=O)[O-]
REMARK SMILES IDX 13 1 14 2 15 3 16 4 17 5 18 6 19 7 20 8 21 9 22 10 23 11
REMARK SMILES IDX 24 12 25 13 26 14 12 15 11 16 10 17 9 18 8 19 7 20 6 21 5 22
REMARK SMILES IDX 4 23 3 24 2 25 1 26
REMARK H PARENT
REMARK Flexibility Score: inf
ROOT
ATOM      1  C   UNL     1     -22.518   8.824  18.897  1.00  0.00     0.000 C 
ENDROOT
BRANCH   1   2
ATOM      2  C   UNL     1     -22.446   8.246  20.318  1.00  0.00     0.000 C 
BRANCH   2   3
ATOM      3  C   UNL     1     -23.855   8.034  20.895  1.00  0.00     0.000 C 
BRANCH   3   4
ATOM      4  C   UNL     1     -24.253   6.551  20.964  1.00  0.00     0.000 C 
BRANCH   4   5
ATOM      5  C   UNL     1     -23.149   5.670  21.576  1.00  0.00     0.000 C 
BRANCH   5   6
ATOM      6  C   UNL     1     -23.677   4.302  22.038  1.00  0.00     0.000 C 
BRANCH   6   7
ATOM      7  C   UNL     1     -24.551   4.399  23.298  1.00  0.00     0.000 C 
BRANCH   7   8
ATOM      8  C   UNL     1     -24.866   3.001  23.853  1.00  0.00     0.000 C 
BRANCH   8   9
ATOM      9  C   UNL     1     -23.919   1.913  23.312  1.00  0.00     0.000 C 
BRANCH   9  10
ATOM     10  C   UNL     1     -24.617   0.739  22.604  1.00  0.00     0.006 C 
BRANCH  10  11
ATOM     11  C   UNL     1     -23.840   0.229  21.384  1.00  0.00     0.053 C 
BRANCH  11  12
ATOM     12  C   UNL     1     -23.643  -1.252  21.473  1.00  0.00     0.041 C 
ATOM     13  O   UNL     1     -22.572  -1.722  21.942  1.00  0.00    -0.550 OA
ATOM     14  O   UNL     1     -24.619  -2.113  20.992  1.00  0.00    -0.550 OA
ENDBRANCH  11  12
ENDBRANCH  10  11
ENDBRANCH   9  10
ENDBRANCH   8   9
ENDBRANCH   7   8
ENDBRANCH   6   7
ENDBRANCH   5   6
ENDBRANCH   4   5
ENDBRANCH   3   4
ENDBRANCH   2   3
ENDBRANCH   1   2
BRANCH   1  15
ATOM     15  C   UNL     1     -21.608   8.080  17.906  1.00  0.00     0.000 C 
BRANCH  15  16
ATOM     16  C   UNL     1     -22.086   6.648  17.626  1.00  0.00     0.000 C 
BRANCH  16  17
ATOM     17  C   UNL     1     -21.431   6.086  16.357  1.00  0.00     0.000 C 
BRANCH  17  18
ATOM     18  C   UNL     1     -20.149   6.858  16.016  1.00  0.00    -0.000 C 
BRANCH  18  19
ATOM     19  C   UNL     1     -18.869   6.099  16.410  1.00  0.00    -0.000 C 
BRANCH  19  20
ATOM     20  C   UNL     1     -17.969   6.818  17.435  1.00  0.00    -0.000 C 
BRANCH  20  21
ATOM     21  C   UNL     1     -17.900   6.156  18.823  1.00  0.00    -0.000 C 
BRANCH  21  22
ATOM     22  C   UNL     1     -18.906   6.749  19.820  1.00  0.00    -0.000 C 
BRANCH  22  23
ATOM     23  C   UNL     1     -19.675   5.638  20.547  1.00  0.00    -0.000 C 
BRANCH  23  24
ATOM     24  C   UNL     1     -20.031   4.462  19.623  1.00  0.00    -0.000 C 
BRANCH  24  25
ATOM     25  C   UNL     1     -20.549   3.239  20.395  1.00  0.00    -0.003 C 
ATOM     26  C   UNL     1     -20.104   3.282  21.854  1.00  0.00     0.004 C 
ENDBRANCH  24  25
ENDBRANCH  23  24
ENDBRANCH  22  23
ENDBRANCH  21  22
ENDBRANCH  20  21
ENDBRANCH  19  20
ENDBRANCH  18  19
ENDBRANCH  17  18
ENDBRANCH  16  17
ENDBRANCH  15  16
ENDBRANCH   1  15
TORSDOF 22
ENDMDL
MODEL 8
REMARK VINA RESULT:    -3.834      2.713      7.832
REMARK INTER + INTRA:         -12.321
REMARK INTER:                  -8.916
REMARK INTRA:                  -3.405
REMARK UNBOUND:                -3.556
REMARK SMILES CCCCCCCCCCCCCCCCCCCCCCCC(=O)[O-]
REMARK SMILES IDX 13 1 14 2 15 3 16 4 17 5 18 6 19 7 20 8 21 9 22 10 23 11
REMARK SMILES IDX 24 12 25 13 26 14 12 15 11 16 10 17 9 18 8 19 7 20 6 21 5 22
REMARK SMILES IDX 4 23 3 24 2 25 1 26
REMARK H PARENT
REMARK Flexibility Score: inf
ROOT
ATOM      1  C   UNL     1     -23.208   5.443  20.662  1.00  0.00     0.000 C 
ENDROOT
BRANCH   1   2
ATOM      2  C   UNL     1     -23.515   4.218  21.537  1.00  0.00     0.000 C 
BRANCH   2   3
ATOM      3  C   UNL     1     -22.668   4.235  22.819  1.00  0.00     0.000 C 
BRANCH   3   4
ATOM      4  C   UNL     1     -23.523   4.202  24.096  1.00  0.00     0.000 C 
BRANCH   4   5
ATOM      5  C   UNL     1     -25.011   4.482  23.819  1.00  0.00     0.000 C 
BRANCH   5   6
ATOM      6  C   UNL     1     -25.932   3.394  24.397  1.00  0.00     0.000 C 
BRANCH   6   7
ATOM      7  C   UNL     1     -26.123   2.209  23.438  1.00  0.00     0.000 C 
BRANCH   7   8
ATOM      8  C   UNL     1     -26.014   0.874  24.191  1.00  0.00     0.000 C 
BRANCH   8   9
ATOM      9  C   UNL     1     -24.976  -0.081  23.573  1.00  0.00     0.000 C 
BRANCH   9  10
ATOM     10  C   UNL     1     -23.528   0.442  23.579  1.00  0.00     0.006 C 
BRANCH  10  11
ATOM     11  C   UNL     1     -22.927   0.554  22.173  1.00  0.00     0.053 C 
BRANCH  11  12
ATOM     12  C   UNL     1     -23.033  -0.754  21.454  1.00  0.00     0.041 C 
ATOM     13  O   UNL     1     -22.429  -1.769  21.891  1.00  0.00    -0.550 OA
ATOM     14  O   UNL     1     -23.760  -0.841  20.275  1.00  0.00    -0.550 OA
ENDBRANCH  11  12
ENDBRANCH  10  11
ENDBRANCH   9  10
ENDBRANCH   8   9
ENDBRANCH   7   8
ENDBRANCH   6   7
ENDBRANCH   5   6
ENDBRANCH   4   5
ENDBRANCH   3   4
ENDBRANCH   2   3
ENDBRANCH   1   2
BRANCH   1  15
ATOM     15  C   UNL     1     -24.009   6.687  21.080  1.00  0.00     0.000 C 
BRANCH  15  16
ATOM     16  C   UNL     1     -23.367   7.995  20.596  1.00  0.00     0.000 C 
BRANCH  16  17
ATOM     17  C   UNL     1     -21.837   7.923  20.680  1.00  0.00     0.000 C 
BRANCH  17  18
ATOM     18  C   UNL     1     -21.194   8.383  19.364  1.00  0.00    -0.000 C 
BRANCH  18  19
ATOM     19  C   UNL     1     -22.016   7.986  18.125  1.00  0.00    -0.000 C 
BRANCH  19  20
ATOM     20  C   UNL     1     -21.450   6.803  17.314  1.00  0.00    -0.000 C 
BRANCH  20  21
ATOM     21  C   UNL     1     -20.581   7.195  16.105  1.00  0.00    -0.000 C 
BRANCH  21  22
ATOM     22  C   UNL     1     -19.218   6.488  16.095  1.00  0.00    -0.000 C 
BRANCH  22  23
ATOM     23  C   UNL     1     -18.477   6.710  17.420  1.00  0.00    -0.000 C 
BRANCH  23  24
ATOM     24  C   UNL     1     -18.263   5.405  18.205  1.00  0.00    -0.000 C 
BRANCH  24  25
ATOM     25  C   UNL     1     -18.873   5.456  19.614  1.00  0.00    -0.003 C 
ATOM     26  C   UNL     1     -19.898   4.342  19.808  1.00  0.00     0.004 C 
ENDBRANCH  24  25
ENDBRANCH  23  24
ENDBRANCH  22  23
ENDBRANCH  21  22
ENDBRANCH  20  21
ENDBRANCH  19  20
ENDBRANCH  18  19
ENDBRANCH  17  18
ENDBRANCH  16  17
ENDBRANCH  15  16
ENDBRANCH   1  15
TORSDOF 22
ENDMDL
MODEL 9
REMARK VINA RESULT:    -3.807      1.485      3.561
REMARK INTER + INTRA:         -12.259
REMARK INTER:                  -7.677
REMARK INTRA:                  -4.582
REMARK UNBOUND:                -3.556
REMARK SMILES CCCCCCCCCCCCCCCCCCCCCCCC(=O)[O-]
REMARK SMILES IDX 13 1 14 2 15 3 16 4 17 5 18 6 19 7 20 8 21 9 22 10 23 11
REMARK SMILES IDX 24 12 25 13 26 14 12 15 11 16 10 17 9 18 8 19 7 20 6 21 5 22
REMARK SMILES IDX 4 23 3 24 2 25 1 26
REMARK H PARENT
REMARK Flexibility Score: inf
ROOT
ATOM      1  C   UNL     1     -21.509   4.430  20.578  1.00  0.00     0.000 C 
ENDROOT
BRANCH   1   2
ATOM      2  C   UNL     1     -20.795   5.285  21.636  1.00  0.00     0.000 C 
BRANCH   2   3
ATOM      3  C   UNL     1     -20.121   6.505  20.990  1.00  0.00     0.000 C 
BRANCH   3   4
ATOM      4  C   UNL     1     -20.610   7.837  21.582  1.00  0.00     0.000 C 
BRANCH   4   5
ATOM      5  C   UNL     1     -21.379   8.693  20.560  1.00  0.00     0.000 C 
BRANCH   5   6
ATOM      6  C   UNL     1     -22.884   8.380  20.543  1.00  0.00     0.000 C 
BRANCH   6   7
ATOM      7  C   UNL     1     -23.340   7.726  19.230  1.00  0.00     0.000 C 
BRANCH   7   8
ATOM      8  C   UNL     1     -22.252   7.848  18.152  1.00  0.00     0.000 C 
BRANCH   8   9
ATOM      9  C   UNL     1     -21.838   6.488  17.560  1.00  0.00     0.000 C 
BRANCH   9  10
ATOM     10  C   UNL     1     -20.503   6.492  16.795  1.00  0.00     0.006 C 
BRANCH  10  11
ATOM     11  C   UNL     1     -19.396   7.260  17.528  1.00  0.00     0.053 C 
BRANCH  11  12
ATOM     12  C   UNL     1     -18.206   6.379  17.745  1.00  0.00     0.041 C 
ATOM     13  O   UNL     1     -17.046   6.809  17.505  1.00  0.00    -0.550 OA
ATOM     14  O   UNL     1     -18.380   5.068  18.166  1.00  0.00    -0.550 OA
ENDBRANCH  11  12
ENDBRANCH  10  11
ENDBRANCH   9  10
ENDBRANCH   8   9
ENDBRANCH   7   8
ENDBRANCH   6   7
ENDBRANCH   5   6
ENDBRANCH   4   5
ENDBRANCH   3   4
ENDBRANCH   2   3
ENDBRANCH   1   2
BRANCH   1  15
ATOM     15  C   UNL     1     -22.970   4.126  20.947  1.00  0.00     0.000 C 
BRANCH  15  16
ATOM     16  C   UNL     1     -23.575   5.179  21.887  1.00  0.00     0.000 C 
BRANCH  16  17
ATOM     17  C   UNL     1     -24.186   4.522  23.131  1.00  0.00     0.000 C 
BRANCH  17  18
ATOM     18  C   UNL     1     -23.252   3.441  23.693  1.00  0.00    -0.000 C 
BRANCH  18  19
ATOM     19  C   UNL     1     -24.011   2.276  24.353  1.00  0.00    -0.000 C 
BRANCH  19  20
ATOM     20  C   UNL     1     -23.931   0.932  23.601  1.00  0.00    -0.000 C 
BRANCH  20  21
ATOM     21  C   UNL     1     -24.573   0.924  22.202  1.00  0.00    -0.000 C 
BRANCH  21  22
ATOM     22  C   UNL     1     -23.585   0.534  21.094  1.00  0.00    -0.000 C 
BRANCH  22  23
ATOM     23  C   UNL     1     -22.173   0.339  21.663  1.00  0.00    -0.000 C 
BRANCH  23  24
ATOM     24  C   UNL     1     -21.074   0.794  20.688  1.00  0.00    -0.000 C 
BRANCH  24  25
ATOM     25  C   UNL     1     -19.773   1.186  21.405  1.00  0.00    -0.003 C 
ATOM     26  C   UNL     1     -20.062   1.768  22.786  1.00  0.00     0.004 C 
ENDBRANCH  24  25
ENDBRANCH  23  24
ENDBRANCH  22  23
ENDBRANCH  21  22
ENDBRANCH  20  21
ENDBRANCH  19  20
ENDBRANCH  18  19
ENDBRANCH  17  18
ENDBRANCH  16  17
ENDBRANCH  15  16
ENDBRANCH   1  15
TORSDOF 22
ENDMDL
