MODEL 1
REMARK VINA RESULT:    -6.102      0.000      0.000
REMARK INTER + INTRA:         -10.026
REMARK INTER:                  -8.956
REMARK INTRA:                  -1.070
REMARK UNBOUND:                -1.070
REMARK SMILES O=c1c(O[C@H]2O[C@@H](CO)[C@H](O)[C@H](O)[C@H]2O)c(-c2ccc(O)c(O)c2)oc2cc(O)cc(O)c12
REMARK SMILES IDX 4 1 3 2 16 3 25 4 2 5 26 6 1 7 33 8 27 9 31 10 28 11 30 12
REMARK SMILES IDX 17 13 18 14 19 15 20 16 24 17 22 18 21 19 23 21 32 23 29 25
REMARK SMILES IDX 5 27 14 28 6 29 12 30 7 31 10 32 15 33 13 35 8 37 9 38 11 40
REMARK H PARENT 21 20 23 22 32 24 29 26 15 34 13 36 9 39 11 41
REMARK Flexibility Score: inf
ROOT
ATOM      1  O   UNL     1     -11.573   8.402   5.451  1.00  0.00    -0.454 OA
ENDROOT
BRANCH   1   2
ATOM      2  C   UNL     1     -10.222   8.654   5.755  1.00  0.00     0.214 A 
ATOM      3  C   UNL     1      -9.543   7.736   6.580  1.00  0.00     0.180 A 
ATOM      4  O   UNL     1      -8.289   7.968   6.950  1.00  0.00    -0.452 OA
ATOM      5  C   UNL     1      -9.520   9.789   5.295  1.00  0.00     0.239 A 
ATOM      6  C   UNL     1      -7.599   9.030   6.557  1.00  0.00     0.146 A 
ATOM      7  O   UNL     1     -10.079  10.609   4.520  1.00  0.00    -0.285 OA
ATOM      8  C   UNL     1      -8.183   9.990   5.698  1.00  0.00     0.111 A 
ATOM      9  C   UNL     1      -6.283   9.188   7.004  1.00  0.00     0.094 A 
ATOM     10  C   UNL     1      -7.411  11.106   5.291  1.00  0.00     0.134 A 
ATOM     11  C   UNL     1      -5.528  10.288   6.598  1.00  0.00     0.123 A 
ATOM     12  C   UNL     1      -6.088  11.241   5.740  1.00  0.00     0.093 A 
BRANCH   3  13
ATOM     13  C   UNL     1     -10.207   6.514   7.088  1.00  0.00     0.025 A 
ATOM     14  C   UNL     1     -10.410   6.358   8.466  1.00  0.00     0.016 A 
ATOM     15  C   UNL     1     -11.055   5.224   8.959  1.00  0.00     0.051 A 
ATOM     16  C   UNL     1     -11.497   4.219   8.091  1.00  0.00     0.157 A 
ATOM     17  C   UNL     1     -10.616   5.491   6.215  1.00  0.00     0.062 A 
ATOM     18  C   UNL     1     -11.261   4.348   6.701  1.00  0.00     0.158 A 
BRANCH  16  19
ATOM     19  O   UNL     1     -12.161   3.123   8.644  1.00  0.00    -0.504 OA
ATOM     20  H   UNL     1     -12.463   2.319   8.111  1.00  0.00     0.293 HD
ENDBRANCH  16  19
BRANCH  18  21
ATOM     21  O   UNL     1     -11.632   3.367   5.781  1.00  0.00    -0.504 OA
ATOM     22  H   UNL     1     -11.839   3.552   4.809  1.00  0.00     0.293 HD
ENDBRANCH  18  21
ENDBRANCH   3  13
BRANCH  10  23
ATOM     23  O   UNL     1      -7.943  12.076   4.438  1.00  0.00    -0.507 OA
ATOM     24  H   UNL     1      -7.893  13.064   4.658  1.00  0.00     0.293 HD
ENDBRANCH  10  23
BRANCH  11  25
ATOM     25  O   UNL     1      -4.215  10.422   7.043  1.00  0.00    -0.508 OA
ATOM     26  H   UNL     1      -3.924  10.071   7.948  1.00  0.00     0.293 HD
ENDBRANCH  11  25
ENDBRANCH   1   2
BRANCH   1  27
ATOM     27  C   UNL     1     -12.710   9.057   6.013  1.00  0.00     0.339 C 
ATOM     28  C   UNL     1     -13.639   9.546   4.859  1.00  0.00     0.214 C 
ATOM     29  O   UNL     1     -12.254  10.122   6.842  1.00  0.00    -0.332 OA
ATOM     30  C   UNL     1     -13.464  11.054   4.641  1.00  0.00     0.180 C 
ATOM     31  C   UNL     1     -13.325  10.981   7.190  1.00  0.00     0.179 C 
ATOM     32  C   UNL     1     -13.752  11.822   5.956  1.00  0.00     0.177 C 
BRANCH  28  33
ATOM     33  O   UNL     1     -13.369   8.862   3.661  1.00  0.00    -0.384 OA
ATOM     34  H   UNL     1     -14.017   8.111   3.612  1.00  0.00     0.211 HD
ENDBRANCH  28  33
BRANCH  30  35
ATOM     35  O   UNL     1     -14.312  11.487   3.609  1.00  0.00    -0.387 OA
ATOM     36  H   UNL     1     -14.342  12.477   3.663  1.00  0.00     0.211 HD
ENDBRANCH  30  35
BRANCH  31  37
ATOM     37  C   UNL     1     -12.891  11.883   8.350  1.00  0.00     0.191 C 
BRANCH  37  38
ATOM     38  O   UNL     1     -11.511  11.757   8.555  1.00  0.00    -0.394 OA
ATOM     39  H   UNL     1     -11.367  11.821   9.536  1.00  0.00     0.210 HD
ENDBRANCH  37  38
ENDBRANCH  31  37
BRANCH  32  40
ATOM     40  O   UNL     1     -15.123  12.124   6.044  1.00  0.00    -0.387 OA
ATOM     41  H   UNL     1     -15.226  13.079   5.790  1.00  0.00     0.211 HD
ENDBRANCH  32  40
ENDBRANCH   1  27
TORSDOF 12
ENDMDL
MODEL 2
REMARK VINA RESULT:    -4.807      1.707      6.018
REMARK INTER + INTRA:          -8.125
REMARK INTER:                  -8.084
REMARK INTRA:                  -0.041
REMARK UNBOUND:                -1.070
REMARK SMILES O=c1c(O[C@H]2O[C@@H](CO)[C@H](O)[C@H](O)[C@H]2O)c(-c2ccc(O)c(O)c2)oc2cc(O)cc(O)c12
REMARK SMILES IDX 4 1 3 2 16 3 25 4 2 5 26 6 1 7 33 8 27 9 31 10 28 11 30 12
REMARK SMILES IDX 17 13 18 14 19 15 20 16 24 17 22 18 21 19 23 21 32 23 29 25
REMARK SMILES IDX 5 27 14 28 6 29 12 30 7 31 10 32 15 33 13 35 8 37 9 38 11 40
REMARK H PARENT 21 20 23 22 32 24 29 26 15 34 13 36 9 39 11 41
REMARK Flexibility Score: inf
ROOT
ATOM      1  O   UNL     1     -10.687  10.613   6.098  1.00  0.00    -0.454 OA
ENDROOT
BRANCH   1   2
ATOM      2  C   UNL     1     -10.593   9.209   6.120  1.00  0.00     0.214 A 
ATOM      3  C   UNL     1      -9.309   8.629   6.143  1.00  0.00     0.180 A 
ATOM      4  O   UNL     1      -9.170   7.309   6.094  1.00  0.00    -0.452 OA
ATOM      5  C   UNL     1     -11.715   8.353   6.098  1.00  0.00     0.239 A 
ATOM      6  C   UNL     1     -10.195   6.470   6.054  1.00  0.00     0.146 A 
ATOM      7  O   UNL     1     -12.879   8.833   6.123  1.00  0.00    -0.285 OA
ATOM      8  C   UNL     1     -11.524   6.955   6.064  1.00  0.00     0.111 A 
ATOM      9  C   UNL     1      -9.945   5.095   6.000  1.00  0.00     0.094 A 
ATOM     10  C   UNL     1     -12.593   6.028   6.031  1.00  0.00     0.134 A 
ATOM     11  C   UNL     1     -11.004   4.186   5.970  1.00  0.00     0.123 A 
ATOM     12  C   UNL     1     -12.323   4.651   5.990  1.00  0.00     0.093 A 
BRANCH   3  13
ATOM     13  C   UNL     1      -8.085   9.460   6.182  1.00  0.00     0.025 A 
ATOM     14  C   UNL     1      -7.350   9.668   5.007  1.00  0.00     0.016 A 
ATOM     15  C   UNL     1      -6.208  10.468   5.023  1.00  0.00     0.051 A 
ATOM     16  C   UNL     1      -5.769  11.064   6.212  1.00  0.00     0.157 A 
ATOM     17  C   UNL     1      -7.628  10.025   7.386  1.00  0.00     0.062 A 
ATOM     18  C   UNL     1      -6.481  10.826   7.412  1.00  0.00     0.158 A 
BRANCH  16  19
ATOM     19  O   UNL     1      -4.635  11.876   6.156  1.00  0.00    -0.504 OA
ATOM     20  H   UNL     1      -4.079  12.010   5.322  1.00  0.00     0.293 HD
ENDBRANCH  16  19
BRANCH  18  21
ATOM     21  O   UNL     1      -6.077  11.349   8.642  1.00  0.00    -0.504 OA
ATOM     22  H   UNL     1      -6.621  12.006   9.183  1.00  0.00     0.293 HD
ENDBRANCH  18  21
ENDBRANCH   3  13
BRANCH  10  23
ATOM     23  O   UNL     1     -13.921   6.460   6.046  1.00  0.00    -0.507 OA
ATOM     24  H   UNL     1     -14.678   5.848   6.329  1.00  0.00     0.293 HD
ENDBRANCH  10  23
BRANCH  11  25
ATOM     25  O   UNL     1     -10.735   2.820   5.930  1.00  0.00    -0.508 OA
ATOM     26  H   UNL     1     -10.735   2.256   6.772  1.00  0.00     0.293 HD
ENDBRANCH  11  25
ENDBRANCH   1   2
BRANCH   1  27
ATOM     27  C   UNL     1     -11.361  11.406   5.122  1.00  0.00     0.339 C 
ATOM     28  C   UNL     1     -12.773  11.791   5.662  1.00  0.00     0.214 C 
ATOM     29  O   UNL     1     -11.421  10.671   3.903  1.00  0.00    -0.332 OA
ATOM     30  C   UNL     1     -13.848  10.914   5.009  1.00  0.00     0.180 C 
ATOM     31  C   UNL     1     -12.322  11.276   2.994  1.00  0.00     0.179 C 
ATOM     32  C   UNL     1     -13.784  11.049   3.467  1.00  0.00     0.177 C 
BRANCH  28  33
ATOM     33  O   UNL     1     -12.839  11.655   7.060  1.00  0.00    -0.384 OA
ATOM     34  H   UNL     1     -12.408  12.463   7.444  1.00  0.00     0.211 HD
ENDBRANCH  28  33
BRANCH  30  35
ATOM     35  O   UNL     1     -15.115  11.276   5.493  1.00  0.00    -0.387 OA
ATOM     36  H   UNL     1     -15.208  10.855   6.387  1.00  0.00     0.211 HD
ENDBRANCH  30  35
BRANCH  31  37
ATOM     37  C   UNL     1     -12.095  10.692   1.596  1.00  0.00     0.191 C 
BRANCH  37  38
ATOM     38  O   UNL     1     -11.310  11.571   0.839  1.00  0.00    -0.394 OA
ATOM     39  H   UNL     1     -11.332  12.443   1.313  1.00  0.00     0.210 HD
ENDBRANCH  37  38
ENDBRANCH  31  37
BRANCH  32  40
ATOM     40  O   UNL     1     -14.587  12.124   3.045  1.00  0.00    -0.387 OA
ATOM     41  H   UNL     1     -14.902  12.588   3.866  1.00  0.00     0.211 HD
ENDBRANCH  32  40
ENDBRANCH   1  27
TORSDOF 12
ENDMDL
MODEL 3
REMARK VINA RESULT:    -4.137      1.495      5.915
REMARK INTER + INTRA:          -7.142
REMARK INTER:                  -8.873
REMARK INTRA:                   1.731
REMARK UNBOUND:                -1.070
REMARK SMILES O=c1c(O[C@H]2O[C@@H](CO)[C@H](O)[C@H](O)[C@H]2O)c(-c2ccc(O)c(O)c2)oc2cc(O)cc(O)c12
REMARK SMILES IDX 4 1 3 2 16 3 25 4 2 5 26 6 1 7 33 8 27 9 31 10 28 11 30 12
REMARK SMILES IDX 17 13 18 14 19 15 20 16 24 17 22 18 21 19 23 21 32 23 29 25
REMARK SMILES IDX 5 27 14 28 6 29 12 30 7 31 10 32 15 33 13 35 8 37 9 38 11 40
REMARK H PARENT 21 20 23 22 32 24 29 26 15 34 13 36 9 39 11 41
REMARK Flexibility Score: inf
ROOT
ATOM      1  O   UNL     1     -10.473  10.292   5.403  1.00  0.00    -0.454 OA
ENDROOT
BRANCH   1   2
ATOM      2  C   UNL     1     -10.347   8.982   5.903  1.00  0.00     0.214 A 
ATOM      3  C   UNL     1      -9.079   8.560   6.348  1.00  0.00     0.180 A 
ATOM      4  O   UNL     1      -8.896   7.311   6.763  1.00  0.00    -0.452 OA
ATOM      5  C   UNL     1     -11.418   8.065   5.962  1.00  0.00     0.239 A 
ATOM      6  C   UNL     1      -9.869   6.412   6.816  1.00  0.00     0.146 A 
ATOM      7  O   UNL     1     -12.575   8.419   5.615  1.00  0.00    -0.285 OA
ATOM      8  C   UNL     1     -11.186   6.752   6.424  1.00  0.00     0.111 A 
ATOM      9  C   UNL     1      -9.577   5.120   7.265  1.00  0.00     0.094 A 
ATOM     10  C   UNL     1     -12.201   5.768   6.505  1.00  0.00     0.134 A 
ATOM     11  C   UNL     1     -10.582   4.156   7.344  1.00  0.00     0.123 A 
ATOM     12  C   UNL     1     -11.891   4.481   6.970  1.00  0.00     0.093 A 
BRANCH   3  13
ATOM     13  C   UNL     1      -7.911   9.469   6.333  1.00  0.00     0.025 A 
ATOM     14  C   UNL     1      -7.279   9.766   5.118  1.00  0.00     0.016 A 
ATOM     15  C   UNL     1      -6.192  10.640   5.084  1.00  0.00     0.051 A 
ATOM     16  C   UNL     1      -5.706  11.221   6.261  1.00  0.00     0.157 A 
ATOM     17  C   UNL     1      -7.403  10.021   7.522  1.00  0.00     0.062 A 
ATOM     18  C   UNL     1      -6.311  10.895   7.499  1.00  0.00     0.158 A 
BRANCH  16  19
ATOM     19  O   UNL     1      -4.634  12.109   6.156  1.00  0.00    -0.504 OA
ATOM     20  H   UNL     1      -4.609  13.018   6.597  1.00  0.00     0.293 HD
ENDBRANCH  16  19
BRANCH  18  21
ATOM     21  O   UNL     1      -5.852  11.401   8.716  1.00  0.00    -0.504 OA
ATOM     22  H   UNL     1      -5.319  10.865   9.386  1.00  0.00     0.293 HD
ENDBRANCH  18  21
ENDBRANCH   3  13
BRANCH  10  23
ATOM     23  O   UNL     1     -13.516   6.060   6.136  1.00  0.00    -0.507 OA
ATOM     24  H   UNL     1     -14.298   5.503   6.462  1.00  0.00     0.293 HD
ENDBRANCH  10  23
BRANCH  11  25
ATOM     25  O   UNL     1     -10.274   2.879   7.806  1.00  0.00    -0.508 OA
ATOM     26  H   UNL     1     -10.664   2.051   7.373  1.00  0.00     0.293 HD
ENDBRANCH  11  25
ENDBRANCH   1   2
BRANCH   1  27
ATOM     27  C   UNL     1     -11.634  11.119   5.466  1.00  0.00     0.339 C 
ATOM     28  C   UNL     1     -11.780  11.686   6.912  1.00  0.00     0.214 C 
ATOM     29  O   UNL     1     -12.761  10.349   5.061  1.00  0.00    -0.332 OA
ATOM     30  C   UNL     1     -12.862  10.915   7.677  1.00  0.00     0.180 C 
ATOM     31  C   UNL     1     -13.968  11.019   5.377  1.00  0.00     0.179 C 
ATOM     32  C   UNL     1     -14.208  10.981   6.912  1.00  0.00     0.177 C 
BRANCH  28  33
ATOM     33  O   UNL     1     -10.564  11.613   7.614  1.00  0.00    -0.384 OA
ATOM     34  H   UNL     1     -10.797  11.519   8.575  1.00  0.00     0.211 HD
ENDBRANCH  28  33
BRANCH  30  35
ATOM     35  O   UNL     1     -12.994  11.440   8.973  1.00  0.00    -0.387 OA
ATOM     36  H   UNL     1     -13.370  10.714   9.536  1.00  0.00     0.211 HD
ENDBRANCH  30  35
BRANCH  31  37
ATOM     37  C   UNL     1     -15.125  10.358   4.620  1.00  0.00     0.191 C 
BRANCH  37  38
ATOM     38  O   UNL     1     -15.094   8.973   4.826  1.00  0.00    -0.394 OA
ATOM     39  H   UNL     1     -14.409   8.811   5.527  1.00  0.00     0.210 HD
ENDBRANCH  37  38
ENDBRANCH  31  37
BRANCH  32  40
ATOM     40  O   UNL     1     -14.927  12.125   7.304  1.00  0.00    -0.387 OA
ATOM     41  H   UNL     1     -15.560  12.334   6.567  1.00  0.00     0.211 HD
ENDBRANCH  32  40
ENDBRANCH   1  27
TORSDOF 12
ENDMDL
MODEL 4
REMARK VINA RESULT:    -4.042      1.545      7.073
REMARK INTER + INTRA:          -7.002
REMARK INTER:                  -8.880
REMARK INTRA:                   1.878
REMARK UNBOUND:                -1.070
REMARK SMILES O=c1c(O[C@H]2O[C@@H](CO)[C@H](O)[C@H](O)[C@H]2O)c(-c2ccc(O)c(O)c2)oc2cc(O)cc(O)c12
REMARK SMILES IDX 4 1 3 2 16 3 25 4 2 5 26 6 1 7 33 8 27 9 31 10 28 11 30 12
REMARK SMILES IDX 17 13 18 14 19 15 20 16 24 17 22 18 21 19 23 21 32 23 29 25
REMARK SMILES IDX 5 27 14 28 6 29 12 30 7 31 10 32 15 33 13 35 8 37 9 38 11 40
REMARK H PARENT 21 20 23 22 32 24 29 26 15 34 13 36 9 39 11 41
REMARK Flexibility Score: inf
ROOT
ATOM      1  O   UNL     1      -8.930   7.434   5.919  1.00  0.00    -0.454 OA
ENDROOT
BRANCH   1   2
ATOM      2  C   UNL     1      -9.972   8.366   5.758  1.00  0.00     0.214 A 
ATOM      3  C   UNL     1      -9.679   9.731   5.945  1.00  0.00     0.180 A 
ATOM      4  O   UNL     1     -10.646  10.640   5.872  1.00  0.00    -0.452 OA
ATOM      5  C   UNL     1     -11.299   8.002   5.442  1.00  0.00     0.239 A 
ATOM      6  C   UNL     1     -11.907  10.340   5.596  1.00  0.00     0.146 A 
ATOM      7  O   UNL     1     -11.591   6.797   5.224  1.00  0.00    -0.285 OA
ATOM      8  C   UNL     1     -12.293   9.000   5.357  1.00  0.00     0.111 A 
ATOM      9  C   UNL     1     -12.854  11.368   5.545  1.00  0.00     0.094 A 
ATOM     10  C   UNL     1     -13.648   8.720   5.055  1.00  0.00     0.134 A 
ATOM     11  C   UNL     1     -14.187  11.086   5.245  1.00  0.00     0.123 A 
ATOM     12  C   UNL     1     -14.581   9.766   4.996  1.00  0.00     0.093 A 
BRANCH   3  13
ATOM     13  C   UNL     1      -8.309  10.192   6.263  1.00  0.00     0.025 A 
ATOM     14  C   UNL     1      -7.308  10.117   5.285  1.00  0.00     0.016 A 
ATOM     15  C   UNL     1      -6.018  10.569   5.561  1.00  0.00     0.051 A 
ATOM     16  C   UNL     1      -5.698  11.091   6.820  1.00  0.00     0.157 A 
ATOM     17  C   UNL     1      -7.984  10.681   7.540  1.00  0.00     0.062 A 
ATOM     18  C   UNL     1      -6.691  11.134   7.827  1.00  0.00     0.158 A 
BRANCH  16  19
ATOM     19  O   UNL     1      -4.397  11.553   7.024  1.00  0.00    -0.504 OA
ATOM     20  H   UNL     1      -3.648  10.984   7.395  1.00  0.00     0.293 HD
ENDBRANCH  16  19
BRANCH  18  21
ATOM     21  O   UNL     1      -6.435  11.599   9.118  1.00  0.00    -0.504 OA
ATOM     22  H   UNL     1      -6.632  12.539   9.431  1.00  0.00     0.293 HD
ENDBRANCH  18  21
ENDBRANCH   3  13
BRANCH  10  23
ATOM     23  O   UNL     1     -14.074   7.414   4.805  1.00  0.00    -0.507 OA
ATOM     24  H   UNL     1     -13.532   6.610   5.102  1.00  0.00     0.293 HD
ENDBRANCH  10  23
BRANCH  11  25
ATOM     25  O   UNL     1     -15.112  12.125   5.186  1.00  0.00    -0.508 OA
ATOM     26  H   UNL     1     -14.988  12.976   5.721  1.00  0.00     0.293 HD
ENDBRANCH  11  25
ENDBRANCH   1   2
BRANCH   1  27
ATOM     27  C   UNL     1      -9.044   6.108   6.434  1.00  0.00     0.339 C 
ATOM     28  C   UNL     1      -9.139   5.105   5.243  1.00  0.00     0.214 C 
ATOM     29  O   UNL     1     -10.179   6.052   7.292  1.00  0.00    -0.332 OA
ATOM     30  C   UNL     1     -10.591   4.651   5.047  1.00  0.00     0.180 C 
ATOM     31  C   UNL     1     -10.511   4.710   7.599  1.00  0.00     0.179 C 
ATOM     32  C   UNL     1     -11.136   4.022   6.354  1.00  0.00     0.177 C 
BRANCH  28  33
ATOM     33  O   UNL     1      -8.660   5.679   4.052  1.00  0.00    -0.384 OA
ATOM     34  H   UNL     1      -8.738   6.663   4.161  1.00  0.00     0.211 HD
ENDBRANCH  28  33
BRANCH  30  35
ATOM     35  O   UNL     1     -10.665   3.741   3.981  1.00  0.00    -0.387 OA
ATOM     36  H   UNL     1      -9.874   3.146   4.060  1.00  0.00     0.211 HD
ENDBRANCH  30  35
BRANCH  31  37
ATOM     37  C   UNL     1     -11.480   4.689   8.786  1.00  0.00     0.191 C 
BRANCH  37  38
ATOM     38  O   UNL     1     -11.980   3.393   8.964  1.00  0.00    -0.394 OA
ATOM     39  H   UNL     1     -11.371   2.945   9.607  1.00  0.00     0.210 HD
ENDBRANCH  37  38
ENDBRANCH  31  37
BRANCH  32  40
ATOM     40  O   UNL     1     -10.845   2.646   6.381  1.00  0.00    -0.387 OA
ATOM     41  H   UNL     1     -11.302   2.270   7.180  1.00  0.00     0.211 HD
ENDBRANCH  32  40
ENDBRANCH   1  27
TORSDOF 12
ENDMDL
MODEL 5
REMARK VINA RESULT:    -4.025      1.957      5.873
REMARK INTER + INTRA:          -6.978
REMARK INTER:                  -6.175
REMARK INTRA:                  -0.802
REMARK UNBOUND:                -1.070
REMARK SMILES O=c1c(O[C@H]2O[C@@H](CO)[C@H](O)[C@H](O)[C@H]2O)c(-c2ccc(O)c(O)c2)oc2cc(O)cc(O)c12
REMARK SMILES IDX 4 1 3 2 16 3 25 4 2 5 26 6 1 7 33 8 27 9 31 10 28 11 30 12
REMARK SMILES IDX 17 13 18 14 19 15 20 16 24 17 22 18 21 19 23 21 32 23 29 25
REMARK SMILES IDX 5 27 14 28 6 29 12 30 7 31 10 32 15 33 13 35 8 37 9 38 11 40
REMARK H PARENT 21 20 23 22 32 24 29 26 15 34 13 36 9 39 11 41
REMARK Flexibility Score: inf
ROOT
ATOM      1  O   UNL     1     -10.696   9.996   6.621  1.00  0.00    -0.454 OA
ENDROOT
BRANCH   1   2
ATOM      2  C   UNL     1     -10.414   8.709   6.127  1.00  0.00     0.214 A 
ATOM      3  C   UNL     1      -9.080   8.399   5.800  1.00  0.00     0.180 A 
ATOM      4  O   UNL     1      -8.777   7.221   5.266  1.00  0.00    -0.452 OA
ATOM      5  C   UNL     1     -11.401   7.720   5.922  1.00  0.00     0.239 A 
ATOM      6  C   UNL     1      -9.674   6.272   5.039  1.00  0.00     0.146 A 
ATOM      7  O   UNL     1     -12.598   7.943   6.244  1.00  0.00    -0.285 OA
ATOM      8  C   UNL     1     -11.035   6.475   5.368  1.00  0.00     0.111 A 
ATOM      9  C   UNL     1      -9.257   5.066   4.469  1.00  0.00     0.094 A 
ATOM     10  C   UNL     1     -11.963   5.434   5.121  1.00  0.00     0.134 A 
ATOM     11  C   UNL     1     -10.176   4.043   4.230  1.00  0.00     0.123 A 
ATOM     12  C   UNL     1     -11.524   4.226   4.560  1.00  0.00     0.093 A 
BRANCH   3  13
ATOM     13  C   UNL     1      -7.987   9.377   6.001  1.00  0.00     0.025 A 
ATOM     14  C   UNL     1      -7.660   9.794   7.299  1.00  0.00     0.016 A 
ATOM     15  C   UNL     1      -6.617  10.697   7.507  1.00  0.00     0.051 A 
ATOM     16  C   UNL     1      -5.891  11.211   6.427  1.00  0.00     0.157 A 
ATOM     17  C   UNL     1      -7.286   9.919   4.911  1.00  0.00     0.062 A 
ATOM     18  C   UNL     1      -6.240  10.828   5.110  1.00  0.00     0.158 A 
BRANCH  16  19
ATOM     19  O   UNL     1      -4.841  12.088   6.704  1.00  0.00    -0.504 OA
ATOM     20  H   UNL     1      -3.982  11.813   7.160  1.00  0.00     0.293 HD
ENDBRANCH  16  19
BRANCH  18  21
ATOM     21  O   UNL     1      -5.591  11.334   3.982  1.00  0.00    -0.504 OA
ATOM     22  H   UNL     1      -4.952  10.800   3.409  1.00  0.00     0.293 HD
ENDBRANCH  18  21
ENDBRANCH   3  13
BRANCH  10  23
ATOM     23  O   UNL     1     -13.315   5.587   5.436  1.00  0.00    -0.507 OA
ATOM     24  H   UNL     1     -13.953   4.799   5.441  1.00  0.00     0.293 HD
ENDBRANCH  10  23
BRANCH  11  25
ATOM     25  O   UNL     1      -9.739   2.844   3.674  1.00  0.00    -0.508 OA
ATOM     26  H   UNL     1      -9.678   1.996   4.225  1.00  0.00     0.293 HD
ENDBRANCH  11  25
ENDBRANCH   1   2
BRANCH   1  27
ATOM     27  C   UNL     1     -11.420  11.026   5.950  1.00  0.00     0.339 C 
ATOM     28  C   UNL     1     -12.907  10.997   6.422  1.00  0.00     0.214 C 
ATOM     29  O   UNL     1     -11.286  10.833   4.545  1.00  0.00    -0.332 OA
ATOM     30  C   UNL     1     -13.788  10.332   5.359  1.00  0.00     0.180 C 
ATOM     31  C   UNL     1     -12.209  11.639   3.836  1.00  0.00     0.179 C 
ATOM     32  C   UNL     1     -13.646  11.073   4.005  1.00  0.00     0.177 C 
BRANCH  28  33
ATOM     33  O   UNL     1     -13.041  10.311   7.642  1.00  0.00    -0.384 OA
ATOM     34  H   UNL     1     -13.192   9.356   7.415  1.00  0.00     0.211 HD
ENDBRANCH  28  33
BRANCH  30  35
ATOM     35  O   UNL     1     -15.125  10.320   5.788  1.00  0.00    -0.387 OA
ATOM     36  H   UNL     1     -15.104  10.333   6.780  1.00  0.00     0.211 HD
ENDBRANCH  30  35
BRANCH  31  37
ATOM     37  C   UNL     1     -11.805  11.688   2.359  1.00  0.00     0.191 C 
BRANCH  37  38
ATOM     38  O   UNL     1     -12.951  11.786   1.559  1.00  0.00    -0.394 OA
ATOM     39  H   UNL     1     -13.515  10.999   1.782  1.00  0.00     0.210 HD
ENDBRANCH  37  38
ENDBRANCH  31  37
BRANCH  32  40
ATOM     40  O   UNL     1     -14.577  12.125   3.935  1.00  0.00    -0.387 OA
ATOM     41  H   UNL     1     -15.388  11.827   4.427  1.00  0.00     0.211 HD
ENDBRANCH  32  40
ENDBRANCH   1  27
TORSDOF 12
ENDMDL
