MODEL 1
REMARK VINA RESULT:    -7.815      0.000      0.000
REMARK INTER + INTRA:          -8.705
REMARK INTER:                  -8.501
REMARK INTRA:                  -0.205
REMARK UNBOUND:                -0.205
REMARK SMILES C[C@@H]1[C@H]2C3=CC[C@@H]4[C@@]5(C)CC[C@H](O)C(C)(C)[C@H]5CC[C@@]4(C)[C@]3(C)CC[C@@]2(C(=O)[O-])CC[C@@H]1C
REMARK SMILES IDX 26 1 30 2 25 3 3 4 31 5 24 6 4 7 2 8 32 9 22 10 5 11 1 12
REMARK SMILES IDX 33 13 23 14 20 15 6 16 7 17 19 18 21 19 8 20 18 21 17 22
REMARK SMILES IDX 10 23 9 24 14 25 11 26 12 27 15 28 16 29 27 30 28 31 29 32
REMARK SMILES IDX 13 33
REMARK H PARENT 13 34
REMARK Flexibility Score: inf
ROOT
ATOM      1  C   UNL     1     -23.737 116.528  21.059  1.00  0.00     0.017 C 
ATOM      2  C   UNL     1     -22.721 117.720  20.963  1.00  0.00     0.014 C 
ATOM      3  C   UNL     1     -24.594 116.754  22.327  1.00  0.00     0.014 C 
ATOM      4  C   UNL     1     -22.984 115.148  21.167  1.00  0.00     0.030 C 
ATOM      5  C   UNL     1     -21.381 117.304  20.355  1.00  0.00     0.004 C 
ATOM      6  C   UNL     1     -25.643 115.664  22.534  1.00  0.00     0.013 C 
ATOM      7  C   UNL     1     -23.898 113.999  21.626  1.00  0.00    -0.063 C 
ATOM      8  C   UNL     1     -21.667 115.315  21.996  1.00  0.00    -0.003 C 
ATOM      9  C   UNL     1     -20.658 116.248  21.231  1.00  0.00    -0.011 C 
ATOM     10  C   UNL     1     -25.073 114.201  22.596  1.00  0.00    -0.006 C 
ATOM     11  C   UNL     1     -23.577 112.749  21.212  1.00  0.00    -0.027 C 
ATOM     12  C   UNL     1     -21.015 113.997  22.461  1.00  0.00     0.008 C 
ATOM     13  C   UNL     1     -19.643 115.491  20.353  1.00  0.00     0.008 C 
ATOM     14  C   UNL     1     -24.483 114.008  24.029  1.00  0.00     0.017 C 
ATOM     15  C   UNL     1     -26.220 113.117  22.256  1.00  0.00    -0.020 C 
ATOM     16  C   UNL     1     -24.290 111.483  21.621  1.00  0.00     0.032 C 
ATOM     17  C   UNL     1     -25.610 111.670  22.436  1.00  0.00     0.006 C 
ATOM     18  C   UNL     1     -27.470 113.310  23.184  1.00  0.00     0.008 C 
ATOM     19  C   UNL     1     -26.721 113.277  20.780  1.00  0.00     0.012 C 
ATOM     20  C   UNL     1     -26.625 110.436  22.338  1.00  0.00    -0.025 C 
ATOM     21  C   UNL     1     -27.946 112.049  23.905  1.00  0.00     0.005 C 
ATOM     22  C   UNL     1     -28.047 110.811  22.967  1.00  0.00     0.003 C 
ATOM     23  C   UNL     1     -25.989 109.215  23.105  1.00  0.00     0.010 C 
ATOM     24  C   UNL     1     -26.807 109.974  20.850  1.00  0.00     0.012 C 
ATOM     25  C   UNL     1     -28.779 109.596  23.691  1.00  0.00    -0.006 C 
ATOM     26  C   UNL     1     -26.354 109.152  24.585  1.00  0.00     0.033 C 
ATOM     27  C   UNL     1     -27.869 108.991  24.827  1.00  0.00     0.120 C 
ATOM     28  C   UNL     1     -30.125 110.051  24.330  1.00  0.00     0.014 C 
ATOM     29  C   UNL     1     -29.187 108.511  22.650  1.00  0.00     0.014 C 
ENDROOT
BRANCH   1  30
ATOM     30  C   UNL     1     -24.642 116.567  19.830  1.00  0.00     0.048 C 
ATOM     31  O   UNL     1     -24.543 115.711  18.910  1.00  0.00    -0.550 OA
ATOM     32  O   UNL     1     -25.607 117.563  19.714  1.00  0.00    -0.550 OA
ENDBRANCH   1  30
BRANCH  27  33
ATOM     33  O   UNL     1     -28.157 107.630  25.040  1.00  0.00    -0.393 OA
ATOM     34  H   UNL     1     -29.136 107.519  24.923  1.00  0.00     0.210 HD
ENDBRANCH  27  33
TORSDOF 2
ENDMDL
MODEL 2
REMARK VINA RESULT:    -7.812      2.383      7.689
REMARK INTER + INTRA:          -8.702
REMARK INTER:                  -8.499
REMARK INTRA:                  -0.203
REMARK UNBOUND:                -0.205
REMARK SMILES C[C@@H]1[C@H]2C3=CC[C@@H]4[C@@]5(C)CC[C@H](O)C(C)(C)[C@H]5CC[C@@]4(C)[C@]3(C)CC[C@@]2(C(=O)[O-])CC[C@@H]1C
REMARK SMILES IDX 26 1 30 2 25 3 3 4 31 5 24 6 4 7 2 8 32 9 22 10 5 11 1 12
REMARK SMILES IDX 33 13 23 14 20 15 6 16 7 17 19 18 21 19 8 20 18 21 17 22
REMARK SMILES IDX 10 23 9 24 14 25 11 26 12 27 15 28 16 29 27 30 28 31 29 32
REMARK SMILES IDX 13 33
REMARK H PARENT 13 34
REMARK Flexibility Score: inf
ROOT
ATOM      1  C   UNL     1     -27.531 110.277  20.562  1.00  0.00     0.017 C 
ATOM      2  C   UNL     1     -28.370 108.979  20.295  1.00  0.00     0.014 C 
ATOM      3  C   UNL     1     -26.067 109.969  20.167  1.00  0.00     0.014 C 
ATOM      4  C   UNL     1     -27.593 110.692  22.080  1.00  0.00     0.030 C 
ATOM      5  C   UNL     1     -29.513 108.801  21.295  1.00  0.00     0.004 C 
ATOM      6  C   UNL     1     -25.136 111.164  20.364  1.00  0.00     0.013 C 
ATOM      7  C   UNL     1     -26.516 111.719  22.469  1.00  0.00    -0.063 C 
ATOM      8  C   UNL     1     -27.645 109.416  22.987  1.00  0.00    -0.003 C 
ATOM      9  C   UNL     1     -28.985 108.631  22.744  1.00  0.00    -0.011 C 
ATOM     10  C   UNL     1     -25.124 111.758  21.818  1.00  0.00    -0.006 C 
ATOM     11  C   UNL     1     -26.802 112.560  23.493  1.00  0.00    -0.027 C 
ATOM     12  C   UNL     1     -27.370 109.666  24.484  1.00  0.00     0.008 C 
ATOM     13  C   UNL     1     -30.115 108.995  23.726  1.00  0.00     0.008 C 
ATOM     14  C   UNL     1     -24.222 110.819  22.681  1.00  0.00     0.017 C 
ATOM     15  C   UNL     1     -24.593 113.283  21.817  1.00  0.00    -0.020 C 
ATOM     16  C   UNL     1     -25.853 113.576  24.081  1.00  0.00     0.032 C 
ATOM     17  C   UNL     1     -24.507 113.785  23.313  1.00  0.00     0.006 C 
ATOM     18  C   UNL     1     -23.194 113.391  21.115  1.00  0.00     0.008 C 
ATOM     19  C   UNL     1     -25.572 114.215  21.023  1.00  0.00     0.012 C 
ATOM     20  C   UNL     1     -23.820 115.209  23.564  1.00  0.00    -0.025 C 
ATOM     21  C   UNL     1     -22.115 114.110  21.925  1.00  0.00     0.005 C 
ATOM     22  C   UNL     1     -22.609 115.448  22.547  1.00  0.00     0.003 C 
ATOM     23  C   UNL     1     -23.306 115.250  25.053  1.00  0.00     0.010 C 
ATOM     24  C   UNL     1     -24.866 116.370  23.428  1.00  0.00     0.012 C 
ATOM     25  C   UNL     1     -21.399 116.281  23.163  1.00  0.00    -0.006 C 
ATOM     26  C   UNL     1     -21.879 114.742  25.231  1.00  0.00     0.033 C 
ATOM     27  C   UNL     1     -20.839 115.580  24.459  1.00  0.00     0.120 C 
ATOM     28  C   UNL     1     -20.234 116.421  22.138  1.00  0.00     0.014 C 
ATOM     29  C   UNL     1     -21.841 117.746  23.454  1.00  0.00     0.014 C 
ENDROOT
BRANCH   1  30
ATOM     30  C   UNL     1     -28.067 111.390  19.664  1.00  0.00     0.048 C 
ATOM     31  O   UNL     1     -28.625 112.414  20.145  1.00  0.00    -0.550 OA
ATOM     32  O   UNL     1     -27.938 111.287  18.283  1.00  0.00    -0.550 OA
ENDBRANCH   1  30
BRANCH  27  33
ATOM     33  O   UNL     1     -20.261 116.517  25.336  1.00  0.00    -0.393 OA
ATOM     34  H   UNL     1     -20.332 116.138  26.250  1.00  0.00     0.210 HD
ENDBRANCH  27  33
TORSDOF 2
ENDMDL
MODEL 3
REMARK VINA RESULT:    -7.558      1.924      3.265
REMARK INTER + INTRA:          -8.426
REMARK INTER:                  -8.234
REMARK INTRA:                  -0.191
REMARK UNBOUND:                -0.205
REMARK SMILES C[C@@H]1[C@H]2C3=CC[C@@H]4[C@@]5(C)CC[C@H](O)C(C)(C)[C@H]5CC[C@@]4(C)[C@]3(C)CC[C@@]2(C(=O)[O-])CC[C@@H]1C
REMARK SMILES IDX 26 1 30 2 25 3 3 4 31 5 24 6 4 7 2 8 32 9 22 10 5 11 1 12
REMARK SMILES IDX 33 13 23 14 20 15 6 16 7 17 19 18 21 19 8 20 18 21 17 22
REMARK SMILES IDX 10 23 9 24 14 25 11 26 12 27 15 28 16 29 27 30 28 31 29 32
REMARK SMILES IDX 13 33
REMARK H PARENT 13 34
REMARK Flexibility Score: inf
ROOT
ATOM      1  C   UNL     1     -21.499 116.293  21.844  1.00  0.00     0.017 C 
ATOM      2  C   UNL     1     -20.354 117.185  21.248  1.00  0.00     0.014 C 
ATOM      3  C   UNL     1     -20.877 114.921  22.197  1.00  0.00     0.014 C 
ATOM      4  C   UNL     1     -22.664 116.094  20.803  1.00  0.00     0.030 C 
ATOM      5  C   UNL     1     -20.858 118.148  20.173  1.00  0.00     0.004 C 
ATOM      6  C   UNL     1     -21.888 113.952  22.806  1.00  0.00     0.013 C 
ATOM      7  C   UNL     1     -23.622 114.952  21.182  1.00  0.00    -0.063 C 
ATOM      8  C   UNL     1     -22.084 116.014  19.351  1.00  0.00    -0.003 C 
ATOM      9  C   UNL     1     -21.435 117.388  18.949  1.00  0.00    -0.011 C 
ATOM     10  C   UNL     1     -23.163 113.688  21.926  1.00  0.00    -0.006 C 
ATOM     11  C   UNL     1     -24.904 115.050  20.754  1.00  0.00    -0.027 C 
ATOM     12  C   UNL     1     -23.065 115.490  18.283  1.00  0.00     0.008 C 
ATOM     13  C   UNL     1     -22.382 118.333  18.185  1.00  0.00     0.008 C 
ATOM     14  C   UNL     1     -22.743 112.669  20.818  1.00  0.00     0.017 C 
ATOM     15  C   UNL     1     -24.386 113.141  22.827  1.00  0.00    -0.020 C 
ATOM     16  C   UNL     1     -25.972 114.000  20.944  1.00  0.00     0.032 C 
ATOM     17  C   UNL     1     -25.597 112.799  21.872  1.00  0.00     0.006 C 
ATOM     18  C   UNL     1     -23.957 111.877  23.651  1.00  0.00     0.008 C 
ATOM     19  C   UNL     1     -24.845 114.224  23.863  1.00  0.00     0.012 C 
ATOM     20  C   UNL     1     -26.855 112.057  22.529  1.00  0.00    -0.025 C 
ATOM     21  C   UNL     1     -24.881 110.666  23.514  1.00  0.00     0.005 C 
ATOM     22  C   UNL     1     -26.387 111.029  23.661  1.00  0.00     0.003 C 
ATOM     23  C   UNL     1     -27.632 111.302  21.385  1.00  0.00     0.010 C 
ATOM     24  C   UNL     1     -27.865 113.093  23.136  1.00  0.00     0.012 C 
ATOM     25  C   UNL     1     -27.289 109.721  23.764  1.00  0.00    -0.006 C 
ATOM     26  C   UNL     1     -27.153 109.872  21.149  1.00  0.00     0.033 C 
ATOM     27  C   UNL     1     -27.336 108.963  22.382  1.00  0.00     0.120 C 
ATOM     28  C   UNL     1     -26.738 108.741  24.842  1.00  0.00     0.014 C 
ATOM     29  C   UNL     1     -28.720 110.085  24.261  1.00  0.00     0.014 C 
ENDROOT
BRANCH   1  30
ATOM     30  C   UNL     1     -22.008 116.954  23.123  1.00  0.00     0.048 C 
ATOM     31  O   UNL     1     -23.195 117.367  23.224  1.00  0.00    -0.550 OA
ATOM     32  O   UNL     1     -21.154 117.105  24.210  1.00  0.00    -0.550 OA
ENDBRANCH   1  30
BRANCH  27  33
ATOM     33  O   UNL     1     -28.530 108.232  22.241  1.00  0.00    -0.393 OA
ATOM     34  H   UNL     1     -29.031 108.329  23.092  1.00  0.00     0.210 HD
ENDBRANCH  27  33
TORSDOF 2
ENDMDL
MODEL 4
REMARK VINA RESULT:    -7.506     14.774     18.028
REMARK INTER + INTRA:          -8.369
REMARK INTER:                  -8.178
REMARK INTRA:                  -0.191
REMARK UNBOUND:                -0.205
REMARK SMILES C[C@@H]1[C@H]2C3=CC[C@@H]4[C@@]5(C)CC[C@H](O)C(C)(C)[C@H]5CC[C@@]4(C)[C@]3(C)CC[C@@]2(C(=O)[O-])CC[C@@H]1C
REMARK SMILES IDX 26 1 30 2 25 3 3 4 31 5 24 6 4 7 2 8 32 9 22 10 5 11 1 12
REMARK SMILES IDX 33 13 23 14 20 15 6 16 7 17 19 18 21 19 8 20 18 21 17 22
REMARK SMILES IDX 10 23 9 24 14 25 11 26 12 27 15 28 16 29 27 30 28 31 29 32
REMARK SMILES IDX 13 33
REMARK H PARENT 13 34
REMARK Flexibility Score: inf
ROOT
ATOM      1  C   UNL     1     -11.582 115.615  13.081  1.00  0.00     0.017 C 
ATOM      2  C   UNL     1     -10.664 114.674  13.938  1.00  0.00     0.014 C 
ATOM      3  C   UNL     1     -10.666 116.376  12.093  1.00  0.00     0.014 C 
ATOM      4  C   UNL     1     -12.348 116.646  13.993  1.00  0.00     0.030 C 
ATOM      5  C   UNL     1     -11.174 114.499  15.369  1.00  0.00     0.004 C 
ATOM      6  C   UNL     1     -11.439 117.324  11.180  1.00  0.00     0.013 C 
ATOM      7  C   UNL     1     -12.964 117.810  13.200  1.00  0.00    -0.063 C 
ATOM      8  C   UNL     1     -11.446 117.074  15.200  1.00  0.00    -0.003 C 
ATOM      9  C   UNL     1     -11.181 115.844  16.143  1.00  0.00    -0.011 C 
ATOM     10  C   UNL     1     -12.323 118.386  11.927  1.00  0.00    -0.006 C 
ATOM     11  C   UNL     1     -14.074 118.393  13.714  1.00  0.00    -0.027 C 
ATOM     12  C   UNL     1     -11.935 118.315  15.973  1.00  0.00     0.008 C 
ATOM     13  C   UNL     1     -12.167 115.729  17.321  1.00  0.00     0.008 C 
ATOM     14  C   UNL     1     -11.359 119.517  12.408  1.00  0.00     0.017 C 
ATOM     15  C   UNL     1     -13.492 118.948  10.964  1.00  0.00    -0.020 C 
ATOM     16  C   UNL     1     -14.775 119.599  13.138  1.00  0.00     0.032 C 
ATOM     17  C   UNL     1     -14.276 120.081  11.738  1.00  0.00     0.006 C 
ATOM     18  C   UNL     1     -12.898 119.503   9.623  1.00  0.00     0.008 C 
ATOM     19  C   UNL     1     -14.495 117.807  10.579  1.00  0.00     0.012 C 
ATOM     20  C   UNL     1     -15.358 120.916  10.904  1.00  0.00    -0.025 C 
ATOM     21  C   UNL     1     -13.340 120.919   9.252  1.00  0.00     0.005 C 
ATOM     22  C   UNL     1     -14.874 121.136   9.396  1.00  0.00     0.003 C 
ATOM     23  C   UNL     1     -15.569 122.302  11.624  1.00  0.00     0.010 C 
ATOM     24  C   UNL     1     -16.753 120.198  10.916  1.00  0.00     0.012 C 
ATOM     25  C   UNL     1     -15.322 122.529   8.766  1.00  0.00    -0.006 C 
ATOM     26  C   UNL     1     -14.629 123.402  11.140  1.00  0.00     0.033 C 
ATOM     27  C   UNL     1     -14.804 123.732   9.643  1.00  0.00     0.120 C 
ATOM     28  C   UNL     1     -14.765 122.698   7.322  1.00  0.00     0.014 C 
ATOM     29  C   UNL     1     -16.870 122.574   8.596  1.00  0.00     0.014 C 
ENDROOT
BRANCH   1  30
ATOM     30  C   UNL     1     -12.558 114.747  12.290  1.00  0.00     0.048 C 
ATOM     31  O   UNL     1     -12.163 113.984  11.368  1.00  0.00    -0.550 OA
ATOM     32  O   UNL     1     -13.916 114.785  12.590  1.00  0.00    -0.550 OA
ENDBRANCH   1  30
BRANCH  27  33
ATOM     33  O   UNL     1     -15.644 124.854   9.517  1.00  0.00    -0.393 OA
ATOM     34  H   UNL     1     -16.416 124.707  10.121  1.00  0.00     0.210 HD
ENDBRANCH  27  33
TORSDOF 2
ENDMDL
MODEL 5
REMARK VINA RESULT:    -7.456      2.097      8.216
REMARK INTER + INTRA:          -8.314
REMARK INTER:                  -8.110
REMARK INTRA:                  -0.204
REMARK UNBOUND:                -0.205
REMARK SMILES C[C@@H]1[C@H]2C3=CC[C@@H]4[C@@]5(C)CC[C@H](O)C(C)(C)[C@H]5CC[C@@]4(C)[C@]3(C)CC[C@@]2(C(=O)[O-])CC[C@@H]1C
REMARK SMILES IDX 26 1 30 2 25 3 3 4 31 5 24 6 4 7 2 8 32 9 22 10 5 11 1 12
REMARK SMILES IDX 33 13 23 14 20 15 6 16 7 17 19 18 21 19 8 20 18 21 17 22
REMARK SMILES IDX 10 23 9 24 14 25 11 26 12 27 15 28 16 29 27 30 28 31 29 32
REMARK SMILES IDX 13 33
REMARK H PARENT 13 34
REMARK Flexibility Score: inf
ROOT
ATOM      1  C   UNL     1     -24.936 110.256  23.222  1.00  0.00     0.017 C 
ATOM      2  C   UNL     1     -25.711 109.155  24.028  1.00  0.00     0.014 C 
ATOM      3  C   UNL     1     -23.907 110.892  24.184  1.00  0.00     0.014 C 
ATOM      4  C   UNL     1     -25.919 111.366  22.689  1.00  0.00     0.030 C 
ATOM      5  C   UNL     1     -27.169 109.019  23.586  1.00  0.00     0.004 C 
ATOM      6  C   UNL     1     -23.066 111.979  23.518  1.00  0.00     0.013 C 
ATOM      7  C   UNL     1     -25.192 112.637  22.219  1.00  0.00    -0.063 C 
ATOM      8  C   UNL     1     -27.072 111.608  23.720  1.00  0.00    -0.003 C 
ATOM      9  C   UNL     1     -27.969 110.323  23.842  1.00  0.00    -0.011 C 
ATOM     10  C   UNL     1     -23.891 113.144  22.863  1.00  0.00    -0.006 C 
ATOM     11  C   UNL     1     -25.791 113.372  21.251  1.00  0.00    -0.027 C 
ATOM     12  C   UNL     1     -27.901 112.886  23.485  1.00  0.00     0.008 C 
ATOM     13  C   UNL     1     -29.207 110.329  22.926  1.00  0.00     0.008 C 
ATOM     14  C   UNL     1     -24.332 114.092  24.024  1.00  0.00     0.017 C 
ATOM     15  C   UNL     1     -23.020 113.913  21.743  1.00  0.00    -0.020 C 
ATOM     16  C   UNL     1     -25.287 114.691  20.716  1.00  0.00     0.032 C 
ATOM     17  C   UNL     1     -23.868 115.131  21.199  1.00  0.00     0.006 C 
ATOM     18  C   UNL     1     -21.655 114.409  22.334  1.00  0.00     0.008 C 
ATOM     19  C   UNL     1     -22.679 112.958  20.548  1.00  0.00     0.012 C 
ATOM     20  C   UNL     1     -23.125 116.153  20.215  1.00  0.00    -0.025 C 
ATOM     21  C   UNL     1     -21.344 115.887  22.102  1.00  0.00     0.005 C 
ATOM     22  C   UNL     1     -21.593 116.340  20.634  1.00  0.00     0.003 C 
ATOM     23  C   UNL     1     -23.885 117.532  20.274  1.00  0.00     0.010 C 
ATOM     24  C   UNL     1     -23.214 115.665  18.727  1.00  0.00     0.012 C 
ATOM     25  C   UNL     1     -21.023 117.805  20.376  1.00  0.00    -0.006 C 
ATOM     26  C   UNL     1     -23.363 118.483  21.346  1.00  0.00     0.033 C 
ATOM     27  C   UNL     1     -21.888 118.883  21.134  1.00  0.00     0.120 C 
ATOM     28  C   UNL     1     -19.549 117.929  20.863  1.00  0.00     0.014 C 
ATOM     29  C   UNL     1     -20.956 118.101  18.848  1.00  0.00     0.014 C 
ENDROOT
BRANCH   1  30
ATOM     30  C   UNL     1     -24.194 109.578  22.072  1.00  0.00     0.048 C 
ATOM     31  O   UNL     1     -24.547 109.739  20.873  1.00  0.00    -0.550 OA
ATOM     32  O   UNL     1     -23.097 108.765  22.342  1.00  0.00    -0.550 OA
ENDBRANCH   1  30
BRANCH  27  33
ATOM     33  O   UNL     1     -21.841 120.128  20.478  1.00  0.00    -0.393 OA
ATOM     34  H   UNL     1     -20.912 120.248  20.152  1.00  0.00     0.210 HD
ENDBRANCH  27  33
TORSDOF 2
ENDMDL
MODEL 6
REMARK VINA RESULT:    -7.419      1.737      2.145
REMARK INTER + INTRA:          -8.275
REMARK INTER:                  -8.084
REMARK INTRA:                  -0.190
REMARK UNBOUND:                -0.205
REMARK SMILES C[C@@H]1[C@H]2C3=CC[C@@H]4[C@@]5(C)CC[C@H](O)C(C)(C)[C@H]5CC[C@@]4(C)[C@]3(C)CC[C@@]2(C(=O)[O-])CC[C@@H]1C
REMARK SMILES IDX 26 1 30 2 25 3 3 4 31 5 24 6 4 7 2 8 32 9 22 10 5 11 1 12
REMARK SMILES IDX 33 13 23 14 20 15 6 16 7 17 19 18 21 19 8 20 18 21 17 22
REMARK SMILES IDX 10 23 9 24 14 25 11 26 12 27 15 28 16 29 27 30 28 31 29 32
REMARK SMILES IDX 13 33
REMARK H PARENT 13 34
REMARK Flexibility Score: inf
ROOT
ATOM      1  C   UNL     1     -23.020 116.913  21.917  1.00  0.00     0.017 C 
ATOM      2  C   UNL     1     -22.350 118.278  22.304  1.00  0.00     0.014 C 
ATOM      3  C   UNL     1     -24.544 117.070  22.132  1.00  0.00     0.014 C 
ATOM      4  C   UNL     1     -22.477 115.739  22.815  1.00  0.00     0.030 C 
ATOM      5  C   UNL     1     -20.961 118.098  22.917  1.00  0.00     0.004 C 
ATOM      6  C   UNL     1     -25.326 115.808  21.775  1.00  0.00     0.013 C 
ATOM      7  C   UNL     1     -23.345 114.471  22.738  1.00  0.00    -0.063 C 
ATOM      8  C   UNL     1     -22.192 116.255  24.265  1.00  0.00    -0.003 C 
ATOM      9  C   UNL     1     -21.021 117.304  24.248  1.00  0.00    -0.011 C 
ATOM     10  C   UNL     1     -24.867 114.511  22.532  1.00  0.00    -0.006 C 
ATOM     11  C   UNL     1     -22.728 113.283  22.950  1.00  0.00    -0.027 C 
ATOM     12  C   UNL     1     -21.981 115.153  25.323  1.00  0.00     0.008 C 
ATOM     13  C   UNL     1     -19.630 116.700  24.524  1.00  0.00     0.008 C 
ATOM     14  C   UNL     1     -25.490 114.580  23.963  1.00  0.00     0.017 C 
ATOM     15  C   UNL     1     -25.319 113.182  21.733  1.00  0.00    -0.020 C 
ATOM     16  C   UNL     1     -23.412 111.939  23.004  1.00  0.00     0.032 C 
ATOM     17  C   UNL     1     -24.921 111.920  22.595  1.00  0.00     0.006 C 
ATOM     18  C   UNL     1     -26.862 113.194  21.449  1.00  0.00     0.008 C 
ATOM     19  C   UNL     1     -24.602 113.096  20.342  1.00  0.00     0.012 C 
ATOM     20  C   UNL     1     -25.446 110.496  22.086  1.00  0.00    -0.025 C 
ATOM     21  C   UNL     1     -27.612 111.934  21.880  1.00  0.00     0.005 C 
ATOM     22  C   UNL     1     -26.904 110.621  21.438  1.00  0.00     0.003 C 
ATOM     23  C   UNL     1     -25.473 109.513  23.317  1.00  0.00     0.010 C 
ATOM     24  C   UNL     1     -24.454 109.869  21.045  1.00  0.00     0.012 C 
ATOM     25  C   UNL     1     -27.834 109.351  21.682  1.00  0.00    -0.006 C 
ATOM     26  C   UNL     1     -26.792 109.513  24.084  1.00  0.00     0.033 C 
ATOM     27  C   UNL     1     -27.990 109.059  23.223  1.00  0.00     0.120 C 
ATOM     28  C   UNL     1     -29.253 109.570  21.078  1.00  0.00     0.014 C 
ATOM     29  C   UNL     1     -27.272 108.113  20.923  1.00  0.00     0.014 C 
ENDROOT
BRANCH   1  30
ATOM     30  C   UNL     1     -22.749 116.646  20.437  1.00  0.00     0.048 C 
ATOM     31  O   UNL     1     -23.278 117.348  19.533  1.00  0.00    -0.550 OA
ATOM     32  O   UNL     1     -21.896 115.611  20.067  1.00  0.00    -0.550 OA
ENDBRANCH   1  30
BRANCH  27  33
ATOM     33  O   UNL     1     -28.235 107.694  23.462  1.00  0.00    -0.393 OA
ATOM     34  H   UNL     1     -27.551 107.387  24.112  1.00  0.00     0.210 HD
ENDBRANCH  27  33
TORSDOF 2
ENDMDL
MODEL 7
REMARK VINA RESULT:    -7.370      4.259      7.436
REMARK INTER + INTRA:          -8.221
REMARK INTER:                  -8.029
REMARK INTRA:                  -0.192
REMARK UNBOUND:                -0.205
REMARK SMILES C[C@@H]1[C@H]2C3=CC[C@@H]4[C@@]5(C)CC[C@H](O)C(C)(C)[C@H]5CC[C@@]4(C)[C@]3(C)CC[C@@]2(C(=O)[O-])CC[C@@H]1C
REMARK SMILES IDX 26 1 30 2 25 3 3 4 31 5 24 6 4 7 2 8 32 9 22 10 5 11 1 12
REMARK SMILES IDX 33 13 23 14 20 15 6 16 7 17 19 18 21 19 8 20 18 21 17 22
REMARK SMILES IDX 10 23 9 24 14 25 11 26 12 27 15 28 16 29 27 30 28 31 29 32
REMARK SMILES IDX 13 33
REMARK H PARENT 13 34
REMARK Flexibility Score: inf
ROOT
ATOM      1  C   UNL     1     -22.898 115.873  23.338  1.00  0.00     0.017 C 
ATOM      2  C   UNL     1     -22.667 115.297  24.779  1.00  0.00     0.014 C 
ATOM      3  C   UNL     1     -24.360 116.373  23.271  1.00  0.00     0.014 C 
ATOM      4  C   UNL     1     -22.667 114.766  22.241  1.00  0.00     0.030 C 
ATOM      5  C   UNL     1     -21.695 114.117  24.793  1.00  0.00     0.004 C 
ATOM      6  C   UNL     1     -24.717 116.978  21.914  1.00  0.00     0.013 C 
ATOM      7  C   UNL     1     -23.225 115.159  20.863  1.00  0.00    -0.063 C 
ATOM      8  C   UNL     1     -23.140 113.372  22.772  1.00  0.00    -0.003 C 
ATOM      9  C   UNL     1     -22.242 112.916  23.978  1.00  0.00    -0.011 C 
ATOM     10  C   UNL     1     -24.479 116.029  20.685  1.00  0.00    -0.006 C 
ATOM     11  C   UNL     1     -22.616 114.631  19.773  1.00  0.00    -0.027 C 
ATOM     12  C   UNL     1     -23.283 112.277  21.695  1.00  0.00     0.008 C 
ATOM     13  C   UNL     1     -21.059 112.014  23.577  1.00  0.00     0.008 C 
ATOM     14  C   UNL     1     -25.685 115.036  20.643  1.00  0.00     0.017 C 
ATOM     15  C   UNL     1     -24.337 116.875  19.318  1.00  0.00    -0.020 C 
ATOM     16  C   UNL     1     -23.062 114.821  18.344  1.00  0.00     0.032 C 
ATOM     17  C   UNL     1     -24.204 115.862  18.113  1.00  0.00     0.006 C 
ATOM     18  C   UNL     1     -25.570 117.822  19.111  1.00  0.00     0.008 C 
ATOM     19  C   UNL     1     -23.064 117.789  19.357  1.00  0.00     0.012 C 
ATOM     20  C   UNL     1     -24.245 116.478  16.636  1.00  0.00    -0.025 C 
ATOM     21  C   UNL     1     -26.256 117.709  17.750  1.00  0.00     0.005 C 
ATOM     22  C   UNL     1     -25.254 117.717  16.559  1.00  0.00     0.003 C 
ATOM     23  C   UNL     1     -24.692 115.340  15.642  1.00  0.00     0.010 C 
ATOM     24  C   UNL     1     -22.814 116.928  16.175  1.00  0.00     0.012 C 
ATOM     25  C   UNL     1     -26.013 117.851  15.166  1.00  0.00    -0.006 C 
ATOM     26  C   UNL     1     -26.201 115.250  15.440  1.00  0.00     0.033 C 
ATOM     27  C   UNL     1     -26.808 116.532  14.831  1.00  0.00     0.120 C 
ATOM     28  C   UNL     1     -27.020 119.039  15.186  1.00  0.00     0.014 C 
ATOM     29  C   UNL     1     -25.007 118.212  14.032  1.00  0.00     0.014 C 
ENDROOT
BRANCH   1  30
ATOM     30  C   UNL     1     -21.954 117.056  23.135  1.00  0.00     0.048 C 
ATOM     31  O   UNL     1     -22.120 118.144  23.750  1.00  0.00    -0.550 OA
ATOM     32  O   UNL     1     -20.880 116.941  22.259  1.00  0.00    -0.550 OA
ENDBRANCH   1  30
BRANCH  27  33
ATOM     33  O   UNL     1     -26.947 116.358  13.442  1.00  0.00    -0.393 OA
ATOM     34  H   UNL     1     -27.919 116.308  13.252  1.00  0.00     0.210 HD
ENDBRANCH  27  33
TORSDOF 2
ENDMDL
MODEL 8
REMARK VINA RESULT:    -7.278      2.212      2.654
REMARK INTER + INTRA:          -8.121
REMARK INTER:                  -7.966
REMARK INTRA:                  -0.155
REMARK UNBOUND:                -0.205
REMARK SMILES C[C@@H]1[C@H]2C3=CC[C@@H]4[C@@]5(C)CC[C@H](O)C(C)(C)[C@H]5CC[C@@]4(C)[C@]3(C)CC[C@@]2(C(=O)[O-])CC[C@@H]1C
REMARK SMILES IDX 26 1 30 2 25 3 3 4 31 5 24 6 4 7 2 8 32 9 22 10 5 11 1 12
REMARK SMILES IDX 33 13 23 14 20 15 6 16 7 17 19 18 21 19 8 20 18 21 17 22
REMARK SMILES IDX 10 23 9 24 14 25 11 26 12 27 15 28 16 29 27 30 28 31 29 32
REMARK SMILES IDX 13 33
REMARK H PARENT 13 34
REMARK Flexibility Score: inf
ROOT
ATOM      1  C   UNL     1     -24.219 114.762  18.021  1.00  0.00     0.017 C 
ATOM      2  C   UNL     1     -23.147 115.687  17.345  1.00  0.00     0.014 C 
ATOM      3  C   UNL     1     -24.669 115.456  19.328  1.00  0.00     0.014 C 
ATOM      4  C   UNL     1     -23.617 113.345  18.354  1.00  0.00     0.030 C 
ATOM      5  C   UNL     1     -22.077 114.896  16.593  1.00  0.00     0.004 C 
ATOM      6  C   UNL     1     -25.732 114.663  20.084  1.00  0.00     0.013 C 
ATOM      7  C   UNL     1     -24.488 112.536  19.330  1.00  0.00    -0.063 C 
ATOM      8  C   UNL     1     -22.114 113.481  18.768  1.00  0.00    -0.003 C 
ATOM      9  C   UNL     1     -21.259 113.988  17.550  1.00  0.00    -0.011 C 
ATOM     10  C   UNL     1     -25.326 113.188  20.441  1.00  0.00    -0.006 C 
ATOM     11  C   UNL     1     -24.428 111.185  19.241  1.00  0.00    -0.027 C 
ATOM     12  C   UNL     1     -21.504 112.232  19.436  1.00  0.00     0.008 C 
ATOM     13  C   UNL     1     -20.608 112.862  16.724  1.00  0.00     0.008 C 
ATOM     14  C   UNL     1     -24.391 113.268  21.690  1.00  0.00     0.017 C 
ATOM     15  C   UNL     1     -26.631 112.276  20.712  1.00  0.00    -0.020 C 
ATOM     16  C   UNL     1     -25.133 110.216  20.158  1.00  0.00     0.032 C 
ATOM     17  C   UNL     1     -26.153 110.840  21.165  1.00  0.00     0.006 C 
ATOM     18  C   UNL     1     -27.552 112.923  21.804  1.00  0.00     0.008 C 
ATOM     19  C   UNL     1     -27.495 112.139  19.412  1.00  0.00     0.012 C 
ATOM     20  C   UNL     1     -27.281 109.824  21.673  1.00  0.00    -0.025 C 
ATOM     21  C   UNL     1     -27.945 111.996  22.955  1.00  0.00     0.005 C 
ATOM     22  C   UNL     1     -28.429 110.598  22.475  1.00  0.00     0.003 C 
ATOM     23  C   UNL     1     -26.593 108.749  22.596  1.00  0.00     0.010 C 
ATOM     24  C   UNL     1     -27.910 109.035  20.472  1.00  0.00     0.012 C 
ATOM     25  C   UNL     1     -29.061 109.761  23.674  1.00  0.00    -0.006 C 
ATOM     26  C   UNL     1     -26.546 109.136  24.071  1.00  0.00     0.033 C 
ATOM     27  C   UNL     1     -27.946 109.316  24.695  1.00  0.00     0.120 C 
ATOM     28  C   UNL     1     -30.125 110.599  24.444  1.00  0.00     0.014 C 
ATOM     29  C   UNL     1     -29.851 108.536  23.124  1.00  0.00     0.014 C 
ENDROOT
BRANCH   1  30
ATOM     30  C   UNL     1     -25.416 114.645  17.079  1.00  0.00     0.048 C 
ATOM     31  O   UNL     1     -25.825 113.526  16.667  1.00  0.00    -0.550 OA
ATOM     32  O   UNL     1     -26.084 115.794  16.665  1.00  0.00    -0.550 OA
ENDBRANCH   1  30
BRANCH  27  33
ATOM     33  O   UNL     1     -28.307 108.130  25.360  1.00  0.00    -0.393 OA
ATOM     34  H   UNL     1     -27.721 108.056  26.157  1.00  0.00     0.210 HD
ENDBRANCH  27  33
TORSDOF 2
ENDMDL
MODEL 9
REMARK VINA RESULT:    -7.265      1.706      8.020
REMARK INTER + INTRA:          -8.107
REMARK INTER:                  -7.983
REMARK INTRA:                  -0.124
REMARK UNBOUND:                -0.205
REMARK SMILES C[C@@H]1[C@H]2C3=CC[C@@H]4[C@@]5(C)CC[C@H](O)C(C)(C)[C@H]5CC[C@@]4(C)[C@]3(C)CC[C@@]2(C(=O)[O-])CC[C@@H]1C
REMARK SMILES IDX 26 1 30 2 25 3 3 4 31 5 24 6 4 7 2 8 32 9 22 10 5 11 1 12
REMARK SMILES IDX 33 13 23 14 20 15 6 16 7 17 19 18 21 19 8 20 18 21 17 22
REMARK SMILES IDX 10 23 9 24 14 25 11 26 12 27 15 28 16 29 27 30 28 31 29 32
REMARK SMILES IDX 13 33
REMARK H PARENT 13 34
REMARK Flexibility Score: inf
ROOT
ATOM      1  C   UNL     1     -28.848 109.602  22.731  1.00  0.00     0.017 C 
ATOM      2  C   UNL     1     -30.125 108.707  22.555  1.00  0.00     0.014 C 
ATOM      3  C   UNL     1     -29.314 110.963  23.299  1.00  0.00     0.014 C 
ATOM      4  C   UNL     1     -28.117 109.825  21.354  1.00  0.00     0.030 C 
ATOM      5  C   UNL     1     -30.021 107.764  21.356  1.00  0.00     0.004 C 
ATOM      6  C   UNL     1     -28.158 111.933  23.536  1.00  0.00     0.013 C 
ATOM      7  C   UNL     1     -27.091 110.971  21.396  1.00  0.00    -0.063 C 
ATOM      8  C   UNL     1     -29.165 109.920  20.195  1.00  0.00    -0.003 C 
ATOM      9  C   UNL     1     -29.908 108.546  20.021  1.00  0.00    -0.011 C 
ATOM     10  C   UNL     1     -27.269 112.220  22.274  1.00  0.00    -0.006 C 
ATOM     11  C   UNL     1     -26.037 110.891  20.548  1.00  0.00    -0.027 C 
ATOM     12  C   UNL     1     -28.617 110.468  18.862  1.00  0.00     0.008 C 
ATOM     13  C   UNL     1     -29.281 107.620  18.960  1.00  0.00     0.008 C 
ATOM     14  C   UNL     1     -28.050 113.250  21.396  1.00  0.00     0.017 C 
ATOM     15  C   UNL     1     -25.811 112.766  22.703  1.00  0.00    -0.020 C 
ATOM     16  C   UNL     1     -24.973 111.947  20.374  1.00  0.00     0.032 C 
ATOM     17  C   UNL     1     -25.007 113.132  21.393  1.00  0.00     0.006 C 
ATOM     18  C   UNL     1     -25.933 114.015  23.645  1.00  0.00     0.008 C 
ATOM     19  C   UNL     1     -25.017 111.673  23.498  1.00  0.00     0.012 C 
ATOM     20  C   UNL     1     -23.603 113.876  21.585  1.00  0.00    -0.025 C 
ATOM     21  C   UNL     1     -25.118 115.235  23.215  1.00  0.00     0.005 C 
ATOM     22  C   UNL     1     -23.653 114.884  22.825  1.00  0.00     0.003 C 
ATOM     23  C   UNL     1     -23.274 114.654  20.255  1.00  0.00     0.010 C 
ATOM     24  C   UNL     1     -22.441 112.841  21.787  1.00  0.00     0.012 C 
ATOM     25  C   UNL     1     -22.776 116.199  22.630  1.00  0.00    -0.006 C 
ATOM     26  C   UNL     1     -23.810 116.083  20.222  1.00  0.00     0.033 C 
ATOM     27  C   UNL     1     -23.215 116.977  21.330  1.00  0.00     0.120 C 
ATOM     28  C   UNL     1     -22.923 117.159  23.848  1.00  0.00     0.014 C 
ATOM     29  C   UNL     1     -21.261 115.841  22.594  1.00  0.00     0.014 C 
ENDROOT
BRANCH   1  30
ATOM     30  C   UNL     1     -27.924 108.927  23.743  1.00  0.00     0.048 C 
ATOM     31  O   UNL     1     -26.721 108.670  23.469  1.00  0.00    -0.550 OA
ATOM     32  O   UNL     1     -28.408 108.590  25.003  1.00  0.00    -0.550 OA
ENDBRANCH   1  30
BRANCH  27  33
ATOM     33  O   UNL     1     -22.146 117.720  20.795  1.00  0.00    -0.393 OA
ATOM     34  H   UNL     1     -21.406 117.081  20.625  1.00  0.00     0.210 HD
ENDBRANCH  27  33
TORSDOF 2
ENDMDL
