MODEL 1
REMARK VINA RESULT:    -1.767      0.000      0.000
REMARK INTER + INTRA:          -0.887
REMARK INTER:                  -2.077
REMARK INTRA:                   1.190
REMARK UNBOUND:                 1.190
REMARK SMILES O=C([O-])C=Cc1ccc(O)c(O)c1
REMARK SMILES IDX 6 1 13 2 7 3 11 4 8 5 9 6 5 7 4 8 2 9 1 10 3 11 12 12 10 14
REMARK H PARENT 12 13 10 15
REMARK Flexibility Score: inf
ROOT
ATOM      1  C   UNL     1       1.215  -1.175   1.304  1.00  0.00    -0.022 A 
ATOM      2  C   UNL     1       1.511  -1.100  -0.067  1.00  0.00     0.058 A 
ATOM      3  C   UNL     1       0.118  -1.932   1.729  1.00  0.00     0.012 A 
ATOM      4  C   UNL     1       0.690  -1.728  -1.012  1.00  0.00     0.157 A 
ATOM      5  C   UNL     1      -0.707  -2.562   0.794  1.00  0.00     0.051 A 
ATOM      6  C   UNL     1      -0.438  -2.463  -0.577  1.00  0.00     0.157 A 
ENDROOT
BRANCH   1   7
ATOM      7  C   UNL     1       2.103  -0.561   2.313  1.00  0.00     0.010 C 
ATOM      8  C   UNL     1       3.437  -0.440   2.206  1.00  0.00     0.025 C 
BRANCH   8   9
ATOM      9  C   UNL     1       4.234  -0.732   0.999  1.00  0.00     0.064 C 
ATOM     10  O   UNL     1       4.007  -0.155  -0.097  1.00  0.00    -0.545 OA
ATOM     11  O   UNL     1       5.304  -1.614   1.092  1.00  0.00    -0.545 OA
ENDBRANCH   8   9
ENDBRANCH   1   7
BRANCH   4  12
ATOM     12  O   UNL     1       1.034  -1.603  -2.359  1.00  0.00    -0.504 OA
ATOM     13  H   UNL     1       0.558  -2.081  -3.111  1.00  0.00     0.293 HD
ENDBRANCH   4  12
BRANCH   6  14
ATOM     14  O   UNL     1      -1.306  -3.109  -1.460  1.00  0.00    -0.504 OA
ATOM     15  H   UNL     1      -1.119  -4.010  -1.877  1.00  0.00     0.293 HD
ENDBRANCH   6  14
TORSDOF 4
ENDMDL
MODEL 2
REMARK VINA RESULT:    -0.750      1.518      4.592
REMARK INTER + INTRA:           0.309
REMARK INTER:                  -0.741
REMARK INTRA:                   1.049
REMARK UNBOUND:                 1.190
REMARK SMILES O=C([O-])C=Cc1ccc(O)c(O)c1
REMARK SMILES IDX 6 1 13 2 7 3 11 4 8 5 9 6 5 7 4 8 2 9 1 10 3 11 12 12 10 14
REMARK H PARENT 12 13 10 15
REMARK Flexibility Score: inf
ROOT
ATOM      1  C   UNL     1       0.174  -2.301   0.385  1.00  0.00    -0.022 A 
ATOM      2  C   UNL     1       1.157  -1.636  -0.367  1.00  0.00     0.058 A 
ATOM      3  C   UNL     1       0.119  -2.104   1.769  1.00  0.00     0.012 A 
ATOM      4  C   UNL     1       2.112  -0.826   0.260  1.00  0.00     0.157 A 
ATOM      5  C   UNL     1       1.068  -1.299   2.404  1.00  0.00     0.051 A 
ATOM      6  C   UNL     1       2.071  -0.660   1.665  1.00  0.00     0.157 A 
ENDROOT
BRANCH   1   7
ATOM      7  C   UNL     1      -0.870  -3.115  -0.272  1.00  0.00     0.010 C 
ATOM      8  C   UNL     1      -1.274  -2.983  -1.546  1.00  0.00     0.025 C 
BRANCH   8   9
ATOM      9  C   UNL     1      -0.636  -2.132  -2.568  1.00  0.00     0.064 C 
ATOM     10  O   UNL     1       0.526  -2.370  -2.993  1.00  0.00    -0.545 OA
ATOM     11  O   UNL     1      -1.359  -1.084  -3.124  1.00  0.00    -0.545 OA
ENDBRANCH   8   9
ENDBRANCH   1   7
BRANCH   4  12
ATOM     12  O   UNL     1       3.069  -0.205  -0.544  1.00  0.00    -0.504 OA
ATOM     13  H   UNL     1       3.443   0.717  -0.369  1.00  0.00     0.293 HD
ENDBRANCH   4  12
BRANCH   6  14
ATOM     14  O   UNL     1       2.994   0.124   2.361  1.00  0.00    -0.504 OA
ATOM     15  H   UNL     1       3.356  -0.108   3.275  1.00  0.00     0.293 HD
ENDBRANCH   6  14
TORSDOF 4
ENDMDL
MODEL 3
REMARK VINA RESULT:     0.189      0.849      1.881
REMARK INTER + INTRA:           1.412
REMARK INTER:                   0.008
REMARK INTRA:                   1.404
REMARK UNBOUND:                 1.190
REMARK SMILES O=C([O-])C=Cc1ccc(O)c(O)c1
REMARK SMILES IDX 6 1 13 2 7 3 11 4 8 5 9 6 5 7 4 8 2 9 1 10 3 11 12 12 10 14
REMARK H PARENT 12 13 10 15
REMARK Flexibility Score: inf
ROOT
ATOM      1  C   UNL     1       0.996  -1.308   0.974  1.00  0.00    -0.022 A 
ATOM      2  C   UNL     1      -0.248  -1.938   1.139  1.00  0.00     0.058 A 
ATOM      3  C   UNL     1       1.533  -1.178  -0.312  1.00  0.00     0.012 A 
ATOM      4  C   UNL     1      -0.928  -2.482   0.042  1.00  0.00     0.157 A 
ATOM      5  C   UNL     1       0.864  -1.719  -1.412  1.00  0.00     0.051 A 
ATOM      6  C   UNL     1      -0.361  -2.378  -1.250  1.00  0.00     0.157 A 
ENDROOT
BRANCH   1   7
ATOM      7  C   UNL     1       1.696  -0.684   2.116  1.00  0.00     0.010 C 
ATOM      8  C   UNL     1       3.020  -0.471   2.195  1.00  0.00     0.025 C 
BRANCH   8   9
ATOM      9  C   UNL     1       3.990  -0.656   1.098  1.00  0.00     0.064 C 
ATOM     10  O   UNL     1       3.858  -0.064  -0.005  1.00  0.00    -0.545 OA
ATOM     11  O   UNL     1       5.111  -1.449   1.312  1.00  0.00    -0.545 OA
ENDBRANCH   8   9
ENDBRANCH   1   7
BRANCH   4  12
ATOM     12  O   UNL     1      -2.154  -3.105   0.279  1.00  0.00    -0.504 OA
ATOM     13  H   UNL     1      -2.396  -3.566   1.146  1.00  0.00     0.293 HD
ENDBRANCH   4  12
BRANCH   6  14
ATOM     14  O   UNL     1      -0.975  -2.903  -2.389  1.00  0.00    -0.504 OA
ATOM     15  H   UNL     1      -0.528  -2.966  -3.293  1.00  0.00     0.293 HD
ENDBRANCH   6  14
TORSDOF 4
ENDMDL
