MODEL 1
REMARK VINA RESULT:    -2.534      0.000      0.000
REMARK INTER + INTRA:          -6.707
REMARK INTER:                  -5.794
REMARK INTRA:                  -0.913
REMARK UNBOUND:                -0.913
REMARK SMILES CCCCCCCCCCCCCCCCCCCCCCCC(=O)[O-]
REMARK SMILES IDX 13 1 14 2 15 3 16 4 17 5 18 6 19 7 20 8 21 9 22 10 23 11
REMARK SMILES IDX 24 12 25 13 26 14 12 15 11 16 10 17 9 18 8 19 7 20 6 21 5 22
REMARK SMILES IDX 4 23 3 24 2 25 1 26
REMARK H PARENT
REMARK Flexibility Score: inf
ROOT
ATOM      1  C   UNL     1      41.502  27.706  17.116  1.00  0.00     0.000 C 
ENDROOT
BRANCH   1   2
ATOM      2  C   UNL     1      41.494  27.387  18.619  1.00  0.00     0.000 C 
BRANCH   2   3
ATOM      3  C   UNL     1      41.749  25.898  18.916  1.00  0.00     0.000 C 
BRANCH   3   4
ATOM      4  C   UNL     1      43.024  25.311  18.275  1.00  0.00     0.000 C 
BRANCH   4   5
ATOM      5  C   UNL     1      42.786  24.207  17.230  1.00  0.00     0.000 C 
BRANCH   5   6
ATOM      6  C   UNL     1      44.090  23.555  16.742  1.00  0.00     0.000 C 
BRANCH   6   7
ATOM      7  C   UNL     1      44.455  22.295  17.544  1.00  0.00     0.000 C 
BRANCH   7   8
ATOM      8  C   UNL     1      43.754  21.031  17.017  1.00  0.00     0.000 C 
BRANCH   8   9
ATOM      9  C   UNL     1      43.011  20.264  18.122  1.00  0.00     0.000 C 
BRANCH   9  10
ATOM     10  C   UNL     1      41.744  19.564  17.604  1.00  0.00     0.006 C 
BRANCH  10  11
ATOM     11  C   UNL     1      41.716  19.477  16.071  1.00  0.00     0.053 C 
BRANCH  11  12
ATOM     12  C   UNL     1      41.237  18.139  15.598  1.00  0.00     0.041 C 
ATOM     13  O   UNL     1      41.423  17.784  14.404  1.00  0.00    -0.550 OA
ATOM     14  O   UNL     1      40.607  17.273  16.481  1.00  0.00    -0.550 OA
ENDBRANCH  11  12
ENDBRANCH  10  11
ENDBRANCH   9  10
ENDBRANCH   8   9
ENDBRANCH   7   8
ENDBRANCH   6   7
ENDBRANCH   5   6
ENDBRANCH   4   5
ENDBRANCH   3   4
ENDBRANCH   2   3
ENDBRANCH   1   2
BRANCH   1  15
ATOM     15  C   UNL     1      40.621  26.715  16.340  1.00  0.00     0.000 C 
BRANCH  15  16
ATOM     16  C   UNL     1      39.322  26.356  17.091  1.00  0.00     0.000 C 
BRANCH  16  17
ATOM     17  C   UNL     1      38.089  26.215  16.176  1.00  0.00     0.000 C 
BRANCH  17  18
ATOM     18  C   UNL     1      36.857  25.569  16.835  1.00  0.00    -0.000 C 
BRANCH  18  19
ATOM     19  C   UNL     1      35.648  25.353  15.899  1.00  0.00    -0.000 C 
BRANCH  19  20
ATOM     20  C   UNL     1      35.006  26.645  15.361  1.00  0.00    -0.000 C 
BRANCH  20  21
ATOM     21  C   UNL     1      34.642  27.639  16.477  1.00  0.00    -0.000 C 
BRANCH  21  22
ATOM     22  C   UNL     1      34.842  29.101  16.051  1.00  0.00    -0.000 C 
BRANCH  22  23
ATOM     23  C   UNL     1      35.050  29.250  14.533  1.00  0.00    -0.000 C 
BRANCH  23  24
ATOM     24  C   UNL     1      35.014  30.715  14.065  1.00  0.00    -0.000 C 
BRANCH  24  25
ATOM     25  C   UNL     1      33.834  31.065  13.143  1.00  0.00    -0.003 C 
ATOM     26  C   UNL     1      32.971  32.204  13.682  1.00  0.00     0.004 C 
ENDBRANCH  24  25
ENDBRANCH  23  24
ENDBRANCH  22  23
ENDBRANCH  21  22
ENDBRANCH  20  21
ENDBRANCH  19  20
ENDBRANCH  18  19
ENDBRANCH  17  18
ENDBRANCH  16  17
ENDBRANCH  15  16
ENDBRANCH   1  15
TORSDOF 22
ENDMDL
MODEL 2
REMARK VINA RESULT:    -2.509      5.376      7.608
REMARK INTER + INTRA:          -6.648
REMARK INTER:                  -5.468
REMARK INTRA:                  -1.180
REMARK UNBOUND:                -0.913
REMARK SMILES CCCCCCCCCCCCCCCCCCCCCCCC(=O)[O-]
REMARK SMILES IDX 13 1 14 2 15 3 16 4 17 5 18 6 19 7 20 8 21 9 22 10 23 11
REMARK SMILES IDX 24 12 25 13 26 14 12 15 11 16 10 17 9 18 8 19 7 20 6 21 5 22
REMARK SMILES IDX 4 23 3 24 2 25 1 26
REMARK H PARENT
REMARK Flexibility Score: inf
ROOT
ATOM      1  C   UNL     1      41.193  26.279  19.057  1.00  0.00     0.000 C 
ENDROOT
BRANCH   1   2
ATOM      2  C   UNL     1      41.194  27.814  19.112  1.00  0.00     0.000 C 
BRANCH   2   3
ATOM      3  C   UNL     1      42.115  28.449  18.054  1.00  0.00     0.000 C 
BRANCH   3   4
ATOM      4  C   UNL     1      41.493  29.615  17.258  1.00  0.00     0.000 C 
BRANCH   4   5
ATOM      5  C   UNL     1      42.267  30.036  15.996  1.00  0.00     0.000 C 
BRANCH   5   6
ATOM      6  C   UNL     1      42.694  31.513  16.021  1.00  0.00     0.000 C 
BRANCH   6   7
ATOM      7  C   UNL     1      44.178  31.703  15.665  1.00  0.00     0.000 C 
BRANCH   7   8
ATOM      8  C   UNL     1      45.067  31.893  16.907  1.00  0.00     0.000 C 
BRANCH   8   9
ATOM      9  C   UNL     1      46.402  31.141  16.797  1.00  0.00     0.000 C 
BRANCH   9  10
ATOM     10  C   UNL     1      46.640  30.566  15.391  1.00  0.00     0.006 C 
BRANCH  10  11
ATOM     11  C   UNL     1      47.922  29.724  15.320  1.00  0.00     0.053 C 
BRANCH  11  12
ATOM     12  C   UNL     1      48.987  30.399  14.510  1.00  0.00     0.041 C 
ATOM     13  O   UNL     1      48.829  30.573  13.273  1.00  0.00    -0.550 OA
ATOM     14  O   UNL     1      50.144  30.857  15.126  1.00  0.00    -0.550 OA
ENDBRANCH  11  12
ENDBRANCH  10  11
ENDBRANCH   9  10
ENDBRANCH   8   9
ENDBRANCH   7   8
ENDBRANCH   6   7
ENDBRANCH   5   6
ENDBRANCH   4   5
ENDBRANCH   3   4
ENDBRANCH   2   3
ENDBRANCH   1   2
BRANCH   1  15
ATOM     15  C   UNL     1      41.523  25.780  17.643  1.00  0.00     0.000 C 
BRANCH  15  16
ATOM     16  C   UNL     1      40.425  26.126  16.615  1.00  0.00     0.000 C 
BRANCH  16  17
ATOM     17  C   UNL     1      39.026  26.314  17.233  1.00  0.00     0.000 C 
BRANCH  17  18
ATOM     18  C   UNL     1      37.878  26.466  16.218  1.00  0.00    -0.000 C 
BRANCH  18  19
ATOM     19  C   UNL     1      36.887  25.283  16.165  1.00  0.00    -0.000 C 
BRANCH  19  20
ATOM     20  C   UNL     1      35.402  25.676  16.265  1.00  0.00    -0.000 C 
BRANCH  20  21
ATOM     21  C   UNL     1      35.050  26.899  15.401  1.00  0.00    -0.000 C 
BRANCH  21  22
ATOM     22  C   UNL     1      34.628  28.113  16.242  1.00  0.00    -0.000 C 
BRANCH  22  23
ATOM     23  C   UNL     1      34.934  29.450  15.543  1.00  0.00    -0.000 C 
BRANCH  23  24
ATOM     24  C   UNL     1      35.229  29.286  14.042  1.00  0.00    -0.000 C 
BRANCH  24  25
ATOM     25  C   UNL     1      34.235  30.002  13.112  1.00  0.00    -0.003 C 
ATOM     26  C   UNL     1      33.990  31.458  13.505  1.00  0.00     0.004 C 
ENDBRANCH  24  25
ENDBRANCH  23  24
ENDBRANCH  22  23
ENDBRANCH  21  22
ENDBRANCH  20  21
ENDBRANCH  19  20
ENDBRANCH  18  19
ENDBRANCH  17  18
ENDBRANCH  16  17
ENDBRANCH  15  16
ENDBRANCH   1  15
TORSDOF 22
ENDMDL
MODEL 3
REMARK VINA RESULT:    -2.507      4.347     10.446
REMARK INTER + INTRA:          -6.644
REMARK INTER:                  -5.870
REMARK INTRA:                  -0.774
REMARK UNBOUND:                -0.913
REMARK SMILES CCCCCCCCCCCCCCCCCCCCCCCC(=O)[O-]
REMARK SMILES IDX 13 1 14 2 15 3 16 4 17 5 18 6 19 7 20 8 21 9 22 10 23 11
REMARK SMILES IDX 24 12 25 13 26 14 12 15 11 16 10 17 9 18 8 19 7 20 6 21 5 22
REMARK SMILES IDX 4 23 3 24 2 25 1 26
REMARK H PARENT
REMARK Flexibility Score: inf
ROOT
ATOM      1  C   UNL     1      41.680  27.860  18.508  1.00  0.00     0.000 C 
ENDROOT
BRANCH   1   2
ATOM      2  C   UNL     1      40.840  26.748  19.154  1.00  0.00     0.000 C 
BRANCH   2   3
ATOM      3  C   UNL     1      39.328  26.937  18.936  1.00  0.00     0.000 C 
BRANCH   3   4
ATOM      4  C   UNL     1      38.656  25.877  18.039  1.00  0.00     0.000 C 
BRANCH   4   5
ATOM      5  C   UNL     1      38.462  26.288  16.568  1.00  0.00     0.000 C 
BRANCH   5   6
ATOM      6  C   UNL     1      37.291  25.557  15.892  1.00  0.00     0.000 C 
BRANCH   6   7
ATOM      7  C   UNL     1      35.943  25.849  16.572  1.00  0.00     0.000 C 
BRANCH   7   8
ATOM      8  C   UNL     1      34.950  26.563  15.637  1.00  0.00     0.000 C 
BRANCH   8   9
ATOM      9  C   UNL     1      34.950  28.087  15.831  1.00  0.00     0.000 C 
BRANCH   9  10
ATOM     10  C   UNL     1      35.257  28.847  14.529  1.00  0.00     0.006 C 
BRANCH  10  11
ATOM     11  C   UNL     1      34.921  30.341  14.638  1.00  0.00     0.053 C 
BRANCH  11  12
ATOM     12  C   UNL     1      34.052  30.800  13.507  1.00  0.00     0.041 C 
ATOM     13  O   UNL     1      33.343  31.833  13.630  1.00  0.00    -0.550 OA
ATOM     14  O   UNL     1      34.045  30.102  12.308  1.00  0.00    -0.550 OA
ENDBRANCH  11  12
ENDBRANCH  10  11
ENDBRANCH   9  10
ENDBRANCH   8   9
ENDBRANCH   7   8
ENDBRANCH   6   7
ENDBRANCH   5   6
ENDBRANCH   4   5
ENDBRANCH   3   4
ENDBRANCH   2   3
ENDBRANCH   1   2
BRANCH   1  15
ATOM     15  C   UNL     1      41.881  27.594  17.008  1.00  0.00     0.000 C 
BRANCH  15  16
ATOM     16  C   UNL     1      41.812  26.095  16.652  1.00  0.00     0.000 C 
BRANCH  16  17
ATOM     17  C   UNL     1      42.707  25.200  17.531  1.00  0.00     0.000 C 
BRANCH  17  18
ATOM     18  C   UNL     1      43.317  23.981  16.816  1.00  0.00    -0.000 C 
BRANCH  18  19
ATOM     19  C   UNL     1      44.162  23.049  17.710  1.00  0.00    -0.000 C 
BRANCH  19  20
ATOM     20  C   UNL     1      44.805  21.856  16.979  1.00  0.00    -0.000 C 
BRANCH  20  21
ATOM     21  C   UNL     1      43.794  20.748  16.641  1.00  0.00    -0.000 C 
BRANCH  21  22
ATOM     22  C   UNL     1      42.984  20.297  17.866  1.00  0.00    -0.000 C 
BRANCH  22  23
ATOM     23  C   UNL     1      41.765  19.437  17.483  1.00  0.00    -0.000 C 
BRANCH  23  24
ATOM     24  C   UNL     1      41.427  19.514  15.984  1.00  0.00    -0.000 C 
BRANCH  24  25
ATOM     25  C   UNL     1      41.375  18.154  15.268  1.00  0.00    -0.003 C 
ATOM     26  C   UNL     1      40.534  17.118  16.012  1.00  0.00     0.004 C 
ENDBRANCH  24  25
ENDBRANCH  23  24
ENDBRANCH  22  23
ENDBRANCH  21  22
ENDBRANCH  20  21
ENDBRANCH  19  20
ENDBRANCH  18  19
ENDBRANCH  17  18
ENDBRANCH  16  17
ENDBRANCH  15  16
ENDBRANCH   1  15
TORSDOF 22
ENDMDL
MODEL 4
REMARK VINA RESULT:    -2.464      5.378     10.159
REMARK INTER + INTRA:          -6.546
REMARK INTER:                  -5.090
REMARK INTRA:                  -1.456
REMARK UNBOUND:                -0.913
REMARK SMILES CCCCCCCCCCCCCCCCCCCCCCCC(=O)[O-]
REMARK SMILES IDX 13 1 14 2 15 3 16 4 17 5 18 6 19 7 20 8 21 9 22 10 23 11
REMARK SMILES IDX 24 12 25 13 26 14 12 15 11 16 10 17 9 18 8 19 7 20 6 21 5 22
REMARK SMILES IDX 4 23 3 24 2 25 1 26
REMARK H PARENT
REMARK Flexibility Score: inf
ROOT
ATOM      1  C   UNL     1      39.528  26.380  19.114  1.00  0.00     0.000 C 
ENDROOT
BRANCH   1   2
ATOM      2  C   UNL     1      39.284  27.030  17.744  1.00  0.00     0.000 C 
BRANCH   2   3
ATOM      3  C   UNL     1      40.102  26.375  16.617  1.00  0.00     0.000 C 
BRANCH   3   4
ATOM      4  C   UNL     1      41.370  27.145  16.192  1.00  0.00     0.000 C 
BRANCH   4   5
ATOM      5  C   UNL     1      41.568  28.510  16.875  1.00  0.00     0.000 C 
BRANCH   5   6
ATOM      6  C   UNL     1      42.441  29.470  16.049  1.00  0.00     0.000 C 
BRANCH   6   7
ATOM      7  C   UNL     1      42.182  30.946  16.393  1.00  0.00     0.000 C 
BRANCH   7   8
ATOM      8  C   UNL     1      43.330  31.870  15.950  1.00  0.00     0.000 C 
BRANCH   8   9
ATOM      9  C   UNL     1      44.715  31.257  16.212  1.00  0.00     0.000 C 
BRANCH   9  10
ATOM     10  C   UNL     1      45.649  31.370  14.995  1.00  0.00     0.006 C 
BRANCH  10  11
ATOM     11  C   UNL     1      46.470  30.091  14.776  1.00  0.00     0.053 C 
BRANCH  11  12
ATOM     12  C   UNL     1      47.774  30.134  15.512  1.00  0.00     0.041 C 
ATOM     13  O   UNL     1      47.801  30.008  16.764  1.00  0.00    -0.550 OA
ATOM     14  O   UNL     1      48.963  30.288  14.812  1.00  0.00    -0.550 OA
ENDBRANCH  11  12
ENDBRANCH  10  11
ENDBRANCH   9  10
ENDBRANCH   8   9
ENDBRANCH   7   8
ENDBRANCH   6   7
ENDBRANCH   5   6
ENDBRANCH   4   5
ENDBRANCH   3   4
ENDBRANCH   2   3
ENDBRANCH   1   2
BRANCH   1  15
ATOM     15  C   UNL     1      40.600  27.148  19.902  1.00  0.00     0.000 C 
BRANCH  15  16
ATOM     16  C   UNL     1      41.993  26.491  19.813  1.00  0.00     0.000 C 
BRANCH  16  17
ATOM     17  C   UNL     1      42.031  25.220  18.942  1.00  0.00     0.000 C 
BRANCH  17  18
ATOM     18  C   UNL     1      43.256  25.099  18.016  1.00  0.00    -0.000 C 
BRANCH  18  19
ATOM     19  C   UNL     1      43.138  24.033  16.907  1.00  0.00    -0.000 C 
BRANCH  19  20
ATOM     20  C   UNL     1      44.389  23.156  16.714  1.00  0.00    -0.000 C 
BRANCH  20  21
ATOM     21  C   UNL     1      44.404  21.928  17.639  1.00  0.00    -0.000 C 
BRANCH  21  22
ATOM     22  C   UNL     1      43.629  20.738  17.051  1.00  0.00    -0.000 C 
BRANCH  22  23
ATOM     23  C   UNL     1      42.777  20.011  18.107  1.00  0.00    -0.000 C 
BRANCH  23  24
ATOM     24  C   UNL     1      41.414  19.550  17.561  1.00  0.00    -0.000 C 
BRANCH  24  25
ATOM     25  C   UNL     1      41.346  19.428  16.028  1.00  0.00    -0.003 C 
ATOM     26  C   UNL     1      41.156  17.989  15.552  1.00  0.00     0.004 C 
ENDBRANCH  24  25
ENDBRANCH  23  24
ENDBRANCH  22  23
ENDBRANCH  21  22
ENDBRANCH  20  21
ENDBRANCH  19  20
ENDBRANCH  18  19
ENDBRANCH  17  18
ENDBRANCH  16  17
ENDBRANCH  15  16
ENDBRANCH   1  15
TORSDOF 22
ENDMDL
MODEL 5
REMARK VINA RESULT:    -2.449      3.927      7.089
REMARK INTER + INTRA:          -6.513
REMARK INTER:                  -5.402
REMARK INTRA:                  -1.111
REMARK UNBOUND:                -0.913
REMARK SMILES CCCCCCCCCCCCCCCCCCCCCCCC(=O)[O-]
REMARK SMILES IDX 13 1 14 2 15 3 16 4 17 5 18 6 19 7 20 8 21 9 22 10 23 11
REMARK SMILES IDX 24 12 25 13 26 14 12 15 11 16 10 17 9 18 8 19 7 20 6 21 5 22
REMARK SMILES IDX 4 23 3 24 2 25 1 26
REMARK H PARENT
REMARK Flexibility Score: inf
ROOT
ATOM      1  C   UNL     1      39.881  26.820  17.722  1.00  0.00     0.000 C 
ENDROOT
BRANCH   1   2
ATOM      2  C   UNL     1      40.837  25.720  17.236  1.00  0.00     0.000 C 
BRANCH   2   3
ATOM      3  C   UNL     1      41.907  25.353  18.280  1.00  0.00     0.000 C 
BRANCH   3   4
ATOM      4  C   UNL     1      43.282  24.960  17.701  1.00  0.00     0.000 C 
BRANCH   4   5
ATOM      5  C   UNL     1      43.316  23.622  16.940  1.00  0.00     0.000 C 
BRANCH   5   6
ATOM      6  C   UNL     1      44.703  22.959  16.958  1.00  0.00     0.000 C 
BRANCH   6   7
ATOM      7  C   UNL     1      44.643  21.480  17.373  1.00  0.00     0.000 C 
BRANCH   7   8
ATOM      8  C   UNL     1      43.346  20.788  16.920  1.00  0.00     0.000 C 
BRANCH   8   9
ATOM      9  C   UNL     1      42.609  20.099  18.079  1.00  0.00     0.000 C 
BRANCH   9  10
ATOM     10  C   UNL     1      41.392  19.288  17.605  1.00  0.00     0.006 C 
BRANCH  10  11
ATOM     11  C   UNL     1      41.254  19.292  16.076  1.00  0.00     0.053 C 
BRANCH  11  12
ATOM     12  C   UNL     1      41.057  17.910  15.531  1.00  0.00     0.041 C 
ATOM     13  O   UNL     1      40.538  17.013  16.246  1.00  0.00    -0.550 OA
ATOM     14  O   UNL     1      41.424  17.619  14.224  1.00  0.00    -0.550 OA
ENDBRANCH  11  12
ENDBRANCH  10  11
ENDBRANCH   9  10
ENDBRANCH   8   9
ENDBRANCH   7   8
ENDBRANCH   6   7
ENDBRANCH   5   6
ENDBRANCH   4   5
ENDBRANCH   3   4
ENDBRANCH   2   3
ENDBRANCH   1   2
BRANCH   1  15
ATOM     15  C   UNL     1      40.584  27.759  18.713  1.00  0.00     0.000 C 
BRANCH  15  16
ATOM     16  C   UNL     1      41.415  28.854  18.012  1.00  0.00     0.000 C 
BRANCH  16  17
ATOM     17  C   UNL     1      41.867  28.481  16.588  1.00  0.00     0.000 C 
BRANCH  17  18
ATOM     18  C   UNL     1      42.528  29.622  15.791  1.00  0.00    -0.000 C 
BRANCH  18  19
ATOM     19  C   UNL     1      42.105  31.046  16.210  1.00  0.00    -0.000 C 
BRANCH  19  20
ATOM     20  C   UNL     1      43.199  32.118  16.058  1.00  0.00    -0.000 C 
BRANCH  20  21
ATOM     21  C   UNL     1      44.588  31.518  15.783  1.00  0.00    -0.000 C 
BRANCH  21  22
ATOM     22  C   UNL     1      45.533  31.645  16.988  1.00  0.00    -0.000 C 
BRANCH  22  23
ATOM     23  C   UNL     1      46.880  30.937  16.756  1.00  0.00    -0.000 C 
BRANCH  23  24
ATOM     24  C   UNL     1      47.024  30.376  15.331  1.00  0.00    -0.000 C 
BRANCH  24  25
ATOM     25  C   UNL     1      48.304  29.556  15.091  1.00  0.00    -0.003 C 
ATOM     26  C   UNL     1      49.517  30.424  14.760  1.00  0.00     0.004 C 
ENDBRANCH  24  25
ENDBRANCH  23  24
ENDBRANCH  22  23
ENDBRANCH  21  22
ENDBRANCH  20  21
ENDBRANCH  19  20
ENDBRANCH  18  19
ENDBRANCH  17  18
ENDBRANCH  16  17
ENDBRANCH  15  16
ENDBRANCH   1  15
TORSDOF 22
ENDMDL
MODEL 6
REMARK VINA RESULT:    -2.394      0.905      1.981
REMARK INTER + INTRA:          -6.386
REMARK INTER:                  -6.156
REMARK INTRA:                  -0.230
REMARK UNBOUND:                -0.913
REMARK SMILES CCCCCCCCCCCCCCCCCCCCCCCC(=O)[O-]
REMARK SMILES IDX 13 1 14 2 15 3 16 4 17 5 18 6 19 7 20 8 21 9 22 10 23 11
REMARK SMILES IDX 24 12 25 13 26 14 12 15 11 16 10 17 9 18 8 19 7 20 6 21 5 22
REMARK SMILES IDX 4 23 3 24 2 25 1 26
REMARK H PARENT
REMARK Flexibility Score: inf
ROOT
ATOM      1  C   UNL     1      41.230  28.165  17.930  1.00  0.00     0.000 C 
ENDROOT
BRANCH   1   2
ATOM      2  C   UNL     1      42.067  27.461  16.851  1.00  0.00     0.000 C 
BRANCH   2   3
ATOM      3  C   UNL     1      41.804  25.946  16.784  1.00  0.00     0.000 C 
BRANCH   3   4
ATOM      4  C   UNL     1      42.767  25.076  17.619  1.00  0.00     0.000 C 
BRANCH   4   5
ATOM      5  C   UNL     1      43.223  23.769  16.946  1.00  0.00     0.000 C 
BRANCH   5   6
ATOM      6  C   UNL     1      44.569  23.258  17.485  1.00  0.00     0.000 C 
BRANCH   6   7
ATOM      7  C   UNL     1      44.744  21.743  17.292  1.00  0.00     0.000 C 
BRANCH   7   8
ATOM      8  C   UNL     1      43.451  21.051  16.824  1.00  0.00     0.000 C 
BRANCH   8   9
ATOM      9  C   UNL     1      42.802  20.203  17.929  1.00  0.00     0.000 C 
BRANCH   9  10
ATOM     10  C   UNL     1      41.534  19.478  17.448  1.00  0.00     0.006 C 
BRANCH  10  11
ATOM     11  C   UNL     1      41.481  19.357  15.919  1.00  0.00     0.053 C 
BRANCH  11  12
ATOM     12  C   UNL     1      41.147  17.963  15.481  1.00  0.00     0.041 C 
ATOM     13  O   UNL     1      41.332  17.611  14.287  1.00  0.00    -0.550 OA
ATOM     14  O   UNL     1      40.653  17.047  16.399  1.00  0.00    -0.550 OA
ENDBRANCH  11  12
ENDBRANCH  10  11
ENDBRANCH   9  10
ENDBRANCH   8   9
ENDBRANCH   7   8
ENDBRANCH   6   7
ENDBRANCH   5   6
ENDBRANCH   4   5
ENDBRANCH   3   4
ENDBRANCH   2   3
ENDBRANCH   1   2
BRANCH   1  15
ATOM     15  C   UNL     1      41.696  27.759  19.337  1.00  0.00     0.000 C 
BRANCH  15  16
ATOM     16  C   UNL     1      40.550  27.206  20.209  1.00  0.00     0.000 C 
BRANCH  16  17
ATOM     17  C   UNL     1      39.603  26.246  19.464  1.00  0.00     0.000 C 
BRANCH  17  18
ATOM     18  C   UNL     1      38.919  26.838  18.218  1.00  0.00    -0.000 C 
BRANCH  18  19
ATOM     19  C   UNL     1      38.491  25.809  17.151  1.00  0.00    -0.000 C 
BRANCH  19  20
ATOM     20  C   UNL     1      37.466  26.325  16.125  1.00  0.00    -0.000 C 
BRANCH  20  21
ATOM     21  C   UNL     1      36.132  25.562  16.178  1.00  0.00    -0.000 C 
BRANCH  21  22
ATOM     22  C   UNL     1      34.966  26.372  15.592  1.00  0.00    -0.000 C 
BRANCH  22  23
ATOM     23  C   UNL     1      35.131  27.887  15.813  1.00  0.00    -0.000 C 
BRANCH  23  24
ATOM     24  C   UNL     1      34.969  28.701  14.518  1.00  0.00    -0.000 C 
BRANCH  24  25
ATOM     25  C   UNL     1      34.953  30.227  14.718  1.00  0.00    -0.003 C 
ATOM     26  C   UNL     1      34.214  30.967  13.604  1.00  0.00     0.004 C 
ENDBRANCH  24  25
ENDBRANCH  23  24
ENDBRANCH  22  23
ENDBRANCH  21  22
ENDBRANCH  20  21
ENDBRANCH  19  20
ENDBRANCH  18  19
ENDBRANCH  17  18
ENDBRANCH  16  17
ENDBRANCH  15  16
ENDBRANCH   1  15
TORSDOF 22
ENDMDL
MODEL 7
REMARK VINA RESULT:    -2.235      5.803     10.542
REMARK INTER + INTRA:          -6.024
REMARK INTER:                  -6.015
REMARK INTRA:                  -0.008
REMARK UNBOUND:                -0.913
REMARK SMILES CCCCCCCCCCCCCCCCCCCCCCCC(=O)[O-]
REMARK SMILES IDX 13 1 14 2 15 3 16 4 17 5 18 6 19 7 20 8 21 9 22 10 23 11
REMARK SMILES IDX 24 12 25 13 26 14 12 15 11 16 10 17 9 18 8 19 7 20 6 21 5 22
REMARK SMILES IDX 4 23 3 24 2 25 1 26
REMARK H PARENT
REMARK Flexibility Score: inf
ROOT
ATOM      1  C   UNL     1      41.038  27.588  19.019  1.00  0.00     0.000 C 
ENDROOT
BRANCH   1   2
ATOM      2  C   UNL     1      41.606  26.276  18.457  1.00  0.00     0.000 C 
BRANCH   2   3
ATOM      3  C   UNL     1      40.954  25.865  17.125  1.00  0.00     0.000 C 
BRANCH   3   4
ATOM      4  C   UNL     1      39.642  26.601  16.781  1.00  0.00     0.000 C 
BRANCH   4   5
ATOM      5  C   UNL     1      38.352  25.818  17.083  1.00  0.00     0.000 C 
BRANCH   5   6
ATOM      6  C   UNL     1      37.326  25.892  15.940  1.00  0.00     0.000 C 
BRANCH   6   7
ATOM      7  C   UNL     1      35.880  25.726  16.435  1.00  0.00     0.000 C 
BRANCH   7   8
ATOM      8  C   UNL     1      34.859  26.455  15.543  1.00  0.00     0.000 C 
BRANCH   8   9
ATOM      9  C   UNL     1      34.851  27.973  15.777  1.00  0.00     0.000 C 
BRANCH   9  10
ATOM     10  C   UNL     1      35.276  28.764  14.528  1.00  0.00     0.006 C 
BRANCH  10  11
ATOM     11  C   UNL     1      34.945  30.259  14.650  1.00  0.00     0.053 C 
BRANCH  11  12
ATOM     12  C   UNL     1      34.067  30.728  13.529  1.00  0.00     0.041 C 
ATOM     13  O   UNL     1      33.349  31.752  13.672  1.00  0.00    -0.550 OA
ATOM     14  O   UNL     1      34.062  30.048  12.319  1.00  0.00    -0.550 OA
ENDBRANCH  11  12
ENDBRANCH  10  11
ENDBRANCH   9  10
ENDBRANCH   8   9
ENDBRANCH   7   8
ENDBRANCH   6   7
ENDBRANCH   5   6
ENDBRANCH   4   5
ENDBRANCH   3   4
ENDBRANCH   2   3
ENDBRANCH   1   2
BRANCH   1  15
ATOM     15  C   UNL     1      41.471  28.786  18.160  1.00  0.00     0.000 C 
BRANCH  15  16
ATOM     16  C   UNL     1      42.156  28.362  16.845  1.00  0.00     0.000 C 
BRANCH  16  17
ATOM     17  C   UNL     1      42.562  29.542  15.941  1.00  0.00     0.000 C 
BRANCH  17  18
ATOM     18  C   UNL     1      42.145  30.932  16.456  1.00  0.00    -0.000 C 
BRANCH  18  19
ATOM     19  C   UNL     1      42.953  32.115  15.880  1.00  0.00    -0.000 C 
BRANCH  19  20
ATOM     20  C   UNL     1      44.414  31.789  15.518  1.00  0.00    -0.000 C 
BRANCH  20  21
ATOM     21  C   UNL     1      45.357  31.859  16.731  1.00  0.00    -0.000 C 
BRANCH  21  22
ATOM     22  C   UNL     1      46.438  30.768  16.699  1.00  0.00    -0.000 C 
BRANCH  22  23
ATOM     23  C   UNL     1      46.843  30.380  15.265  1.00  0.00    -0.000 C 
BRANCH  23  24
ATOM     24  C   UNL     1      48.218  29.693  15.197  1.00  0.00    -0.000 C 
BRANCH  24  25
ATOM     25  C   UNL     1      49.275  30.457  14.381  1.00  0.00    -0.003 C 
ATOM     26  C   UNL     1      50.535  30.775  15.185  1.00  0.00     0.004 C 
ENDBRANCH  24  25
ENDBRANCH  23  24
ENDBRANCH  22  23
ENDBRANCH  21  22
ENDBRANCH  20  21
ENDBRANCH  19  20
ENDBRANCH  18  19
ENDBRANCH  17  18
ENDBRANCH  16  17
ENDBRANCH  15  16
ENDBRANCH   1  15
TORSDOF 22
ENDMDL
