MODEL 1
REMARK VINA RESULT:    -7.847      0.000      0.000
REMARK INTER + INTRA:          -9.705
REMARK INTER:                  -9.453
REMARK INTRA:                  -0.252
REMARK UNBOUND:                -0.252
REMARK SMILES Oc1cc(O)c2cc(O)c(-c3ccc(O)c(O)c3)[o+]c2c1.[Cl-]
REMARK SMILES IDX 10 1 19 2 20 3 21 4 2 5 3 6 4 7 6 8 7 9 8 10 11 11 12 12
REMARK SMILES IDX 13 13 14 14 18 15 16 16 15 17 17 19 9 21 1 23 5 25
REMARK H PARENT 15 18 17 20 9 22 1 24 5 26
REMARK Flexibility Score: inf
ROOT
ATOM      1  C   UNL     1      11.270 -26.200   6.723  1.00  0.00     0.402 A 
ATOM      2  O   UNL     1      12.131 -26.342   7.726  1.00  0.00    -0.202 OA
ATOM      3  C   UNL     1      13.196 -27.135   7.667  1.00  0.00     0.368 A 
ATOM      4  C   UNL     1      14.042 -27.220   8.776  1.00  0.00     0.162 A 
ATOM      5  C   UNL     1      15.168 -28.049   8.742  1.00  0.00     0.128 A 
ATOM      6  C   UNL     1      15.447 -28.796   7.596  1.00  0.00     0.093 A 
ATOM      7  C   UNL     1      14.614 -28.728   6.471  1.00  0.00     0.136 A 
ATOM      8  C   UNL     1      13.472 -27.886   6.500  1.00  0.00     0.125 A 
ATOM      9  C   UNL     1      12.590 -27.746   5.416  1.00  0.00     0.078 A 
ATOM     10  C   UNL     1      11.486 -26.892   5.517  1.00  0.00     0.223 A 
ENDROOT
BRANCH   1  11
ATOM     11  C   UNL     1      10.115 -25.293   6.914  1.00  0.00     0.087 A 
ATOM     12  C   UNL     1       9.049 -25.697   7.734  1.00  0.00     0.022 A 
ATOM     13  C   UNL     1       7.940 -24.867   7.913  1.00  0.00     0.051 A 
ATOM     14  C   UNL     1       7.872 -23.628   7.263  1.00  0.00     0.157 A 
ATOM     15  C   UNL     1      10.034 -24.058   6.247  1.00  0.00     0.068 A 
ATOM     16  C   UNL     1       8.922 -23.225   6.422  1.00  0.00     0.158 A 
BRANCH  14  17
ATOM     17  O   UNL     1       6.764 -22.801   7.445  1.00  0.00    -0.504 OA
ATOM     18  H   UNL     1       6.863 -21.799   7.559  1.00  0.00     0.293 HD
ENDBRANCH  14  17
BRANCH  16  19
ATOM     19  O   UNL     1       8.878 -22.004   5.748  1.00  0.00    -0.504 OA
ATOM     20  H   UNL     1       9.640 -21.686   5.162  1.00  0.00     0.293 HD
ENDBRANCH  16  19
ENDBRANCH   1  11
BRANCH  10  21
ATOM     21  O   UNL     1      10.638 -26.714   4.423  1.00  0.00    -0.500 OA
ATOM     22  H   UNL     1       9.904 -26.016   4.426  1.00  0.00     0.294 HD
ENDBRANCH  10  21
BRANCH   5  23
ATOM     23  O   UNL     1      16.017 -28.138   9.843  1.00  0.00    -0.507 OA
ATOM     24  H   UNL     1      15.687 -28.475  10.740  1.00  0.00     0.293 HD
ENDBRANCH   5  23
BRANCH   7  25
ATOM     25  O   UNL     1      14.961 -29.509   5.365  1.00  0.00    -0.507 OA
ATOM     26  H   UNL     1      15.507 -29.179   4.582  1.00  0.00     0.293 HD
ENDBRANCH   7  25
TORSDOF 6
ENDMDL
MODEL 2
REMARK VINA RESULT:    -7.494      1.068      2.623
REMARK INTER + INTRA:          -9.280
REMARK INTER:                  -8.940
REMARK INTRA:                  -0.340
REMARK UNBOUND:                -0.252
REMARK SMILES Oc1cc(O)c2cc(O)c(-c3ccc(O)c(O)c3)[o+]c2c1.[Cl-]
REMARK SMILES IDX 10 1 19 2 20 3 21 4 2 5 3 6 4 7 6 8 7 9 8 10 11 11 12 12
REMARK SMILES IDX 13 13 14 14 18 15 16 16 15 17 17 19 9 21 1 23 5 25
REMARK H PARENT 15 18 17 20 9 22 1 24 5 26
REMARK Flexibility Score: inf
ROOT
ATOM      1  C   UNL     1      11.507 -25.645   7.921  1.00  0.00     0.402 A 
ATOM      2  O   UNL     1      11.799 -26.647   7.096  1.00  0.00    -0.202 OA
ATOM      3  C   UNL     1      12.922 -27.354   7.174  1.00  0.00     0.368 A 
ATOM      4  C   UNL     1      13.139 -28.387   6.259  1.00  0.00     0.162 A 
ATOM      5  C   UNL     1      14.313 -29.145   6.317  1.00  0.00     0.128 A 
ATOM      6  C   UNL     1      15.272 -28.868   7.294  1.00  0.00     0.093 A 
ATOM      7  C   UNL     1      15.077 -27.837   8.223  1.00  0.00     0.136 A 
ATOM      8  C   UNL     1      13.887 -27.067   8.169  1.00  0.00     0.125 A 
ATOM      9  C   UNL     1      13.601 -26.025   9.067  1.00  0.00     0.078 A 
ATOM     10  C   UNL     1      12.403 -25.313   8.955  1.00  0.00     0.223 A 
ENDROOT
BRANCH   1  11
ATOM     11  C   UNL     1      10.228 -24.925   7.725  1.00  0.00     0.087 A 
ATOM     12  C   UNL     1       9.090 -25.333   8.440  1.00  0.00     0.022 A 
ATOM     13  C   UNL     1       7.869 -24.682   8.257  1.00  0.00     0.051 A 
ATOM     14  C   UNL     1       7.761 -23.624   7.344  1.00  0.00     0.157 A 
ATOM     15  C   UNL     1      10.111 -23.877   6.795  1.00  0.00     0.068 A 
ATOM     16  C   UNL     1       8.887 -23.224   6.607  1.00  0.00     0.158 A 
BRANCH  14  17
ATOM     17  O   UNL     1       6.540 -22.975   7.165  1.00  0.00    -0.504 OA
ATOM     18  H   UNL     1       5.676 -23.361   7.526  1.00  0.00     0.293 HD
ENDBRANCH  14  17
BRANCH  16  19
ATOM     19  O   UNL     1       8.810 -22.184   5.680  1.00  0.00    -0.504 OA
ATOM     20  H   UNL     1       8.618 -22.351   4.700  1.00  0.00     0.293 HD
ENDBRANCH  16  19
ENDBRANCH   1  11
BRANCH  10  21
ATOM     21  O   UNL     1      12.096 -24.311   9.877  1.00  0.00    -0.500 OA
ATOM     22  H   UNL     1      12.594 -24.223  10.754  1.00  0.00     0.294 HD
ENDBRANCH  10  21
BRANCH   5  23
ATOM     23  O   UNL     1      14.537 -30.177   5.409  1.00  0.00    -0.507 OA
ATOM     24  H   UNL     1      13.856 -30.912   5.264  1.00  0.00     0.293 HD
ENDBRANCH   5  23
BRANCH   7  25
ATOM     25  O   UNL     1      16.086 -27.622   9.166  1.00  0.00    -0.507 OA
ATOM     26  H   UNL     1      15.921 -27.417  10.141  1.00  0.00     0.293 HD
ENDBRANCH   7  25
TORSDOF 6
ENDMDL
MODEL 3
REMARK VINA RESULT:    -7.452      2.667      6.721
REMARK INTER + INTRA:          -9.229
REMARK INTER:                  -8.877
REMARK INTRA:                  -0.352
REMARK UNBOUND:                -0.252
REMARK SMILES Oc1cc(O)c2cc(O)c(-c3ccc(O)c(O)c3)[o+]c2c1.[Cl-]
REMARK SMILES IDX 10 1 19 2 20 3 21 4 2 5 3 6 4 7 6 8 7 9 8 10 11 11 12 12
REMARK SMILES IDX 13 13 14 14 18 15 16 16 15 17 17 19 9 21 1 23 5 25
REMARK H PARENT 15 18 17 20 9 22 1 24 5 26
REMARK Flexibility Score: inf
ROOT
ATOM      1  C   UNL     1      12.887 -26.023   8.506  1.00  0.00     0.402 A 
ATOM      2  O   UNL     1      11.929 -25.140   8.236  1.00  0.00    -0.202 OA
ATOM      3  C   UNL     1      10.642 -25.460   8.161  1.00  0.00     0.368 A 
ATOM      4  C   UNL     1       9.709 -24.461   7.868  1.00  0.00     0.162 A 
ATOM      5  C   UNL     1       8.349 -24.771   7.782  1.00  0.00     0.128 A 
ATOM      6  C   UNL     1       7.919 -26.083   7.988  1.00  0.00     0.093 A 
ATOM      7  C   UNL     1       8.834 -27.102   8.283  1.00  0.00     0.136 A 
ATOM      8  C   UNL     1      10.216 -26.793   8.375  1.00  0.00     0.125 A 
ATOM      9  C   UNL     1      11.201 -27.747   8.679  1.00  0.00     0.078 A 
ATOM     10  C   UNL     1      12.545 -27.365   8.757  1.00  0.00     0.223 A 
ENDROOT
BRANCH   1  11
ATOM     11  C   UNL     1      14.288 -25.546   8.551  1.00  0.00     0.087 A 
ATOM     12  C   UNL     1      14.807 -25.043   9.755  1.00  0.00     0.022 A 
ATOM     13  C   UNL     1      16.120 -24.569   9.815  1.00  0.00     0.051 A 
ATOM     14  C   UNL     1      16.928 -24.576   8.671  1.00  0.00     0.157 A 
ATOM     15  C   UNL     1      15.095 -25.532   7.400  1.00  0.00     0.068 A 
ATOM     16  C   UNL     1      16.410 -25.055   7.457  1.00  0.00     0.158 A 
BRANCH  14  17
ATOM     17  O   UNL     1      18.238 -24.104   8.735  1.00  0.00    -0.504 OA
ATOM     18  H   UNL     1      18.986 -24.666   9.123  1.00  0.00     0.293 HD
ENDBRANCH  14  17
BRANCH  16  19
ATOM     19  O   UNL     1      17.184 -25.062   6.296  1.00  0.00    -0.504 OA
ATOM     20  H   UNL     1      18.196 -25.051   6.324  1.00  0.00     0.293 HD
ENDBRANCH  16  19
ENDBRANCH   1  11
BRANCH  10  21
ATOM     21  O   UNL     1      13.518 -28.301   9.108  1.00  0.00    -0.500 OA
ATOM     22  H   UNL     1      14.441 -28.293   8.691  1.00  0.00     0.294 HD
ENDBRANCH  10  21
BRANCH   5  23
ATOM     23  O   UNL     1       7.413 -23.780   7.491  1.00  0.00    -0.507 OA
ATOM     24  H   UNL     1       6.655 -23.943   6.838  1.00  0.00     0.293 HD
ENDBRANCH   5  23
BRANCH   7  25
ATOM     25  O   UNL     1       8.324 -28.390   8.472  1.00  0.00    -0.507 OA
ATOM     26  H   UNL     1       7.384 -28.592   8.783  1.00  0.00     0.293 HD
ENDBRANCH   7  25
TORSDOF 6
ENDMDL
MODEL 4
REMARK VINA RESULT:    -7.255      2.338      2.818
REMARK INTER + INTRA:          -8.992
REMARK INTER:                  -8.666
REMARK INTRA:                  -0.326
REMARK UNBOUND:                -0.252
REMARK SMILES Oc1cc(O)c2cc(O)c(-c3ccc(O)c(O)c3)[o+]c2c1.[Cl-]
REMARK SMILES IDX 10 1 19 2 20 3 21 4 2 5 3 6 4 7 6 8 7 9 8 10 11 11 12 12
REMARK SMILES IDX 13 13 14 14 18 15 16 16 15 17 17 19 9 21 1 23 5 25
REMARK H PARENT 15 18 17 20 9 22 1 24 5 26
REMARK Flexibility Score: inf
ROOT
ATOM      1  C   UNL     1      11.007 -26.704   8.744  1.00  0.00     0.402 A 
ATOM      2  O   UNL     1      12.163 -26.152   8.385  1.00  0.00    -0.202 OA
ATOM      3  C   UNL     1      13.325 -26.795   8.434  1.00  0.00     0.368 A 
ATOM      4  C   UNL     1      14.488 -26.128   8.037  1.00  0.00     0.162 A 
ATOM      5  C   UNL     1      15.724 -26.780   8.081  1.00  0.00     0.128 A 
ATOM      6  C   UNL     1      15.797 -28.103   8.523  1.00  0.00     0.093 A 
ATOM      7  C   UNL     1      14.647 -28.793   8.925  1.00  0.00     0.136 A 
ATOM      8  C   UNL     1      13.389 -28.136   8.880  1.00  0.00     0.125 A 
ATOM      9  C   UNL     1      12.183 -28.753   9.251  1.00  0.00     0.078 A 
ATOM     10  C   UNL     1      10.980 -28.043   9.176  1.00  0.00     0.223 A 
ENDROOT
BRANCH   1  11
ATOM     11  C   UNL     1       9.780 -25.880   8.655  1.00  0.00     0.087 A 
ATOM     12  C   UNL     1       8.960 -25.984   7.520  1.00  0.00     0.022 A 
ATOM     13  C   UNL     1       7.807 -25.203   7.406  1.00  0.00     0.051 A 
ATOM     14  C   UNL     1       7.466 -24.294   8.416  1.00  0.00     0.157 A 
ATOM     15  C   UNL     1       9.445 -24.953   9.657  1.00  0.00     0.068 A 
ATOM     16  C   UNL     1       8.292 -24.166   9.544  1.00  0.00     0.158 A 
BRANCH  14  17
ATOM     17  O   UNL     1       6.314 -23.517   8.300  1.00  0.00    -0.504 OA
ATOM     18  H   UNL     1       5.609 -23.716   7.601  1.00  0.00     0.293 HD
ENDBRANCH  14  17
BRANCH  16  19
ATOM     19  O   UNL     1       7.988 -23.260  10.561  1.00  0.00    -0.504 OA
ATOM     20  H   UNL     1       7.143 -23.335  11.113  1.00  0.00     0.293 HD
ENDBRANCH  16  19
ENDBRANCH   1  11
BRANCH  10  21
ATOM     21  O   UNL     1       9.776 -28.671   9.496  1.00  0.00    -0.500 OA
ATOM     22  H   UNL     1       9.746 -29.624   9.837  1.00  0.00     0.294 HD
ENDBRANCH  10  21
BRANCH   5  23
ATOM     23  O   UNL     1      16.887 -26.122   7.687  1.00  0.00    -0.507 OA
ATOM     24  H   UNL     1      17.140 -25.219   8.070  1.00  0.00     0.293 HD
ENDBRANCH   5  23
BRANCH   7  25
ATOM     25  O   UNL     1      14.805 -30.112   9.357  1.00  0.00    -0.507 OA
ATOM     26  H   UNL     1      14.121 -30.623   9.897  1.00  0.00     0.293 HD
ENDBRANCH   7  25
TORSDOF 6
ENDMDL
MODEL 5
REMARK VINA RESULT:    -7.197      2.237      3.152
REMARK INTER + INTRA:          -8.922
REMARK INTER:                  -9.107
REMARK INTRA:                   0.186
REMARK UNBOUND:                -0.252
REMARK SMILES Oc1cc(O)c2cc(O)c(-c3ccc(O)c(O)c3)[o+]c2c1.[Cl-]
REMARK SMILES IDX 10 1 19 2 20 3 21 4 2 5 3 6 4 7 6 8 7 9 8 10 11 11 12 12
REMARK SMILES IDX 13 13 14 14 18 15 16 16 15 17 17 19 9 21 1 23 5 25
REMARK H PARENT 15 18 17 20 9 22 1 24 5 26
REMARK Flexibility Score: inf
ROOT
ATOM      1  C   UNL     1      10.504 -26.793   8.644  1.00  0.00     0.402 A 
ATOM      2  O   UNL     1      11.834 -26.790   8.612  1.00  0.00    -0.202 OA
ATOM      3  C   UNL     1      12.580 -27.755   9.140  1.00  0.00     0.368 A 
ATOM      4  C   UNL     1      13.972 -27.660   9.058  1.00  0.00     0.162 A 
ATOM      5  C   UNL     1      14.780 -28.660   9.606  1.00  0.00     0.128 A 
ATOM      6  C   UNL     1      14.194 -29.758  10.240  1.00  0.00     0.093 A 
ATOM      7  C   UNL     1      12.802 -29.877  10.335  1.00  0.00     0.136 A 
ATOM      8  C   UNL     1      11.977 -28.865   9.777  1.00  0.00     0.125 A 
ATOM      9  C   UNL     1      10.573 -28.907   9.814  1.00  0.00     0.078 A 
ATOM     10  C   UNL     1       9.826 -27.875   9.238  1.00  0.00     0.223 A 
ENDROOT
BRANCH   1  11
ATOM     11  C   UNL     1       9.785 -25.654   8.031  1.00  0.00     0.087 A 
ATOM     12  C   UNL     1      10.384 -24.947   6.975  1.00  0.00     0.022 A 
ATOM     13  C   UNL     1       9.733 -23.857   6.394  1.00  0.00     0.051 A 
ATOM     14  C   UNL     1       8.480 -23.446   6.869  1.00  0.00     0.157 A 
ATOM     15  C   UNL     1       8.538 -25.226   8.518  1.00  0.00     0.068 A 
ATOM     16  C   UNL     1       7.884 -24.131   7.940  1.00  0.00     0.158 A 
BRANCH  14  17
ATOM     17  O   UNL     1       7.832 -22.358   6.286  1.00  0.00    -0.504 OA
ATOM     18  H   UNL     1       7.473 -22.400   5.340  1.00  0.00     0.293 HD
ENDBRANCH  14  17
BRANCH  16  19
ATOM     19  O   UNL     1       6.644 -23.738   8.446  1.00  0.00    -0.504 OA
ATOM     20  H   UNL     1       6.429 -22.770   8.648  1.00  0.00     0.293 HD
ENDBRANCH  16  19
ENDBRANCH   1  11
BRANCH  10  21
ATOM     21  O   UNL     1       8.433 -27.941   9.230  1.00  0.00    -0.500 OA
ATOM     22  H   UNL     1       7.869 -27.388   9.864  1.00  0.00     0.294 HD
ENDBRANCH  10  21
BRANCH   5  23
ATOM     23  O   UNL     1      16.168 -28.573   9.528  1.00  0.00    -0.507 OA
ATOM     24  H   UNL     1      16.635 -27.688   9.368  1.00  0.00     0.293 HD
ENDBRANCH   5  23
BRANCH   7  25
ATOM     25  O   UNL     1      12.294 -31.004  10.987  1.00  0.00    -0.507 OA
ATOM     26  H   UNL     1      11.987 -31.844  10.519  1.00  0.00     0.293 HD
ENDBRANCH   7  25
TORSDOF 6
ENDMDL
MODEL 6
REMARK VINA RESULT:    -7.134      1.882      2.345
REMARK INTER + INTRA:          -8.846
REMARK INTER:                  -8.773
REMARK INTRA:                  -0.073
REMARK UNBOUND:                -0.252
REMARK SMILES Oc1cc(O)c2cc(O)c(-c3ccc(O)c(O)c3)[o+]c2c1.[Cl-]
REMARK SMILES IDX 10 1 19 2 20 3 21 4 2 5 3 6 4 7 6 8 7 9 8 10 11 11 12 12
REMARK SMILES IDX 13 13 14 14 18 15 16 16 15 17 17 19 9 21 1 23 5 25
REMARK H PARENT 15 18 17 20 9 22 1 24 5 26
REMARK Flexibility Score: inf
ROOT
ATOM      1  C   UNL     1      11.187 -26.580   8.139  1.00  0.00     0.402 A 
ATOM      2  O   UNL     1      11.463 -27.460   9.098  1.00  0.00    -0.202 OA
ATOM      3  C   UNL     1      12.547 -28.229   9.093  1.00  0.00     0.368 A 
ATOM      4  C   UNL     1      12.748 -29.126  10.145  1.00  0.00     0.162 A 
ATOM      5  C   UNL     1      13.879 -29.949  10.163  1.00  0.00     0.128 A 
ATOM      6  C   UNL     1      14.810 -29.875   9.125  1.00  0.00     0.093 A 
ATOM      7  C   UNL     1      14.630 -28.984   8.059  1.00  0.00     0.136 A 
ATOM      8  C   UNL     1      13.486 -28.145   8.038  1.00  0.00     0.125 A 
ATOM      9  C   UNL     1      13.231 -27.213   7.017  1.00  0.00     0.078 A 
ATOM     10  C   UNL     1      12.083 -26.416   7.066  1.00  0.00     0.223 A 
ENDROOT
BRANCH   1  11
ATOM     11  C   UNL     1       9.941 -25.788   8.252  1.00  0.00     0.087 A 
ATOM     12  C   UNL     1       9.039 -25.763   7.176  1.00  0.00     0.022 A 
ATOM     13  C   UNL     1       7.867 -25.007   7.253  1.00  0.00     0.051 A 
ATOM     14  C   UNL     1       7.586 -24.252   8.400  1.00  0.00     0.157 A 
ATOM     15  C   UNL     1       9.666 -25.013   9.393  1.00  0.00     0.068 A 
ATOM     16  C   UNL     1       8.493 -24.252   9.472  1.00  0.00     0.158 A 
BRANCH  14  17
ATOM     17  O   UNL     1       6.415 -23.500   8.474  1.00  0.00    -0.504 OA
ATOM     18  H   UNL     1       6.396 -22.520   8.218  1.00  0.00     0.293 HD
ENDBRANCH  14  17
BRANCH  16  19
ATOM     19  O   UNL     1       8.250 -23.500  10.622  1.00  0.00    -0.504 OA
ATOM     20  H   UNL     1       7.359 -23.524  11.101  1.00  0.00     0.293 HD
ENDBRANCH  16  19
ENDBRANCH   1  11
BRANCH  10  21
ATOM     21  O   UNL     1      11.855 -25.457   6.080  1.00  0.00    -0.500 OA
ATOM     22  H   UNL     1      11.023 -25.473   5.503  1.00  0.00     0.294 HD
ENDBRANCH  10  21
BRANCH   5  23
ATOM     23  O   UNL     1      14.087 -30.845  11.209  1.00  0.00    -0.507 OA
ATOM     24  H   UNL     1      14.847 -30.722  11.869  1.00  0.00     0.293 HD
ENDBRANCH   5  23
BRANCH   7  25
ATOM     25  O   UNL     1      15.606 -28.973   7.058  1.00  0.00    -0.507 OA
ATOM     26  H   UNL     1      16.424 -28.381   7.065  1.00  0.00     0.293 HD
ENDBRANCH   7  25
TORSDOF 6
ENDMDL
MODEL 7
REMARK VINA RESULT:    -6.841      2.197      2.304
REMARK INTER + INTRA:          -8.493
REMARK INTER:                  -8.568
REMARK INTRA:                   0.075
REMARK UNBOUND:                -0.252
REMARK SMILES Oc1cc(O)c2cc(O)c(-c3ccc(O)c(O)c3)[o+]c2c1.[Cl-]
REMARK SMILES IDX 10 1 19 2 20 3 21 4 2 5 3 6 4 7 6 8 7 9 8 10 11 11 12 12
REMARK SMILES IDX 13 13 14 14 18 15 16 16 15 17 17 19 9 21 1 23 5 25
REMARK H PARENT 15 18 17 20 9 22 1 24 5 26
REMARK Flexibility Score: inf
ROOT
ATOM      1  C   UNL     1      10.991 -26.143   8.495  1.00  0.00     0.402 A 
ATOM      2  O   UNL     1      12.221 -25.637   8.494  1.00  0.00    -0.202 OA
ATOM      3  C   UNL     1      13.304 -26.350   8.783  1.00  0.00     0.368 A 
ATOM      4  C   UNL     1      14.555 -25.727   8.758  1.00  0.00     0.162 A 
ATOM      5  C   UNL     1      15.711 -26.454   9.061  1.00  0.00     0.128 A 
ATOM      6  C   UNL     1      15.615 -27.808   9.390  1.00  0.00     0.093 A 
ATOM      7  C   UNL     1      14.373 -28.455   9.422  1.00  0.00     0.136 A 
ATOM      8  C   UNL     1      13.198 -27.723   9.113  1.00  0.00     0.125 A 
ATOM      9  C   UNL     1      11.913 -28.292   9.107  1.00  0.00     0.078 A 
ATOM     10  C   UNL     1      10.801 -27.507   8.787  1.00  0.00     0.223 A 
ENDROOT
BRANCH   1  11
ATOM     11  C   UNL     1       9.862 -25.243   8.166  1.00  0.00     0.087 A 
ATOM     12  C   UNL     1       8.675 -25.324   8.912  1.00  0.00     0.022 A 
ATOM     13  C   UNL     1       7.591 -24.499   8.608  1.00  0.00     0.051 A 
ATOM     14  C   UNL     1       7.669 -23.591   7.543  1.00  0.00     0.157 A 
ATOM     15  C   UNL     1       9.930 -24.347   7.086  1.00  0.00     0.068 A 
ATOM     16  C   UNL     1       8.843 -23.520   6.776  1.00  0.00     0.158 A 
BRANCH  14  17
ATOM     17  O   UNL     1       6.585 -22.768   7.243  1.00  0.00    -0.504 OA
ATOM     18  H   UNL     1       6.054 -22.881   6.388  1.00  0.00     0.293 HD
ENDBRANCH  14  17
BRANCH  16  19
ATOM     19  O   UNL     1       8.948 -22.638   5.700  1.00  0.00    -0.504 OA
ATOM     20  H   UNL     1       8.416 -21.778   5.656  1.00  0.00     0.293 HD
ENDBRANCH  16  19
ENDBRANCH   1  11
BRANCH  10  21
ATOM     21  O   UNL     1       9.531 -28.083   8.732  1.00  0.00    -0.500 OA
ATOM     22  H   UNL     1       9.339 -28.895   8.157  1.00  0.00     0.294 HD
ENDBRANCH  10  21
BRANCH   5  23
ATOM     23  O   UNL     1      16.961 -25.840   9.037  1.00  0.00    -0.507 OA
ATOM     24  H   UNL     1      17.787 -26.333   8.720  1.00  0.00     0.293 HD
ENDBRANCH   5  23
BRANCH   7  25
ATOM     25  O   UNL     1      14.362 -29.810   9.763  1.00  0.00    -0.507 OA
ATOM     26  H   UNL     1      14.926 -30.220  10.495  1.00  0.00     0.293 HD
ENDBRANCH   7  25
TORSDOF 6
ENDMDL
MODEL 8
REMARK VINA RESULT:    -6.791      1.802      2.213
REMARK INTER + INTRA:          -8.433
REMARK INTER:                  -8.087
REMARK INTRA:                  -0.346
REMARK UNBOUND:                -0.252
REMARK SMILES Oc1cc(O)c2cc(O)c(-c3ccc(O)c(O)c3)[o+]c2c1.[Cl-]
REMARK SMILES IDX 10 1 19 2 20 3 21 4 2 5 3 6 4 7 6 8 7 9 8 10 11 11 12 12
REMARK SMILES IDX 13 13 14 14 18 15 16 16 15 17 17 19 9 21 1 23 5 25
REMARK H PARENT 15 18 17 20 9 22 1 24 5 26
REMARK Flexibility Score: inf
ROOT
ATOM      1  C   UNL     1      11.461 -25.472   7.942  1.00  0.00     0.402 A 
ATOM      2  O   UNL     1      12.251 -24.907   8.851  1.00  0.00    -0.202 OA
ATOM      3  C   UNL     1      13.517 -25.262   9.041  1.00  0.00     0.368 A 
ATOM      4  C   UNL     1      14.266 -24.609  10.023  1.00  0.00     0.162 A 
ATOM      5  C   UNL     1      15.600 -24.964  10.245  1.00  0.00     0.128 A 
ATOM      6  C   UNL     1      16.187 -25.976   9.482  1.00  0.00     0.093 A 
ATOM      7  C   UNL     1      15.457 -26.645   8.491  1.00  0.00     0.136 A 
ATOM      8  C   UNL     1      14.104 -26.286   8.260  1.00  0.00     0.125 A 
ATOM      9  C   UNL     1      13.301 -26.893   7.279  1.00  0.00     0.078 A 
ATOM     10  C   UNL     1      11.975 -26.482   7.107  1.00  0.00     0.223 A 
ENDROOT
BRANCH   1  11
ATOM     11  C   UNL     1      10.063 -24.997   7.834  1.00  0.00     0.087 A 
ATOM     12  C   UNL     1       9.046 -25.683   8.517  1.00  0.00     0.022 A 
ATOM     13  C   UNL     1       7.718 -25.264   8.414  1.00  0.00     0.051 A 
ATOM     14  C   UNL     1       7.383 -24.163   7.615  1.00  0.00     0.157 A 
ATOM     15  C   UNL     1       9.721 -23.905   7.017  1.00  0.00     0.068 A 
ATOM     16  C   UNL     1       8.390 -23.484   6.909  1.00  0.00     0.158 A 
BRANCH  14  17
ATOM     17  O   UNL     1       6.057 -23.746   7.516  1.00  0.00    -0.504 OA
ATOM     18  H   UNL     1       5.302 -24.272   7.941  1.00  0.00     0.293 HD
ENDBRANCH  14  17
BRANCH  16  19
ATOM     19  O   UNL     1       8.088 -22.394   6.093  1.00  0.00    -0.504 OA
ATOM     20  H   UNL     1       8.133 -21.441   6.432  1.00  0.00     0.293 HD
ENDBRANCH  16  19
ENDBRANCH   1  11
BRANCH  10  21
ATOM     21  O   UNL     1      11.193 -27.049   6.101  1.00  0.00    -0.500 OA
ATOM     22  H   UNL     1      10.258 -26.715   5.900  1.00  0.00     0.294 HD
ENDBRANCH  10  21
BRANCH   5  23
ATOM     23  O   UNL     1      16.354 -24.318  11.223  1.00  0.00    -0.507 OA
ATOM     24  H   UNL     1      17.366 -24.297  11.183  1.00  0.00     0.293 HD
ENDBRANCH   5  23
BRANCH   7  25
ATOM     25  O   UNL     1      16.115 -27.648   7.773  1.00  0.00    -0.507 OA
ATOM     26  H   UNL     1      17.119 -27.744   7.716  1.00  0.00     0.293 HD
ENDBRANCH   7  25
TORSDOF 6
ENDMDL
