MODEL 1
REMARK VINA RESULT:    -6.796      0.000      0.000
REMARK INTER + INTRA:          -8.493
REMARK INTER:                  -8.187
REMARK INTRA:                  -0.306
REMARK UNBOUND:                -0.306
REMARK SMILES O=c1c(O)c(-c2ccc(O)c(O)c2)oc2cc(O)cc(O)c12
REMARK SMILES IDX 5 1 3 2 2 3 1 4 22 5 20 6 19 7 17 8 16 9 15 10 14 11 6 12
REMARK SMILES IDX 7 13 8 14 9 15 13 16 11 17 10 18 12 20 4 22 21 24 18 26
REMARK H PARENT 10 19 12 21 4 23 21 25 18 27
REMARK Flexibility Score: inf
ROOT
ATOM      1  C   UNL     1      -0.838  25.105  28.416  1.00  0.00     0.180 A 
ATOM      2  C   UNL     1      -0.205  23.890  28.101  1.00  0.00     0.208 A 
ATOM      3  C   UNL     1       1.193  23.863  27.974  1.00  0.00     0.238 A 
ATOM      4  O   UNL     1       1.749  22.785  27.639  1.00  0.00    -0.285 OA
ATOM      5  C   UNL     1       1.942  25.047  28.182  1.00  0.00     0.111 A 
ATOM      6  C   UNL     1       3.365  25.126  28.119  1.00  0.00     0.134 A 
ATOM      7  C   UNL     1       3.993  26.375  28.210  1.00  0.00     0.093 A 
ATOM      8  C   UNL     1       3.253  27.537  28.428  1.00  0.00     0.123 A 
ATOM      9  C   UNL     1       1.866  27.463  28.550  1.00  0.00     0.094 A 
ATOM     10  C   UNL     1       1.209  26.237  28.427  1.00  0.00     0.146 A 
ATOM     11  O   UNL     1      -0.114  26.211  28.539  1.00  0.00    -0.452 OA
ENDROOT
BRANCH   1  12
ATOM     12  C   UNL     1      -2.305  25.207  28.590  1.00  0.00     0.025 A 
ATOM     13  C   UNL     1      -3.140  25.620  27.538  1.00  0.00     0.016 A 
ATOM     14  C   UNL     1      -4.525  25.686  27.718  1.00  0.00     0.051 A 
ATOM     15  C   UNL     1      -5.095  25.328  28.947  1.00  0.00     0.157 A 
ATOM     16  C   UNL     1      -2.884  24.830  29.813  1.00  0.00     0.062 A 
ATOM     17  C   UNL     1      -4.270  24.895  29.997  1.00  0.00     0.158 A 
BRANCH  15  18
ATOM     18  O   UNL     1      -6.476  25.398  29.124  1.00  0.00    -0.504 OA
ATOM     19  H   UNL     1      -7.044  26.062  28.612  1.00  0.00     0.293 HD
ENDBRANCH  15  18
BRANCH  17  20
ATOM     20  O   UNL     1      -4.808  24.525  31.230  1.00  0.00    -0.504 OA
ATOM     21  H   UNL     1      -4.494  24.938  32.099  1.00  0.00     0.293 HD
ENDBRANCH  17  20
ENDBRANCH   1  12
BRANCH   2  22
ATOM     22  O   UNL     1      -0.965  22.738  27.879  1.00  0.00    -0.502 OA
ATOM     23  H   UNL     1      -0.544  21.833  27.708  1.00  0.00     0.293 HD
ENDBRANCH   2  22
BRANCH   6  24
ATOM     24  O   UNL     1       4.205  24.014  27.995  1.00  0.00    -0.507 OA
ATOM     25  H   UNL     1       4.278  23.272  28.674  1.00  0.00     0.293 HD
ENDBRANCH   6  24
BRANCH   8  26
ATOM     26  O   UNL     1       3.911  28.761  28.530  1.00  0.00    -0.508 OA
ATOM     27  H   UNL     1       3.530  29.524  29.078  1.00  0.00     0.293 HD
ENDBRANCH   8  26
TORSDOF 6
ENDMDL
MODEL 2
REMARK VINA RESULT:    -6.643      0.766      1.507
REMARK INTER + INTRA:          -8.309
REMARK INTER:                  -7.995
REMARK INTRA:                  -0.313
REMARK UNBOUND:                -0.306
REMARK SMILES O=c1c(O)c(-c2ccc(O)c(O)c2)oc2cc(O)cc(O)c12
REMARK SMILES IDX 5 1 3 2 2 3 1 4 22 5 20 6 19 7 17 8 16 9 15 10 14 11 6 12
REMARK SMILES IDX 7 13 8 14 9 15 13 16 11 17 10 18 12 20 4 22 21 24 18 26
REMARK H PARENT 10 19 12 21 4 23 21 25 18 27
REMARK Flexibility Score: inf
ROOT
ATOM      1  C   UNL     1      -0.846  24.885  29.134  1.00  0.00     0.180 A 
ATOM      2  C   UNL     1      -0.265  23.707  28.634  1.00  0.00     0.208 A 
ATOM      3  C   UNL     1       1.081  23.725  28.237  1.00  0.00     0.238 A 
ATOM      4  O   UNL     1       1.581  22.682  27.740  1.00  0.00    -0.285 OA
ATOM      5  C   UNL     1       1.836  24.918  28.362  1.00  0.00     0.111 A 
ATOM      6  C   UNL     1       3.218  25.040  28.028  1.00  0.00     0.134 A 
ATOM      7  C   UNL     1       3.829  26.300  28.067  1.00  0.00     0.093 A 
ATOM      8  C   UNL     1       3.126  27.427  28.489  1.00  0.00     0.123 A 
ATOM      9  C   UNL     1       1.791  27.309  28.874  1.00  0.00     0.094 A 
ATOM     10  C   UNL     1       1.144  26.072  28.812  1.00  0.00     0.146 A 
ATOM     11  O   UNL     1      -0.130  26.003  29.177  1.00  0.00    -0.452 OA
ENDROOT
BRANCH   1  12
ATOM     12  C   UNL     1      -2.251  24.937  29.596  1.00  0.00     0.025 A 
ATOM     13  C   UNL     1      -2.580  24.808  30.956  1.00  0.00     0.016 A 
ATOM     14  C   UNL     1      -3.913  24.884  31.372  1.00  0.00     0.051 A 
ATOM     15  C   UNL     1      -4.933  25.103  30.437  1.00  0.00     0.157 A 
ATOM     16  C   UNL     1      -3.276  25.176  28.666  1.00  0.00     0.062 A 
ATOM     17  C   UNL     1      -4.612  25.252  29.078  1.00  0.00     0.158 A 
BRANCH  15  18
ATOM     18  O   UNL     1      -6.262  25.176  30.854  1.00  0.00    -0.504 OA
ATOM     19  H   UNL     1      -6.651  24.504  31.505  1.00  0.00     0.293 HD
ENDBRANCH  15  18
BRANCH  17  20
ATOM     20  O   UNL     1      -5.604  25.478  28.123  1.00  0.00    -0.504 OA
ATOM     21  H   UNL     1      -5.710  26.371  27.659  1.00  0.00     0.293 HD
ENDBRANCH  17  20
ENDBRANCH   1  12
BRANCH   2  22
ATOM     22  O   UNL     1      -1.033  22.546  28.500  1.00  0.00    -0.502 OA
ATOM     23  H   UNL     1      -0.808  21.819  27.833  1.00  0.00     0.293 HD
ENDBRANCH   2  22
BRANCH   6  24
ATOM     24  O   UNL     1       4.037  23.961  27.682  1.00  0.00    -0.507 OA
ATOM     25  H   UNL     1       5.023  24.029  27.482  1.00  0.00     0.293 HD
ENDBRANCH   6  24
BRANCH   8  26
ATOM     26  O   UNL     1       3.770  28.663  28.531  1.00  0.00    -0.508 OA
ATOM     27  H   UNL     1       4.780  28.734  28.549  1.00  0.00     0.293 HD
ENDBRANCH   8  26
TORSDOF 6
ENDMDL
MODEL 3
REMARK VINA RESULT:    -6.471      2.681      7.171
REMARK INTER + INTRA:          -8.101
REMARK INTER:                  -7.771
REMARK INTRA:                  -0.330
REMARK UNBOUND:                -0.306
REMARK SMILES O=c1c(O)c(-c2ccc(O)c(O)c2)oc2cc(O)cc(O)c12
REMARK SMILES IDX 5 1 3 2 2 3 1 4 22 5 20 6 19 7 17 8 16 9 15 10 14 11 6 12
REMARK SMILES IDX 7 13 8 14 9 15 13 16 11 17 10 18 12 20 4 22 21 24 18 26
REMARK H PARENT 10 19 12 21 4 23 21 25 18 27
REMARK Flexibility Score: inf
ROOT
ATOM      1  C   UNL     1       2.719  26.665  28.803  1.00  0.00     0.180 A 
ATOM      2  C   UNL     1       2.810  26.569  27.404  1.00  0.00     0.208 A 
ATOM      3  C   UNL     1       1.865  25.795  26.711  1.00  0.00     0.238 A 
ATOM      4  O   UNL     1       1.983  25.669  25.464  1.00  0.00    -0.285 OA
ATOM      5  C   UNL     1       0.831  25.141  27.424  1.00  0.00     0.111 A 
ATOM      6  C   UNL     1      -0.203  24.365  26.820  1.00  0.00     0.134 A 
ATOM      7  C   UNL     1      -1.097  23.654  27.632  1.00  0.00     0.093 A 
ATOM      8  C   UNL     1      -1.035  23.746  29.022  1.00  0.00     0.123 A 
ATOM      9  C   UNL     1      -0.065  24.550  29.622  1.00  0.00     0.094 A 
ATOM     10  C   UNL     1       0.863  25.240  28.839  1.00  0.00     0.146 A 
ATOM     11  O   UNL     1       1.777  25.986  29.449  1.00  0.00    -0.452 OA
ENDROOT
BRANCH   1  12
ATOM     12  C   UNL     1       3.662  27.481  29.600  1.00  0.00     0.025 A 
ATOM     13  C   UNL     1       3.397  28.831  29.891  1.00  0.00     0.016 A 
ATOM     14  C   UNL     1       4.290  29.576  30.666  1.00  0.00     0.051 A 
ATOM     15  C   UNL     1       5.454  28.981  31.172  1.00  0.00     0.157 A 
ATOM     16  C   UNL     1       4.819  26.884  30.127  1.00  0.00     0.062 A 
ATOM     17  C   UNL     1       5.717  27.627  30.903  1.00  0.00     0.158 A 
BRANCH  15  18
ATOM     18  O   UNL     1       6.345  29.727  31.942  1.00  0.00    -0.504 OA
ATOM     19  H   UNL     1       6.043  30.543  32.460  1.00  0.00     0.293 HD
ENDBRANCH  15  18
BRANCH  17  20
ATOM     20  O   UNL     1       6.863  27.003  31.397  1.00  0.00    -0.504 OA
ATOM     21  H   UNL     1       7.786  27.216  31.042  1.00  0.00     0.293 HD
ENDBRANCH  17  20
ENDBRANCH   1  12
BRANCH   2  22
ATOM     22  O   UNL     1       3.851  27.205  26.722  1.00  0.00    -0.502 OA
ATOM     23  H   UNL     1       4.800  26.853  26.727  1.00  0.00     0.293 HD
ENDBRANCH   2  22
BRANCH   6  24
ATOM     24  O   UNL     1      -0.411  24.278  25.440  1.00  0.00    -0.507 OA
ATOM     25  H   UNL     1       0.081  24.826  24.750  1.00  0.00     0.293 HD
ENDBRANCH   6  24
BRANCH   8  26
ATOM     26  O   UNL     1      -1.950  23.039  29.799  1.00  0.00    -0.508 OA
ATOM     27  H   UNL     1      -2.809  22.673  29.405  1.00  0.00     0.293 HD
ENDBRANCH   8  26
TORSDOF 6
ENDMDL
MODEL 4
REMARK VINA RESULT:    -6.351      2.281      3.674
REMARK INTER + INTRA:          -7.957
REMARK INTER:                  -7.657
REMARK INTRA:                  -0.300
REMARK UNBOUND:                -0.306
REMARK SMILES O=c1c(O)c(-c2ccc(O)c(O)c2)oc2cc(O)cc(O)c12
REMARK SMILES IDX 5 1 3 2 2 3 1 4 22 5 20 6 19 7 17 8 16 9 15 10 14 11 6 12
REMARK SMILES IDX 7 13 8 14 9 15 13 16 11 17 10 18 12 20 4 22 21 24 18 26
REMARK H PARENT 10 19 12 21 4 23 21 25 18 27
REMARK Flexibility Score: inf
ROOT
ATOM      1  C   UNL     1      -1.785  23.983  29.259  1.00  0.00     0.180 A 
ATOM      2  C   UNL     1      -2.310  24.875  28.308  1.00  0.00     0.208 A 
ATOM      3  C   UNL     1      -1.454  25.422  27.340  1.00  0.00     0.238 A 
ATOM      4  O   UNL     1      -1.918  26.261  26.525  1.00  0.00    -0.285 OA
ATOM      5  C   UNL     1      -0.085  25.055  27.322  1.00  0.00     0.111 A 
ATOM      6  C   UNL     1       0.864  25.516  26.362  1.00  0.00     0.134 A 
ATOM      7  C   UNL     1       2.218  25.194  26.519  1.00  0.00     0.093 A 
ATOM      8  C   UNL     1       2.645  24.373  27.562  1.00  0.00     0.123 A 
ATOM      9  C   UNL     1       1.717  23.869  28.473  1.00  0.00     0.094 A 
ATOM     10  C   UNL     1       0.366  24.203  28.363  1.00  0.00     0.146 A 
ATOM     11  O   UNL     1      -0.484  23.711  29.256  1.00  0.00    -0.452 OA
ENDROOT
BRANCH   1  12
ATOM     12  C   UNL     1      -2.629  23.347  30.295  1.00  0.00     0.025 A 
ATOM     13  C   UNL     1      -3.090  22.026  30.155  1.00  0.00     0.016 A 
ATOM     14  C   UNL     1      -3.867  21.438  31.157  1.00  0.00     0.051 A 
ATOM     15  C   UNL     1      -4.183  22.155  32.318  1.00  0.00     0.157 A 
ATOM     16  C   UNL     1      -2.932  24.054  31.470  1.00  0.00     0.062 A 
ATOM     17  C   UNL     1      -3.710  23.468  32.476  1.00  0.00     0.158 A 
BRANCH  15  18
ATOM     18  O   UNL     1      -4.960  21.567  33.315  1.00  0.00    -0.504 OA
ATOM     19  H   UNL     1      -5.969  21.514  33.239  1.00  0.00     0.293 HD
ENDBRANCH  15  18
BRANCH  17  20
ATOM     20  O   UNL     1      -4.002  24.207  33.623  1.00  0.00    -0.504 OA
ATOM     21  H   UNL     1      -3.449  24.129  34.467  1.00  0.00     0.293 HD
ENDBRANCH  17  20
ENDBRANCH   1  12
BRANCH   2  22
ATOM     22  O   UNL     1      -3.659  25.240  28.357  1.00  0.00    -0.502 OA
ATOM     23  H   UNL     1      -4.395  24.648  27.993  1.00  0.00     0.293 HD
ENDBRANCH   2  22
BRANCH   6  24
ATOM     24  O   UNL     1       0.529  26.266  25.230  1.00  0.00    -0.507 OA
ATOM     25  H   UNL     1       0.593  27.271  25.167  1.00  0.00     0.293 HD
ENDBRANCH   6  24
BRANCH   8  26
ATOM     26  O   UNL     1       3.998  24.059  27.679  1.00  0.00    -0.508 OA
ATOM     27  H   UNL     1       4.433  23.362  27.087  1.00  0.00     0.293 HD
ENDBRANCH   8  26
TORSDOF 6
ENDMDL
MODEL 5
REMARK VINA RESULT:    -6.096      3.555      7.649
REMARK INTER + INTRA:          -7.650
REMARK INTER:                  -7.374
REMARK INTRA:                  -0.275
REMARK UNBOUND:                -0.306
REMARK SMILES O=c1c(O)c(-c2ccc(O)c(O)c2)oc2cc(O)cc(O)c12
REMARK SMILES IDX 5 1 3 2 2 3 1 4 22 5 20 6 19 7 17 8 16 9 15 10 14 11 6 12
REMARK SMILES IDX 7 13 8 14 9 15 13 16 11 17 10 18 12 20 4 22 21 24 18 26
REMARK H PARENT 10 19 12 21 4 23 21 25 18 27
REMARK Flexibility Score: inf
ROOT
ATOM      1  C   UNL     1       3.137  27.583  29.313  1.00  0.00     0.180 A 
ATOM      2  C   UNL     1       2.740  28.591  28.418  1.00  0.00     0.208 A 
ATOM      3  C   UNL     1       1.842  28.273  27.387  1.00  0.00     0.238 A 
ATOM      4  O   UNL     1       1.532  29.167  26.556  1.00  0.00    -0.285 OA
ATOM      5  C   UNL     1       1.339  26.953  27.273  1.00  0.00     0.111 A 
ATOM      6  C   UNL     1       0.394  26.529  26.292  1.00  0.00     0.134 A 
ATOM      7  C   UNL     1       0.067  25.171  26.191  1.00  0.00     0.093 A 
ATOM      8  C   UNL     1       0.599  24.234  27.076  1.00  0.00     0.123 A 
ATOM      9  C   UNL     1       1.478  24.648  28.077  1.00  0.00     0.094 A 
ATOM     10  C   UNL     1       1.852  25.990  28.180  1.00  0.00     0.146 A 
ATOM     11  O   UNL     1       2.699  26.341  29.140  1.00  0.00    -0.452 OA
ENDROOT
BRANCH   1  12
ATOM     12  C   UNL     1       4.060  27.848  30.439  1.00  0.00     0.025 A 
ATOM     13  C   UNL     1       3.636  28.541  31.586  1.00  0.00     0.016 A 
ATOM     14  C   UNL     1       4.518  28.759  32.648  1.00  0.00     0.051 A 
ATOM     15  C   UNL     1       5.832  28.276  32.585  1.00  0.00     0.157 A 
ATOM     16  C   UNL     1       5.372  27.347  30.391  1.00  0.00     0.062 A 
ATOM     17  C   UNL     1       6.259  27.564  31.452  1.00  0.00     0.158 A 
BRANCH  15  18
ATOM     18  O   UNL     1       6.711  28.496  33.645  1.00  0.00    -0.504 OA
ATOM     19  H   UNL     1       6.409  28.419  34.608  1.00  0.00     0.293 HD
ENDBRANCH  15  18
BRANCH  17  20
ATOM     20  O   UNL     1       7.558  27.063  31.362  1.00  0.00    -0.504 OA
ATOM     21  H   UNL     1       7.970  26.503  32.097  1.00  0.00     0.293 HD
ENDBRANCH  17  20
ENDBRANCH   1  12
BRANCH   2  22
ATOM     22  O   UNL     1       3.265  29.882  28.535  1.00  0.00    -0.502 OA
ATOM     23  H   UNL     1       3.203  30.418  29.390  1.00  0.00     0.293 HD
ENDBRANCH   2  22
BRANCH   6  24
ATOM     24  O   UNL     1      -0.267  27.396  25.417  1.00  0.00    -0.507 OA
ATOM     25  H   UNL     1       0.106  27.719  24.537  1.00  0.00     0.293 HD
ENDBRANCH   6  24
BRANCH   8  26
ATOM     26  O   UNL     1       0.239  22.893  26.957  1.00  0.00    -0.508 OA
ATOM     27  H   UNL     1      -0.332  22.433  27.656  1.00  0.00     0.293 HD
ENDBRANCH   8  26
TORSDOF 6
ENDMDL
MODEL 6
REMARK VINA RESULT:    -5.952      1.874      7.285
REMARK INTER + INTRA:          -7.477
REMARK INTER:                  -7.166
REMARK INTRA:                  -0.310
REMARK UNBOUND:                -0.306
REMARK SMILES O=c1c(O)c(-c2ccc(O)c(O)c2)oc2cc(O)cc(O)c12
REMARK SMILES IDX 5 1 3 2 2 3 1 4 22 5 20 6 19 7 17 8 16 9 15 10 14 11 6 12
REMARK SMILES IDX 7 13 8 14 9 15 13 16 11 17 10 18 12 20 4 22 21 24 18 26
REMARK H PARENT 10 19 12 21 4 23 21 25 18 27
REMARK Flexibility Score: inf
ROOT
ATOM      1  C   UNL     1      -1.707  24.472  29.289  1.00  0.00     0.180 A 
ATOM      2  C   UNL     1      -2.680  25.119  28.507  1.00  0.00     0.208 A 
ATOM      3  C   UNL     1      -3.969  25.298  29.033  1.00  0.00     0.238 A 
ATOM      4  O   UNL     1      -4.850  25.830  28.308  1.00  0.00    -0.285 OA
ATOM      5  C   UNL     1      -4.265  24.844  30.342  1.00  0.00     0.111 A 
ATOM      6  C   UNL     1      -5.526  25.009  30.989  1.00  0.00     0.134 A 
ATOM      7  C   UNL     1      -5.747  24.404  32.233  1.00  0.00     0.093 A 
ATOM      8  C   UNL     1      -4.734  23.698  32.880  1.00  0.00     0.123 A 
ATOM      9  C   UNL     1      -3.479  23.581  32.283  1.00  0.00     0.094 A 
ATOM     10  C   UNL     1      -3.240  24.142  31.026  1.00  0.00     0.146 A 
ATOM     11  O   UNL     1      -2.035  23.999  30.486  1.00  0.00    -0.452 OA
ENDROOT
BRANCH   1  12
ATOM     12  C   UNL     1      -0.321  24.269  28.813  1.00  0.00     0.025 A 
ATOM     13  C   UNL     1       0.073  23.068  28.196  1.00  0.00     0.016 A 
ATOM     14  C   UNL     1       1.382  22.907  27.733  1.00  0.00     0.051 A 
ATOM     15  C   UNL     1       2.312  23.947  27.867  1.00  0.00     0.157 A 
ATOM     16  C   UNL     1       0.610  25.315  28.926  1.00  0.00     0.062 A 
ATOM     17  C   UNL     1       1.922  25.157  28.463  1.00  0.00     0.158 A 
BRANCH  15  18
ATOM     18  O   UNL     1       3.617  23.783  27.406  1.00  0.00    -0.504 OA
ATOM     19  H   UNL     1       3.884  22.986  26.841  1.00  0.00     0.293 HD
ENDBRANCH  15  18
BRANCH  17  20
ATOM     20  O   UNL     1       2.821  26.214  28.605  1.00  0.00    -0.504 OA
ATOM     21  H   UNL     1       3.725  26.216  28.148  1.00  0.00     0.293 HD
ENDBRANCH  17  20
ENDBRANCH   1  12
BRANCH   2  22
ATOM     22  O   UNL     1      -2.372  25.540  27.210  1.00  0.00    -0.502 OA
ATOM     23  H   UNL     1      -2.728  26.404  26.820  1.00  0.00     0.293 HD
ENDBRANCH   2  22
BRANCH   6  24
ATOM     24  O   UNL     1      -6.576  25.773  30.472  1.00  0.00    -0.507 OA
ATOM     25  H   UNL     1      -7.548  25.501  30.493  1.00  0.00     0.293 HD
ENDBRANCH   6  24
BRANCH   8  26
ATOM     26  O   UNL     1      -4.984  23.122  34.125  1.00  0.00    -0.508 OA
ATOM     27  H   UNL     1      -4.670  23.559  34.983  1.00  0.00     0.293 HD
ENDBRANCH   8  26
TORSDOF 6
ENDMDL
MODEL 7
REMARK VINA RESULT:    -5.900      2.267      3.362
REMARK INTER + INTRA:          -7.413
REMARK INTER:                  -7.090
REMARK INTRA:                  -0.323
REMARK UNBOUND:                -0.306
REMARK SMILES O=c1c(O)c(-c2ccc(O)c(O)c2)oc2cc(O)cc(O)c12
REMARK SMILES IDX 5 1 3 2 2 3 1 4 22 5 20 6 19 7 17 8 16 9 15 10 14 11 6 12
REMARK SMILES IDX 7 13 8 14 9 15 13 16 11 17 10 18 12 20 4 22 21 24 18 26
REMARK H PARENT 10 19 12 21 4 23 21 25 18 27
REMARK Flexibility Score: inf
ROOT
ATOM      1  C   UNL     1      -1.327  25.393  28.986  1.00  0.00     0.180 A 
ATOM      2  C   UNL     1      -1.971  25.959  27.872  1.00  0.00     0.208 A 
ATOM      3  C   UNL     1      -1.194  26.524  26.849  1.00  0.00     0.238 A 
ATOM      4  O   UNL     1      -1.777  27.077  25.880  1.00  0.00    -0.285 OA
ATOM      5  C   UNL     1       0.219  26.498  26.942  1.00  0.00     0.111 A 
ATOM      6  C   UNL     1       1.106  27.005  25.945  1.00  0.00     0.134 A 
ATOM      7  C   UNL     1       2.482  27.047  26.202  1.00  0.00     0.093 A 
ATOM      8  C   UNL     1       3.008  26.542  27.391  1.00  0.00     0.123 A 
ATOM      9  C   UNL     1       2.156  25.990  28.347  1.00  0.00     0.094 A 
ATOM     10  C   UNL     1       0.775  25.968  28.135  1.00  0.00     0.146 A 
ATOM     11  O   UNL     1      -0.003  25.444  29.075  1.00  0.00    -0.452 OA
ENDROOT
BRANCH   1  12
ATOM     12  C   UNL     1      -2.078  24.758  30.092  1.00  0.00     0.025 A 
ATOM     13  C   UNL     1      -2.498  25.497  31.211  1.00  0.00     0.016 A 
ATOM     14  C   UNL     1      -3.227  24.882  32.233  1.00  0.00     0.051 A 
ATOM     15  C   UNL     1      -3.557  23.523  32.145  1.00  0.00     0.157 A 
ATOM     16  C   UNL     1      -2.429  23.401  30.000  1.00  0.00     0.062 A 
ATOM     17  C   UNL     1      -3.159  22.781  31.021  1.00  0.00     0.158 A 
BRANCH  15  18
ATOM     18  O   UNL     1      -4.282  22.910  33.167  1.00  0.00    -0.504 OA
ATOM     19  H   UNL     1      -4.112  21.948  33.434  1.00  0.00     0.293 HD
ENDBRANCH  15  18
BRANCH  17  20
ATOM     20  O   UNL     1      -3.477  21.428  30.901  1.00  0.00    -0.504 OA
ATOM     21  H   UNL     1      -3.705  20.855  31.704  1.00  0.00     0.293 HD
ENDBRANCH  17  20
ENDBRANCH   1  12
BRANCH   2  22
ATOM     22  O   UNL     1      -3.368  25.993  27.810  1.00  0.00    -0.502 OA
ATOM     23  H   UNL     1      -3.950  25.321  28.294  1.00  0.00     0.293 HD
ENDBRANCH   2  22
BRANCH   6  24
ATOM     24  O   UNL     1       0.693  27.450  24.686  1.00  0.00    -0.507 OA
ATOM     25  H   UNL     1       0.350  26.851  23.949  1.00  0.00     0.293 HD
ENDBRANCH   6  24
BRANCH   8  26
ATOM     26  O   UNL     1       4.384  26.585  27.607  1.00  0.00    -0.508 OA
ATOM     27  H   UNL     1       5.007  25.902  27.193  1.00  0.00     0.293 HD
ENDBRANCH   8  26
TORSDOF 6
ENDMDL
MODEL 8
REMARK VINA RESULT:    -5.893      2.749      6.112
REMARK INTER + INTRA:          -7.404
REMARK INTER:                  -7.111
REMARK INTRA:                  -0.293
REMARK UNBOUND:                -0.306
REMARK SMILES O=c1c(O)c(-c2ccc(O)c(O)c2)oc2cc(O)cc(O)c12
REMARK SMILES IDX 5 1 3 2 2 3 1 4 22 5 20 6 19 7 17 8 16 9 15 10 14 11 6 12
REMARK SMILES IDX 7 13 8 14 9 15 13 16 11 17 10 18 12 20 4 22 21 24 18 26
REMARK H PARENT 10 19 12 21 4 23 21 25 18 27
REMARK Flexibility Score: inf
ROOT
ATOM      1  C   UNL     1      -0.387  25.260  28.070  1.00  0.00     0.180 A 
ATOM      2  C   UNL     1      -1.011  24.082  27.623  1.00  0.00     0.208 A 
ATOM      3  C   UNL     1      -1.755  23.317  28.535  1.00  0.00     0.238 A 
ATOM      4  O   UNL     1      -2.266  22.235  28.143  1.00  0.00    -0.285 OA
ATOM      5  C   UNL     1      -1.880  23.747  29.879  1.00  0.00     0.111 A 
ATOM      6  C   UNL     1      -2.642  23.072  30.878  1.00  0.00     0.134 A 
ATOM      7  C   UNL     1      -2.589  23.515  32.205  1.00  0.00     0.093 A 
ATOM      8  C   UNL     1      -1.854  24.647  32.556  1.00  0.00     0.123 A 
ATOM      9  C   UNL     1      -1.153  25.350  31.577  1.00  0.00     0.094 A 
ATOM     10  C   UNL     1      -1.158  24.911  30.251  1.00  0.00     0.146 A 
ATOM     11  O   UNL     1      -0.469  25.602  29.351  1.00  0.00    -0.452 OA
ENDROOT
BRANCH   1  12
ATOM     12  C   UNL     1       0.392  26.132  27.162  1.00  0.00     0.025 A 
ATOM     13  C   UNL     1       1.794  26.056  27.100  1.00  0.00     0.016 A 
ATOM     14  C   UNL     1       2.508  26.872  26.218  1.00  0.00     0.051 A 
ATOM     15  C   UNL     1       1.831  27.766  25.377  1.00  0.00     0.157 A 
ATOM     16  C   UNL     1      -0.283  27.014  26.303  1.00  0.00     0.062 A 
ATOM     17  C   UNL     1       0.429  27.833  25.418  1.00  0.00     0.158 A 
BRANCH  15  18
ATOM     18  O   UNL     1       2.546  28.580  24.500  1.00  0.00    -0.504 OA
ATOM     19  H   UNL     1       2.808  28.261  23.575  1.00  0.00     0.293 HD
ENDBRANCH  15  18
BRANCH  17  20
ATOM     20  O   UNL     1      -0.275  28.707  24.589  1.00  0.00    -0.504 OA
ATOM     21  H   UNL     1       0.070  28.978  23.677  1.00  0.00     0.293 HD
ENDBRANCH  17  20
ENDBRANCH   1  12
BRANCH   2  22
ATOM     22  O   UNL     1      -0.857  23.664  26.298  1.00  0.00    -0.502 OA
ATOM     23  H   UNL     1      -1.215  24.195  25.515  1.00  0.00     0.293 HD
ENDBRANCH   2  22
BRANCH   6  24
ATOM     24  O   UNL     1      -3.483  21.985  30.618  1.00  0.00    -0.507 OA
ATOM     25  H   UNL     1      -4.376  22.048  30.152  1.00  0.00     0.293 HD
ENDBRANCH   6  24
BRANCH   8  26
ATOM     26  O   UNL     1      -1.836  25.071  33.884  1.00  0.00    -0.508 OA
ATOM     27  H   UNL     1      -2.544  25.696  34.251  1.00  0.00     0.293 HD
ENDBRANCH   8  26
TORSDOF 6
ENDMDL
MODEL 9
REMARK VINA RESULT:    -5.882      3.188      4.239
REMARK INTER + INTRA:          -7.392
REMARK INTER:                  -7.084
REMARK INTRA:                  -0.308
REMARK UNBOUND:                -0.306
REMARK SMILES O=c1c(O)c(-c2ccc(O)c(O)c2)oc2cc(O)cc(O)c12
REMARK SMILES IDX 5 1 3 2 2 3 1 4 22 5 20 6 19 7 17 8 16 9 15 10 14 11 6 12
REMARK SMILES IDX 7 13 8 14 9 15 13 16 11 17 10 18 12 20 4 22 21 24 18 26
REMARK H PARENT 10 19 12 21 4 23 21 25 18 27
REMARK Flexibility Score: inf
ROOT
ATOM      1  C   UNL     1      -0.827  25.586  27.325  1.00  0.00     0.180 A 
ATOM      2  C   UNL     1       0.572  25.649  27.201  1.00  0.00     0.208 A 
ATOM      3  C   UNL     1       1.142  26.664  26.417  1.00  0.00     0.238 A 
ATOM      4  O   UNL     1       2.392  26.683  26.267  1.00  0.00    -0.285 OA
ATOM      5  C   UNL     1       0.308  27.616  25.781  1.00  0.00     0.111 A 
ATOM      6  C   UNL     1       0.780  28.710  24.997  1.00  0.00     0.134 A 
ATOM      7  C   UNL     1      -0.138  29.512  24.307  1.00  0.00     0.093 A 
ATOM      8  C   UNL     1      -1.511  29.298  24.425  1.00  0.00     0.123 A 
ATOM      9  C   UNL     1      -1.985  28.268  25.237  1.00  0.00     0.094 A 
ATOM     10  C   UNL     1      -1.093  27.429  25.908  1.00  0.00     0.146 A 
ATOM     11  O   UNL     1      -1.584  26.453  26.662  1.00  0.00    -0.452 OA
ENDROOT
BRANCH   1  12
ATOM     12  C   UNL     1      -1.500  24.560  28.153  1.00  0.00     0.025 A 
ATOM     13  C   UNL     1      -1.754  23.270  27.656  1.00  0.00     0.016 A 
ATOM     14  C   UNL     1      -2.369  22.310  28.464  1.00  0.00     0.051 A 
ATOM     15  C   UNL     1      -2.727  22.620  29.783  1.00  0.00     0.157 A 
ATOM     16  C   UNL     1      -1.841  24.859  29.482  1.00  0.00     0.062 A 
ATOM     17  C   UNL     1      -2.458  23.900  30.294  1.00  0.00     0.158 A 
BRANCH  15  18
ATOM     18  O   UNL     1      -3.342  21.661  30.587  1.00  0.00    -0.504 OA
ATOM     19  H   UNL     1      -4.247  21.273  30.349  1.00  0.00     0.293 HD
ENDBRANCH  15  18
BRANCH  17  20
ATOM     20  O   UNL     1      -2.795  24.239  31.605  1.00  0.00    -0.504 OA
ATOM     21  H   UNL     1      -2.549  25.134  32.010  1.00  0.00     0.293 HD
ENDBRANCH  17  20
ENDBRANCH   1  12
BRANCH   2  22
ATOM     22  O   UNL     1       1.376  24.687  27.820  1.00  0.00    -0.502 OA
ATOM     23  H   UNL     1       1.317  24.483  28.809  1.00  0.00     0.293 HD
ENDBRANCH   2  22
BRANCH   6  24
ATOM     24  O   UNL     1       2.127  29.068  24.885  1.00  0.00    -0.507 OA
ATOM     25  H   UNL     1       2.628  29.635  25.552  1.00  0.00     0.293 HD
ENDBRANCH   6  24
BRANCH   8  26
ATOM     26  O   UNL     1      -2.397  30.125  23.737  1.00  0.00    -0.508 OA
ATOM     27  H   UNL     1      -3.140  29.744  23.163  1.00  0.00     0.293 HD
ENDBRANCH   8  26
TORSDOF 6
ENDMDL
