MODEL 1
REMARK VINA RESULT:    -0.214      0.000      0.000
REMARK INTER + INTRA:          -0.380
REMARK INTER:                  -0.232
REMARK INTRA:                  -0.148
REMARK UNBOUND:                -0.148
REMARK SMILES C[C@@H]1[C@H]2C3=CC[C@H]4[C@@]5(C)CC[C@@H](O)C(C)(C)[C@H]5CC[C@]4(C)[C@]3(C)CC[C@@]2(C(=O)[O-])CC[C@@H]1C
REMARK SMILES IDX 26 1 30 2 25 3 3 4 31 5 24 6 4 7 2 8 32 9 22 10 5 11 1 12
REMARK SMILES IDX 33 13 23 14 20 15 6 16 7 17 19 18 21 19 8 20 18 21 17 22
REMARK SMILES IDX 10 23 9 24 14 25 11 26 12 27 15 28 16 29 27 30 28 31 29 32
REMARK SMILES IDX 13 33
REMARK H PARENT 13 34
REMARK Flexibility Score: inf
ROOT
ATOM      1  C   UNL     1     -29.490  19.568  56.025  1.00  0.00     0.017 C 
ATOM      2  C   UNL     1     -28.715  20.925  55.990  1.00  0.00     0.014 C 
ATOM      3  C   UNL     1     -30.950  19.874  56.466  1.00  0.00     0.014 C 
ATOM      4  C   UNL     1     -28.814  18.546  57.020  1.00  0.00     0.030 C 
ATOM      5  C   UNL     1     -27.247  20.778  56.380  1.00  0.00     0.004 C 
ATOM      6  C   UNL     1     -31.820  18.623  56.691  1.00  0.00     0.013 C 
ATOM      7  C   UNL     1     -29.759  17.359  57.316  1.00  0.00    -0.063 C 
ATOM      8  C   UNL     1     -28.179  19.234  58.265  1.00  0.00    -0.003 C 
ATOM      9  C   UNL     1     -27.102  20.315  57.852  1.00  0.00    -0.011 C 
ATOM     10  C   UNL     1     -31.240  17.605  57.730  1.00  0.00    -0.006 C 
ATOM     11  C   UNL     1     -29.320  16.136  56.918  1.00  0.00    -0.027 C 
ATOM     12  C   UNL     1     -27.639  18.199  59.279  1.00  0.00     0.008 C 
ATOM     13  C   UNL     1     -25.627  19.925  58.091  1.00  0.00     0.008 C 
ATOM     14  C   UNL     1     -31.305  18.288  59.136  1.00  0.00     0.017 C 
ATOM     15  C   UNL     1     -32.089  16.217  57.777  1.00  0.00    -0.020 C 
ATOM     16  C   UNL     1     -30.193  14.927  56.724  1.00  0.00     0.032 C 
ATOM     17  C   UNL     1     -31.676  15.321  56.552  1.00  0.00     0.006 C 
ATOM     18  C   UNL     1     -33.611  16.482  57.680  1.00  0.00     0.008 C 
ATOM     19  C   UNL     1     -31.813  15.489  59.143  1.00  0.00     0.012 C 
ATOM     20  C   UNL     1     -32.622  14.113  56.068  1.00  0.00    -0.025 C 
ATOM     21  C   UNL     1     -34.433  15.204  57.597  1.00  0.00     0.005 C 
ATOM     22  C   UNL     1     -34.171  14.439  56.275  1.00  0.00     0.003 C 
ATOM     23  C   UNL     1     -32.244  12.767  56.776  1.00  0.00     0.010 C 
ATOM     24  C   UNL     1     -32.339  13.945  54.528  1.00  0.00     0.012 C 
ATOM     25  C   UNL     1     -35.161  13.199  56.087  1.00  0.00    -0.006 C 
ATOM     26  C   UNL     1     -33.193  11.595  56.485  1.00  0.00     0.033 C 
ATOM     27  C   UNL     1     -34.647  11.929  56.835  1.00  0.00     0.120 C 
ATOM     28  C   UNL     1     -35.358  12.876  54.577  1.00  0.00     0.014 C 
ATOM     29  C   UNL     1     -36.599  13.521  56.593  1.00  0.00     0.014 C 
ENDROOT
BRANCH   1  30
ATOM     30  C   UNL     1     -29.517  18.996  54.606  1.00  0.00     0.048 C 
ATOM     31  O   UNL     1     -28.746  18.057  54.262  1.00  0.00    -0.550 OA
ATOM     32  O   UNL     1     -30.361  19.549  53.649  1.00  0.00    -0.550 OA
ENDBRANCH   1  30
BRANCH  27  33
ATOM     33  O   UNL     1     -34.743  12.080  58.231  1.00  0.00    -0.393 OA
ATOM     34  H   UNL     1     -33.825  11.995  58.603  1.00  0.00     0.210 HD
ENDBRANCH  27  33
TORSDOF 2
ENDMDL
MODEL 2
REMARK VINA RESULT:     0.375      1.887      3.165
REMARK INTER + INTRA:           0.260
REMARK INTER:                   0.442
REMARK INTRA:                  -0.182
REMARK UNBOUND:                -0.148
REMARK SMILES C[C@@H]1[C@H]2C3=CC[C@H]4[C@@]5(C)CC[C@@H](O)C(C)(C)[C@H]5CC[C@]4(C)[C@]3(C)CC[C@@]2(C(=O)[O-])CC[C@@H]1C
REMARK SMILES IDX 26 1 30 2 25 3 3 4 31 5 24 6 4 7 2 8 32 9 22 10 5 11 1 12
REMARK SMILES IDX 33 13 23 14 20 15 6 16 7 17 19 18 21 19 8 20 18 21 17 22
REMARK SMILES IDX 10 23 9 24 14 25 11 26 12 27 15 28 16 29 27 30 28 31 29 32
REMARK SMILES IDX 13 33
REMARK H PARENT 13 34
REMARK Flexibility Score: inf
ROOT
ATOM      1  C   UNL     1     -28.150  18.273  56.894  1.00  0.00     0.017 C 
ATOM      2  C   UNL     1     -26.951  19.236  56.616  1.00  0.00     0.014 C 
ATOM      3  C   UNL     1     -28.475  17.534  55.565  1.00  0.00     0.014 C 
ATOM      4  C   UNL     1     -29.414  19.063  57.411  1.00  0.00     0.030 C 
ATOM      5  C   UNL     1     -27.022  20.522  57.435  1.00  0.00     0.004 C 
ATOM      6  C   UNL     1     -29.730  16.644  55.624  1.00  0.00     0.013 C 
ATOM      7  C   UNL     1     -30.680  18.179  57.350  1.00  0.00    -0.063 C 
ATOM      8  C   UNL     1     -29.547  20.482  56.782  1.00  0.00    -0.003 C 
ATOM      9  C   UNL     1     -28.263  21.365  57.049  1.00  0.00    -0.011 C 
ATOM     10  C   UNL     1     -31.038  17.390  56.056  1.00  0.00    -0.006 C 
ATOM     11  C   UNL     1     -31.273  17.906  58.542  1.00  0.00    -0.027 C 
ATOM     12  C   UNL     1     -30.859  21.179  57.211  1.00  0.00     0.008 C 
ATOM     13  C   UNL     1     -28.424  22.493  58.090  1.00  0.00     0.008 C 
ATOM     14  C   UNL     1     -31.410  18.379  54.902  1.00  0.00     0.017 C 
ATOM     15  C   UNL     1     -32.282  16.369  56.298  1.00  0.00    -0.020 C 
ATOM     16  C   UNL     1     -32.236  16.777  58.788  1.00  0.00     0.032 C 
ATOM     17  C   UNL     1     -32.116  15.684  57.705  1.00  0.00     0.006 C 
ATOM     18  C   UNL     1     -32.314  15.253  55.227  1.00  0.00     0.008 C 
ATOM     19  C   UNL     1     -33.632  17.169  56.202  1.00  0.00     0.012 C 
ATOM     20  C   UNL     1     -32.911  14.329  58.052  1.00  0.00    -0.025 C 
ATOM     21  C   UNL     1     -33.389  14.207  55.490  1.00  0.00     0.005 C 
ATOM     22  C   UNL     1     -33.093  13.391  56.773  1.00  0.00     0.003 C 
ATOM     23  C   UNL     1     -34.299  14.630  58.713  1.00  0.00     0.010 C 
ATOM     24  C   UNL     1     -32.024  13.577  59.113  1.00  0.00     0.012 C 
ATOM     25  C   UNL     1     -34.104  12.169  56.960  1.00  0.00    -0.006 C 
ATOM     26  C   UNL     1     -35.188  13.399  58.940  1.00  0.00     0.033 C 
ATOM     27  C   UNL     1     -35.435  12.618  57.644  1.00  0.00     0.120 C 
ATOM     28  C   UNL     1     -33.446  11.030  57.791  1.00  0.00     0.014 C 
ATOM     29  C   UNL     1     -34.454  11.490  55.602  1.00  0.00     0.014 C 
ENDROOT
BRANCH   1  30
ATOM     30  C   UNL     1     -27.703  17.240  57.931  1.00  0.00     0.048 C 
ATOM     31  O   UNL     1     -27.981  17.376  59.156  1.00  0.00    -0.550 OA
ATOM     32  O   UNL     1     -26.924  16.156  57.542  1.00  0.00    -0.550 OA
ENDBRANCH   1  30
BRANCH  27  33
ATOM     33  O   UNL     1     -36.210  13.420  56.785  1.00  0.00    -0.393 OA
ATOM     34  H   UNL     1     -37.158  13.143  56.896  1.00  0.00     0.210 HD
ENDBRANCH  27  33
TORSDOF 2
ENDMDL
MODEL 3
REMARK VINA RESULT:     0.847      1.682      7.929
REMARK INTER + INTRA:           0.773
REMARK INTER:                   0.434
REMARK INTRA:                   0.340
REMARK UNBOUND:                -0.148
REMARK SMILES C[C@@H]1[C@H]2C3=CC[C@H]4[C@@]5(C)CC[C@@H](O)C(C)(C)[C@H]5CC[C@]4(C)[C@]3(C)CC[C@@]2(C(=O)[O-])CC[C@@H]1C
REMARK SMILES IDX 26 1 30 2 25 3 3 4 31 5 24 6 4 7 2 8 32 9 22 10 5 11 1 12
REMARK SMILES IDX 33 13 23 14 20 15 6 16 7 17 19 18 21 19 8 20 18 21 17 22
REMARK SMILES IDX 10 23 9 24 14 25 11 26 12 27 15 28 16 29 27 30 28 31 29 32
REMARK SMILES IDX 13 33
REMARK H PARENT 13 34
REMARK Flexibility Score: inf
ROOT
ATOM      1  C   UNL     1     -33.660  12.796  57.196  1.00  0.00     0.017 C 
ATOM      2  C   UNL     1     -34.750  11.679  57.291  1.00  0.00     0.014 C 
ATOM      3  C   UNL     1     -33.660  13.566  58.548  1.00  0.00     0.014 C 
ATOM      4  C   UNL     1     -33.950  13.781  55.998  1.00  0.00     0.030 C 
ATOM      5  C   UNL     1     -35.435  11.406  55.955  1.00  0.00     0.004 C 
ATOM      6  C   UNL     1     -32.738  14.799  58.575  1.00  0.00     0.013 C 
ATOM      7  C   UNL     1     -33.093  15.061  56.117  1.00  0.00    -0.063 C 
ATOM      8  C   UNL     1     -35.471  14.006  55.746  1.00  0.00    -0.003 C 
ATOM      9  C   UNL     1     -36.226  12.645  55.467  1.00  0.00    -0.011 C 
ATOM     10  C   UNL     1     -33.028  15.855  57.456  1.00  0.00    -0.006 C 
ATOM     11  C   UNL     1     -32.199  15.274  55.115  1.00  0.00    -0.027 C 
ATOM     12  C   UNL     1     -35.721  15.070  54.653  1.00  0.00     0.008 C 
ATOM     13  C   UNL     1     -36.656  12.398  54.005  1.00  0.00     0.008 C 
ATOM     14  C   UNL     1     -34.419  16.497  57.774  1.00  0.00     0.017 C 
ATOM     15  C   UNL     1     -31.903  17.029  57.405  1.00  0.00    -0.020 C 
ATOM     16  C   UNL     1     -31.008  16.187  55.201  1.00  0.00     0.032 C 
ATOM     17  C   UNL     1     -30.625  16.484  56.667  1.00  0.00     0.006 C 
ATOM     18  C   UNL     1     -31.479  17.467  58.828  1.00  0.00     0.008 C 
ATOM     19  C   UNL     1     -32.500  18.285  56.673  1.00  0.00     0.012 C 
ATOM     20  C   UNL     1     -29.206  17.223  56.837  1.00  0.00    -0.025 C 
ATOM     21  C   UNL     1     -30.339  18.477  58.825  1.00  0.00     0.005 C 
ATOM     22  C   UNL     1     -29.024  17.855  58.292  1.00  0.00     0.003 C 
ATOM     23  C   UNL     1     -28.991  18.314  55.733  1.00  0.00     0.010 C 
ATOM     24  C   UNL     1     -28.118  16.104  56.628  1.00  0.00     0.012 C 
ATOM     25  C   UNL     1     -27.778  18.840  58.458  1.00  0.00    -0.006 C 
ATOM     26  C   UNL     1     -27.729  19.172  55.909  1.00  0.00     0.033 C 
ATOM     27  C   UNL     1     -27.684  19.859  57.278  1.00  0.00     0.120 C 
ATOM     28  C   UNL     1     -26.450  18.036  58.563  1.00  0.00     0.014 C 
ATOM     29  C   UNL     1     -27.841  19.637  59.794  1.00  0.00     0.014 C 
ENDROOT
BRANCH   1  30
ATOM     30  C   UNL     1     -32.298  12.122  57.017  1.00  0.00     0.048 C 
ATOM     31  O   UNL     1     -31.230  12.697  57.366  1.00  0.00    -0.550 OA
ATOM     32  O   UNL     1     -32.215  10.875  56.406  1.00  0.00    -0.550 OA
ENDBRANCH   1  30
BRANCH  27  33
ATOM     33  O   UNL     1     -28.725  20.805  57.333  1.00  0.00    -0.393 OA
ATOM     34  H   UNL     1     -28.834  21.180  56.418  1.00  0.00     0.210 HD
ENDBRANCH  27  33
TORSDOF 2
ENDMDL
MODEL 4
REMARK VINA RESULT:     1.085      1.886      3.186
REMARK INTER + INTRA:           1.032
REMARK INTER:                   1.228
REMARK INTRA:                  -0.196
REMARK UNBOUND:                -0.148
REMARK SMILES C[C@@H]1[C@H]2C3=CC[C@H]4[C@@]5(C)CC[C@@H](O)C(C)(C)[C@H]5CC[C@]4(C)[C@]3(C)CC[C@@]2(C(=O)[O-])CC[C@@H]1C
REMARK SMILES IDX 26 1 30 2 25 3 3 4 31 5 24 6 4 7 2 8 32 9 22 10 5 11 1 12
REMARK SMILES IDX 33 13 23 14 20 15 6 16 7 17 19 18 21 19 8 20 18 21 17 22
REMARK SMILES IDX 10 23 9 24 14 25 11 26 12 27 15 28 16 29 27 30 28 31 29 32
REMARK SMILES IDX 13 33
REMARK H PARENT 13 34
REMARK Flexibility Score: inf
ROOT
ATOM      1  C   UNL     1     -29.236  19.326  57.946  1.00  0.00     0.017 C 
ATOM      2  C   UNL     1     -28.062  20.314  58.245  1.00  0.00     0.014 C 
ATOM      3  C   UNL     1     -29.008  18.054  58.812  1.00  0.00     0.014 C 
ATOM      4  C   UNL     1     -29.294  18.950  56.415  1.00  0.00     0.030 C 
ATOM      5  C   UNL     1     -27.661  21.142  57.027  1.00  0.00     0.004 C 
ATOM      6  C   UNL     1     -30.003  16.912  58.534  1.00  0.00     0.013 C 
ATOM      7  C   UNL     1     -30.210  17.727  56.183  1.00  0.00    -0.063 C 
ATOM      8  C   UNL     1     -27.888  18.880  55.748  1.00  0.00    -0.003 C 
ATOM      9  C   UNL     1     -27.100  20.242  55.897  1.00  0.00    -0.011 C 
ATOM     10  C   UNL     1     -30.051  16.438  57.042  1.00  0.00    -0.006 C 
ATOM     11  C   UNL     1     -31.314  17.947  55.420  1.00  0.00    -0.027 C 
ATOM     12  C   UNL     1     -27.971  18.387  54.285  1.00  0.00     0.008 C 
ATOM     13  C   UNL     1     -26.977  21.095  54.616  1.00  0.00     0.008 C 
ATOM     14  C   UNL     1     -28.683  15.745  56.732  1.00  0.00     0.017 C 
ATOM     15  C   UNL     1     -31.255  15.378  56.767  1.00  0.00    -0.020 C 
ATOM     16  C   UNL     1     -32.531  17.064  55.389  1.00  0.00     0.032 C 
ATOM     17  C   UNL     1     -32.611  16.165  56.642  1.00  0.00     0.006 C 
ATOM     18  C   UNL     1     -31.396  14.369  57.931  1.00  0.00     0.008 C 
ATOM     19  C   UNL     1     -30.937  14.564  55.460  1.00  0.00     0.012 C 
ATOM     20  C   UNL     1     -34.017  15.400  56.810  1.00  0.00    -0.025 C 
ATOM     21  C   UNL     1     -32.590  13.439  57.770  1.00  0.00     0.005 C 
ATOM     22  C   UNL     1     -33.933  14.206  57.866  1.00  0.00     0.003 C 
ATOM     23  C   UNL     1     -34.556  14.880  55.433  1.00  0.00     0.010 C 
ATOM     24  C   UNL     1     -35.027  16.483  57.345  1.00  0.00     0.012 C 
ATOM     25  C   UNL     1     -35.192  13.224  57.888  1.00  0.00    -0.006 C 
ATOM     26  C   UNL     1     -35.817  14.008  55.521  1.00  0.00     0.033 C 
ATOM     27  C   UNL     1     -35.623  12.802  56.447  1.00  0.00     0.120 C 
ATOM     28  C   UNL     1     -36.394  13.884  58.623  1.00  0.00     0.014 C 
ATOM     29  C   UNL     1     -34.909  11.934  58.714  1.00  0.00     0.014 C 
ENDROOT
BRANCH   1  30
ATOM     30  C   UNL     1     -30.543  19.990  58.385  1.00  0.00     0.048 C 
ATOM     31  O   UNL     1     -31.268  20.618  57.565  1.00  0.00    -0.550 OA
ATOM     32  O   UNL     1     -30.923  19.960  59.723  1.00  0.00    -0.550 OA
ENDBRANCH   1  30
BRANCH  27  33
ATOM     33  O   UNL     1     -34.678  11.941  55.859  1.00  0.00    -0.393 OA
ATOM     34  H   UNL     1     -34.396  11.289  56.555  1.00  0.00     0.210 HD
ENDBRANCH  27  33
TORSDOF 2
ENDMDL
MODEL 5
REMARK VINA RESULT:     1.267      1.911      7.879
REMARK INTER + INTRA:           1.231
REMARK INTER:                   1.053
REMARK INTRA:                   0.177
REMARK UNBOUND:                -0.148
REMARK SMILES C[C@@H]1[C@H]2C3=CC[C@H]4[C@@]5(C)CC[C@@H](O)C(C)(C)[C@H]5CC[C@]4(C)[C@]3(C)CC[C@@]2(C(=O)[O-])CC[C@@H]1C
REMARK SMILES IDX 26 1 30 2 25 3 3 4 31 5 24 6 4 7 2 8 32 9 22 10 5 11 1 12
REMARK SMILES IDX 33 13 23 14 20 15 6 16 7 17 19 18 21 19 8 20 18 21 17 22
REMARK SMILES IDX 10 23 9 24 14 25 11 26 12 27 15 28 16 29 27 30 28 31 29 32
REMARK SMILES IDX 13 33
REMARK H PARENT 13 34
REMARK Flexibility Score: inf
ROOT
ATOM      1  C   UNL     1     -32.655  12.497  56.774  1.00  0.00     0.017 C 
ATOM      2  C   UNL     1     -33.299  11.088  56.984  1.00  0.00     0.014 C 
ATOM      3  C   UNL     1     -32.043  12.940  58.133  1.00  0.00     0.014 C 
ATOM      4  C   UNL     1     -33.723  13.548  56.278  1.00  0.00     0.030 C 
ATOM      5  C   UNL     1     -34.548  10.875  56.133  1.00  0.00     0.004 C 
ATOM      6  C   UNL     1     -31.489  14.377  58.141  1.00  0.00     0.013 C 
ATOM      7  C   UNL     1     -33.178  14.989  56.407  1.00  0.00    -0.063 C 
ATOM      8  C   UNL     1     -35.142  13.305  56.873  1.00  0.00    -0.003 C 
ATOM      9  C   UNL     1     -35.677  11.856  56.538  1.00  0.00    -0.011 C 
ATOM     10  C   UNL     1     -32.525  15.478  57.734  1.00  0.00    -0.006 C 
ATOM     11  C   UNL     1     -33.037  15.678  55.243  1.00  0.00    -0.027 C 
ATOM     12  C   UNL     1     -36.132  14.422  56.470  1.00  0.00     0.008 C 
ATOM     13  C   UNL     1     -36.791  11.775  55.472  1.00  0.00     0.008 C 
ATOM     14  C   UNL     1     -33.596  15.550  58.872  1.00  0.00     0.017 C 
ATOM     15  C   UNL     1     -31.837  16.943  57.561  1.00  0.00    -0.020 C 
ATOM     16  C   UNL     1     -32.176  16.896  55.061  1.00  0.00     0.032 C 
ATOM     17  C   UNL     1     -31.107  17.006  56.170  1.00  0.00     0.006 C 
ATOM     18  C   UNL     1     -30.783  17.205  58.664  1.00  0.00     0.008 C 
ATOM     19  C   UNL     1     -32.946  18.051  57.682  1.00  0.00     0.012 C 
ATOM     20  C   UNL     1     -29.983  18.122  55.887  1.00  0.00    -0.025 C 
ATOM     21  C   UNL     1     -30.029  18.513  58.466  1.00  0.00     0.005 C 
ATOM     22  C   UNL     1     -29.142  18.477  57.197  1.00  0.00     0.003 C 
ATOM     23  C   UNL     1     -30.604  19.419  55.265  1.00  0.00     0.010 C 
ATOM     24  C   UNL     1     -29.016  17.488  54.818  1.00  0.00     0.012 C 
ATOM     25  C   UNL     1     -28.203  19.764  57.078  1.00  0.00    -0.006 C 
ATOM     26  C   UNL     1     -29.625  20.591  55.103  1.00  0.00     0.033 C 
ATOM     27  C   UNL     1     -28.953  20.969  56.427  1.00  0.00     0.120 C 
ATOM     28  C   UNL     1     -26.922  19.438  56.256  1.00  0.00     0.014 C 
ATOM     29  C   UNL     1     -27.656  20.215  58.464  1.00  0.00     0.014 C 
ENDROOT
BRANCH   1  30
ATOM     30  C   UNL     1     -31.526  12.358  55.751  1.00  0.00     0.048 C 
ATOM     31  O   UNL     1     -31.475  13.092  54.724  1.00  0.00    -0.550 OA
ATOM     32  O   UNL     1     -30.561  11.370  55.910  1.00  0.00    -0.550 OA
ENDBRANCH   1  30
BRANCH  27  33
ATOM     33  O   UNL     1     -29.936  21.490  57.289  1.00  0.00    -0.393 OA
ATOM     34  H   UNL     1     -29.641  22.399  57.562  1.00  0.00     0.210 HD
ENDBRANCH  27  33
TORSDOF 2
ENDMDL
MODEL 6
REMARK VINA RESULT:     1.712      2.053      7.810
REMARK INTER + INTRA:           1.714
REMARK INTER:                   1.487
REMARK INTRA:                   0.227
REMARK UNBOUND:                -0.148
REMARK SMILES C[C@@H]1[C@H]2C3=CC[C@H]4[C@@]5(C)CC[C@@H](O)C(C)(C)[C@H]5CC[C@]4(C)[C@]3(C)CC[C@@]2(C(=O)[O-])CC[C@@H]1C
REMARK SMILES IDX 26 1 30 2 25 3 3 4 31 5 24 6 4 7 2 8 32 9 22 10 5 11 1 12
REMARK SMILES IDX 33 13 23 14 20 15 6 16 7 17 19 18 21 19 8 20 18 21 17 22
REMARK SMILES IDX 10 23 9 24 14 25 11 26 12 27 15 28 16 29 27 30 28 31 29 32
REMARK SMILES IDX 13 33
REMARK H PARENT 13 34
REMARK Flexibility Score: inf
ROOT
ATOM      1  C   UNL     1     -34.730  14.460  55.294  1.00  0.00     0.017 C 
ATOM      2  C   UNL     1     -35.751  13.420  54.727  1.00  0.00     0.014 C 
ATOM      3  C   UNL     1     -33.368  14.213  54.585  1.00  0.00     0.014 C 
ATOM      4  C   UNL     1     -34.573  14.316  56.858  1.00  0.00     0.030 C 
ATOM      5  C   UNL     1     -36.771  12.966  55.767  1.00  0.00     0.004 C 
ATOM      6  C   UNL     1     -32.205  15.063  55.131  1.00  0.00     0.013 C 
ATOM      7  C   UNL     1     -33.331  15.086  57.360  1.00  0.00    -0.063 C 
ATOM      8  C   UNL     1     -34.705  12.845  57.353  1.00  0.00    -0.003 C 
ATOM      9  C   UNL     1     -36.087  12.205  56.930  1.00  0.00    -0.011 C 
ATOM     10  C   UNL     1     -31.947  14.904  56.667  1.00  0.00    -0.006 C 
ATOM     11  C   UNL     1     -33.573  16.115  58.215  1.00  0.00    -0.027 C 
ATOM     12  C   UNL     1     -34.421  12.722  58.869  1.00  0.00     0.008 C 
ATOM     13  C   UNL     1     -37.122  12.022  58.061  1.00  0.00     0.008 C 
ATOM     14  C   UNL     1     -31.410  13.453  56.900  1.00  0.00     0.017 C 
ATOM     15  C   UNL     1     -30.851  15.969  57.225  1.00  0.00    -0.020 C 
ATOM     16  C   UNL     1     -32.615  17.235  58.510  1.00  0.00     0.032 C 
ATOM     17  C   UNL     1     -31.543  17.370  57.407  1.00  0.00     0.006 C 
ATOM     18  C   UNL     1     -29.678  16.144  56.231  1.00  0.00     0.008 C 
ATOM     19  C   UNL     1     -30.258  15.437  58.581  1.00  0.00     0.012 C 
ATOM     20  C   UNL     1     -30.658  18.710  57.514  1.00  0.00    -0.025 C 
ATOM     21  C   UNL     1     -28.693  17.224  56.658  1.00  0.00     0.005 C 
ATOM     22  C   UNL     1     -29.335  18.633  56.624  1.00  0.00     0.003 C 
ATOM     23  C   UNL     1     -30.301  19.045  59.002  1.00  0.00     0.010 C 
ATOM     24  C   UNL     1     -31.575  19.867  56.965  1.00  0.00     0.012 C 
ATOM     25  C   UNL     1     -28.268  19.792  56.885  1.00  0.00    -0.006 C 
ATOM     26  C   UNL     1     -29.333  20.224  59.184  1.00  0.00     0.033 C 
ATOM     27  C   UNL     1     -28.026  20.023  58.411  1.00  0.00     0.120 C 
ATOM     28  C   UNL     1     -28.724  21.122  56.220  1.00  0.00     0.014 C 
ATOM     29  C   UNL     1     -26.898  19.485  56.210  1.00  0.00     0.014 C 
ENDROOT
BRANCH   1  30
ATOM     30  C   UNL     1     -35.224  15.862  54.932  1.00  0.00     0.048 C 
ATOM     31  O   UNL     1     -35.294  16.778  55.799  1.00  0.00    -0.550 OA
ATOM     32  O   UNL     1     -35.663  16.132  53.641  1.00  0.00    -0.550 OA
ENDBRANCH   1  30
BRANCH  27  33
ATOM     33  O   UNL     1     -27.330  18.945  58.990  1.00  0.00    -0.393 OA
ATOM     34  H   UNL     1     -26.962  18.396  58.248  1.00  0.00     0.210 HD
ENDBRANCH  27  33
TORSDOF 2
ENDMDL
MODEL 7
REMARK VINA RESULT:     1.828      1.944      3.521
REMARK INTER + INTRA:           1.840
REMARK INTER:                   1.427
REMARK INTRA:                   0.414
REMARK UNBOUND:                -0.148
REMARK SMILES C[C@@H]1[C@H]2C3=CC[C@H]4[C@@]5(C)CC[C@@H](O)C(C)(C)[C@H]5CC[C@]4(C)[C@]3(C)CC[C@@]2(C(=O)[O-])CC[C@@H]1C
REMARK SMILES IDX 26 1 30 2 25 3 3 4 31 5 24 6 4 7 2 8 32 9 22 10 5 11 1 12
REMARK SMILES IDX 33 13 23 14 20 15 6 16 7 17 19 18 21 19 8 20 18 21 17 22
REMARK SMILES IDX 10 23 9 24 14 25 11 26 12 27 15 28 16 29 27 30 28 31 29 32
REMARK SMILES IDX 13 33
REMARK H PARENT 13 34
REMARK Flexibility Score: inf
ROOT
ATOM      1  C   UNL     1     -27.470  18.341  57.587  1.00  0.00     0.017 C 
ATOM      2  C   UNL     1     -26.149  19.169  57.466  1.00  0.00     0.014 C 
ATOM      3  C   UNL     1     -27.476  17.297  56.433  1.00  0.00     0.014 C 
ATOM      4  C   UNL     1     -28.741  19.271  57.498  1.00  0.00     0.030 C 
ATOM      5  C   UNL     1     -26.320  20.622  57.901  1.00  0.00     0.004 C 
ATOM      6  C   UNL     1     -28.780  16.487  56.318  1.00  0.00     0.013 C 
ATOM      7  C   UNL     1     -30.020  18.436  57.267  1.00  0.00    -0.063 C 
ATOM      8  C   UNL     1     -28.544  20.487  56.544  1.00  0.00    -0.003 C 
ATOM      9  C   UNL     1     -27.307  21.373  56.972  1.00  0.00    -0.011 C 
ATOM     10  C   UNL     1     -30.073  17.353  56.148  1.00  0.00    -0.006 C 
ATOM     11  C   UNL     1     -30.954  18.490  58.254  1.00  0.00    -0.027 C 
ATOM     12  C   UNL     1     -29.846  21.306  56.382  1.00  0.00     0.008 C 
ATOM     13  C   UNL     1     -27.641  22.733  57.622  1.00  0.00     0.008 C 
ATOM     14  C   UNL     1     -29.997  18.027  54.737  1.00  0.00     0.017 C 
ATOM     15  C   UNL     1     -31.432  16.462  56.236  1.00  0.00    -0.020 C 
ATOM     16  C   UNL     1     -32.056  17.488  58.455  1.00  0.00     0.032 C 
ATOM     17  C   UNL     1     -31.745  16.153  57.746  1.00  0.00     0.006 C 
ATOM     18  C   UNL     1     -31.271  15.113  55.497  1.00  0.00     0.008 C 
ATOM     19  C   UNL     1     -32.609  17.248  55.551  1.00  0.00     0.012 C 
ATOM     20  C   UNL     1     -32.740  14.952  58.144  1.00  0.00    -0.025 C 
ATOM     21  C   UNL     1     -32.477  14.197  55.660  1.00  0.00     0.005 C 
ATOM     22  C   UNL     1     -32.644  13.726  57.126  1.00  0.00     0.003 C 
ATOM     23  C   UNL     1     -34.221  15.450  58.266  1.00  0.00     0.010 C 
ATOM     24  C   UNL     1     -32.274  14.471  59.568  1.00  0.00     0.012 C 
ATOM     25  C   UNL     1     -33.786  12.620  57.280  1.00  0.00    -0.006 C 
ATOM     26  C   UNL     1     -35.259  14.342  58.495  1.00  0.00     0.033 C 
ATOM     27  C   UNL     1     -35.203  13.264  57.406  1.00  0.00     0.120 C 
ATOM     28  C   UNL     1     -33.512  11.712  58.514  1.00  0.00     0.014 C 
ATOM     29  C   UNL     1     -33.802  11.628  56.079  1.00  0.00     0.014 C 
ENDROOT
BRANCH   1  30
ATOM     30  C   UNL     1     -27.445  17.594  58.922  1.00  0.00     0.048 C 
ATOM     31  O   UNL     1     -28.513  17.260  59.508  1.00  0.00    -0.550 OA
ATOM     32  O   UNL     1     -26.231  17.321  59.544  1.00  0.00    -0.550 OA
ENDBRANCH   1  30
BRANCH  27  33
ATOM     33  O   UNL     1     -35.615  13.843  56.191  1.00  0.00    -0.393 OA
ATOM     34  H   UNL     1     -35.054  14.650  56.041  1.00  0.00     0.210 HD
ENDBRANCH  27  33
TORSDOF 2
ENDMDL
MODEL 8
REMARK VINA RESULT:     2.111      2.021      7.747
REMARK INTER + INTRA:           2.148
REMARK INTER:                   1.721
REMARK INTRA:                   0.427
REMARK UNBOUND:                -0.148
REMARK SMILES C[C@@H]1[C@H]2C3=CC[C@H]4[C@@]5(C)CC[C@@H](O)C(C)(C)[C@H]5CC[C@]4(C)[C@]3(C)CC[C@@]2(C(=O)[O-])CC[C@@H]1C
REMARK SMILES IDX 26 1 30 2 25 3 3 4 31 5 24 6 4 7 2 8 32 9 22 10 5 11 1 12
REMARK SMILES IDX 33 13 23 14 20 15 6 16 7 17 19 18 21 19 8 20 18 21 17 22
REMARK SMILES IDX 10 23 9 24 14 25 11 26 12 27 15 28 16 29 27 30 28 31 29 32
REMARK SMILES IDX 13 33
REMARK H PARENT 13 34
REMARK Flexibility Score: inf
ROOT
ATOM      1  C   UNL     1     -34.427  13.849  55.908  1.00  0.00     0.017 C 
ATOM      2  C   UNL     1     -35.458  12.673  55.886  1.00  0.00     0.014 C 
ATOM      3  C   UNL     1     -33.034  13.256  55.553  1.00  0.00     0.014 C 
ATOM      4  C   UNL     1     -34.386  14.550  57.321  1.00  0.00     0.030 C 
ATOM      5  C   UNL     1     -36.570  12.842  56.918  1.00  0.00     0.004 C 
ATOM      6  C   UNL     1     -31.870  14.258  55.668  1.00  0.00     0.013 C 
ATOM      7  C   UNL     1     -33.144  15.461  57.448  1.00  0.00    -0.063 C 
ATOM      8  C   UNL     1     -34.626  13.562  58.501  1.00  0.00    -0.003 C 
ATOM      9  C   UNL     1     -36.006  12.805  58.361  1.00  0.00    -0.011 C 
ATOM     10  C   UNL     1     -31.727  14.931  57.075  1.00  0.00    -0.006 C 
ATOM     11  C   UNL     1     -33.392  16.787  57.611  1.00  0.00    -0.027 C 
ATOM     12  C   UNL     1     -34.454  14.255  59.873  1.00  0.00     0.008 C 
ATOM     13  C   UNL     1     -37.125  13.252  59.327  1.00  0.00     0.008 C 
ATOM     14  C   UNL     1     -31.282  13.817  58.079  1.00  0.00     0.017 C 
ATOM     15  C   UNL     1     -30.619  16.123  57.082  1.00  0.00    -0.020 C 
ATOM     16  C   UNL     1     -32.401  17.888  57.355  1.00  0.00     0.032 C 
ATOM     17  C   UNL     1     -31.250  17.414  56.442  1.00  0.00     0.006 C 
ATOM     18  C   UNL     1     -29.373  15.740  56.248  1.00  0.00     0.008 C 
ATOM     19  C   UNL     1     -30.149  16.382  58.559  1.00  0.00     0.012 C 
ATOM     20  C   UNL     1     -30.308  18.603  55.904  1.00  0.00    -0.025 C 
ATOM     21  C   UNL     1     -28.366  16.876  56.127  1.00  0.00     0.005 C 
ATOM     22  C   UNL     1     -28.933  18.059  55.304  1.00  0.00     0.003 C 
ATOM     23  C   UNL     1     -30.038  19.670  57.019  1.00  0.00     0.010 C 
ATOM     24  C   UNL     1     -31.125  19.302  54.754  1.00  0.00     0.012 C 
ATOM     25  C   UNL     1     -27.829  19.175  55.008  1.00  0.00    -0.006 C 
ATOM     26  C   UNL     1     -29.027  20.761  56.637  1.00  0.00     0.033 C 
ATOM     27  C   UNL     1     -27.681  20.174  56.199  1.00  0.00     0.120 C 
ATOM     28  C   UNL     1     -28.170  19.957  53.707  1.00  0.00     0.014 C 
ATOM     29  C   UNL     1     -26.433  18.548  54.714  1.00  0.00     0.014 C 
ENDROOT
BRANCH   1  30
ATOM     30  C   UNL     1     -34.823  14.852  54.823  1.00  0.00     0.048 C 
ATOM     31  O   UNL     1     -34.167  15.916  54.641  1.00  0.00    -0.550 OA
ATOM     32  O   UNL     1     -35.960  14.631  54.053  1.00  0.00    -0.550 OA
ENDBRANCH   1  30
BRANCH  27  33
ATOM     33  O   UNL     1     -27.083  19.558  57.315  1.00  0.00    -0.393 OA
ATOM     34  H   UNL     1     -26.713  18.687  57.011  1.00  0.00     0.210 HD
ENDBRANCH  27  33
TORSDOF 2
ENDMDL
MODEL 9
REMARK VINA RESULT:     2.600      1.715      7.917
REMARK INTER + INTRA:           2.681
REMARK INTER:                   2.727
REMARK INTRA:                  -0.046
REMARK UNBOUND:                -0.148
REMARK SMILES C[C@@H]1[C@H]2C3=CC[C@H]4[C@@]5(C)CC[C@@H](O)C(C)(C)[C@H]5CC[C@]4(C)[C@]3(C)CC[C@@]2(C(=O)[O-])CC[C@@H]1C
REMARK SMILES IDX 26 1 30 2 25 3 3 4 31 5 24 6 4 7 2 8 32 9 22 10 5 11 1 12
REMARK SMILES IDX 33 13 23 14 20 15 6 16 7 17 19 18 21 19 8 20 18 21 17 22
REMARK SMILES IDX 10 23 9 24 14 25 11 26 12 27 15 28 16 29 27 30 28 31 29 32
REMARK SMILES IDX 13 33
REMARK H PARENT 13 34
REMARK Flexibility Score: inf
ROOT
ATOM      1  C   UNL     1     -34.372  14.627  58.717  1.00  0.00     0.017 C 
ATOM      2  C   UNL     1     -35.715  13.897  59.044  1.00  0.00     0.014 C 
ATOM      3  C   UNL     1     -34.709  16.115  58.414  1.00  0.00     0.014 C 
ATOM      4  C   UNL     1     -33.643  13.962  57.485  1.00  0.00     0.030 C 
ATOM      5  C   UNL     1     -35.728  12.445  58.577  1.00  0.00     0.004 C 
ATOM      6  C   UNL     1     -33.509  16.951  57.930  1.00  0.00     0.013 C 
ATOM      7  C   UNL     1     -32.519  14.879  56.950  1.00  0.00    -0.063 C 
ATOM      8  C   UNL     1     -34.631  13.408  56.416  1.00  0.00    -0.003 C 
ATOM      9  C   UNL     1     -35.630  12.350  57.034  1.00  0.00    -0.011 C 
ATOM     10  C   UNL     1     -32.790  16.385  56.660  1.00  0.00    -0.006 C 
ATOM     11  C   UNL     1     -31.256  14.381  57.032  1.00  0.00    -0.027 C 
ATOM     12  C   UNL     1     -33.888  12.879  55.167  1.00  0.00     0.008 C 
ATOM     13  C   UNL     1     -35.372  10.875  56.656  1.00  0.00     0.008 C 
ATOM     14  C   UNL     1     -33.781  16.537  55.459  1.00  0.00     0.017 C 
ATOM     15  C   UNL     1     -31.416  17.188  56.317  1.00  0.00    -0.020 C 
ATOM     16  C   UNL     1     -29.999  15.203  56.966  1.00  0.00     0.032 C 
ATOM     17  C   UNL     1     -30.277  16.689  57.279  1.00  0.00     0.006 C 
ATOM     18  C   UNL     1     -31.585  18.711  56.528  1.00  0.00     0.008 C 
ATOM     19  C   UNL     1     -31.043  16.949  54.808  1.00  0.00     0.012 C 
ATOM     20  C   UNL     1     -28.949  17.571  57.498  1.00  0.00    -0.025 C 
ATOM     21  C   UNL     1     -30.288  19.485  56.336  1.00  0.00     0.005 C 
ATOM     22  C   UNL     1     -29.246  19.138  57.429  1.00  0.00     0.003 C 
ATOM     23  C   UNL     1     -27.825  17.180  56.478  1.00  0.00     0.010 C 
ATOM     24  C   UNL     1     -28.436  17.213  58.943  1.00  0.00     0.012 C 
ATOM     25  C   UNL     1     -27.955  20.076  57.355  1.00  0.00    -0.006 C 
ATOM     26  C   UNL     1     -26.577  18.075  56.517  1.00  0.00     0.033 C 
ATOM     27  C   UNL     1     -26.919  19.554  56.309  1.00  0.00     0.120 C 
ATOM     28  C   UNL     1     -27.278  20.193  58.751  1.00  0.00     0.014 C 
ATOM     29  C   UNL     1     -28.323  21.545  56.991  1.00  0.00     0.014 C 
ENDROOT
BRANCH   1  30
ATOM     30  C   UNL     1     -33.482  14.570  59.960  1.00  0.00     0.048 C 
ATOM     31  O   UNL     1     -32.430  13.872  59.983  1.00  0.00    -0.550 OA
ATOM     32  O   UNL     1     -33.856  15.249  61.115  1.00  0.00    -0.550 OA
ENDBRANCH   1  30
BRANCH  27  33
ATOM     33  O   UNL     1     -27.390  19.718  54.993  1.00  0.00    -0.393 OA
ATOM     34  H   UNL     1     -28.381  19.788  55.038  1.00  0.00     0.210 HD
ENDBRANCH  27  33
TORSDOF 2
ENDMDL
