MODEL 1
REMARK VINA RESULT:    -2.100      0.000      0.000
REMARK INTER + INTRA:          -4.046
REMARK INTER:                  -3.573
REMARK INTRA:                  -0.473
REMARK UNBOUND:                -0.473
REMARK SMILES CCCCCCCCCCCCCC(=O)[O-]
REMARK SMILES IDX 8 1 9 2 10 3 11 4 12 5 13 6 14 7 15 8 16 9 7 10 6 11 5 12
REMARK SMILES IDX 4 13 3 14 2 15 1 16
REMARK H PARENT
REMARK Flexibility Score: inf
ROOT
ATOM      1  C   UNL     1      44.970 -24.936  -0.424  1.00  0.00     0.000 C 
ENDROOT
BRANCH   1   2
ATOM      2  C   UNL     1      46.062 -24.099  -1.120  1.00  0.00     0.000 C 
BRANCH   2   3
ATOM      3  C   UNL     1      45.974 -24.060  -2.659  1.00  0.00     0.000 C 
BRANCH   3   4
ATOM      4  C   UNL     1      45.754 -25.426  -3.333  1.00  0.00     0.000 C 
BRANCH   4   5
ATOM      5  C   UNL     1      46.122 -25.421  -4.826  1.00  0.00     0.006 C 
BRANCH   5   6
ATOM      6  C   UNL     1      44.993 -24.857  -5.700  1.00  0.00     0.053 C 
BRANCH   6   7
ATOM      7  C   UNL     1      45.493 -23.816  -6.655  1.00  0.00     0.041 C 
ATOM      8  O   UNL     1      45.778 -22.662  -6.240  1.00  0.00    -0.550 OA
ATOM      9  O   UNL     1      45.617 -24.113  -8.006  1.00  0.00    -0.550 OA
ENDBRANCH   6   7
ENDBRANCH   5   6
ENDBRANCH   4   5
ENDBRANCH   3   4
ENDBRANCH   2   3
ENDBRANCH   1   2
BRANCH   1  10
ATOM     10  C   UNL     1      45.317 -25.402   1.004  1.00  0.00     0.000 C 
BRANCH  10  11
ATOM     11  C   UNL     1      45.492 -26.922   1.172  1.00  0.00    -0.000 C 
BRANCH  11  12
ATOM     12  C   UNL     1      46.122 -27.305   2.522  1.00  0.00    -0.000 C 
BRANCH  12  13
ATOM     13  C   UNL     1      45.269 -26.852   3.720  1.00  0.00    -0.000 C 
BRANCH  13  14
ATOM     14  C   UNL     1      46.125 -26.323   4.885  1.00  0.00    -0.000 C 
BRANCH  14  15
ATOM     15  C   UNL     1      45.446 -26.520   6.249  1.00  0.00    -0.003 C 
ATOM     16  C   UNL     1      46.124 -25.732   7.370  1.00  0.00     0.004 C 
ENDBRANCH  14  15
ENDBRANCH  13  14
ENDBRANCH  12  13
ENDBRANCH  11  12
ENDBRANCH  10  11
ENDBRANCH   1  10
TORSDOF 12
ENDMDL
MODEL 2
REMARK VINA RESULT:    -1.970      1.631      2.399
REMARK INTER + INTRA:          -3.825
REMARK INTER:                  -3.476
REMARK INTRA:                  -0.349
REMARK UNBOUND:                -0.473
REMARK SMILES CCCCCCCCCCCCCC(=O)[O-]
REMARK SMILES IDX 8 1 9 2 10 3 11 4 12 5 13 6 14 7 15 8 16 9 7 10 6 11 5 12
REMARK SMILES IDX 4 13 3 14 2 15 1 16
REMARK H PARENT
REMARK Flexibility Score: inf
ROOT
ATOM      1  C   UNL     1      45.128 -24.103  -1.118  1.00  0.00     0.000 C 
ENDROOT
BRANCH   1   2
ATOM      2  C   UNL     1      44.122 -24.534  -2.204  1.00  0.00     0.000 C 
BRANCH   2   3
ATOM      3  C   UNL     1      44.656 -25.566  -3.217  1.00  0.00     0.000 C 
BRANCH   3   4
ATOM      4  C   UNL     1      46.077 -25.291  -3.739  1.00  0.00     0.000 C 
BRANCH   4   5
ATOM      5  C   UNL     1      46.114 -25.010  -5.251  1.00  0.00     0.006 C 
BRANCH   5   6
ATOM      6  C   UNL     1      46.125 -23.507  -5.561  1.00  0.00     0.053 C 
BRANCH   6   7
ATOM      7  C   UNL     1      45.836 -23.234  -7.005  1.00  0.00     0.041 C 
ATOM      8  O   UNL     1      45.811 -22.050  -7.433  1.00  0.00    -0.550 OA
ATOM      9  O   UNL     1      45.565 -24.285  -7.872  1.00  0.00    -0.550 OA
ENDBRANCH   6   7
ENDBRANCH   5   6
ENDBRANCH   4   5
ENDBRANCH   3   4
ENDBRANCH   2   3
ENDBRANCH   1   2
BRANCH   1  10
ATOM     10  C   UNL     1      45.918 -25.256  -0.466  1.00  0.00     0.000 C 
BRANCH  10  11
ATOM     11  C   UNL     1      45.877 -25.288   1.072  1.00  0.00    -0.000 C 
BRANCH  11  12
ATOM     12  C   UNL     1      46.069 -26.703   1.644  1.00  0.00    -0.000 C 
BRANCH  12  13
ATOM     13  C   UNL     1      45.994 -26.733   3.180  1.00  0.00    -0.000 C 
BRANCH  13  14
ATOM     14  C   UNL     1      45.936 -28.166   3.739  1.00  0.00    -0.000 C 
BRANCH  14  15
ATOM     15  C   UNL     1      45.452 -29.185   2.696  1.00  0.00    -0.003 C 
ATOM     16  C   UNL     1      46.057 -30.574   2.897  1.00  0.00     0.004 C 
ENDBRANCH  14  15
ENDBRANCH  13  14
ENDBRANCH  12  13
ENDBRANCH  11  12
ENDBRANCH  10  11
ENDBRANCH   1  10
TORSDOF 12
ENDMDL
MODEL 3
REMARK VINA RESULT:    -1.946      6.823     11.201
REMARK INTER + INTRA:          -3.784
REMARK INTER:                  -3.528
REMARK INTRA:                  -0.256
REMARK UNBOUND:                -0.473
REMARK SMILES CCCCCCCCCCCCCC(=O)[O-]
REMARK SMILES IDX 8 1 9 2 10 3 11 4 12 5 13 6 14 7 15 8 16 9 7 10 6 11 5 12
REMARK SMILES IDX 4 13 3 14 2 15 1 16
REMARK H PARENT
REMARK Flexibility Score: inf
ROOT
ATOM      1  C   UNL     1      45.121 -27.265   2.886  1.00  0.00     0.000 C 
ENDROOT
BRANCH   1   2
ATOM      2  C   UNL     1      46.097 -28.070   3.767  1.00  0.00     0.000 C 
BRANCH   2   3
ATOM      3  C   UNL     1      45.895 -27.903   5.286  1.00  0.00     0.000 C 
BRANCH   3   4
ATOM      4  C   UNL     1      46.124 -29.178   6.117  1.00  0.00     0.000 C 
BRANCH   4   5
ATOM      5  C   UNL     1      45.862 -28.967   7.618  1.00  0.00     0.006 C 
BRANCH   5   6
ATOM      6  C   UNL     1      45.789 -30.295   8.385  1.00  0.00     0.053 C 
BRANCH   6   7
ATOM      7  C   UNL     1      45.426 -30.088   9.824  1.00  0.00     0.041 C 
ATOM      8  O   UNL     1      44.564 -29.225  10.142  1.00  0.00    -0.550 OA
ATOM      9  O   UNL     1      46.058 -30.827  10.816  1.00  0.00    -0.550 OA
ENDBRANCH   6   7
ENDBRANCH   5   6
ENDBRANCH   4   5
ENDBRANCH   3   4
ENDBRANCH   2   3
ENDBRANCH   1   2
BRANCH   1  10
ATOM     10  C   UNL     1      45.713 -25.986   2.258  1.00  0.00     0.000 C 
BRANCH  10  11
ATOM     11  C   UNL     1      46.125 -26.115   0.781  1.00  0.00    -0.000 C 
BRANCH  11  12
ATOM     12  C   UNL     1      46.040 -24.780   0.020  1.00  0.00    -0.000 C 
BRANCH  12  13
ATOM     13  C   UNL     1      45.076 -24.844  -1.176  1.00  0.00    -0.000 C 
BRANCH  13  14
ATOM     14  C   UNL     1      45.807 -25.067  -2.512  1.00  0.00    -0.000 C 
BRANCH  14  15
ATOM     15  C   UNL     1      46.037 -23.757  -3.282  1.00  0.00    -0.003 C 
ATOM     16  C   UNL     1      46.092 -23.959  -4.796  1.00  0.00     0.004 C 
ENDBRANCH  14  15
ENDBRANCH  13  14
ENDBRANCH  12  13
ENDBRANCH  11  12
ENDBRANCH  10  11
ENDBRANCH   1  10
TORSDOF 12
ENDMDL
MODEL 4
REMARK VINA RESULT:    -1.510      1.992      2.854
REMARK INTER + INTRA:          -3.042
REMARK INTER:                  -3.239
REMARK INTRA:                   0.196
REMARK UNBOUND:                -0.473
REMARK SMILES CCCCCCCCCCCCCC(=O)[O-]
REMARK SMILES IDX 8 1 9 2 10 3 11 4 12 5 13 6 14 7 15 8 16 9 7 10 6 11 5 12
REMARK SMILES IDX 4 13 3 14 2 15 1 16
REMARK H PARENT
REMARK Flexibility Score: inf
ROOT
ATOM      1  C   UNL     1      44.465 -24.060  -2.345  1.00  0.00     0.000 C 
ENDROOT
BRANCH   1   2
ATOM      2  C   UNL     1      44.674 -25.552  -2.670  1.00  0.00     0.000 C 
BRANCH   2   3
ATOM      3  C   UNL     1      45.874 -25.859  -3.586  1.00  0.00     0.000 C 
BRANCH   3   4
ATOM      4  C   UNL     1      46.125 -24.827  -4.700  1.00  0.00     0.000 C 
BRANCH   4   5
ATOM      5  C   UNL     1      45.484 -25.228  -6.040  1.00  0.00     0.006 C 
BRANCH   5   6
ATOM      6  C   UNL     1      46.112 -24.485  -7.227  1.00  0.00     0.053 C 
BRANCH   6   7
ATOM      7  C   UNL     1      46.023 -22.998  -7.065  1.00  0.00     0.041 C 
ATOM      8  O   UNL     1      46.041 -22.249  -8.077  1.00  0.00    -0.550 OA
ATOM      9  O   UNL     1      45.951 -22.440  -5.795  1.00  0.00    -0.550 OA
ENDBRANCH   6   7
ENDBRANCH   5   6
ENDBRANCH   4   5
ENDBRANCH   3   4
ENDBRANCH   2   3
ENDBRANCH   1   2
BRANCH   1  10
ATOM     10  C   UNL     1      45.570 -23.419  -1.481  1.00  0.00     0.000 C 
BRANCH  10  11
ATOM     11  C   UNL     1      45.429 -23.649   0.035  1.00  0.00    -0.000 C 
BRANCH  11  12
ATOM     12  C   UNL     1      46.103 -24.949   0.506  1.00  0.00    -0.000 C 
BRANCH  12  13
ATOM     13  C   UNL     1      45.247 -25.721   1.524  1.00  0.00    -0.000 C 
BRANCH  13  14
ATOM     14  C   UNL     1      46.072 -26.727   2.346  1.00  0.00    -0.000 C 
BRANCH  14  15
ATOM     15  C   UNL     1      45.278 -27.996   2.692  1.00  0.00    -0.003 C 
ATOM     16  C   UNL     1      46.124 -29.267   2.614  1.00  0.00     0.004 C 
ENDBRANCH  14  15
ENDBRANCH  13  14
ENDBRANCH  12  13
ENDBRANCH  11  12
ENDBRANCH  10  11
ENDBRANCH   1  10
TORSDOF 12
ENDMDL
MODEL 5
REMARK VINA RESULT:    -1.480      4.070      9.190
REMARK INTER + INTRA:          -2.992
REMARK INTER:                  -2.517
REMARK INTRA:                  -0.475
REMARK UNBOUND:                -0.473
REMARK SMILES CCCCCCCCCCCCCC(=O)[O-]
REMARK SMILES IDX 8 1 9 2 10 3 11 4 12 5 13 6 14 7 15 8 16 9 7 10 6 11 5 12
REMARK SMILES IDX 4 13 3 14 2 15 1 16
REMARK H PARENT
REMARK Flexibility Score: inf
ROOT
ATOM      1  C   UNL     1      45.133 -25.106  -1.414  1.00  0.00     0.000 C 
ENDROOT
BRANCH   1   2
ATOM      2  C   UNL     1      44.649 -24.114  -0.339  1.00  0.00     0.000 C 
BRANCH   2   3
ATOM      3  C   UNL     1      45.446 -24.140   0.981  1.00  0.00     0.000 C 
BRANCH   3   4
ATOM      4  C   UNL     1      46.037 -25.510   1.357  1.00  0.00     0.000 C 
BRANCH   4   5
ATOM      5  C   UNL     1      45.271 -26.198   2.500  1.00  0.00     0.006 C 
BRANCH   5   6
ATOM      6  C   UNL     1      46.124 -27.253   3.217  1.00  0.00     0.053 C 
BRANCH   6   7
ATOM      7  C   UNL     1      45.904 -28.624   2.654  1.00  0.00     0.041 C 
ATOM      8  O   UNL     1      45.579 -29.575   3.413  1.00  0.00    -0.550 OA
ATOM      9  O   UNL     1      46.086 -28.857   1.297  1.00  0.00    -0.550 OA
ENDBRANCH   6   7
ENDBRANCH   5   6
ENDBRANCH   4   5
ENDBRANCH   3   4
ENDBRANCH   2   3
ENDBRANCH   1   2
BRANCH   1  10
ATOM     10  C   UNL     1      44.219 -25.224  -2.651  1.00  0.00     0.000 C 
BRANCH  10  11
ATOM     11  C   UNL     1      44.945 -25.179  -4.007  1.00  0.00    -0.000 C 
BRANCH  11  12
ATOM     12  C   UNL     1      45.847 -23.941  -4.160  1.00  0.00    -0.000 C 
BRANCH  12  13
ATOM     13  C   UNL     1      46.121 -23.590  -5.631  1.00  0.00    -0.000 C 
BRANCH  13  14
ATOM     14  C   UNL     1      45.892 -24.785  -6.575  1.00  0.00    -0.000 C 
BRANCH  14  15
ATOM     15  C   UNL     1      46.041 -24.401  -8.055  1.00  0.00    -0.003 C 
ATOM     16  C   UNL     1      46.023 -25.613  -8.988  1.00  0.00     0.004 C 
ENDBRANCH  14  15
ENDBRANCH  13  14
ENDBRANCH  12  13
ENDBRANCH  11  12
ENDBRANCH  10  11
ENDBRANCH   1  10
TORSDOF 12
ENDMDL
MODEL 6
REMARK VINA RESULT:    -1.323      1.161      2.228
REMARK INTER + INTRA:          -2.723
REMARK INTER:                  -2.679
REMARK INTRA:                  -0.044
REMARK UNBOUND:                -0.473
REMARK SMILES CCCCCCCCCCCCCC(=O)[O-]
REMARK SMILES IDX 8 1 9 2 10 3 11 4 12 5 13 6 14 7 15 8 16 9 7 10 6 11 5 12
REMARK SMILES IDX 4 13 3 14 2 15 1 16
REMARK H PARENT
REMARK Flexibility Score: inf
ROOT
ATOM      1  C   UNL     1      45.533 -25.172   1.684  1.00  0.00     0.000 C 
ENDROOT
BRANCH   1   2
ATOM      2  C   UNL     1      45.041 -25.771   0.352  1.00  0.00     0.000 C 
BRANCH   2   3
ATOM      3  C   UNL     1      45.910 -25.433  -0.876  1.00  0.00     0.000 C 
BRANCH   3   4
ATOM      4  C   UNL     1      45.139 -24.872  -2.084  1.00  0.00     0.000 C 
BRANCH   4   5
ATOM      5  C   UNL     1      46.056 -24.184  -3.110  1.00  0.00     0.006 C 
BRANCH   5   6
ATOM      6  C   UNL     1      45.987 -24.853  -4.489  1.00  0.00     0.053 C 
BRANCH   6   7
ATOM      7  C   UNL     1      45.837 -23.847  -5.590  1.00  0.00     0.041 C 
ATOM      8  O   UNL     1      46.125 -22.638  -5.385  1.00  0.00    -0.550 OA
ATOM      9  O   UNL     1      45.354 -24.239  -6.831  1.00  0.00    -0.550 OA
ENDBRANCH   6   7
ENDBRANCH   5   6
ENDBRANCH   4   5
ENDBRANCH   3   4
ENDBRANCH   2   3
ENDBRANCH   1   2
BRANCH   1  10
ATOM     10  C   UNL     1      46.125 -26.191   2.679  1.00  0.00     0.000 C 
BRANCH  10  11
ATOM     11  C   UNL     1      45.243 -26.498   3.902  1.00  0.00    -0.000 C 
BRANCH  11  12
ATOM     12  C   UNL     1      46.040 -26.534   5.218  1.00  0.00    -0.000 C 
BRANCH  12  13
ATOM     13  C   UNL     1      45.155 -26.282   6.450  1.00  0.00    -0.000 C 
BRANCH  13  14
ATOM     14  C   UNL     1      45.977 -26.108   7.740  1.00  0.00    -0.000 C 
BRANCH  14  15
ATOM     15  C   UNL     1      46.118 -27.419   8.528  1.00  0.00    -0.003 C 
ATOM     16  C   UNL     1      46.027 -28.660   7.639  1.00  0.00     0.004 C 
ENDBRANCH  14  15
ENDBRANCH  13  14
ENDBRANCH  12  13
ENDBRANCH  11  12
ENDBRANCH  10  11
ENDBRANCH   1  10
TORSDOF 12
ENDMDL
