MODEL 1
REMARK VINA RESULT:    -3.682      0.000      0.000
REMARK INTER + INTRA:          -8.429
REMARK INTER:                  -7.126
REMARK INTRA:                  -1.302
REMARK UNBOUND:                -1.302
REMARK SMILES CCCCCCCCCCCCCCCCCC(=O)[O-]
REMARK SMILES IDX 10 1 11 2 12 3 13 4 14 5 15 6 16 7 17 8 18 9 19 10 20 11
REMARK SMILES IDX 9 12 8 13 7 14 6 15 5 16 4 17 3 18 2 19 1 20
REMARK H PARENT
REMARK Flexibility Score: inf
ROOT
ATOM      1  C   UNL     1      -0.108  -8.310 -10.237  1.00  0.00     0.000 C 
ENDROOT
BRANCH   1   2
ATOM      2  C   UNL     1      -1.329  -7.707 -10.963  1.00  0.00     0.000 C 
BRANCH   2   3
ATOM      3  C   UNL     1      -1.046  -6.436 -11.783  1.00  0.00     0.000 C 
BRANCH   3   4
ATOM      4  C   UNL     1       0.343  -5.837 -11.500  1.00  0.00     0.000 C 
BRANCH   4   5
ATOM      5  C   UNL     1       0.302  -4.310 -11.324  1.00  0.00     0.000 C 
BRANCH   5   6
ATOM      6  C   UNL     1       1.411  -3.593 -12.108  1.00  0.00     0.000 C 
BRANCH   6   7
ATOM      7  C   UNL     1       1.201  -2.071 -12.086  1.00  0.00     0.006 C 
BRANCH   7   8
ATOM      8  C   UNL     1       2.504  -1.308 -11.812  1.00  0.00     0.053 C 
BRANCH   8   9
ATOM      9  C   UNL     1       3.016  -1.563 -10.428  1.00  0.00     0.041 C 
ATOM     10  O   UNL     1       4.238  -1.406 -10.164  1.00  0.00    -0.550 OA
ATOM     11  O   UNL     1       2.138  -1.944  -9.421  1.00  0.00    -0.550 OA
ENDBRANCH   8   9
ENDBRANCH   7   8
ENDBRANCH   6   7
ENDBRANCH   5   6
ENDBRANCH   4   5
ENDBRANCH   3   4
ENDBRANCH   2   3
ENDBRANCH   1   2
BRANCH   1  12
ATOM     12  C   UNL     1       0.869  -9.089 -11.137  1.00  0.00     0.000 C 
BRANCH  12  13
ATOM     13  C   UNL     1       0.226 -10.215 -11.967  1.00  0.00    -0.000 C 
BRANCH  13  14
ATOM     14  C   UNL     1       0.761 -11.622 -11.619  1.00  0.00    -0.000 C 
BRANCH  14  15
ATOM     15  C   UNL     1       0.811 -11.872 -10.102  1.00  0.00    -0.000 C 
BRANCH  15  16
ATOM     16  C   UNL     1      -0.225 -12.906  -9.636  1.00  0.00    -0.000 C 
BRANCH  16  17
ATOM     17  C   UNL     1      -1.628 -12.305  -9.458  1.00  0.00    -0.000 C 
BRANCH  17  18
ATOM     18  C   UNL     1      -2.574 -12.782 -10.570  1.00  0.00    -0.000 C 
BRANCH  18  19
ATOM     19  C   UNL     1      -3.039 -11.636 -11.482  1.00  0.00    -0.003 C 
ATOM     20  C   UNL     1      -3.575 -10.437 -10.700  1.00  0.00     0.004 C 
ENDBRANCH  18  19
ENDBRANCH  17  18
ENDBRANCH  16  17
ENDBRANCH  15  16
ENDBRANCH  14  15
ENDBRANCH  13  14
ENDBRANCH  12  13
ENDBRANCH   1  12
TORSDOF 16
ENDMDL
MODEL 2
REMARK VINA RESULT:    -3.286      3.906      9.679
REMARK INTER + INTRA:          -7.661
REMARK INTER:                  -6.613
REMARK INTRA:                  -1.048
REMARK UNBOUND:                -1.302
REMARK SMILES CCCCCCCCCCCCCCCCCC(=O)[O-]
REMARK SMILES IDX 10 1 11 2 12 3 13 4 14 5 15 6 16 7 17 8 18 9 19 10 20 11
REMARK SMILES IDX 9 12 8 13 7 14 6 15 5 16 4 17 3 18 2 19 1 20
REMARK H PARENT
REMARK Flexibility Score: inf
ROOT
ATOM      1  C   UNL     1      -0.645  -3.832 -11.742  1.00  0.00     0.000 C 
ENDROOT
BRANCH   1   2
ATOM      2  C   UNL     1      -1.132  -5.283 -11.938  1.00  0.00     0.000 C 
BRANCH   2   3
ATOM      3  C   UNL     1      -1.018  -6.190 -10.700  1.00  0.00     0.000 C 
BRANCH   3   4
ATOM      4  C   UNL     1       0.261  -7.044 -10.699  1.00  0.00     0.000 C 
BRANCH   4   5
ATOM      5  C   UNL     1       0.053  -8.416 -10.035  1.00  0.00     0.000 C 
BRANCH   5   6
ATOM      6  C   UNL     1       0.695  -9.563 -10.830  1.00  0.00     0.000 C 
BRANCH   6   7
ATOM      7  C   UNL     1      -0.363 -10.590 -11.262  1.00  0.00     0.006 C 
BRANCH   7   8
ATOM      8  C   UNL     1      -1.786 -10.018 -11.208  1.00  0.00     0.053 C 
BRANCH   8   9
ATOM      9  C   UNL     1      -2.695 -10.870 -10.375  1.00  0.00     0.041 C 
ATOM     10  O   UNL     1      -2.230 -11.547  -9.420  1.00  0.00    -0.550 OA
ATOM     11  O   UNL     1      -4.059 -10.891 -10.635  1.00  0.00    -0.550 OA
ENDBRANCH   8   9
ENDBRANCH   7   8
ENDBRANCH   6   7
ENDBRANCH   5   6
ENDBRANCH   4   5
ENDBRANCH   3   4
ENDBRANCH   2   3
ENDBRANCH   1   2
BRANCH   1  12
ATOM     12  C   UNL     1       0.878  -3.632 -11.851  1.00  0.00     0.000 C 
BRANCH  12  13
ATOM     13  C   UNL     1       1.622  -3.581 -10.504  1.00  0.00    -0.000 C 
BRANCH  13  14
ATOM     14  C   UNL     1       2.267  -2.209 -10.205  1.00  0.00    -0.000 C 
BRANCH  14  15
ATOM     15  C   UNL     1       2.207  -1.258 -11.412  1.00  0.00    -0.000 C 
BRANCH  15  16
ATOM     16  C   UNL     1       3.564  -1.108 -12.119  1.00  0.00    -0.000 C 
BRANCH  16  17
ATOM     17  C   UNL     1       4.748  -1.509 -11.225  1.00  0.00    -0.000 C 
BRANCH  17  18
ATOM     18  C   UNL     1       6.080  -1.075 -11.853  1.00  0.00    -0.000 C 
BRANCH  18  19
ATOM     19  C   UNL     1       7.271  -1.897 -11.338  1.00  0.00    -0.003 C 
ATOM     20  C   UNL     1       7.693  -1.505  -9.922  1.00  0.00     0.004 C 
ENDBRANCH  18  19
ENDBRANCH  17  18
ENDBRANCH  16  17
ENDBRANCH  15  16
ENDBRANCH  14  15
ENDBRANCH  13  14
ENDBRANCH  12  13
ENDBRANCH   1  12
TORSDOF 16
ENDMDL
MODEL 3
REMARK VINA RESULT:    -3.142      4.398     10.253
REMARK INTER + INTRA:          -7.383
REMARK INTER:                  -6.499
REMARK INTRA:                  -0.884
REMARK UNBOUND:                -1.302
REMARK SMILES CCCCCCCCCCCCCCCCCC(=O)[O-]
REMARK SMILES IDX 10 1 11 2 12 3 13 4 14 5 15 6 16 7 17 8 18 9 19 10 20 11
REMARK SMILES IDX 9 12 8 13 7 14 6 15 5 16 4 17 3 18 2 19 1 20
REMARK H PARENT
REMARK Flexibility Score: inf
ROOT
ATOM      1  C   UNL     1       1.593  -3.541 -11.145  1.00  0.00     0.000 C 
ENDROOT
BRANCH   1   2
ATOM      2  C   UNL     1       0.130  -3.418 -11.622  1.00  0.00     0.000 C 
BRANCH   2   3
ATOM      3  C   UNL     1      -0.851  -4.431 -11.005  1.00  0.00     0.000 C 
BRANCH   3   4
ATOM      4  C   UNL     1      -1.166  -5.608 -11.944  1.00  0.00     0.000 C 
BRANCH   4   5
ATOM      5  C   UNL     1      -0.180  -6.775 -11.777  1.00  0.00     0.000 C 
BRANCH   5   6
ATOM      6  C   UNL     1      -0.587  -7.740 -10.654  1.00  0.00     0.000 C 
BRANCH   6   7
ATOM      7  C   UNL     1      -1.351  -8.948 -11.218  1.00  0.00     0.006 C 
BRANCH   7   8
ATOM      8  C   UNL     1      -2.030  -9.773 -10.117  1.00  0.00     0.053 C 
BRANCH   8   9
ATOM      9  C   UNL     1      -2.989 -10.773 -10.686  1.00  0.00     0.041 C 
ATOM     10  O   UNL     1      -2.566 -11.864 -11.154  1.00  0.00    -0.550 OA
ATOM     11  O   UNL     1      -4.354 -10.514 -10.671  1.00  0.00    -0.550 OA
ENDBRANCH   8   9
ENDBRANCH   7   8
ENDBRANCH   6   7
ENDBRANCH   5   6
ENDBRANCH   4   5
ENDBRANCH   3   4
ENDBRANCH   2   3
ENDBRANCH   1   2
BRANCH   1  12
ATOM     12  C   UNL     1       1.991  -2.587 -10.005  1.00  0.00     0.000 C 
BRANCH  12  13
ATOM     13  C   UNL     1       3.012  -1.502 -10.397  1.00  0.00    -0.000 C 
BRANCH  13  14
ATOM     14  C   UNL     1       3.540  -1.644 -11.841  1.00  0.00    -0.000 C 
BRANCH  14  15
ATOM     15  C   UNL     1       5.068  -1.486 -11.924  1.00  0.00    -0.000 C 
BRANCH  15  16
ATOM     16  C   UNL     1       5.703  -1.126 -10.572  1.00  0.00    -0.000 C 
BRANCH  16  17
ATOM     17  C   UNL     1       7.093  -0.487 -10.718  1.00  0.00    -0.000 C 
BRANCH  17  18
ATOM     18  C   UNL     1       7.793  -0.984 -11.991  1.00  0.00    -0.000 C 
BRANCH  18  19
ATOM     19  C   UNL     1       8.992  -1.895 -11.688  1.00  0.00    -0.003 C 
ATOM     20  C   UNL     1       9.053  -2.327 -10.223  1.00  0.00     0.004 C 
ENDBRANCH  18  19
ENDBRANCH  17  18
ENDBRANCH  16  17
ENDBRANCH  15  16
ENDBRANCH  14  15
ENDBRANCH  13  14
ENDBRANCH  12  13
ENDBRANCH   1  12
TORSDOF 16
ENDMDL
MODEL 4
REMARK VINA RESULT:    -3.088      4.984      8.055
REMARK INTER + INTRA:          -7.279
REMARK INTER:                  -6.017
REMARK INTRA:                  -1.261
REMARK UNBOUND:                -1.302
REMARK SMILES CCCCCCCCCCCCCCCCCC(=O)[O-]
REMARK SMILES IDX 10 1 11 2 12 3 13 4 14 5 15 6 16 7 17 8 18 9 19 10 20 11
REMARK SMILES IDX 9 12 8 13 7 14 6 15 5 16 4 17 3 18 2 19 1 20
REMARK H PARENT
REMARK Flexibility Score: inf
ROOT
ATOM      1  C   UNL     1       1.643  -7.595 -10.597  1.00  0.00     0.000 C 
ENDROOT
BRANCH   1   2
ATOM      2  C   UNL     1       0.359  -6.818 -10.958  1.00  0.00     0.000 C 
BRANCH   2   3
ATOM      3  C   UNL     1      -0.954  -7.445 -10.454  1.00  0.00     0.000 C 
BRANCH   3   4
ATOM      4  C   UNL     1      -1.814  -8.025 -11.590  1.00  0.00     0.000 C 
BRANCH   4   5
ATOM      5  C   UNL     1      -2.118  -9.519 -11.393  1.00  0.00     0.000 C 
BRANCH   5   6
ATOM      6  C   UNL     1      -1.899  -9.984  -9.946  1.00  0.00     0.000 C 
BRANCH   6   7
ATOM      7  C   UNL     1      -1.637 -11.497  -9.889  1.00  0.00     0.006 C 
BRANCH   7   8
ATOM      8  C   UNL     1      -0.704 -11.969 -11.013  1.00  0.00     0.053 C 
BRANCH   8   9
ATOM      9  C   UNL     1       0.738 -11.819 -10.636  1.00  0.00     0.041 C 
ATOM     10  O   UNL     1       1.195 -12.418  -9.626  1.00  0.00    -0.550 OA
ATOM     11  O   UNL     1       1.584 -11.045 -11.418  1.00  0.00    -0.550 OA
ENDBRANCH   8   9
ENDBRANCH   7   8
ENDBRANCH   6   7
ENDBRANCH   5   6
ENDBRANCH   4   5
ENDBRANCH   3   4
ENDBRANCH   2   3
ENDBRANCH   1   2
BRANCH   1  12
ATOM     12  C   UNL     1       2.638  -7.788 -11.756  1.00  0.00     0.000 C 
BRANCH  12  13
ATOM     13  C   UNL     1       3.636  -6.632 -11.949  1.00  0.00    -0.000 C 
BRANCH  13  14
ATOM     14  C   UNL     1       5.098  -7.099 -12.125  1.00  0.00    -0.000 C 
BRANCH  14  15
ATOM     15  C   UNL     1       5.242  -8.626 -12.015  1.00  0.00    -0.000 C 
BRANCH  15  16
ATOM     16  C   UNL     1       6.701  -9.074 -11.833  1.00  0.00    -0.000 C 
BRANCH  16  17
ATOM     17  C   UNL     1       7.369  -8.443 -10.602  1.00  0.00    -0.000 C 
BRANCH  17  18
ATOM     18  C   UNL     1       7.557  -9.481  -9.487  1.00  0.00    -0.000 C 
BRANCH  18  19
ATOM     19  C   UNL     1       7.762 -10.903 -10.032  1.00  0.00    -0.003 C 
ATOM     20  C   UNL     1       7.682 -11.972  -8.944  1.00  0.00     0.004 C 
ENDBRANCH  18  19
ENDBRANCH  17  18
ENDBRANCH  16  17
ENDBRANCH  15  16
ENDBRANCH  14  15
ENDBRANCH  13  14
ENDBRANCH  12  13
ENDBRANCH   1  12
TORSDOF 16
ENDMDL
MODEL 5
REMARK VINA RESULT:    -3.051      4.017      9.632
REMARK INTER + INTRA:          -7.207
REMARK INTER:                  -6.298
REMARK INTRA:                  -0.909
REMARK UNBOUND:                -1.302
REMARK SMILES CCCCCCCCCCCCCCCCCC(=O)[O-]
REMARK SMILES IDX 10 1 11 2 12 3 13 4 14 5 15 6 16 7 17 8 18 9 19 10 20 11
REMARK SMILES IDX 9 12 8 13 7 14 6 15 5 16 4 17 3 18 2 19 1 20
REMARK H PARENT
REMARK Flexibility Score: inf
ROOT
ATOM      1  C   UNL     1       1.754  -3.609 -11.034  1.00  0.00     0.000 C 
ENDROOT
BRANCH   1   2
ATOM      2  C   UNL     1       0.352  -3.565 -11.679  1.00  0.00     0.000 C 
BRANCH   2   3
ATOM      3  C   UNL     1      -0.697  -4.492 -11.039  1.00  0.00     0.000 C 
BRANCH   3   4
ATOM      4  C   UNL     1      -0.660  -5.920 -11.608  1.00  0.00     0.000 C 
BRANCH   4   5
ATOM      5  C   UNL     1      -0.051  -6.932 -10.623  1.00  0.00     0.000 C 
BRANCH   5   6
ATOM      6  C   UNL     1      -0.899  -8.204 -10.479  1.00  0.00     0.000 C 
BRANCH   6   7
ATOM      7  C   UNL     1      -0.519  -9.240 -11.548  1.00  0.00     0.006 C 
BRANCH   7   8
ATOM      8  C   UNL     1      -0.284 -10.634 -10.951  1.00  0.00     0.053 C 
BRANCH   8   9
ATOM      9  C   UNL     1       1.171 -10.988 -10.924  1.00  0.00     0.041 C 
ATOM     10  O   UNL     1       1.993 -10.348 -11.633  1.00  0.00    -0.550 OA
ATOM     11  O   UNL     1       1.624 -12.003 -10.092  1.00  0.00    -0.550 OA
ENDBRANCH   8   9
ENDBRANCH   7   8
ENDBRANCH   6   7
ENDBRANCH   5   6
ENDBRANCH   4   5
ENDBRANCH   3   4
ENDBRANCH   2   3
ENDBRANCH   1   2
BRANCH   1  12
ATOM     12  C   UNL     1       1.998  -2.568  -9.926  1.00  0.00     0.000 C 
BRANCH  12  13
ATOM     13  C   UNL     1       3.055  -1.501 -10.265  1.00  0.00    -0.000 C 
BRANCH  13  14
ATOM     14  C   UNL     1       3.479  -1.499 -11.750  1.00  0.00    -0.000 C 
BRANCH  14  15
ATOM     15  C   UNL     1       5.008  -1.502 -11.922  1.00  0.00    -0.000 C 
BRANCH  15  16
ATOM     16  C   UNL     1       5.752  -1.126 -10.631  1.00  0.00    -0.000 C 
BRANCH  16  17
ATOM     17  C   UNL     1       7.276  -1.281 -10.756  1.00  0.00    -0.000 C 
BRANCH  17  18
ATOM     18  C   UNL     1       7.634  -2.491 -11.631  1.00  0.00    -0.000 C 
BRANCH  18  19
ATOM     19  C   UNL     1       8.575  -3.476 -10.920  1.00  0.00    -0.003 C 
ATOM     20  C   UNL     1       8.373  -4.921 -11.373  1.00  0.00     0.004 C 
ENDBRANCH  18  19
ENDBRANCH  17  18
ENDBRANCH  16  17
ENDBRANCH  15  16
ENDBRANCH  14  15
ENDBRANCH  13  14
ENDBRANCH  12  13
ENDBRANCH   1  12
TORSDOF 16
ENDMDL
MODEL 6
REMARK VINA RESULT:    -2.972     11.894     14.481
REMARK INTER + INTRA:          -7.055
REMARK INTER:                  -4.766
REMARK INTRA:                  -2.288
REMARK UNBOUND:                -1.302
REMARK SMILES CCCCCCCCCCCCCCCCCC(=O)[O-]
REMARK SMILES IDX 10 1 11 2 12 3 13 4 14 5 15 6 16 7 17 8 18 9 19 10 20 11
REMARK SMILES IDX 9 12 8 13 7 14 6 15 5 16 4 17 3 18 2 19 1 20
REMARK H PARENT
REMARK Flexibility Score: inf
ROOT
ATOM      1  C   UNL     1      -9.071   2.588  -8.676  1.00  0.00     0.000 C 
ENDROOT
BRANCH   1   2
ATOM      2  C   UNL     1      -9.176   3.486  -7.426  1.00  0.00     0.000 C 
BRANCH   2   3
ATOM      3  C   UNL     1     -10.206   4.627  -7.519  1.00  0.00     0.000 C 
BRANCH   3   4
ATOM      4  C   UNL     1     -11.002   4.608  -8.836  1.00  0.00     0.000 C 
BRANCH   4   5
ATOM      5  C   UNL     1     -10.564   5.718  -9.805  1.00  0.00     0.000 C 
BRANCH   5   6
ATOM      6  C   UNL     1      -9.940   5.166 -11.096  1.00  0.00     0.000 C 
BRANCH   6   7
ATOM      7  C   UNL     1      -8.415   5.037 -10.956  1.00  0.00     0.006 C 
BRANCH   7   8
ATOM      8  C   UNL     1      -7.757   6.354 -10.523  1.00  0.00     0.053 C 
BRANCH   8   9
ATOM      9  C   UNL     1      -7.362   6.329  -9.078  1.00  0.00     0.041 C 
ATOM     10  O   UNL     1      -7.896   7.125  -8.261  1.00  0.00    -0.550 OA
ATOM     11  O   UNL     1      -6.427   5.405  -8.629  1.00  0.00    -0.550 OA
ENDBRANCH   8   9
ENDBRANCH   7   8
ENDBRANCH   6   7
ENDBRANCH   5   6
ENDBRANCH   4   5
ENDBRANCH   3   4
ENDBRANCH   2   3
ENDBRANCH   1   2
BRANCH   1  12
ATOM     12  C   UNL     1      -9.227   1.079  -8.413  1.00  0.00     0.000 C 
BRANCH  12  13
ATOM     13  C   UNL     1     -10.110   0.333  -9.430  1.00  0.00    -0.000 C 
BRANCH  13  14
ATOM     14  C   UNL     1     -11.125   1.245 -10.154  1.00  0.00    -0.000 C 
BRANCH  14  15
ATOM     15  C   UNL     1     -10.646   1.658 -11.556  1.00  0.00    -0.000 C 
BRANCH  15  16
ATOM     16  C   UNL     1      -9.499   0.777 -12.076  1.00  0.00    -0.000 C 
BRANCH  16  17
ATOM     17  C   UNL     1      -8.125   1.454 -11.952  1.00  0.00    -0.000 C 
BRANCH  17  18
ATOM     18  C   UNL     1      -7.067   0.459 -11.454  1.00  0.00    -0.000 C 
BRANCH  18  19
ATOM     19  C   UNL     1      -5.949   1.140 -10.650  1.00  0.00    -0.003 C 
ATOM     20  C   UNL     1      -4.874   0.160 -10.183  1.00  0.00     0.004 C 
ENDBRANCH  18  19
ENDBRANCH  17  18
ENDBRANCH  16  17
ENDBRANCH  15  16
ENDBRANCH  14  15
ENDBRANCH  13  14
ENDBRANCH  12  13
ENDBRANCH   1  12
TORSDOF 16
ENDMDL
MODEL 7
REMARK VINA RESULT:    -2.903      4.032      9.594
REMARK INTER + INTRA:          -6.922
REMARK INTER:                  -5.831
REMARK INTRA:                  -1.090
REMARK UNBOUND:                -1.302
REMARK SMILES CCCCCCCCCCCCCCCCCC(=O)[O-]
REMARK SMILES IDX 10 1 11 2 12 3 13 4 14 5 15 6 16 7 17 8 18 9 19 10 20 11
REMARK SMILES IDX 9 12 8 13 7 14 6 15 5 16 4 17 3 18 2 19 1 20
REMARK H PARENT
REMARK Flexibility Score: inf
ROOT
ATOM      1  C   UNL     1       2.222  -6.052 -10.355  1.00  0.00     0.000 C 
ENDROOT
BRANCH   1   2
ATOM      2  C   UNL     1       2.195  -7.563 -10.665  1.00  0.00     0.000 C 
BRANCH   2   3
ATOM      3  C   UNL     1       1.691  -7.938 -12.070  1.00  0.00     0.000 C 
BRANCH   3   4
ATOM      4  C   UNL     1       0.177  -8.215 -12.108  1.00  0.00     0.000 C 
BRANCH   4   5
ATOM      5  C   UNL     1      -0.240  -9.341 -11.148  1.00  0.00     0.000 C 
BRANCH   5   6
ATOM      6  C   UNL     1       0.531 -10.647 -11.396  1.00  0.00     0.000 C 
BRANCH   6   7
ATOM      7  C   UNL     1      -0.433 -11.800 -11.716  1.00  0.00     0.006 C 
BRANCH   7   8
ATOM      8  C   UNL     1      -1.871 -11.313 -11.936  1.00  0.00     0.053 C 
BRANCH   8   9
ATOM      9  C   UNL     1      -2.800 -11.830 -10.881  1.00  0.00     0.041 C 
ATOM     10  O   UNL     1      -2.416 -11.913  -9.684  1.00  0.00    -0.550 OA
ATOM     11  O   UNL     1      -4.099 -12.190 -11.214  1.00  0.00    -0.550 OA
ENDBRANCH   8   9
ENDBRANCH   7   8
ENDBRANCH   6   7
ENDBRANCH   5   6
ENDBRANCH   4   5
ENDBRANCH   3   4
ENDBRANCH   2   3
ENDBRANCH   1   2
BRANCH   1  12
ATOM     12  C   UNL     1       2.300  -5.132 -11.587  1.00  0.00     0.000 C 
BRANCH  12  13
ATOM     13  C   UNL     1       0.996  -4.383 -11.917  1.00  0.00    -0.000 C 
BRANCH  13  14
ATOM     14  C   UNL     1       0.923  -2.967 -11.304  1.00  0.00    -0.000 C 
BRANCH  14  15
ATOM     15  C   UNL     1       2.005  -2.735 -10.235  1.00  0.00    -0.000 C 
BRANCH  15  16
ATOM     16  C   UNL     1       2.880  -1.508 -10.533  1.00  0.00    -0.000 C 
BRANCH  16  17
ATOM     17  C   UNL     1       3.443  -1.510 -11.963  1.00  0.00    -0.000 C 
BRANCH  17  18
ATOM     18  C   UNL     1       4.978  -1.500 -11.948  1.00  0.00    -0.000 C 
BRANCH  18  19
ATOM     19  C   UNL     1       5.553  -1.119 -10.575  1.00  0.00    -0.003 C 
ATOM     20  C   UNL     1       7.049  -1.411 -10.457  1.00  0.00     0.004 C 
ENDBRANCH  18  19
ENDBRANCH  17  18
ENDBRANCH  16  17
ENDBRANCH  15  16
ENDBRANCH  14  15
ENDBRANCH  13  14
ENDBRANCH  12  13
ENDBRANCH   1  12
TORSDOF 16
ENDMDL
MODEL 8
REMARK VINA RESULT:    -2.888      1.251      2.605
REMARK INTER + INTRA:          -6.892
REMARK INTER:                  -6.427
REMARK INTRA:                  -0.465
REMARK UNBOUND:                -1.302
REMARK SMILES CCCCCCCCCCCCCCCCCC(=O)[O-]
REMARK SMILES IDX 10 1 11 2 12 3 13 4 14 5 15 6 16 7 17 8 18 9 19 10 20 11
REMARK SMILES IDX 9 12 8 13 7 14 6 15 5 16 4 17 3 18 2 19 1 20
REMARK H PARENT
REMARK Flexibility Score: inf
ROOT
ATOM      1  C   UNL     1      -0.452  -6.802 -11.534  1.00  0.00     0.000 C 
ENDROOT
BRANCH   1   2
ATOM      2  C   UNL     1      -1.260  -5.780 -10.707  1.00  0.00     0.000 C 
BRANCH   2   3
ATOM      3  C   UNL     1      -1.648  -4.490 -11.451  1.00  0.00     0.000 C 
BRANCH   3   4
ATOM      4  C   UNL     1      -0.441  -3.582 -11.745  1.00  0.00     0.000 C 
BRANCH   4   5
ATOM      5  C   UNL     1       0.873  -4.371 -11.866  1.00  0.00     0.000 C 
BRANCH   5   6
ATOM      6  C   UNL     1       1.930  -3.922 -10.845  1.00  0.00     0.000 C 
BRANCH   6   7
ATOM      7  C   UNL     1       1.701  -2.461 -10.426  1.00  0.00     0.006 C 
BRANCH   7   8
ATOM      8  C   UNL     1       2.491  -1.475 -11.297  1.00  0.00     0.053 C 
BRANCH   8   9
ATOM      9  C   UNL     1       3.967  -1.709 -11.200  1.00  0.00     0.041 C 
ATOM     10  O   UNL     1       4.633  -1.180 -10.271  1.00  0.00    -0.550 OA
ATOM     11  O   UNL     1       4.602  -2.535 -12.118  1.00  0.00    -0.550 OA
ENDBRANCH   8   9
ENDBRANCH   7   8
ENDBRANCH   6   7
ENDBRANCH   5   6
ENDBRANCH   4   5
ENDBRANCH   3   4
ENDBRANCH   2   3
ENDBRANCH   1   2
BRANCH   1  12
ATOM     12  C   UNL     1      -0.705  -8.279 -11.178  1.00  0.00     0.000 C 
BRANCH  12  13
ATOM     13  C   UNL     1      -1.731  -8.994 -12.075  1.00  0.00    -0.000 C 
BRANCH  13  14
ATOM     14  C   UNL     1      -3.075  -9.284 -11.370  1.00  0.00    -0.000 C 
BRANCH  14  15
ATOM     15  C   UNL     1      -3.045 -10.598 -10.571  1.00  0.00    -0.000 C 
BRANCH  15  16
ATOM     16  C   UNL     1      -3.596 -11.791 -11.369  1.00  0.00    -0.000 C 
BRANCH  16  17
ATOM     17  C   UNL     1      -2.831 -13.094 -11.094  1.00  0.00    -0.000 C 
BRANCH  17  18
ATOM     18  C   UNL     1      -1.552 -12.821 -10.289  1.00  0.00    -0.000 C 
BRANCH  18  19
ATOM     19  C   UNL     1      -0.321 -12.622 -11.187  1.00  0.00    -0.003 C 
ATOM     20  C   UNL     1       0.789 -11.825 -10.502  1.00  0.00     0.004 C 
ENDBRANCH  18  19
ENDBRANCH  17  18
ENDBRANCH  16  17
ENDBRANCH  15  16
ENDBRANCH  14  15
ENDBRANCH  13  14
ENDBRANCH  12  13
ENDBRANCH   1  12
TORSDOF 16
ENDMDL
MODEL 9
REMARK VINA RESULT:    -2.704      4.854      6.407
REMARK INTER + INTRA:          -6.535
REMARK INTER:                  -5.400
REMARK INTRA:                  -1.135
REMARK UNBOUND:                -1.302
REMARK SMILES CCCCCCCCCCCCCCCCCC(=O)[O-]
REMARK SMILES IDX 10 1 11 2 12 3 13 4 14 5 15 6 16 7 17 8 18 9 19 10 20 11
REMARK SMILES IDX 9 12 8 13 7 14 6 15 5 16 4 17 3 18 2 19 1 20
REMARK H PARENT
REMARK Flexibility Score: inf
ROOT
ATOM      1  C   UNL     1       0.566  -7.857 -10.180  1.00  0.00     0.000 C 
ENDROOT
BRANCH   1   2
ATOM      2  C   UNL     1       2.108  -7.809 -10.178  1.00  0.00     0.000 C 
BRANCH   2   3
ATOM      3  C   UNL     1       2.786  -8.340 -11.453  1.00  0.00     0.000 C 
BRANCH   3   4
ATOM      4  C   UNL     1       4.055  -7.555 -11.828  1.00  0.00     0.000 C 
BRANCH   4   5
ATOM      5  C   UNL     1       5.252  -8.474 -12.120  1.00  0.00     0.000 C 
BRANCH   5   6
ATOM      6  C   UNL     1       6.513  -8.072 -11.341  1.00  0.00     0.000 C 
BRANCH   6   7
ATOM      7  C   UNL     1       7.428  -9.285 -11.115  1.00  0.00     0.006 C 
BRANCH   7   8
ATOM      8  C   UNL     1       6.833 -10.578 -11.688  1.00  0.00     0.053 C 
BRANCH   8   9
ATOM      9  C   UNL     1       7.175 -11.768 -10.845  1.00  0.00     0.041 C 
ATOM     10  O   UNL     1       7.196 -11.670  -9.588  1.00  0.00    -0.550 OA
ATOM     11  O   UNL     1       7.441 -12.992 -11.444  1.00  0.00    -0.550 OA
ENDBRANCH   8   9
ENDBRANCH   7   8
ENDBRANCH   6   7
ENDBRANCH   5   6
ENDBRANCH   4   5
ENDBRANCH   3   4
ENDBRANCH   2   3
ENDBRANCH   1   2
BRANCH   1  12
ATOM     12  C   UNL     1      -0.072  -8.342 -11.495  1.00  0.00     0.000 C 
BRANCH  12  13
ATOM     13  C   UNL     1      -1.526  -7.886 -11.714  1.00  0.00    -0.000 C 
BRANCH  13  14
ATOM     14  C   UNL     1      -2.572  -8.970 -11.370  1.00  0.00    -0.000 C 
BRANCH  14  15
ATOM     15  C   UNL     1      -1.956 -10.376 -11.292  1.00  0.00    -0.000 C 
BRANCH  15  16
ATOM     16  C   UNL     1      -1.737 -10.850  -9.846  1.00  0.00    -0.000 C 
BRANCH  16  17
ATOM     17  C   UNL     1      -1.695 -12.381  -9.721  1.00  0.00    -0.000 C 
BRANCH  17  18
ATOM     18  C   UNL     1      -0.338 -12.851  -9.179  1.00  0.00    -0.000 C 
BRANCH  18  19
ATOM     19  C   UNL     1       0.836 -12.417 -10.071  1.00  0.00    -0.003 C 
ATOM     20  C   UNL     1       0.761 -13.010 -11.477  1.00  0.00     0.004 C 
ENDBRANCH  18  19
ENDBRANCH  17  18
ENDBRANCH  16  17
ENDBRANCH  15  16
ENDBRANCH  14  15
ENDBRANCH  13  14
ENDBRANCH  12  13
ENDBRANCH   1  12
TORSDOF 16
ENDMDL
