MODEL 1
REMARK VINA RESULT:    -3.051      0.000      0.000
REMARK INTER + INTRA:         -12.364
REMARK INTER:                  -7.689
REMARK INTRA:                  -4.675
REMARK UNBOUND:                -4.675
REMARK SMILES CCCCCCCCCCCCCCCCCCCCCCCCCCCC(=O)[O-]
REMARK SMILES IDX 15 1 16 2 17 3 18 4 19 5 20 6 21 7 22 8 23 9 24 10 25 11
REMARK SMILES IDX 26 12 27 13 28 14 29 15 30 16 14 17 13 18 12 19 11 20 10 21
REMARK SMILES IDX 9 22 8 23 7 24 6 25 5 26 4 27 3 28 2 29 1 30
REMARK H PARENT
REMARK Flexibility Score: inf
ROOT
ATOM      1  C   UNL     1      19.410   6.216  26.029  1.00  0.00     0.000 C 
ENDROOT
BRANCH   1   2
ATOM      2  C   UNL     1      19.224   6.544  27.521  1.00  0.00     0.000 C 
BRANCH   2   3
ATOM      3  C   UNL     1      19.747   7.943  27.896  1.00  0.00     0.000 C 
BRANCH   3   4
ATOM      4  C   UNL     1      18.937   9.080  27.248  1.00  0.00     0.000 C 
BRANCH   4   5
ATOM      5  C   UNL     1      19.737  10.005  26.312  1.00  0.00     0.000 C 
BRANCH   5   6
ATOM      6  C   UNL     1      21.221   9.620  26.212  1.00  0.00     0.000 C 
BRANCH   6   7
ATOM      7  C   UNL     1      21.641   9.444  24.746  1.00  0.00     0.000 C 
BRANCH   7   8
ATOM      8  C   UNL     1      20.612   8.651  23.924  1.00  0.00     0.000 C 
BRANCH   8   9
ATOM      9  C   UNL     1      20.062   9.453  22.731  1.00  0.00     0.000 C 
BRANCH   9  10
ATOM     10  C   UNL     1      18.533   9.592  22.769  1.00  0.00     0.000 C 
BRANCH  10  11
ATOM     11  C   UNL     1      17.853   8.448  23.535  1.00  0.00     0.000 C 
BRANCH  11  12
ATOM     12  C   UNL     1      16.648   8.965  24.336  1.00  0.00     0.006 C 
BRANCH  12  13
ATOM     13  C   UNL     1      15.905   7.838  25.064  1.00  0.00     0.053 C 
BRANCH  13  14
ATOM     14  C   UNL     1      15.479   8.249  26.441  1.00  0.00     0.041 C 
ATOM     15  O   UNL     1      15.362   9.470  26.731  1.00  0.00    -0.550 OA
ATOM     16  O   UNL     1      15.225   7.285  27.408  1.00  0.00    -0.550 OA
ENDBRANCH  13  14
ENDBRANCH  12  13
ENDBRANCH  11  12
ENDBRANCH  10  11
ENDBRANCH   9  10
ENDBRANCH   8   9
ENDBRANCH   7   8
ENDBRANCH   6   7
ENDBRANCH   5   6
ENDBRANCH   4   5
ENDBRANCH   3   4
ENDBRANCH   2   3
ENDBRANCH   1   2
BRANCH   1  17
ATOM     17  C   UNL     1      19.017   4.783  25.611  1.00  0.00     0.000 C 
BRANCH  17  18
ATOM     18  C   UNL     1      19.224   3.701  26.686  1.00  0.00     0.000 C 
BRANCH  18  19
ATOM     19  C   UNL     1      18.616   2.345  26.290  1.00  0.00     0.000 C 
BRANCH  19  20
ATOM     20  C   UNL     1      19.601   1.463  25.507  1.00  0.00     0.000 C 
BRANCH  20  21
ATOM     21  C   UNL     1      21.070   1.742  25.869  1.00  0.00     0.000 C 
BRANCH  21  22
ATOM     22  C   UNL     1      21.877   2.308  24.688  1.00  0.00    -0.000 C 
BRANCH  22  23
ATOM     23  C   UNL     1      22.953   3.342  25.076  1.00  0.00    -0.000 C 
BRANCH  23  24
ATOM     24  C   UNL     1      23.381   3.316  26.556  1.00  0.00    -0.000 C 
BRANCH  24  25
ATOM     25  C   UNL     1      23.902   4.656  27.111  1.00  0.00    -0.000 C 
BRANCH  25  26
ATOM     26  C   UNL     1      22.806   5.731  27.199  1.00  0.00    -0.000 C 
BRANCH  26  27
ATOM     27  C   UNL     1      23.331   7.080  27.721  1.00  0.00    -0.000 C 
BRANCH  27  28
ATOM     28  C   UNL     1      24.767   7.440  27.289  1.00  0.00    -0.000 C 
BRANCH  28  29
ATOM     29  C   UNL     1      25.080   8.947  27.257  1.00  0.00    -0.003 C 
ATOM     30  C   UNL     1      25.284   9.482  25.841  1.00  0.00     0.004 C 
ENDBRANCH  28  29
ENDBRANCH  27  28
ENDBRANCH  26  27
ENDBRANCH  25  26
ENDBRANCH  24  25
ENDBRANCH  23  24
ENDBRANCH  22  23
ENDBRANCH  21  22
ENDBRANCH  20  21
ENDBRANCH  19  20
ENDBRANCH  18  19
ENDBRANCH  17  18
ENDBRANCH   1  17
TORSDOF 26
ENDMDL
MODEL 2
REMARK VINA RESULT:    -3.002      1.204      3.637
REMARK INTER + INTRA:         -12.239
REMARK INTER:                  -7.886
REMARK INTRA:                  -4.353
REMARK UNBOUND:                -4.675
REMARK SMILES CCCCCCCCCCCCCCCCCCCCCCCCCCCC(=O)[O-]
REMARK SMILES IDX 15 1 16 2 17 3 18 4 19 5 20 6 21 7 22 8 23 9 24 10 25 11
REMARK SMILES IDX 26 12 27 13 28 14 29 15 30 16 14 17 13 18 12 19 11 20 10 21
REMARK SMILES IDX 9 22 8 23 7 24 6 25 5 26 4 27 3 28 2 29 1 30
REMARK H PARENT
REMARK Flexibility Score: inf
ROOT
ATOM      1  C   UNL     1      22.350   6.953  27.940  1.00  0.00     0.000 C 
ENDROOT
BRANCH   1   2
ATOM      2  C   UNL     1      23.875   6.830  28.110  1.00  0.00     0.000 C 
BRANCH   2   3
ATOM      3  C   UNL     1      24.657   7.786  27.192  1.00  0.00     0.000 C 
BRANCH   3   4
ATOM      4  C   UNL     1      24.084   9.215  27.186  1.00  0.00     0.000 C 
BRANCH   4   5
ATOM      5  C   UNL     1      24.143   9.939  25.829  1.00  0.00     0.000 C 
BRANCH   5   6
ATOM      6  C   UNL     1      22.778  10.021  25.131  1.00  0.00     0.000 C 
BRANCH   6   7
ATOM      7  C   UNL     1      21.642  10.105  26.160  1.00  0.00     0.000 C 
BRANCH   7   8
ATOM      8  C   UNL     1      20.250   9.981  25.520  1.00  0.00     0.000 C 
BRANCH   8   9
ATOM      9  C   UNL     1      20.236   9.030  24.310  1.00  0.00     0.000 C 
BRANCH   9  10
ATOM     10  C   UNL     1      19.535   9.641  23.088  1.00  0.00     0.000 C 
BRANCH  10  11
ATOM     11  C   UNL     1      18.017   9.408  23.098  1.00  0.00     0.000 C 
BRANCH  11  12
ATOM     12  C   UNL     1      17.681   8.024  23.673  1.00  0.00     0.006 C 
BRANCH  12  13
ATOM     13  C   UNL     1      16.435   8.052  24.569  1.00  0.00     0.053 C 
BRANCH  13  14
ATOM     14  C   UNL     1      16.789   8.267  26.009  1.00  0.00     0.041 C 
ATOM     15  O   UNL     1      16.940   9.434  26.459  1.00  0.00    -0.550 OA
ATOM     16  O   UNL     1      16.966   7.177  26.853  1.00  0.00    -0.550 OA
ENDBRANCH  13  14
ENDBRANCH  12  13
ENDBRANCH  11  12
ENDBRANCH  10  11
ENDBRANCH   9  10
ENDBRANCH   8   9
ENDBRANCH   7   8
ENDBRANCH   6   7
ENDBRANCH   5   6
ENDBRANCH   4   5
ENDBRANCH   3   4
ENDBRANCH   2   3
ENDBRANCH   1   2
BRANCH   1  17
ATOM     17  C   UNL     1      21.794   6.492  26.576  1.00  0.00     0.000 C 
BRANCH  17  18
ATOM     18  C   UNL     1      20.403   5.831  26.618  1.00  0.00     0.000 C 
BRANCH  18  19
ATOM     19  C   UNL     1      19.749   5.733  25.230  1.00  0.00     0.000 C 
BRANCH  19  20
ATOM     20  C   UNL     1      19.276   4.308  24.902  1.00  0.00     0.000 C 
BRANCH  20  21
ATOM     21  C   UNL     1      18.553   3.632  26.079  1.00  0.00     0.000 C 
BRANCH  21  22
ATOM     22  C   UNL     1      19.411   2.553  26.763  1.00  0.00    -0.000 C 
BRANCH  22  23
ATOM     23  C   UNL     1      19.304   1.148  26.137  1.00  0.00    -0.000 C 
BRANCH  23  24
ATOM     24  C   UNL     1      19.966   0.995  24.753  1.00  0.00    -0.000 C 
BRANCH  24  25
ATOM     25  C   UNL     1      21.503   1.081  24.750  1.00  0.00    -0.000 C 
BRANCH  25  26
ATOM     26  C   UNL     1      22.030   2.307  23.985  1.00  0.00    -0.000 C 
BRANCH  26  27
ATOM     27  C   UNL     1      23.064   3.116  24.788  1.00  0.00    -0.000 C 
BRANCH  27  28
ATOM     28  C   UNL     1      22.816   3.176  26.309  1.00  0.00    -0.000 C 
BRANCH  28  29
ATOM     29  C   UNL     1      24.081   3.074  27.180  1.00  0.00    -0.003 C 
ATOM     30  C   UNL     1      25.337   3.572  26.467  1.00  0.00     0.004 C 
ENDBRANCH  28  29
ENDBRANCH  27  28
ENDBRANCH  26  27
ENDBRANCH  25  26
ENDBRANCH  24  25
ENDBRANCH  23  24
ENDBRANCH  22  23
ENDBRANCH  21  22
ENDBRANCH  20  21
ENDBRANCH  19  20
ENDBRANCH  18  19
ENDBRANCH  17  18
ENDBRANCH   1  17
TORSDOF 26
ENDMDL
MODEL 3
REMARK VINA RESULT:    -2.730      1.483      4.471
REMARK INTER + INTRA:         -11.555
REMARK INTER:                  -7.523
REMARK INTRA:                  -4.032
REMARK UNBOUND:                -4.675
REMARK SMILES CCCCCCCCCCCCCCCCCCCCCCCCCCCC(=O)[O-]
REMARK SMILES IDX 15 1 16 2 17 3 18 4 19 5 20 6 21 7 22 8 23 9 24 10 25 11
REMARK SMILES IDX 26 12 27 13 28 14 29 15 30 16 14 17 13 18 12 19 11 20 10 21
REMARK SMILES IDX 9 22 8 23 7 24 6 25 5 26 4 27 3 28 2 29 1 30
REMARK H PARENT
REMARK Flexibility Score: inf
ROOT
ATOM      1  C   UNL     1      22.569   3.417  25.078  1.00  0.00     0.000 C 
ENDROOT
BRANCH   1   2
ATOM      2  C   UNL     1      23.535   3.393  26.277  1.00  0.00     0.000 C 
BRANCH   2   3
ATOM      3  C   UNL     1      22.831   3.671  27.617  1.00  0.00     0.000 C 
BRANCH   3   4
ATOM      4  C   UNL     1      23.038   5.112  28.116  1.00  0.00     0.000 C 
BRANCH   4   5
ATOM      5  C   UNL     1      23.673   6.075  27.096  1.00  0.00     0.000 C 
BRANCH   5   6
ATOM      6  C   UNL     1      23.414   7.553  27.421  1.00  0.00     0.000 C 
BRANCH   6   7
ATOM      7  C   UNL     1      21.940   7.782  27.786  1.00  0.00     0.000 C 
BRANCH   7   8
ATOM      8  C   UNL     1      21.455   9.198  27.437  1.00  0.00     0.000 C 
BRANCH   8   9
ATOM      9  C   UNL     1      19.961   9.406  27.743  1.00  0.00     0.000 C 
BRANCH   9  10
ATOM     10  C   UNL     1      19.126   8.142  27.484  1.00  0.00     0.000 C 
BRANCH  10  11
ATOM     11  C   UNL     1      17.638   8.340  27.806  1.00  0.00     0.000 C 
BRANCH  11  12
ATOM     12  C   UNL     1      16.765   7.415  26.945  1.00  0.00     0.006 C 
BRANCH  12  13
ATOM     13  C   UNL     1      15.723   8.190  26.127  1.00  0.00     0.053 C 
BRANCH  13  14
ATOM     14  C   UNL     1      16.172   8.406  24.714  1.00  0.00     0.041 C 
ATOM     15  O   UNL     1      15.991   7.510  23.846  1.00  0.00    -0.550 OA
ATOM     16  O   UNL     1      16.802   9.591  24.357  1.00  0.00    -0.550 OA
ENDBRANCH  13  14
ENDBRANCH  12  13
ENDBRANCH  11  12
ENDBRANCH  10  11
ENDBRANCH   9  10
ENDBRANCH   8   9
ENDBRANCH   7   8
ENDBRANCH   6   7
ENDBRANCH   5   6
ENDBRANCH   4   5
ENDBRANCH   3   4
ENDBRANCH   2   3
ENDBRANCH   1   2
BRANCH   1  17
ATOM     17  C   UNL     1      22.649   2.196  24.137  1.00  0.00     0.000 C 
BRANCH  17  18
ATOM     18  C   UNL     1      21.590   1.105  24.379  1.00  0.00     0.000 C 
BRANCH  18  19
ATOM     19  C   UNL     1      20.257   1.673  24.896  1.00  0.00     0.000 C 
BRANCH  19  20
ATOM     20  C   UNL     1      20.109   1.537  26.419  1.00  0.00     0.000 C 
BRANCH  20  21
ATOM     21  C   UNL     1      18.707   1.923  26.921  1.00  0.00     0.000 C 
BRANCH  21  22
ATOM     22  C   UNL     1      18.744   3.004  28.016  1.00  0.00    -0.000 C 
BRANCH  22  23
ATOM     23  C   UNL     1      18.779   4.454  27.492  1.00  0.00    -0.000 C 
BRANCH  23  24
ATOM     24  C   UNL     1      18.986   4.595  25.971  1.00  0.00    -0.000 C 
BRANCH  24  25
ATOM     25  C   UNL     1      20.105   5.566  25.549  1.00  0.00    -0.000 C 
BRANCH  25  26
ATOM     26  C   UNL     1      20.119   5.837  24.036  1.00  0.00    -0.000 C 
BRANCH  26  27
ATOM     27  C   UNL     1      19.439   7.165  23.659  1.00  0.00    -0.000 C 
BRANCH  27  28
ATOM     28  C   UNL     1      20.242   8.438  23.999  1.00  0.00    -0.000 C 
BRANCH  28  29
ATOM     29  C   UNL     1      20.517   9.373  22.808  1.00  0.00    -0.003 C 
ATOM     30  C   UNL     1      19.252   9.746  22.039  1.00  0.00     0.004 C 
ENDBRANCH  28  29
ENDBRANCH  27  28
ENDBRANCH  26  27
ENDBRANCH  25  26
ENDBRANCH  24  25
ENDBRANCH  23  24
ENDBRANCH  22  23
ENDBRANCH  21  22
ENDBRANCH  20  21
ENDBRANCH  19  20
ENDBRANCH  18  19
ENDBRANCH  17  18
ENDBRANCH   1  17
TORSDOF 26
ENDMDL
MODEL 4
REMARK VINA RESULT:    -2.710      1.950      5.863
REMARK INTER + INTRA:         -11.504
REMARK INTER:                  -8.127
REMARK INTRA:                  -3.377
REMARK UNBOUND:                -4.675
REMARK SMILES CCCCCCCCCCCCCCCCCCCCCCCCCCCC(=O)[O-]
REMARK SMILES IDX 15 1 16 2 17 3 18 4 19 5 20 6 21 7 22 8 23 9 24 10 25 11
REMARK SMILES IDX 26 12 27 13 28 14 29 15 30 16 14 17 13 18 12 19 11 20 10 21
REMARK SMILES IDX 9 22 8 23 7 24 6 25 5 26 4 27 3 28 2 29 1 30
REMARK H PARENT
REMARK Flexibility Score: inf
ROOT
ATOM      1  C   UNL     1      22.745   2.883  24.102  1.00  0.00     0.000 C 
ENDROOT
BRANCH   1   2
ATOM      2  C   UNL     1      22.763   3.751  25.373  1.00  0.00     0.000 C 
BRANCH   2   3
ATOM      3  C   UNL     1      23.913   3.387  26.329  1.00  0.00     0.000 C 
BRANCH   3   4
ATOM      4  C   UNL     1      23.926   4.246  27.606  1.00  0.00     0.000 C 
BRANCH   4   5
ATOM      5  C   UNL     1      22.602   4.963  27.929  1.00  0.00     0.000 C 
BRANCH   5   6
ATOM      6  C   UNL     1      22.727   6.494  27.910  1.00  0.00     0.000 C 
BRANCH   6   7
ATOM      7  C   UNL     1      24.114   6.923  27.411  1.00  0.00     0.000 C 
BRANCH   7   8
ATOM      8  C   UNL     1      24.624   8.198  28.101  1.00  0.00     0.000 C 
BRANCH   8   9
ATOM      9  C   UNL     1      24.898   9.341  27.107  1.00  0.00     0.000 C 
BRANCH   9  10
ATOM     10  C   UNL     1      23.852   9.407  25.984  1.00  0.00     0.000 C 
BRANCH  10  11
ATOM     11  C   UNL     1      22.563  10.119  26.416  1.00  0.00     0.000 C 
BRANCH  11  12
ATOM     12  C   UNL     1      21.334   9.237  26.148  1.00  0.00     0.006 C 
BRANCH  12  13
ATOM     13  C   UNL     1      20.464   9.780  25.007  1.00  0.00     0.053 C 
BRANCH  13  14
ATOM     14  C   UNL     1      20.512   8.893  23.800  1.00  0.00     0.041 C 
ATOM     15  O   UNL     1      20.553   9.395  22.645  1.00  0.00    -0.550 OA
ATOM     16  O   UNL     1      20.497   7.512  23.949  1.00  0.00    -0.550 OA
ENDBRANCH  13  14
ENDBRANCH  12  13
ENDBRANCH  11  12
ENDBRANCH  10  11
ENDBRANCH   9  10
ENDBRANCH   8   9
ENDBRANCH   7   8
ENDBRANCH   6   7
ENDBRANCH   5   6
ENDBRANCH   4   5
ENDBRANCH   3   4
ENDBRANCH   2   3
ENDBRANCH   1   2
BRANCH   1  17
ATOM     17  C   UNL     1      21.360   2.341  23.689  1.00  0.00     0.000 C 
BRANCH  17  18
ATOM     18  C   UNL     1      20.841   1.152  24.518  1.00  0.00     0.000 C 
BRANCH  18  19
ATOM     19  C   UNL     1      20.631   1.506  26.000  1.00  0.00     0.000 C 
BRANCH  19  20
ATOM     20  C   UNL     1      19.157   1.411  26.425  1.00  0.00     0.000 C 
BRANCH  20  21
ATOM     21  C   UNL     1      18.561   2.772  26.826  1.00  0.00     0.000 C 
BRANCH  21  22
ATOM     22  C   UNL     1      19.503   3.949  26.515  1.00  0.00    -0.000 C 
BRANCH  22  23
ATOM     23  C   UNL     1      18.791   5.277  26.187  1.00  0.00    -0.000 C 
BRANCH  23  24
ATOM     24  C   UNL     1      18.604   6.231  27.383  1.00  0.00    -0.000 C 
BRANCH  24  25
ATOM     25  C   UNL     1      17.337   7.105  27.330  1.00  0.00    -0.000 C 
BRANCH  25  26
ATOM     26  C   UNL     1      17.597   8.497  26.730  1.00  0.00    -0.000 C 
BRANCH  26  27
ATOM     27  C   UNL     1      16.335   9.133  26.122  1.00  0.00    -0.000 C 
BRANCH  27  28
ATOM     28  C   UNL     1      16.226   9.044  24.586  1.00  0.00    -0.000 C 
BRANCH  28  29
ATOM     29  C   UNL     1      17.016   7.891  23.942  1.00  0.00    -0.003 C 
ATOM     30  C   UNL     1      16.119   6.867  23.249  1.00  0.00     0.004 C 
ENDBRANCH  28  29
ENDBRANCH  27  28
ENDBRANCH  26  27
ENDBRANCH  25  26
ENDBRANCH  24  25
ENDBRANCH  23  24
ENDBRANCH  22  23
ENDBRANCH  21  22
ENDBRANCH  20  21
ENDBRANCH  19  20
ENDBRANCH  18  19
ENDBRANCH  17  18
ENDBRANCH   1  17
TORSDOF 26
ENDMDL
MODEL 5
REMARK VINA RESULT:    -2.294      3.197      7.454
REMARK INTER + INTRA:         -10.457
REMARK INTER:                  -6.666
REMARK INTRA:                  -3.791
REMARK UNBOUND:                -4.675
REMARK SMILES CCCCCCCCCCCCCCCCCCCCCCCCCCCC(=O)[O-]
REMARK SMILES IDX 15 1 16 2 17 3 18 4 19 5 20 6 21 7 22 8 23 9 24 10 25 11
REMARK SMILES IDX 26 12 27 13 28 14 29 15 30 16 14 17 13 18 12 19 11 20 10 21
REMARK SMILES IDX 9 22 8 23 7 24 6 25 5 26 4 27 3 28 2 29 1 30
REMARK H PARENT
REMARK Flexibility Score: inf
ROOT
ATOM      1  C   UNL     1      18.682   4.533  27.220  1.00  0.00     0.000 C 
ENDROOT
BRANCH   1   2
ATOM      2  C   UNL     1      17.883   3.442  27.956  1.00  0.00     0.000 C 
BRANCH   2   3
ATOM      3  C   UNL     1      18.442   2.028  27.714  1.00  0.00     0.000 C 
BRANCH   3   4
ATOM      4  C   UNL     1      19.925   1.894  28.103  1.00  0.00     0.000 C 
BRANCH   4   5
ATOM      5  C   UNL     1      20.865   1.461  26.963  1.00  0.00     0.000 C 
BRANCH   5   6
ATOM      6  C   UNL     1      20.189   1.486  25.584  1.00  0.00     0.000 C 
BRANCH   6   7
ATOM      7  C   UNL     1      21.224   1.301  24.465  1.00  0.00     0.000 C 
BRANCH   7   8
ATOM      8  C   UNL     1      21.527   2.608  23.714  1.00  0.00     0.000 C 
BRANCH   8   9
ATOM      9  C   UNL     1      20.576   3.752  24.109  1.00  0.00     0.000 C 
BRANCH   9  10
ATOM     10  C   UNL     1      21.291   4.873  24.880  1.00  0.00     0.000 C 
BRANCH  10  11
ATOM     11  C   UNL     1      22.480   4.359  25.704  1.00  0.00     0.000 C 
BRANCH  11  12
ATOM     12  C   UNL     1      22.442   4.926  27.131  1.00  0.00     0.006 C 
BRANCH  12  13
ATOM     13  C   UNL     1      23.251   4.075  28.119  1.00  0.00     0.053 C 
BRANCH  13  14
ATOM     14  C   UNL     1      24.506   3.542  27.497  1.00  0.00     0.041 C 
ATOM     15  O   UNL     1      25.128   4.223  26.638  1.00  0.00    -0.550 OA
ATOM     16  O   UNL     1      24.984   2.288  27.858  1.00  0.00    -0.550 OA
ENDBRANCH  13  14
ENDBRANCH  12  13
ENDBRANCH  11  12
ENDBRANCH  10  11
ENDBRANCH   9  10
ENDBRANCH   8   9
ENDBRANCH   7   8
ENDBRANCH   6   7
ENDBRANCH   5   6
ENDBRANCH   4   5
ENDBRANCH   3   4
ENDBRANCH   2   3
ENDBRANCH   1   2
BRANCH   1  17
ATOM     17  C   UNL     1      19.348   5.592  28.125  1.00  0.00     0.000 C 
BRANCH  17  18
ATOM     18  C   UNL     1      19.221   7.048  27.642  1.00  0.00     0.000 C 
BRANCH  18  19
ATOM     19  C   UNL     1      20.562   7.801  27.663  1.00  0.00     0.000 C 
BRANCH  19  20
ATOM     20  C   UNL     1      20.382   9.326  27.621  1.00  0.00     0.000 C 
BRANCH  20  21
ATOM     21  C   UNL     1      21.663  10.068  27.200  1.00  0.00     0.000 C 
BRANCH  21  22
ATOM     22  C   UNL     1      21.988   9.893  25.706  1.00  0.00    -0.000 C 
BRANCH  22  23
ATOM     23  C   UNL     1      20.758   9.841  24.779  1.00  0.00    -0.000 C 
BRANCH  23  24
ATOM     24  C   UNL     1      20.750   8.681  23.764  1.00  0.00    -0.000 C 
BRANCH  24  25
ATOM     25  C   UNL     1      19.372   8.340  23.168  1.00  0.00    -0.000 C 
BRANCH  25  26
ATOM     26  C   UNL     1      18.325   8.003  24.243  1.00  0.00    -0.000 C 
BRANCH  26  27
ATOM     27  C   UNL     1      16.880   8.221  23.761  1.00  0.00    -0.000 C 
BRANCH  27  28
ATOM     28  C   UNL     1      15.910   8.787  24.818  1.00  0.00    -0.000 C 
BRANCH  28  29
ATOM     29  C   UNL     1      16.406   8.698  26.272  1.00  0.00    -0.003 C 
ATOM     30  C   UNL     1      16.873  10.042  26.826  1.00  0.00     0.004 C 
ENDBRANCH  28  29
ENDBRANCH  27  28
ENDBRANCH  26  27
ENDBRANCH  25  26
ENDBRANCH  24  25
ENDBRANCH  23  24
ENDBRANCH  22  23
ENDBRANCH  21  22
ENDBRANCH  20  21
ENDBRANCH  19  20
ENDBRANCH  18  19
ENDBRANCH  17  18
ENDBRANCH   1  17
TORSDOF 26
ENDMDL
MODEL 6
REMARK VINA RESULT:    -2.063      2.521      6.889
REMARK INTER + INTRA:          -9.873
REMARK INTER:                  -6.201
REMARK INTRA:                  -3.672
REMARK UNBOUND:                -4.675
REMARK SMILES CCCCCCCCCCCCCCCCCCCCCCCCCCCC(=O)[O-]
REMARK SMILES IDX 15 1 16 2 17 3 18 4 19 5 20 6 21 7 22 8 23 9 24 10 25 11
REMARK SMILES IDX 26 12 27 13 28 14 29 15 30 16 14 17 13 18 12 19 11 20 10 21
REMARK SMILES IDX 9 22 8 23 7 24 6 25 5 26 4 27 3 28 2 29 1 30
REMARK H PARENT
REMARK Flexibility Score: inf
ROOT
ATOM      1  C   UNL     1      19.300   7.410  24.190  1.00  0.00     0.000 C 
ENDROOT
BRANCH   1   2
ATOM      2  C   UNL     1      20.718   7.742  24.689  1.00  0.00     0.000 C 
BRANCH   2   3
ATOM      3  C   UNL     1      20.962   9.254  24.836  1.00  0.00     0.000 C 
BRANCH   3   4
ATOM      4  C   UNL     1      20.709   9.767  26.265  1.00  0.00     0.000 C 
BRANCH   4   5
ATOM      5  C   UNL     1      21.939   9.761  27.191  1.00  0.00     0.000 C 
BRANCH   5   6
ATOM      6  C   UNL     1      23.266   9.630  26.428  1.00  0.00     0.000 C 
BRANCH   6   7
ATOM      7  C   UNL     1      24.459   9.880  27.361  1.00  0.00     0.000 C 
BRANCH   7   8
ATOM      8  C   UNL     1      25.096   8.578  27.872  1.00  0.00     0.000 C 
BRANCH   8   9
ATOM      9  C   UNL     1      24.058   7.470  28.125  1.00  0.00     0.000 C 
BRANCH   9  10
ATOM     10  C   UNL     1      24.319   6.214  27.280  1.00  0.00     0.000 C 
BRANCH  10  11
ATOM     11  C   UNL     1      23.275   5.114  27.516  1.00  0.00     0.000 C 
BRANCH  11  12
ATOM     12  C   UNL     1      22.431   4.879  26.254  1.00  0.00     0.006 C 
BRANCH  12  13
ATOM     13  C   UNL     1      22.334   3.393  25.885  1.00  0.00     0.053 C 
BRANCH  13  14
ATOM     14  C   UNL     1      21.733   3.194  24.527  1.00  0.00     0.041 C 
ATOM     15  O   UNL     1      20.721   3.859  24.176  1.00  0.00    -0.550 OA
ATOM     16  O   UNL     1      22.282   2.265  23.652  1.00  0.00    -0.550 OA
ENDBRANCH  13  14
ENDBRANCH  12  13
ENDBRANCH  11  12
ENDBRANCH  10  11
ENDBRANCH   9  10
ENDBRANCH   8   9
ENDBRANCH   7   8
ENDBRANCH   6   7
ENDBRANCH   5   6
ENDBRANCH   4   5
ENDBRANCH   3   4
ENDBRANCH   2   3
ENDBRANCH   1   2
BRANCH   1  17
ATOM     17  C   UNL     1      18.668   8.454  23.246  1.00  0.00     0.000 C 
BRANCH  17  18
ATOM     18  C   UNL     1      17.206   8.827  23.557  1.00  0.00     0.000 C 
BRANCH  18  19
ATOM     19  C   UNL     1      16.315   7.596  23.792  1.00  0.00     0.000 C 
BRANCH  19  20
ATOM     20  C   UNL     1      15.136   7.893  24.732  1.00  0.00     0.000 C 
BRANCH  20  21
ATOM     21  C   UNL     1      15.209   9.297  25.357  1.00  0.00     0.000 C 
BRANCH  21  22
ATOM     22  C   UNL     1      15.596   9.266  26.846  1.00  0.00    -0.000 C 
BRANCH  22  23
ATOM     23  C   UNL     1      17.113   9.298  27.121  1.00  0.00    -0.000 C 
BRANCH  23  24
ATOM     24  C   UNL     1      17.663   8.088  27.902  1.00  0.00    -0.000 C 
BRANCH  24  25
ATOM     25  C   UNL     1      17.408   6.717  27.250  1.00  0.00    -0.000 C 
BRANCH  25  26
ATOM     26  C   UNL     1      17.883   5.544  28.124  1.00  0.00    -0.000 C 
BRANCH  26  27
ATOM     27  C   UNL     1      19.247   4.983  27.685  1.00  0.00    -0.000 C 
BRANCH  27  28
ATOM     28  C   UNL     1      19.435   3.466  27.895  1.00  0.00    -0.000 C 
BRANCH  28  29
ATOM     29  C   UNL     1      18.287   2.588  27.366  1.00  0.00    -0.003 C 
ATOM     30  C   UNL     1      18.479   1.106  27.681  1.00  0.00     0.004 C 
ENDBRANCH  28  29
ENDBRANCH  27  28
ENDBRANCH  26  27
ENDBRANCH  25  26
ENDBRANCH  24  25
ENDBRANCH  23  24
ENDBRANCH  22  23
ENDBRANCH  21  22
ENDBRANCH  20  21
ENDBRANCH  19  20
ENDBRANCH  18  19
ENDBRANCH  17  18
ENDBRANCH   1  17
TORSDOF 26
ENDMDL
MODEL 7
REMARK VINA RESULT:    -1.968      2.034      5.155
REMARK INTER + INTRA:          -9.634
REMARK INTER:                  -5.483
REMARK INTRA:                  -4.150
REMARK UNBOUND:                -4.675
REMARK SMILES CCCCCCCCCCCCCCCCCCCCCCCCCCCC(=O)[O-]
REMARK SMILES IDX 15 1 16 2 17 3 18 4 19 5 20 6 21 7 22 8 23 9 24 10 25 11
REMARK SMILES IDX 26 12 27 13 28 14 29 15 30 16 14 17 13 18 12 19 11 20 10 21
REMARK SMILES IDX 9 22 8 23 7 24 6 25 5 26 4 27 3 28 2 29 1 30
REMARK H PARENT
REMARK Flexibility Score: inf
ROOT
ATOM      1  C   UNL     1      21.192   1.772  23.757  1.00  0.00     0.000 C 
ENDROOT
BRANCH   1   2
ATOM      2  C   UNL     1      20.622   0.802  24.808  1.00  0.00     0.000 C 
BRANCH   2   3
ATOM      3  C   UNL     1      20.228   1.507  26.118  1.00  0.00     0.000 C 
BRANCH   3   4
ATOM      4  C   UNL     1      18.931   2.326  25.992  1.00  0.00     0.000 C 
BRANCH   4   5
ATOM      5  C   UNL     1      18.565   3.169  27.228  1.00  0.00     0.000 C 
BRANCH   5   6
ATOM      6  C   UNL     1      18.081   4.582  26.871  1.00  0.00     0.000 C 
BRANCH   6   7
ATOM      7  C   UNL     1      17.605   5.330  28.124  1.00  0.00     0.000 C 
BRANCH   7   8
ATOM      8  C   UNL     1      17.829   6.848  28.031  1.00  0.00     0.000 C 
BRANCH   8   9
ATOM      9  C   UNL     1      16.726   7.561  27.230  1.00  0.00     0.000 C 
BRANCH   9  10
ATOM     10  C   UNL     1      17.081   7.711  25.743  1.00  0.00     0.000 C 
BRANCH  10  11
ATOM     11  C   UNL     1      16.238   8.784  25.038  1.00  0.00     0.000 C 
BRANCH  11  12
ATOM     12  C   UNL     1      17.117   9.957  24.580  1.00  0.00     0.006 C 
BRANCH  12  13
ATOM     13  C   UNL     1      18.607   9.594  24.552  1.00  0.00     0.053 C 
BRANCH  13  14
ATOM     14  C   UNL     1      19.143   9.545  23.153  1.00  0.00     0.041 C 
ATOM     15  O   UNL     1      20.300   9.098  22.931  1.00  0.00    -0.550 OA
ATOM     16  O   UNL     1      18.369  10.007  22.095  1.00  0.00    -0.550 OA
ENDBRANCH  13  14
ENDBRANCH  12  13
ENDBRANCH  11  12
ENDBRANCH  10  11
ENDBRANCH   9  10
ENDBRANCH   8   9
ENDBRANCH   7   8
ENDBRANCH   6   7
ENDBRANCH   5   6
ENDBRANCH   4   5
ENDBRANCH   3   4
ENDBRANCH   2   3
ENDBRANCH   1   2
BRANCH   1  17
ATOM     17  C   UNL     1      22.589   2.347  24.074  1.00  0.00     0.000 C 
BRANCH  17  18
ATOM     18  C   UNL     1      22.683   3.884  24.087  1.00  0.00     0.000 C 
BRANCH  18  19
ATOM     19  C   UNL     1      21.304   4.565  24.104  1.00  0.00     0.000 C 
BRANCH  19  20
ATOM     20  C   UNL     1      20.978   5.202  25.464  1.00  0.00     0.000 C 
BRANCH  20  21
ATOM     21  C   UNL     1      20.793   6.727  25.381  1.00  0.00     0.000 C 
BRANCH  21  22
ATOM     22  C   UNL     1      20.627   7.382  26.763  1.00  0.00    -0.000 C 
BRANCH  22  23
ATOM     23  C   UNL     1      21.191   8.813  26.872  1.00  0.00    -0.000 C 
BRANCH  23  24
ATOM     24  C   UNL     1      22.304   9.157  25.862  1.00  0.00    -0.000 C 
BRANCH  24  25
ATOM     25  C   UNL     1      23.689   9.424  26.480  1.00  0.00    -0.000 C 
BRANCH  25  26
ATOM     26  C   UNL     1      23.923   8.640  27.782  1.00  0.00    -0.000 C 
BRANCH  26  27
ATOM     27  C   UNL     1      24.584   7.271  27.547  1.00  0.00    -0.000 C 
BRANCH  27  28
ATOM     28  C   UNL     1      23.689   6.048  27.837  1.00  0.00    -0.000 C 
BRANCH  28  29
ATOM     29  C   UNL     1      24.184   4.721  27.235  1.00  0.00    -0.003 C 
ATOM     30  C   UNL     1      23.317   3.528  27.632  1.00  0.00     0.004 C 
ENDBRANCH  28  29
ENDBRANCH  27  28
ENDBRANCH  26  27
ENDBRANCH  25  26
ENDBRANCH  24  25
ENDBRANCH  23  24
ENDBRANCH  22  23
ENDBRANCH  21  22
ENDBRANCH  20  21
ENDBRANCH  19  20
ENDBRANCH  18  19
ENDBRANCH  17  18
ENDBRANCH   1  17
TORSDOF 26
ENDMDL
MODEL 8
REMARK VINA RESULT:    -1.951      2.923      7.181
REMARK INTER + INTRA:          -9.592
REMARK INTER:                  -7.256
REMARK INTRA:                  -2.336
REMARK UNBOUND:                -4.675
REMARK SMILES CCCCCCCCCCCCCCCCCCCCCCCCCCCC(=O)[O-]
REMARK SMILES IDX 15 1 16 2 17 3 18 4 19 5 20 6 21 7 22 8 23 9 24 10 25 11
REMARK SMILES IDX 26 12 27 13 28 14 29 15 30 16 14 17 13 18 12 19 11 20 10 21
REMARK SMILES IDX 9 22 8 23 7 24 6 25 5 26 4 27 3 28 2 29 1 30
REMARK H PARENT
REMARK Flexibility Score: inf
ROOT
ATOM      1  C   UNL     1      20.296   3.842  24.645  1.00  0.00     0.000 C 
ENDROOT
BRANCH   1   2
ATOM      2  C   UNL     1      20.519   2.485  25.335  1.00  0.00     0.000 C 
BRANCH   2   3
ATOM      3  C   UNL     1      21.529   1.594  24.591  1.00  0.00     0.000 C 
BRANCH   3   4
ATOM      4  C   UNL     1      22.895   2.275  24.388  1.00  0.00     0.000 C 
BRANCH   4   5
ATOM      5  C   UNL     1      23.248   3.357  25.425  1.00  0.00     0.000 C 
BRANCH   5   6
ATOM      6  C   UNL     1      23.536   2.782  26.820  1.00  0.00     0.000 C 
BRANCH   6   7
ATOM      7  C   UNL     1      22.683   3.484  27.887  1.00  0.00     0.000 C 
BRANCH   7   8
ATOM      8  C   UNL     1      23.013   4.978  28.022  1.00  0.00     0.000 C 
BRANCH   8   9
ATOM      9  C   UNL     1      21.773   5.876  27.867  1.00  0.00     0.000 C 
BRANCH   9  10
ATOM     10  C   UNL     1      21.929   6.905  26.737  1.00  0.00     0.000 C 
BRANCH  10  11
ATOM     11  C   UNL     1      21.642   8.341  27.200  1.00  0.00     0.000 C 
BRANCH  11  12
ATOM     12  C   UNL     1      22.476   9.352  26.398  1.00  0.00     0.006 C 
BRANCH  12  13
ATOM     13  C   UNL     1      23.727   9.810  27.159  1.00  0.00     0.053 C 
BRANCH  13  14
ATOM     14  C   UNL     1      24.944   9.039  26.747  1.00  0.00     0.041 C 
ATOM     15  O   UNL     1      25.805   9.566  25.993  1.00  0.00    -0.550 OA
ATOM     16  O   UNL     1      25.122   7.733  27.186  1.00  0.00    -0.550 OA
ENDBRANCH  13  14
ENDBRANCH  12  13
ENDBRANCH  11  12
ENDBRANCH  10  11
ENDBRANCH   9  10
ENDBRANCH   8   9
ENDBRANCH   7   8
ENDBRANCH   6   7
ENDBRANCH   5   6
ENDBRANCH   4   5
ENDBRANCH   3   4
ENDBRANCH   2   3
ENDBRANCH   1   2
BRANCH   1  17
ATOM     17  C   UNL     1      18.938   4.517  24.931  1.00  0.00     0.000 C 
BRANCH  17  18
ATOM     18  C   UNL     1      18.836   5.998  24.521  1.00  0.00     0.000 C 
BRANCH  18  19
ATOM     19  C   UNL     1      18.525   6.925  25.709  1.00  0.00     0.000 C 
BRANCH  19  20
ATOM     20  C   UNL     1      18.111   6.149  26.969  1.00  0.00     0.000 C 
BRANCH  20  21
ATOM     21  C   UNL     1      17.423   7.038  28.020  1.00  0.00     0.000 C 
BRANCH  21  22
ATOM     22  C   UNL     1      16.526   8.118  27.390  1.00  0.00    -0.000 C 
BRANCH  22  23
ATOM     23  C   UNL     1      15.627   7.622  26.241  1.00  0.00    -0.000 C 
BRANCH  23  24
ATOM     24  C   UNL     1      15.228   8.696  25.210  1.00  0.00    -0.000 C 
BRANCH  24  25
ATOM     25  C   UNL     1      15.801  10.101  25.473  1.00  0.00    -0.000 C 
BRANCH  25  26
ATOM     26  C   UNL     1      17.339  10.124  25.492  1.00  0.00    -0.000 C 
BRANCH  26  27
ATOM     27  C   UNL     1      17.956  10.078  24.083  1.00  0.00    -0.000 C 
BRANCH  27  28
ATOM     28  C   UNL     1      19.486   9.882  24.039  1.00  0.00    -0.000 C 
BRANCH  28  29
ATOM     29  C   UNL     1      20.007   9.094  22.825  1.00  0.00    -0.003 C 
ATOM     30  C   UNL     1      19.454   9.609  21.498  1.00  0.00     0.004 C 
ENDBRANCH  28  29
ENDBRANCH  27  28
ENDBRANCH  26  27
ENDBRANCH  25  26
ENDBRANCH  24  25
ENDBRANCH  23  24
ENDBRANCH  22  23
ENDBRANCH  21  22
ENDBRANCH  20  21
ENDBRANCH  19  20
ENDBRANCH  18  19
ENDBRANCH  17  18
ENDBRANCH   1  17
TORSDOF 26
ENDMDL
MODEL 9
REMARK VINA RESULT:    -1.938      1.873      7.111
REMARK INTER + INTRA:          -9.558
REMARK INTER:                  -6.658
REMARK INTRA:                  -2.900
REMARK UNBOUND:                -4.675
REMARK SMILES CCCCCCCCCCCCCCCCCCCCCCCCCCCC(=O)[O-]
REMARK SMILES IDX 15 1 16 2 17 3 18 4 19 5 20 6 21 7 22 8 23 9 24 10 25 11
REMARK SMILES IDX 26 12 27 13 28 14 29 15 30 16 14 17 13 18 12 19 11 20 10 21
REMARK SMILES IDX 9 22 8 23 7 24 6 25 5 26 4 27 3 28 2 29 1 30
REMARK H PARENT
REMARK Flexibility Score: inf
ROOT
ATOM      1  C   UNL     1      22.132   4.830  27.401  1.00  0.00     0.000 C 
ENDROOT
BRANCH   1   2
ATOM      2  C   UNL     1      23.421   3.992  27.475  1.00  0.00     0.000 C 
BRANCH   2   3
ATOM      3  C   UNL     1      23.385   2.757  26.557  1.00  0.00     0.000 C 
BRANCH   3   4
ATOM      4  C   UNL     1      23.434   3.119  25.062  1.00  0.00     0.000 C 
BRANCH   4   5
ATOM      5  C   UNL     1      22.764   2.103  24.118  1.00  0.00     0.000 C 
BRANCH   5   6
ATOM      6  C   UNL     1      21.246   2.301  24.001  1.00  0.00     0.000 C 
BRANCH   6   7
ATOM      7  C   UNL     1      20.491   1.228  24.799  1.00  0.00     0.000 C 
BRANCH   7   8
ATOM      8  C   UNL     1      20.454   1.525  26.306  1.00  0.00     0.000 C 
BRANCH   8   9
ATOM      9  C   UNL     1      19.077   1.245  26.932  1.00  0.00     0.000 C 
BRANCH   9  10
ATOM     10  C   UNL     1      18.142   2.463  26.867  1.00  0.00     0.000 C 
BRANCH  10  11
ATOM     11  C   UNL     1      18.762   3.719  27.494  1.00  0.00     0.000 C 
BRANCH  11  12
ATOM     12  C   UNL     1      18.660   4.916  26.537  1.00  0.00     0.006 C 
BRANCH  12  13
ATOM     13  C   UNL     1      18.716   4.491  25.063  1.00  0.00     0.053 C 
BRANCH  13  14
ATOM     14  C   UNL     1      19.323   5.554  24.199  1.00  0.00     0.041 C 
ATOM     15  O   UNL     1      18.587   6.303  23.502  1.00  0.00    -0.550 OA
ATOM     16  O   UNL     1      20.703   5.710  24.153  1.00  0.00    -0.550 OA
ENDBRANCH  13  14
ENDBRANCH  12  13
ENDBRANCH  11  12
ENDBRANCH  10  11
ENDBRANCH   9  10
ENDBRANCH   8   9
ENDBRANCH   7   8
ENDBRANCH   6   7
ENDBRANCH   5   6
ENDBRANCH   4   5
ENDBRANCH   3   4
ENDBRANCH   2   3
ENDBRANCH   1   2
BRANCH   1  17
ATOM     17  C   UNL     1      22.338   6.358  27.324  1.00  0.00     0.000 C 
BRANCH  17  18
ATOM     18  C   UNL     1      23.535   6.905  28.125  1.00  0.00     0.000 C 
BRANCH  18  19
ATOM     19  C   UNL     1      24.573   7.610  27.237  1.00  0.00     0.000 C 
BRANCH  19  20
ATOM     20  C   UNL     1      23.929   8.571  26.226  1.00  0.00     0.000 C 
BRANCH  20  21
ATOM     21  C   UNL     1      23.601   9.946  26.834  1.00  0.00     0.000 C 
BRANCH  21  22
ATOM     22  C   UNL     1      22.180  10.012  27.423  1.00  0.00    -0.000 C 
BRANCH  22  23
ATOM     23  C   UNL     1      21.052  10.119  26.378  1.00  0.00    -0.000 C 
BRANCH  23  24
ATOM     24  C   UNL     1      20.950   8.932  25.400  1.00  0.00    -0.000 C 
BRANCH  24  25
ATOM     25  C   UNL     1      20.578   9.305  23.953  1.00  0.00    -0.000 C 
BRANCH  25  26
ATOM     26  C   UNL     1      19.124   9.786  23.815  1.00  0.00    -0.000 C 
BRANCH  26  27
ATOM     27  C   UNL     1      18.182   9.147  24.850  1.00  0.00    -0.000 C 
BRANCH  27  28
ATOM     28  C   UNL     1      17.228  10.125  25.567  1.00  0.00    -0.000 C 
BRANCH  28  29
ATOM     29  C   UNL     1      15.994   9.474  26.216  1.00  0.00    -0.003 C 
ATOM     30  C   UNL     1      15.678   8.094  25.644  1.00  0.00     0.004 C 
ENDBRANCH  28  29
ENDBRANCH  27  28
ENDBRANCH  26  27
ENDBRANCH  25  26
ENDBRANCH  24  25
ENDBRANCH  23  24
ENDBRANCH  22  23
ENDBRANCH  21  22
ENDBRANCH  20  21
ENDBRANCH  19  20
ENDBRANCH  18  19
ENDBRANCH  17  18
ENDBRANCH   1  17
TORSDOF 26
ENDMDL
