MODEL 1
REMARK VINA RESULT:    -6.319      0.000      0.000
REMARK INTER + INTRA:          -7.874
REMARK INTER:                  -7.612
REMARK INTRA:                  -0.261
REMARK UNBOUND:                -0.261
REMARK SMILES O=c1c(O)c(-c2ccc(O)c(O)c2)oc2cc(O)cc(O)c12
REMARK SMILES IDX 5 1 3 2 2 3 1 4 22 5 20 6 19 7 17 8 16 9 15 10 14 11 6 12
REMARK SMILES IDX 7 13 8 14 9 15 13 16 11 17 10 18 12 20 4 22 21 24 18 26
REMARK H PARENT 10 19 12 21 4 23 21 25 18 27
REMARK Flexibility Score: inf
ROOT
ATOM      1  C   UNL     1      10.866  23.514  23.899  1.00  0.00     0.180 A 
ATOM      2  C   UNL     1      10.149  22.645  24.743  1.00  0.00     0.208 A 
ATOM      3  C   UNL     1      10.714  21.404  25.075  1.00  0.00     0.238 A 
ATOM      4  O   UNL     1      10.076  20.612  25.822  1.00  0.00    -0.285 OA
ATOM      5  C   UNL     1      11.988  21.063  24.579  1.00  0.00     0.111 A 
ATOM      6  C   UNL     1      12.629  19.834  24.870  1.00  0.00     0.134 A 
ATOM      7  C   UNL     1      13.903  19.572  24.344  1.00  0.00     0.093 A 
ATOM      8  C   UNL     1      14.548  20.512  23.536  1.00  0.00     0.123 A 
ATOM      9  C   UNL     1      13.919  21.726  23.245  1.00  0.00     0.094 A 
ATOM     10  C   UNL     1      12.649  22.006  23.757  1.00  0.00     0.146 A 
ATOM     11  O   UNL     1      12.073  23.165  23.461  1.00  0.00    -0.452 OA
ENDROOT
BRANCH   1  12
ATOM     12  C   UNL     1      10.329  24.832  23.488  1.00  0.00     0.025 A 
ATOM     13  C   UNL     1      10.349  25.900  24.399  1.00  0.00     0.016 A 
ATOM     14  C   UNL     1       9.866  27.158  24.027  1.00  0.00     0.051 A 
ATOM     15  C   UNL     1       9.374  27.369  22.732  1.00  0.00     0.157 A 
ATOM     16  C   UNL     1       9.853  25.055  22.184  1.00  0.00     0.062 A 
ATOM     17  C   UNL     1       9.370  26.317  21.808  1.00  0.00     0.158 A 
BRANCH  15  18
ATOM     18  O   UNL     1       8.890  28.621  22.357  1.00  0.00    -0.504 OA
ATOM     19  H   UNL     1       7.969  28.939  22.635  1.00  0.00     0.293 HD
ENDBRANCH  15  18
BRANCH  17  20
ATOM     20  O   UNL     1       8.893  26.534  20.517  1.00  0.00    -0.504 OA
ATOM     21  H   UNL     1       7.905  26.482  20.301  1.00  0.00     0.293 HD
ENDBRANCH  17  20
ENDBRANCH   1  12
BRANCH   2  22
ATOM     22  O   UNL     1       8.909  23.028  25.261  1.00  0.00    -0.502 OA
ATOM     23  H   UNL     1       8.778  23.894  25.770  1.00  0.00     0.293 HD
ENDBRANCH   2  22
BRANCH   6  24
ATOM     24  O   UNL     1      12.013  18.875  25.674  1.00  0.00    -0.507 OA
ATOM     25  H   UNL     1      12.460  18.509  26.507  1.00  0.00     0.293 HD
ENDBRANCH   6  24
BRANCH   8  26
ATOM     26  O   UNL     1      15.813  20.228  23.027  1.00  0.00    -0.508 OA
ATOM     27  H   UNL     1      16.026  20.340  22.043  1.00  0.00     0.293 HD
ENDBRANCH   8  26
TORSDOF 6
ENDMDL
MODEL 2
REMARK VINA RESULT:    -4.592      6.218      9.026
REMARK INTER + INTRA:          -5.794
REMARK INTER:                  -5.725
REMARK INTRA:                  -0.069
REMARK UNBOUND:                -0.261
REMARK SMILES O=c1c(O)c(-c2ccc(O)c(O)c2)oc2cc(O)cc(O)c12
REMARK SMILES IDX 5 1 3 2 2 3 1 4 22 5 20 6 19 7 17 8 16 9 15 10 14 11 6 12
REMARK SMILES IDX 7 13 8 14 9 15 13 16 11 17 10 18 12 20 4 22 21 24 18 26
REMARK H PARENT 10 19 12 21 4 23 21 25 18 27
REMARK Flexibility Score: inf
ROOT
ATOM      1  C   UNL     1      11.955  27.737  17.853  1.00  0.00     0.180 A 
ATOM      2  C   UNL     1      11.513  28.413  16.701  1.00  0.00     0.208 A 
ATOM      3  C   UNL     1      12.329  28.414  15.560  1.00  0.00     0.238 A 
ATOM      4  O   UNL     1      11.947  29.026  14.524  1.00  0.00    -0.285 OA
ATOM      5  C   UNL     1      13.558  27.726  15.581  1.00  0.00     0.111 A 
ATOM      6  C   UNL     1      14.438  27.674  14.472  1.00  0.00     0.134 A 
ATOM      7  C   UNL     1      15.641  26.960  14.571  1.00  0.00     0.093 A 
ATOM      8  C   UNL     1      15.982  26.296  15.752  1.00  0.00     0.123 A 
ATOM      9  C   UNL     1      15.118  26.344  16.850  1.00  0.00     0.094 A 
ATOM     10  C   UNL     1      13.915  27.053  16.773  1.00  0.00     0.146 A 
ATOM     11  O   UNL     1      13.115  27.085  17.833  1.00  0.00    -0.452 OA
ENDROOT
BRANCH   1  12
ATOM     12  C   UNL     1      11.160  27.707  19.102  1.00  0.00     0.025 A 
ATOM     13  C   UNL     1       9.862  27.171  19.080  1.00  0.00     0.016 A 
ATOM     14  C   UNL     1       9.100  27.114  20.251  1.00  0.00     0.051 A 
ATOM     15  C   UNL     1       9.632  27.574  21.463  1.00  0.00     0.157 A 
ATOM     16  C   UNL     1      11.697  28.149  20.324  1.00  0.00     0.062 A 
ATOM     17  C   UNL     1      10.935  28.089  21.500  1.00  0.00     0.158 A 
BRANCH  15  18
ATOM     18  O   UNL     1       8.876  27.520  22.631  1.00  0.00    -0.504 OA
ATOM     19  H   UNL     1       8.752  28.334  23.221  1.00  0.00     0.293 HD
ENDBRANCH  15  18
BRANCH  17  20
ATOM     20  O   UNL     1      11.466  28.534  22.709  1.00  0.00    -0.504 OA
ATOM     21  H   UNL     1      12.345  28.177  23.065  1.00  0.00     0.293 HD
ENDBRANCH  17  20
ENDBRANCH   1  12
BRANCH   2  22
ATOM     22  O   UNL     1      10.267  29.047  16.689  1.00  0.00    -0.502 OA
ATOM     23  H   UNL     1      10.058  29.820  16.069  1.00  0.00     0.293 HD
ENDBRANCH   2  22
BRANCH   6  24
ATOM     24  O   UNL     1      14.126  28.326  13.278  1.00  0.00    -0.507 OA
ATOM     25  H   UNL     1      14.238  27.873  12.378  1.00  0.00     0.293 HD
ENDBRANCH   6  24
BRANCH   8  26
ATOM     26  O   UNL     1      17.182  25.593  15.823  1.00  0.00    -0.508 OA
ATOM     27  H   UNL     1      17.233  24.674  16.246  1.00  0.00     0.293 HD
ENDBRANCH   8  26
TORSDOF 6
ENDMDL
MODEL 3
REMARK VINA RESULT:    -4.382      2.278      2.778
REMARK INTER + INTRA:          -5.540
REMARK INTER:                  -5.212
REMARK INTRA:                  -0.329
REMARK UNBOUND:                -0.261
REMARK SMILES O=c1c(O)c(-c2ccc(O)c(O)c2)oc2cc(O)cc(O)c12
REMARK SMILES IDX 5 1 3 2 2 3 1 4 22 5 20 6 19 7 17 8 16 9 15 10 14 11 6 12
REMARK SMILES IDX 7 13 8 14 9 15 13 16 11 17 10 18 12 20 4 22 21 24 18 26
REMARK H PARENT 10 19 12 21 4 23 21 25 18 27
REMARK Flexibility Score: inf
ROOT
ATOM      1  C   UNL     1      11.707  24.211  24.992  1.00  0.00     0.180 A 
ATOM      2  C   UNL     1      10.381  23.802  25.227  1.00  0.00     0.208 A 
ATOM      3  C   UNL     1      10.063  22.439  25.122  1.00  0.00     0.238 A 
ATOM      4  O   UNL     1       8.875  22.062  25.319  1.00  0.00    -0.285 OA
ATOM      5  C   UNL     1      11.073  21.510  24.806  1.00  0.00     0.111 A 
ATOM      6  C   UNL     1      10.837  20.118  24.685  1.00  0.00     0.134 A 
ATOM      7  C   UNL     1      11.900  19.256  24.376  1.00  0.00     0.093 A 
ATOM      8  C   UNL     1      13.191  19.755  24.187  1.00  0.00     0.123 A 
ATOM      9  C   UNL     1      13.430  21.128  24.305  1.00  0.00     0.094 A 
ATOM     10  C   UNL     1      12.384  22.004  24.610  1.00  0.00     0.146 A 
ATOM     11  O   UNL     1      12.638  23.304  24.711  1.00  0.00    -0.452 OA
ENDROOT
BRANCH   1  12
ATOM     12  C   UNL     1      12.117  25.632  25.065  1.00  0.00     0.025 A 
ATOM     13  C   UNL     1      12.714  26.118  26.239  1.00  0.00     0.016 A 
ATOM     14  C   UNL     1      13.128  27.451  26.324  1.00  0.00     0.051 A 
ATOM     15  C   UNL     1      12.965  28.311  25.230  1.00  0.00     0.157 A 
ATOM     16  C   UNL     1      11.974  26.494  23.963  1.00  0.00     0.062 A 
ATOM     17  C   UNL     1      12.390  27.830  24.046  1.00  0.00     0.158 A 
BRANCH  15  18
ATOM     18  O   UNL     1      13.374  29.640  25.311  1.00  0.00    -0.504 OA
ATOM     19  H   UNL     1      13.984  30.050  24.614  1.00  0.00     0.293 HD
ENDBRANCH  15  18
BRANCH  17  20
ATOM     20  O   UNL     1      12.243  28.684  22.955  1.00  0.00    -0.504 OA
ATOM     21  H   UNL     1      12.376  28.359  22.005  1.00  0.00     0.293 HD
ENDBRANCH  17  20
ENDBRANCH   1  12
BRANCH   2  22
ATOM     22  O   UNL     1       9.407  24.737  25.587  1.00  0.00    -0.502 OA
ATOM     23  H   UNL     1       8.570  24.888  25.036  1.00  0.00     0.293 HD
ENDBRANCH   2  22
BRANCH   6  24
ATOM     24  O   UNL     1       9.560  19.589  24.869  1.00  0.00    -0.507 OA
ATOM     25  H   UNL     1       9.131  18.980  24.181  1.00  0.00     0.293 HD
ENDBRANCH   6  24
BRANCH   8  26
ATOM     26  O   UNL     1      14.229  18.878  23.882  1.00  0.00    -0.508 OA
ATOM     27  H   UNL     1      14.932  19.109  23.191  1.00  0.00     0.293 HD
ENDBRANCH   8  26
TORSDOF 6
ENDMDL
MODEL 4
REMARK VINA RESULT:    -3.463      2.114      6.901
REMARK INTER + INTRA:          -4.433
REMARK INTER:                  -4.131
REMARK INTRA:                  -0.302
REMARK UNBOUND:                -0.261
REMARK SMILES O=c1c(O)c(-c2ccc(O)c(O)c2)oc2cc(O)cc(O)c12
REMARK SMILES IDX 5 1 3 2 2 3 1 4 22 5 20 6 19 7 17 8 16 9 15 10 14 11 6 12
REMARK SMILES IDX 7 13 8 14 9 15 13 16 11 17 10 18 12 20 4 22 21 24 18 26
REMARK H PARENT 10 19 12 21 4 23 21 25 18 27
REMARK Flexibility Score: inf
ROOT
ATOM      1  C   UNL     1      12.131  23.620  24.307  1.00  0.00     0.180 A 
ATOM      2  C   UNL     1      10.838  23.788  23.776  1.00  0.00     0.208 A 
ATOM      3  C   UNL     1      10.158  24.992  24.014  1.00  0.00     0.238 A 
ATOM      4  O   UNL     1       8.995  25.149  23.553  1.00  0.00    -0.285 OA
ATOM      5  C   UNL     1      10.785  26.011  24.758  1.00  0.00     0.111 A 
ATOM      6  C   UNL     1      10.170  27.256  25.039  1.00  0.00     0.134 A 
ATOM      7  C   UNL     1      10.865  28.224  25.780  1.00  0.00     0.093 A 
ATOM      8  C   UNL     1      12.160  27.974  26.243  1.00  0.00     0.123 A 
ATOM      9  C   UNL     1      12.771  26.747  25.968  1.00  0.00     0.094 A 
ATOM     10  C   UNL     1      12.095  25.768  25.234  1.00  0.00     0.146 A 
ATOM     11  O   UNL     1      12.698  24.610  24.991  1.00  0.00    -0.452 OA
ENDROOT
BRANCH   1  12
ATOM     12  C   UNL     1      12.905  22.372  24.114  1.00  0.00     0.025 A 
ATOM     13  C   UNL     1      13.955  22.348  23.183  1.00  0.00     0.016 A 
ATOM     14  C   UNL     1      14.712  21.188  22.999  1.00  0.00     0.051 A 
ATOM     15  C   UNL     1      14.441  20.041  23.757  1.00  0.00     0.157 A 
ATOM     16  C   UNL     1      12.650  21.225  24.887  1.00  0.00     0.062 A 
ATOM     17  C   UNL     1      13.410  20.061  24.706  1.00  0.00     0.158 A 
BRANCH  15  18
ATOM     18  O   UNL     1      15.192  18.882  23.576  1.00  0.00    -0.504 OA
ATOM     19  H   UNL     1      16.139  18.914  23.218  1.00  0.00     0.293 HD
ENDBRANCH  15  18
BRANCH  17  20
ATOM     20  O   UNL     1      13.152  18.924  25.468  1.00  0.00    -0.504 OA
ATOM     21  H   UNL     1      12.668  18.979  26.356  1.00  0.00     0.293 HD
ENDBRANCH  17  20
ENDBRANCH   1  12
BRANCH   2  22
ATOM     22  O   UNL     1      10.258  22.781  23.000  1.00  0.00    -0.502 OA
ATOM     23  H   UNL     1       9.535  22.169  23.359  1.00  0.00     0.293 HD
ENDBRANCH   2  22
BRANCH   6  24
ATOM     24  O   UNL     1       8.880  27.536  24.591  1.00  0.00    -0.507 OA
ATOM     25  H   UNL     1       8.631  27.477  23.610  1.00  0.00     0.293 HD
ENDBRANCH   6  24
BRANCH   8  26
ATOM     26  O   UNL     1      12.828  28.952  26.975  1.00  0.00    -0.508 OA
ATOM     27  H   UNL     1      13.808  28.858  27.213  1.00  0.00     0.293 HD
ENDBRANCH   8  26
TORSDOF 6
ENDMDL
