MODEL 1
REMARK VINA RESULT:    -7.885      0.000      0.000
REMARK INTER + INTRA:          -9.623
REMARK INTER:                  -9.499
REMARK INTRA:                  -0.124
REMARK UNBOUND:                -0.124
REMARK SMILES O=c1c(O)c(-c2ccc(O)c(O)c2)oc2cc(O)cc(O)c12
REMARK SMILES IDX 5 1 3 2 2 3 1 4 22 5 20 6 19 7 17 8 16 9 15 10 14 11 6 12
REMARK SMILES IDX 7 13 8 14 9 15 13 16 11 17 10 18 12 20 4 22 21 24 18 26
REMARK H PARENT 10 19 12 21 4 23 21 25 18 27
REMARK Flexibility Score: inf
ROOT
ATOM      1  C   UNL     1       9.254  -2.477   2.459  1.00  0.00     0.180 A 
ATOM      2  C   UNL     1       9.299  -3.880   2.335  1.00  0.00     0.208 A 
ATOM      3  C   UNL     1       9.527  -4.655   3.483  1.00  0.00     0.238 A 
ATOM      4  O   UNL     1       9.581  -5.910   3.382  1.00  0.00    -0.285 OA
ATOM      5  C   UNL     1       9.687  -4.021   4.732  1.00  0.00     0.111 A 
ATOM      6  C   UNL     1       9.916  -4.730   5.935  1.00  0.00     0.134 A 
ATOM      7  C   UNL     1      10.054  -4.025   7.141  1.00  0.00     0.093 A 
ATOM      8  C   UNL     1       9.968  -2.632   7.167  1.00  0.00     0.123 A 
ATOM      9  C   UNL     1       9.742  -1.926   5.980  1.00  0.00     0.094 A 
ATOM     10  C   UNL     1       9.602  -2.610   4.768  1.00  0.00     0.146 A 
ATOM     11  O   UNL     1       9.394  -1.915   3.656  1.00  0.00    -0.452 OA
ENDROOT
BRANCH   1  12
ATOM     12  C   UNL     1       9.037  -1.591   1.293  1.00  0.00     0.025 A 
ATOM     13  C   UNL     1       9.956  -1.609   0.233  1.00  0.00     0.016 A 
ATOM     14  C   UNL     1       9.761  -0.797  -0.887  1.00  0.00     0.051 A 
ATOM     15  C   UNL     1       8.637   0.035  -0.970  1.00  0.00     0.157 A 
ATOM     16  C   UNL     1       7.899  -0.769   1.197  1.00  0.00     0.062 A 
ATOM     17  C   UNL     1       7.700   0.045   0.076  1.00  0.00     0.158 A 
BRANCH  15  18
ATOM     18  O   UNL     1       8.446   0.848  -2.087  1.00  0.00    -0.504 OA
ATOM     19  H   UNL     1       7.528   0.985  -2.491  1.00  0.00     0.293 HD
ENDBRANCH  15  18
BRANCH  17  20
ATOM     20  O   UNL     1       6.564   0.851   0.018  1.00  0.00    -0.504 OA
ATOM     21  H   UNL     1       6.571   1.815   0.329  1.00  0.00     0.293 HD
ENDBRANCH  17  20
ENDBRANCH   1  12
BRANCH   2  22
ATOM     22  O   UNL     1       9.089  -4.486   1.094  1.00  0.00    -0.502 OA
ATOM     23  H   UNL     1       8.325  -5.129   0.926  1.00  0.00     0.293 HD
ENDBRANCH   2  22
BRANCH   6  24
ATOM     24  O   UNL     1      10.007  -6.122   5.944  1.00  0.00    -0.507 OA
ATOM     25  H   UNL     1       9.615  -6.678   6.695  1.00  0.00     0.293 HD
ENDBRANCH   6  24
BRANCH   8  26
ATOM     26  O   UNL     1      10.108  -1.957   8.377  1.00  0.00    -0.508 OA
ATOM     27  H   UNL     1       9.306  -1.596   8.879  1.00  0.00     0.293 HD
ENDBRANCH   8  26
TORSDOF 6
ENDMDL
MODEL 2
REMARK VINA RESULT:    -7.871      2.864      5.422
REMARK INTER + INTRA:          -9.605
REMARK INTER:                  -9.273
REMARK INTRA:                  -0.332
REMARK UNBOUND:                -0.124
REMARK SMILES O=c1c(O)c(-c2ccc(O)c(O)c2)oc2cc(O)cc(O)c12
REMARK SMILES IDX 5 1 3 2 2 3 1 4 22 5 20 6 19 7 17 8 16 9 15 10 14 11 6 12
REMARK SMILES IDX 7 13 8 14 9 15 13 16 11 17 10 18 12 20 4 22 21 24 18 26
REMARK H PARENT 10 19 12 21 4 23 21 25 18 27
REMARK Flexibility Score: inf
ROOT
ATOM      1  C   UNL     1       8.765  -0.922  -1.704  1.00  0.00     0.180 A 
ATOM      2  C   UNL     1       8.437   0.226  -0.957  1.00  0.00     0.208 A 
ATOM      3  C   UNL     1       8.491   0.163   0.445  1.00  0.00     0.238 A 
ATOM      4  O   UNL     1       8.189   1.181   1.123  1.00  0.00    -0.285 OA
ATOM      5  C   UNL     1       8.888  -1.036   1.072  1.00  0.00     0.111 A 
ATOM      6  C   UNL     1       8.972  -1.181   2.478  1.00  0.00     0.134 A 
ATOM      7  C   UNL     1       9.386  -2.405   3.026  1.00  0.00     0.093 A 
ATOM      8  C   UNL     1       9.717  -3.481   2.200  1.00  0.00     0.123 A 
ATOM      9  C   UNL     1       9.635  -3.343   0.811  1.00  0.00     0.094 A 
ATOM     10  C   UNL     1       9.223  -2.132   0.245  1.00  0.00     0.146 A 
ATOM     11  O   UNL     1       9.149  -2.030  -1.077  1.00  0.00    -0.452 OA
ENDROOT
BRANCH   1  12
ATOM     12  C   UNL     1       8.713  -0.939  -3.183  1.00  0.00     0.025 A 
ATOM     13  C   UNL     1       9.871  -0.641  -3.917  1.00  0.00     0.016 A 
ATOM     14  C   UNL     1       9.851  -0.671  -5.314  1.00  0.00     0.051 A 
ATOM     15  C   UNL     1       8.678  -1.015  -5.997  1.00  0.00     0.157 A 
ATOM     16  C   UNL     1       7.542  -1.304  -3.872  1.00  0.00     0.062 A 
ATOM     17  C   UNL     1       7.519  -1.337  -5.271  1.00  0.00     0.158 A 
BRANCH  15  18
ATOM     18  O   UNL     1       8.659  -1.042  -7.391  1.00  0.00    -0.504 OA
ATOM     19  H   UNL     1       8.054  -0.429  -7.925  1.00  0.00     0.293 HD
ENDBRANCH  15  18
BRANCH  17  20
ATOM     20  O   UNL     1       6.339  -1.697  -5.921  1.00  0.00    -0.504 OA
ATOM     21  H   UNL     1       6.340  -2.209  -6.795  1.00  0.00     0.293 HD
ENDBRANCH  17  20
ENDBRANCH   1  12
BRANCH   2  22
ATOM     22  O   UNL     1       8.094   1.416  -1.605  1.00  0.00    -0.502 OA
ATOM     23  H   UNL     1       8.700   1.857  -2.286  1.00  0.00     0.293 HD
ENDBRANCH   2  22
BRANCH   6  24
ATOM     24  O   UNL     1       8.650  -0.126   3.331  1.00  0.00    -0.507 OA
ATOM     25  H   UNL     1       8.262  -0.284   4.254  1.00  0.00     0.293 HD
ENDBRANCH   6  24
BRANCH   8  26
ATOM     26  O   UNL     1      10.124  -4.685   2.770  1.00  0.00    -0.508 OA
ATOM     27  H   UNL     1      10.717  -4.708   3.592  1.00  0.00     0.293 HD
ENDBRANCH   8  26
TORSDOF 6
ENDMDL
MODEL 3
REMARK VINA RESULT:    -7.785      2.465      4.204
REMARK INTER + INTRA:          -9.502
REMARK INTER:                  -9.223
REMARK INTRA:                  -0.280
REMARK UNBOUND:                -0.124
REMARK SMILES O=c1c(O)c(-c2ccc(O)c(O)c2)oc2cc(O)cc(O)c12
REMARK SMILES IDX 5 1 3 2 2 3 1 4 22 5 20 6 19 7 17 8 16 9 15 10 14 11 6 12
REMARK SMILES IDX 7 13 8 14 9 15 13 16 11 17 10 18 12 20 4 22 21 24 18 26
REMARK H PARENT 10 19 12 21 4 23 21 25 18 27
REMARK Flexibility Score: inf
ROOT
ATOM      1  C   UNL     1       8.147  -2.042  -0.186  1.00  0.00     0.180 A 
ATOM      2  C   UNL     1       8.224  -0.902   0.638  1.00  0.00     0.208 A 
ATOM      3  C   UNL     1       8.663  -1.052   1.963  1.00  0.00     0.238 A 
ATOM      4  O   UNL     1       8.727  -0.040   2.712  1.00  0.00    -0.285 OA
ATOM      5  C   UNL     1       9.033  -2.328   2.434  1.00  0.00     0.111 A 
ATOM      6  C   UNL     1       9.489  -2.563   3.753  1.00  0.00     0.134 A 
ATOM      7  C   UNL     1       9.849  -3.862   4.144  1.00  0.00     0.093 A 
ATOM      8  C   UNL     1       9.762  -4.926   3.244  1.00  0.00     0.123 A 
ATOM      9  C   UNL     1       9.311  -4.700   1.939  1.00  0.00     0.094 A 
ATOM     10  C   UNL     1       8.947  -3.413   1.531  1.00  0.00     0.146 A 
ATOM     11  O   UNL     1       8.518  -3.227   0.288  1.00  0.00    -0.452 OA
ENDROOT
BRANCH   1  12
ATOM     12  C   UNL     1       7.675  -1.968  -1.588  1.00  0.00     0.025 A 
ATOM     13  C   UNL     1       8.597  -2.118  -2.635  1.00  0.00     0.016 A 
ATOM     14  C   UNL     1       8.172  -2.074  -3.965  1.00  0.00     0.051 A 
ATOM     15  C   UNL     1       6.816  -1.893  -4.268  1.00  0.00     0.157 A 
ATOM     16  C   UNL     1       6.311  -1.807  -1.896  1.00  0.00     0.062 A 
ATOM     17  C   UNL     1       5.882  -1.764  -3.227  1.00  0.00     0.158 A 
BRANCH  15  18
ATOM     18  O   UNL     1       6.394  -1.846  -5.596  1.00  0.00    -0.504 OA
ATOM     19  H   UNL     1       5.442  -1.602  -5.841  1.00  0.00     0.293 HD
ENDBRANCH  15  18
BRANCH  17  20
ATOM     20  O   UNL     1       4.523  -1.597  -3.495  1.00  0.00    -0.504 OA
ATOM     21  H   UNL     1       3.871  -1.274  -2.790  1.00  0.00     0.293 HD
ENDBRANCH  17  20
ENDBRANCH   1  12
BRANCH   2  22
ATOM     22  O   UNL     1       7.899   0.359   0.131  1.00  0.00    -0.502 OA
ATOM     23  H   UNL     1       8.532   1.147   0.189  1.00  0.00     0.293 HD
ENDBRANCH   2  22
BRANCH   6  24
ATOM     24  O   UNL     1       9.588  -1.521   4.676  1.00  0.00    -0.507 OA
ATOM     25  H   UNL     1      10.463  -1.298   5.138  1.00  0.00     0.293 HD
ENDBRANCH   6  24
BRANCH   8  26
ATOM     26  O   UNL     1      10.125  -6.206   3.657  1.00  0.00    -0.508 OA
ATOM     27  H   UNL     1       9.453  -6.963   3.689  1.00  0.00     0.293 HD
ENDBRANCH   8  26
TORSDOF 6
ENDMDL
MODEL 4
REMARK VINA RESULT:    -7.634      1.628      7.462
REMARK INTER + INTRA:          -9.321
REMARK INTER:                  -9.705
REMARK INTRA:                   0.384
REMARK UNBOUND:                -0.124
REMARK SMILES O=c1c(O)c(-c2ccc(O)c(O)c2)oc2cc(O)cc(O)c12
REMARK SMILES IDX 5 1 3 2 2 3 1 4 22 5 20 6 19 7 17 8 16 9 15 10 14 11 6 12
REMARK SMILES IDX 7 13 8 14 9 15 13 16 11 17 10 18 12 20 4 22 21 24 18 26
REMARK H PARENT 10 19 12 21 4 23 21 25 18 27
REMARK Flexibility Score: inf
ROOT
ATOM      1  C   UNL     1       8.739  -1.983   1.758  1.00  0.00     0.180 A 
ATOM      2  C   UNL     1       8.590  -0.605   2.007  1.00  0.00     0.208 A 
ATOM      3  C   UNL     1       8.374   0.261   0.923  1.00  0.00     0.238 A 
ATOM      4  O   UNL     1       8.250   1.497   1.132  1.00  0.00    -0.285 OA
ATOM      5  C   UNL     1       8.291  -0.265  -0.383  1.00  0.00     0.111 A 
ATOM      6  C   UNL     1       8.072   0.538  -1.528  1.00  0.00     0.134 A 
ATOM      7  C   UNL     1       7.992  -0.063  -2.794  1.00  0.00     0.093 A 
ATOM      8  C   UNL     1       8.127  -1.446  -2.936  1.00  0.00     0.123 A 
ATOM      9  C   UNL     1       8.345  -2.244  -1.808  1.00  0.00     0.094 A 
ATOM     10  C   UNL     1       8.428  -1.664  -0.538  1.00  0.00     0.146 A 
ATOM     11  O   UNL     1       8.641  -2.444   0.515  1.00  0.00    -0.452 OA
ENDROOT
BRANCH   1  12
ATOM     12  C   UNL     1       8.989  -2.956   2.846  1.00  0.00     0.025 A 
ATOM     13  C   UNL     1       8.831  -4.328   2.594  1.00  0.00     0.016 A 
ATOM     14  C   UNL     1       9.082  -5.265   3.599  1.00  0.00     0.051 A 
ATOM     15  C   UNL     1       9.507  -4.847   4.866  1.00  0.00     0.157 A 
ATOM     16  C   UNL     1       9.436  -2.541   4.113  1.00  0.00     0.062 A 
ATOM     17  C   UNL     1       9.689  -3.478   5.122  1.00  0.00     0.158 A 
BRANCH  15  18
ATOM     18  O   UNL     1       9.754  -5.784   5.868  1.00  0.00    -0.504 OA
ATOM     19  H   UNL     1       9.439  -6.743   5.786  1.00  0.00     0.293 HD
ENDBRANCH  15  18
BRANCH  17  20
ATOM     20  O   UNL     1      10.125  -3.029   6.368  1.00  0.00    -0.504 OA
ATOM     21  H   UNL     1      10.417  -2.072   6.525  1.00  0.00     0.293 HD
ENDBRANCH  17  20
ENDBRANCH   1  12
BRANCH   2  22
ATOM     22  O   UNL     1       8.626  -0.115   3.315  1.00  0.00    -0.502 OA
ATOM     23  H   UNL     1       9.378  -0.336   3.957  1.00  0.00     0.293 HD
ENDBRANCH   2  22
BRANCH   6  24
ATOM     24  O   UNL     1       7.932   1.922  -1.420  1.00  0.00    -0.507 OA
ATOM     25  H   UNL     1       8.617   2.491  -0.935  1.00  0.00     0.293 HD
ENDBRANCH   6  24
BRANCH   8  26
ATOM     26  O   UNL     1       8.044  -2.017  -4.204  1.00  0.00    -0.508 OA
ATOM     27  H   UNL     1       8.871  -2.327  -4.701  1.00  0.00     0.293 HD
ENDBRANCH   8  26
TORSDOF 6
ENDMDL
MODEL 5
REMARK VINA RESULT:    -7.366      1.543      6.884
REMARK INTER + INTRA:          -8.997
REMARK INTER:                  -9.331
REMARK INTRA:                   0.334
REMARK UNBOUND:                -0.124
REMARK SMILES O=c1c(O)c(-c2ccc(O)c(O)c2)oc2cc(O)cc(O)c12
REMARK SMILES IDX 5 1 3 2 2 3 1 4 22 5 20 6 19 7 17 8 16 9 15 10 14 11 6 12
REMARK SMILES IDX 7 13 8 14 9 15 13 16 11 17 10 18 12 20 4 22 21 24 18 26
REMARK H PARENT 10 19 12 21 4 23 21 25 18 27
REMARK Flexibility Score: inf
ROOT
ATOM      1  C   UNL     1       9.005  -2.030   1.965  1.00  0.00     0.180 A 
ATOM      2  C   UNL     1       9.113  -2.736   0.751  1.00  0.00     0.208 A 
ATOM      3  C   UNL     1       8.908  -2.048  -0.455  1.00  0.00     0.238 A 
ATOM      4  O   UNL     1       8.992  -2.672  -1.547  1.00  0.00    -0.285 OA
ATOM      5  C   UNL     1       8.618  -0.669  -0.429  1.00  0.00     0.111 A 
ATOM      6  C   UNL     1       8.402   0.098  -1.599  1.00  0.00     0.134 A 
ATOM      7  C   UNL     1       8.128   1.470  -1.491  1.00  0.00     0.093 A 
ATOM      8  C   UNL     1       8.066   2.088  -0.240  1.00  0.00     0.123 A 
ATOM      9  C   UNL     1       8.279   1.335   0.920  1.00  0.00     0.094 A 
ATOM     10  C   UNL     1       8.552  -0.034   0.832  1.00  0.00     0.146 A 
ATOM     11  O   UNL     1       8.745  -0.726   1.949  1.00  0.00    -0.452 OA
ENDROOT
BRANCH   1  12
ATOM     12  C   UNL     1       9.188  -2.689   3.278  1.00  0.00     0.025 A 
ATOM     13  C   UNL     1       9.476  -1.907   4.408  1.00  0.00     0.016 A 
ATOM     14  C   UNL     1       9.632  -2.505   5.661  1.00  0.00     0.051 A 
ATOM     15  C   UNL     1       9.489  -3.891   5.806  1.00  0.00     0.157 A 
ATOM     16  C   UNL     1       9.026  -4.078   3.431  1.00  0.00     0.062 A 
ATOM     17  C   UNL     1       9.180  -4.680   4.685  1.00  0.00     0.158 A 
BRANCH  15  18
ATOM     18  O   UNL     1       9.649  -4.486   7.056  1.00  0.00    -0.504 OA
ATOM     19  H   UNL     1      10.542  -4.859   7.356  1.00  0.00     0.293 HD
ENDBRANCH  15  18
BRANCH  17  20
ATOM     20  O   UNL     1       9.018  -6.060   4.798  1.00  0.00    -0.504 OA
ATOM     21  H   UNL     1       9.798  -6.702   4.727  1.00  0.00     0.293 HD
ENDBRANCH  17  20
ENDBRANCH   1  12
BRANCH   2  22
ATOM     22  O   UNL     1       9.451  -4.092   0.751  1.00  0.00    -0.502 OA
ATOM     23  H   UNL     1       9.062  -4.749   0.085  1.00  0.00     0.293 HD
ENDBRANCH   2  22
BRANCH   6  24
ATOM     24  O   UNL     1       8.456  -0.489  -2.864  1.00  0.00    -0.507 OA
ATOM     25  H   UNL     1       7.675  -0.442  -3.509  1.00  0.00     0.293 HD
ENDBRANCH   6  24
BRANCH   8  26
ATOM     26  O   UNL     1       7.793   3.451  -0.160  1.00  0.00    -0.508 OA
ATOM     27  H   UNL     1       7.290   3.935  -0.895  1.00  0.00     0.293 HD
ENDBRANCH   8  26
TORSDOF 6
ENDMDL
MODEL 6
REMARK VINA RESULT:    -7.277      3.870      6.191
REMARK INTER + INTRA:          -8.890
REMARK INTER:                  -8.577
REMARK INTRA:                  -0.313
REMARK UNBOUND:                -0.124
REMARK SMILES O=c1c(O)c(-c2ccc(O)c(O)c2)oc2cc(O)cc(O)c12
REMARK SMILES IDX 5 1 3 2 2 3 1 4 22 5 20 6 19 7 17 8 16 9 15 10 14 11 6 12
REMARK SMILES IDX 7 13 8 14 9 15 13 16 11 17 10 18 12 20 4 22 21 24 18 26
REMARK H PARENT 10 19 12 21 4 23 21 25 18 27
REMARK Flexibility Score: inf
ROOT
ATOM      1  C   UNL     1       7.269  -1.628  -2.217  1.00  0.00     0.180 A 
ATOM      2  C   UNL     1       7.797  -0.325  -2.123  1.00  0.00     0.208 A 
ATOM      3  C   UNL     1       8.342   0.100  -0.901  1.00  0.00     0.238 A 
ATOM      4  O   UNL     1       8.807   1.267  -0.803  1.00  0.00    -0.285 OA
ATOM      5  C   UNL     1       8.368  -0.785   0.195  1.00  0.00     0.111 A 
ATOM      6  C   UNL     1       8.902  -0.436   1.459  1.00  0.00     0.134 A 
ATOM      7  C   UNL     1       8.900  -1.378   2.499  1.00  0.00     0.093 A 
ATOM      8  C   UNL     1       8.377  -2.658   2.301  1.00  0.00     0.123 A 
ATOM      9  C   UNL     1       7.847  -3.008   1.055  1.00  0.00     0.094 A 
ATOM     10  C   UNL     1       7.839  -2.083   0.006  1.00  0.00     0.146 A 
ATOM     11  O   UNL     1       7.324  -2.440  -1.165  1.00  0.00    -0.452 OA
ENDROOT
BRANCH   1  12
ATOM     12  C   UNL     1       6.660  -2.142  -3.464  1.00  0.00     0.025 A 
ATOM     13  C   UNL     1       7.482  -2.708  -4.451  1.00  0.00     0.016 A 
ATOM     14  C   UNL     1       6.928  -3.219  -5.627  1.00  0.00     0.051 A 
ATOM     15  C   UNL     1       5.542  -3.185  -5.828  1.00  0.00     0.157 A 
ATOM     16  C   UNL     1       5.267  -2.129  -3.660  1.00  0.00     0.062 A 
ATOM     17  C   UNL     1       4.708  -2.641  -4.837  1.00  0.00     0.158 A 
BRANCH  15  18
ATOM     18  O   UNL     1       4.991  -3.693  -7.004  1.00  0.00    -0.504 OA
ATOM     19  H   UNL     1       5.358  -3.440  -7.913  1.00  0.00     0.293 HD
ENDBRANCH  15  18
BRANCH  17  20
ATOM     20  O   UNL     1       3.324  -2.606  -5.000  1.00  0.00    -0.504 OA
ATOM     21  H   UNL     1       2.696  -3.114  -4.388  1.00  0.00     0.293 HD
ENDBRANCH  17  20
ENDBRANCH   1  12
BRANCH   2  22
ATOM     22  O   UNL     1       7.804   0.515  -3.239  1.00  0.00    -0.502 OA
ATOM     23  H   UNL     1       8.168   0.222  -4.138  1.00  0.00     0.293 HD
ENDBRANCH   2  22
BRANCH   6  24
ATOM     24  O   UNL     1       9.433   0.833   1.689  1.00  0.00    -0.507 OA
ATOM     25  H   UNL     1      10.413   1.039   1.531  1.00  0.00     0.293 HD
ENDBRANCH   6  24
BRANCH   8  26
ATOM     26  O   UNL     1       8.387  -3.574   3.350  1.00  0.00    -0.508 OA
ATOM     27  H   UNL     1       8.991  -3.452   4.154  1.00  0.00     0.293 HD
ENDBRANCH   8  26
TORSDOF 6
ENDMDL
MODEL 7
REMARK VINA RESULT:    -7.144      5.132      9.317
REMARK INTER + INTRA:          -8.730
REMARK INTER:                  -8.480
REMARK INTRA:                  -0.249
REMARK UNBOUND:                -0.124
REMARK SMILES O=c1c(O)c(-c2ccc(O)c(O)c2)oc2cc(O)cc(O)c12
REMARK SMILES IDX 5 1 3 2 2 3 1 4 22 5 20 6 19 7 17 8 16 9 15 10 14 11 6 12
REMARK SMILES IDX 7 13 8 14 9 15 13 16 11 17 10 18 12 20 4 22 21 24 18 26
REMARK H PARENT 10 19 12 21 4 23 21 25 18 27
REMARK Flexibility Score: inf
ROOT
ATOM      1  C   UNL     1       6.926  -1.943  -3.316  1.00  0.00     0.180 A 
ATOM      2  C   UNL     1       5.595  -2.057  -3.763  1.00  0.00     0.208 A 
ATOM      3  C   UNL     1       5.335  -2.766  -4.947  1.00  0.00     0.238 A 
ATOM      4  O   UNL     1       4.149  -2.865  -5.362  1.00  0.00    -0.285 OA
ATOM      5  C   UNL     1       6.401  -3.362  -5.650  1.00  0.00     0.111 A 
ATOM      6  C   UNL     1       6.224  -4.096  -6.847  1.00  0.00     0.134 A 
ATOM      7  C   UNL     1       7.336  -4.669  -7.483  1.00  0.00     0.093 A 
ATOM      8  C   UNL     1       8.617  -4.523  -6.947  1.00  0.00     0.123 A 
ATOM      9  C   UNL     1       8.799  -3.798  -5.765  1.00  0.00     0.094 A 
ATOM     10  C   UNL     1       7.703  -3.219  -5.116  1.00  0.00     0.146 A 
ATOM     11  O   UNL     1       7.904  -2.532  -3.998  1.00  0.00    -0.452 OA
ENDROOT
BRANCH   1  12
ATOM     12  C   UNL     1       7.282  -1.196  -2.089  1.00  0.00     0.025 A 
ATOM     13  C   UNL     1       7.865   0.076  -2.201  1.00  0.00     0.016 A 
ATOM     14  C   UNL     1       8.191   0.808  -1.057  1.00  0.00     0.051 A 
ATOM     15  C   UNL     1       7.926   0.287   0.216  1.00  0.00     0.157 A 
ATOM     16  C   UNL     1       6.999  -1.708  -0.810  1.00  0.00     0.062 A 
ATOM     17  C   UNL     1       7.322  -0.976   0.339  1.00  0.00     0.158 A 
BRANCH  15  18
ATOM     18  O   UNL     1       8.254   1.018   1.357  1.00  0.00    -0.504 OA
ATOM     19  H   UNL     1       7.653   1.026   2.172  1.00  0.00     0.293 HD
ENDBRANCH  15  18
BRANCH  17  20
ATOM     20  O   UNL     1       7.033  -1.517   1.591  1.00  0.00    -0.504 OA
ATOM     21  H   UNL     1       7.754  -1.704   2.277  1.00  0.00     0.293 HD
ENDBRANCH  17  20
ENDBRANCH   1  12
BRANCH   2  22
ATOM     22  O   UNL     1       4.551  -1.498  -3.021  1.00  0.00    -0.502 OA
ATOM     23  H   UNL     1       4.197  -1.927  -2.174  1.00  0.00     0.293 HD
ENDBRANCH   2  22
BRANCH   6  24
ATOM     24  O   UNL     1       4.957  -4.261  -7.409  1.00  0.00    -0.507 OA
ATOM     25  H   UNL     1       4.487  -3.507  -7.896  1.00  0.00     0.293 HD
ENDBRANCH   6  24
BRANCH   8  26
ATOM     26  O   UNL     1       9.704  -5.101  -7.598  1.00  0.00    -0.508 OA
ATOM     27  H   UNL     1      10.643  -4.739  -7.486  1.00  0.00     0.293 HD
ENDBRANCH   8  26
TORSDOF 6
ENDMDL
MODEL 8
REMARK VINA RESULT:    -6.977      2.263      7.978
REMARK INTER + INTRA:          -8.529
REMARK INTER:                  -8.486
REMARK INTRA:                  -0.043
REMARK UNBOUND:                -0.124
REMARK SMILES O=c1c(O)c(-c2ccc(O)c(O)c2)oc2cc(O)cc(O)c12
REMARK SMILES IDX 5 1 3 2 2 3 1 4 22 5 20 6 19 7 17 8 16 9 15 10 14 11 6 12
REMARK SMILES IDX 7 13 8 14 9 15 13 16 11 17 10 18 12 20 4 22 21 24 18 26
REMARK H PARENT 10 19 12 21 4 23 21 25 18 27
REMARK Flexibility Score: inf
ROOT
ATOM      1  C   UNL     1       8.653  -1.578   0.147  1.00  0.00     0.180 A 
ATOM      2  C   UNL     1       8.409  -0.191   0.114  1.00  0.00     0.208 A 
ATOM      3  C   UNL     1       8.465   0.478  -1.119  1.00  0.00     0.238 A 
ATOM      4  O   UNL     1       8.258   1.721  -1.159  1.00  0.00    -0.285 OA
ATOM      5  C   UNL     1       8.743  -0.249  -2.294  1.00  0.00     0.111 A 
ATOM      6  C   UNL     1       8.813   0.349  -3.575  1.00  0.00     0.134 A 
ATOM      7  C   UNL     1       9.086  -0.446  -4.700  1.00  0.00     0.093 A 
ATOM      8  C   UNL     1       9.289  -1.821  -4.568  1.00  0.00     0.123 A 
ATOM      9  C   UNL     1       9.221  -2.417  -3.305  1.00  0.00     0.094 A 
ATOM     10  C   UNL     1       8.952  -1.642  -2.172  1.00  0.00     0.146 A 
ATOM     11  O   UNL     1       8.898  -2.233  -0.983  1.00  0.00    -0.452 OA
ENDROOT
BRANCH   1  12
ATOM     12  C   UNL     1       8.632  -2.350   1.410  1.00  0.00     0.025 A 
ATOM     13  C   UNL     1       7.890  -3.539   1.479  1.00  0.00     0.016 A 
ATOM     14  C   UNL     1       7.872  -4.296   2.654  1.00  0.00     0.051 A 
ATOM     15  C   UNL     1       8.608  -3.882   3.772  1.00  0.00     0.157 A 
ATOM     16  C   UNL     1       9.386  -1.949   2.528  1.00  0.00     0.062 A 
ATOM     17  C   UNL     1       9.371  -2.705   3.707  1.00  0.00     0.158 A 
BRANCH  15  18
ATOM     18  O   UNL     1       8.586  -4.637   4.944  1.00  0.00    -0.504 OA
ATOM     19  H   UNL     1       8.073  -5.509   5.004  1.00  0.00     0.293 HD
ENDBRANCH  15  18
BRANCH  17  20
ATOM     20  O   UNL     1      10.125  -2.273   4.797  1.00  0.00    -0.504 OA
ATOM     21  H   UNL     1      11.119  -2.451   4.869  1.00  0.00     0.293 HD
ENDBRANCH  17  20
ENDBRANCH   1  12
BRANCH   2  22
ATOM     22  O   UNL     1       8.086   0.497   1.286  1.00  0.00    -0.502 OA
ATOM     23  H   UNL     1       7.289   0.249   1.859  1.00  0.00     0.293 HD
ENDBRANCH   2  22
BRANCH   6  24
ATOM     24  O   UNL     1       8.615   1.720  -3.741  1.00  0.00    -0.507 OA
ATOM     25  H   UNL     1       7.988   2.245  -3.142  1.00  0.00     0.293 HD
ENDBRANCH   6  24
BRANCH   8  26
ATOM     26  O   UNL     1       9.558  -2.587  -5.700  1.00  0.00    -0.508 OA
ATOM     27  H   UNL     1      10.505  -2.832  -5.961  1.00  0.00     0.293 HD
ENDBRANCH   8  26
TORSDOF 6
ENDMDL
MODEL 9
REMARK VINA RESULT:    -6.897      3.826      8.385
REMARK INTER + INTRA:          -8.433
REMARK INTER:                  -8.107
REMARK INTRA:                  -0.326
REMARK UNBOUND:                -0.124
REMARK SMILES O=c1c(O)c(-c2ccc(O)c(O)c2)oc2cc(O)cc(O)c12
REMARK SMILES IDX 5 1 3 2 2 3 1 4 22 5 20 6 19 7 17 8 16 9 15 10 14 11 6 12
REMARK SMILES IDX 7 13 8 14 9 15 13 16 11 17 10 18 12 20 4 22 21 24 18 26
REMARK H PARENT 10 19 12 21 4 23 21 25 18 27
REMARK Flexibility Score: inf
ROOT
ATOM      1  C   UNL     1       7.621  -2.048  -1.422  1.00  0.00     0.180 A 
ATOM      2  C   UNL     1       6.284  -1.848  -1.814  1.00  0.00     0.208 A 
ATOM      3  C   UNL     1       5.939  -2.025  -3.164  1.00  0.00     0.238 A 
ATOM      4  O   UNL     1       4.747  -1.838  -3.528  1.00  0.00    -0.285 OA
ATOM      5  C   UNL     1       6.927  -2.415  -4.090  1.00  0.00     0.111 A 
ATOM      6  C   UNL     1       6.661  -2.618  -5.465  1.00  0.00     0.134 A 
ATOM      7  C   UNL     1       7.698  -3.017  -6.322  1.00  0.00     0.093 A 
ATOM      8  C   UNL     1       8.991  -3.217  -5.833  1.00  0.00     0.123 A 
ATOM      9  C   UNL     1       9.259  -3.017  -4.475  1.00  0.00     0.094 A 
ATOM     10  C   UNL     1       8.240  -2.618  -3.605  1.00  0.00     0.146 A 
ATOM     11  O   UNL     1       8.523  -2.431  -2.321  1.00  0.00    -0.452 OA
ENDROOT
BRANCH   1  12
ATOM     12  C   UNL     1       8.067  -1.862  -0.022  1.00  0.00     0.025 A 
ATOM     13  C   UNL     1       8.011  -2.945   0.869  1.00  0.00     0.016 A 
ATOM     14  C   UNL     1       8.446  -2.798   2.189  1.00  0.00     0.051 A 
ATOM     15  C   UNL     1       8.956  -1.572   2.633  1.00  0.00     0.157 A 
ATOM     16  C   UNL     1       8.600  -0.638   0.421  1.00  0.00     0.062 A 
ATOM     17  C   UNL     1       9.038  -0.488   1.743  1.00  0.00     0.158 A 
BRANCH  15  18
ATOM     18  O   UNL     1       9.387  -1.427   3.951  1.00  0.00    -0.504 OA
ATOM     19  H   UNL     1       9.381  -2.206   4.599  1.00  0.00     0.293 HD
ENDBRANCH  15  18
BRANCH  17  20
ATOM     20  O   UNL     1       9.554   0.741   2.149  1.00  0.00    -0.504 OA
ATOM     21  H   UNL     1       8.963   1.481   2.511  1.00  0.00     0.293 HD
ENDBRANCH  17  20
ENDBRANCH   1  12
BRANCH   2  22
ATOM     22  O   UNL     1       5.313  -1.509  -0.868  1.00  0.00    -0.502 OA
ATOM     23  H   UNL     1       4.321  -1.577  -1.059  1.00  0.00     0.293 HD
ENDBRANCH   2  22
BRANCH   6  24
ATOM     24  O   UNL     1       5.381  -2.428  -5.986  1.00  0.00    -0.507 OA
ATOM     25  H   UNL     1       4.631  -2.033  -5.429  1.00  0.00     0.293 HD
ENDBRANCH   6  24
BRANCH   8  26
ATOM     26  O   UNL     1      10.002  -3.612  -6.705  1.00  0.00    -0.508 OA
ATOM     27  H   UNL     1      10.498  -2.942  -7.280  1.00  0.00     0.293 HD
ENDBRANCH   8  26
TORSDOF 6
ENDMDL
