MODEL 1
REMARK VINA RESULT:     0.939      0.000      0.000
REMARK INTER + INTRA:           1.557
REMARK INTER:                   1.022
REMARK INTRA:                   0.535
REMARK UNBOUND:                 0.535
REMARK SMILES C[C@@H]1[C@H](C)CC[C@]2(C(=O)[O-])CC[C@]3(C)C(=CC[C@H]4[C@@]5(C)CC[C@@H](O)C(C)(C)[C@H]5CC[C@@]43C)[C@@H]12
REMARK SMILES IDX 7 1 6 2 11 3 33 4 5 5 12 6 15 7 2 8 3 9 13 10 16 11 1 12
REMARK SMILES IDX 4 13 14 14 31 15 17 16 18 17 30 18 32 19 19 20 29 21 28 22
REMARK SMILES IDX 21 23 20 24 25 25 22 26 23 27 26 28 27 29 8 30 9 31 10 32
REMARK SMILES IDX 24 33
REMARK H PARENT 24 34
REMARK Flexibility Score: inf
ROOT
ATOM      1  C   UNL     1      -4.812  -2.901   9.923  1.00  0.00     0.017 C 
ATOM      2  C   UNL     1      -4.630  -2.242   8.532  1.00  0.00     0.014 C 
ATOM      3  C   UNL     1      -6.338  -2.987  10.230  1.00  0.00     0.014 C 
ATOM      4  C   UNL     1      -4.157  -2.002  11.028  1.00  0.00     0.030 C 
ATOM      5  C   UNL     1      -3.161  -1.908   8.231  1.00  0.00     0.004 C 
ATOM      6  C   UNL     1      -6.656  -3.498  11.660  1.00  0.00     0.013 C 
ATOM      7  C   UNL     1      -4.423  -2.647  12.398  1.00  0.00    -0.063 C 
ATOM      8  C   UNL     1      -2.686  -1.561  10.712  1.00  0.00    -0.003 C 
ATOM      9  C   UNL     1      -2.558  -0.956   9.280  1.00  0.00    -0.011 C 
ATOM     10  C   UNL     1      -5.914  -2.730  12.817  1.00  0.00    -0.006 C 
ATOM     11  C   UNL     1      -3.454  -3.388  13.010  1.00  0.00    -0.027 C 
ATOM     12  C   UNL     1      -2.146  -0.584  11.778  1.00  0.00     0.008 C 
ATOM     13  C   UNL     1      -3.133   0.470   9.137  1.00  0.00     0.008 C 
ATOM     14  C   UNL     1      -6.508  -1.280  12.888  1.00  0.00     0.017 C 
ATOM     15  C   UNL     1      -6.066  -3.443  14.258  1.00  0.00    -0.020 C 
ATOM     16  C   UNL     1      -3.677  -4.301  14.190  1.00  0.00     0.032 C 
ATOM     17  C   UNL     1      -5.156  -4.726  14.284  1.00  0.00     0.006 C 
ATOM     18  C   UNL     1      -7.545  -3.846  14.583  1.00  0.00     0.008 C 
ATOM     19  C   UNL     1      -5.597  -2.413  15.347  1.00  0.00     0.012 C 
ATOM     20  C   UNL     1      -5.523  -5.887  15.323  1.00  0.00    -0.025 C 
ATOM     21  C   UNL     1      -7.874  -5.315  14.299  1.00  0.00     0.005 C 
ATOM     22  C   UNL     1      -7.039  -6.344  15.131  1.00  0.00     0.003 C 
ATOM     23  C   UNL     1      -5.205  -5.521  16.816  1.00  0.00     0.010 C 
ATOM     24  C   UNL     1      -4.606  -7.103  14.959  1.00  0.00     0.012 C 
ATOM     25  C   UNL     1      -7.752  -6.894  16.444  1.00  0.00    -0.006 C 
ATOM     26  C   UNL     1      -6.383  -5.037  17.686  1.00  0.00     0.033 C 
ATOM     27  C   UNL     1      -7.689  -5.863  17.617  1.00  0.00     0.120 C 
ATOM     28  C   UNL     1      -7.087  -8.223  16.912  1.00  0.00     0.014 C 
ATOM     29  C   UNL     1      -9.232  -7.302  16.158  1.00  0.00     0.014 C 
ENDROOT
BRANCH   1  30
ATOM     30  C   UNL     1      -4.241  -4.318   9.859  1.00  0.00     0.048 C 
ATOM     31  O   UNL     1      -3.157  -4.618  10.424  1.00  0.00    -0.550 OA
ATOM     32  O   UNL     1      -4.875  -5.286   9.086  1.00  0.00    -0.550 OA
ENDBRANCH   1  30
BRANCH  27  33
ATOM     33  O   UNL     1      -8.770  -4.961  17.556  1.00  0.00    -0.393 OA
ATOM     34  H   UNL     1      -9.266  -5.138  16.714  1.00  0.00     0.210 HD
ENDBRANCH  27  33
TORSDOF 2
ENDMDL
MODEL 2
REMARK VINA RESULT:     1.047      2.266      3.514
REMARK INTER + INTRA:           1.673
REMARK INTER:                   1.200
REMARK INTRA:                   0.474
REMARK UNBOUND:                 0.535
REMARK SMILES C[C@@H]1[C@H](C)CC[C@]2(C(=O)[O-])CC[C@]3(C)C(=CC[C@H]4[C@@]5(C)CC[C@@H](O)C(C)(C)[C@H]5CC[C@@]43C)[C@@H]12
REMARK SMILES IDX 7 1 6 2 11 3 33 4 5 5 12 6 15 7 2 8 3 9 13 10 16 11 1 12
REMARK SMILES IDX 4 13 14 14 31 15 17 16 18 17 30 18 32 19 19 20 29 21 28 22
REMARK SMILES IDX 21 23 20 24 25 25 22 26 23 27 26 28 27 29 8 30 9 31 10 32
REMARK SMILES IDX 24 33
REMARK H PARENT 24 34
REMARK Flexibility Score: inf
ROOT
ATOM      1  C   UNL     1      -2.057  -1.858  12.656  1.00  0.00     0.017 C 
ATOM      2  C   UNL     1      -0.909  -1.273  11.793  1.00  0.00     0.014 C 
ATOM      3  C   UNL     1      -1.974  -3.414  12.594  1.00  0.00     0.014 C 
ATOM      4  C   UNL     1      -3.441  -1.433  12.059  1.00  0.00     0.030 C 
ATOM      5  C   UNL     1      -1.034   0.246  11.608  1.00  0.00     0.004 C 
ATOM      6  C   UNL     1      -3.156  -4.127  13.300  1.00  0.00     0.013 C 
ATOM      7  C   UNL     1      -4.552  -2.092  12.893  1.00  0.00    -0.063 C 
ATOM      8  C   UNL     1      -3.574   0.101  11.765  1.00  0.00    -0.003 C 
ATOM      9  C   UNL     1      -2.365   0.640  10.942  1.00  0.00    -0.011 C 
ATOM     10  C   UNL     1      -4.585  -3.643  12.851  1.00  0.00    -0.006 C 
ATOM     11  C   UNL     1      -5.211  -1.377  13.850  1.00  0.00    -0.027 C 
ATOM     12  C   UNL     1      -4.912   0.432  11.071  1.00  0.00     0.008 C 
ATOM     13  C   UNL     1      -2.382   0.242   9.450  1.00  0.00     0.008 C 
ATOM     14  C   UNL     1      -4.807  -4.111  11.372  1.00  0.00     0.017 C 
ATOM     15  C   UNL     1      -5.776  -4.216  13.780  1.00  0.00    -0.020 C 
ATOM     16  C   UNL     1      -6.096  -1.969  14.919  1.00  0.00     0.032 C 
ATOM     17  C   UNL     1      -5.754  -3.453  15.156  1.00  0.00     0.006 C 
ATOM     18  C   UNL     1      -5.658  -5.757  14.036  1.00  0.00     0.008 C 
ATOM     19  C   UNL     1      -7.130  -3.954  13.027  1.00  0.00     0.012 C 
ATOM     20  C   UNL     1      -6.422  -4.169  16.423  1.00  0.00    -0.025 C 
ATOM     21  C   UNL     1      -5.014  -6.125  15.376  1.00  0.00     0.005 C 
ATOM     22  C   UNL     1      -5.792  -5.619  16.636  1.00  0.00     0.003 C 
ATOM     23  C   UNL     1      -7.989  -4.212  16.369  1.00  0.00     0.010 C 
ATOM     24  C   UNL     1      -6.043  -3.294  17.665  1.00  0.00     0.012 C 
ATOM     25  C   UNL     1      -6.762  -6.686  17.309  1.00  0.00    -0.006 C 
ATOM     26  C   UNL     1      -8.640  -5.528  15.894  1.00  0.00     0.033 C 
ATOM     27  C   UNL     1      -8.102  -6.838  16.516  1.00  0.00     0.120 C 
ATOM     28  C   UNL     1      -7.095  -6.276  18.774  1.00  0.00     0.014 C 
ATOM     29  C   UNL     1      -6.063  -8.073  17.462  1.00  0.00     0.014 C 
ENDROOT
BRANCH   1  30
ATOM     30  C   UNL     1      -1.842  -1.411  14.102  1.00  0.00     0.048 C 
ATOM     31  O   UNL     1      -2.527  -0.487  14.615  1.00  0.00    -0.550 OA
ATOM     32  O   UNL     1      -0.809  -1.965  14.853  1.00  0.00    -0.550 OA
ENDBRANCH   1  30
BRANCH  27  33
ATOM     33  O   UNL     1      -7.973  -7.788  15.483  1.00  0.00    -0.393 OA
ATOM     34  H   UNL     1      -7.263  -8.429  15.747  1.00  0.00     0.210 HD
ENDBRANCH  27  33
TORSDOF 2
ENDMDL
MODEL 3
REMARK VINA RESULT:     1.520      2.258      3.523
REMARK INTER + INTRA:           2.188
REMARK INTER:                   1.614
REMARK INTRA:                   0.574
REMARK UNBOUND:                 0.535
REMARK SMILES C[C@@H]1[C@H](C)CC[C@]2(C(=O)[O-])CC[C@]3(C)C(=CC[C@H]4[C@@]5(C)CC[C@@H](O)C(C)(C)[C@H]5CC[C@@]43C)[C@@H]12
REMARK SMILES IDX 7 1 6 2 11 3 33 4 5 5 12 6 15 7 2 8 3 9 13 10 16 11 1 12
REMARK SMILES IDX 4 13 14 14 31 15 17 16 18 17 30 18 32 19 19 20 29 21 28 22
REMARK SMILES IDX 21 23 20 24 25 25 22 26 23 27 26 28 27 29 8 30 9 31 10 32
REMARK SMILES IDX 24 33
REMARK H PARENT 24 34
REMARK Flexibility Score: inf
ROOT
ATOM      1  C   UNL     1      -5.448   0.176  12.401  1.00  0.00     0.017 C 
ATOM      2  C   UNL     1      -5.013   1.548  11.825  1.00  0.00     0.014 C 
ATOM      3  C   UNL     1      -5.110   0.152  13.923  1.00  0.00     0.014 C 
ATOM      4  C   UNL     1      -4.632  -0.973  11.715  1.00  0.00     0.030 C 
ATOM      5  C   UNL     1      -5.098   1.592  10.292  1.00  0.00     0.004 C 
ATOM      6  C   UNL     1      -5.364  -1.223  14.593  1.00  0.00     0.013 C 
ATOM      7  C   UNL     1      -5.035  -2.307  12.364  1.00  0.00    -0.063 C 
ATOM      8  C   UNL     1      -4.616  -0.908  10.150  1.00  0.00    -0.003 C 
ATOM      9  C   UNL     1      -4.223   0.510   9.632  1.00  0.00    -0.011 C 
ATOM     10  C   UNL     1      -4.690  -2.448  13.870  1.00  0.00    -0.006 C 
ATOM     11  C   UNL     1      -5.928  -3.133  11.743  1.00  0.00    -0.027 C 
ATOM     12  C   UNL     1      -3.700  -1.993   9.546  1.00  0.00     0.008 C 
ATOM     13  C   UNL     1      -2.722   0.845   9.771  1.00  0.00     0.008 C 
ATOM     14  C   UNL     1      -3.138  -2.319  14.054  1.00  0.00     0.017 C 
ATOM     15  C   UNL     1      -5.180  -3.877  14.440  1.00  0.00    -0.020 C 
ATOM     16  C   UNL     1      -6.620  -4.305  12.392  1.00  0.00     0.032 C 
ATOM     17  C   UNL     1      -6.642  -4.151  13.926  1.00  0.00     0.006 C 
ATOM     18  C   UNL     1      -5.155  -3.948  16.004  1.00  0.00     0.008 C 
ATOM     19  C   UNL     1      -4.192  -4.969  13.892  1.00  0.00     0.012 C 
ATOM     20  C   UNL     1      -7.552  -5.173  14.756  1.00  0.00    -0.025 C 
ATOM     21  C   UNL     1      -6.514  -3.699  16.667  1.00  0.00     0.005 C 
ATOM     22  C   UNL     1      -7.625  -4.733  16.287  1.00  0.00     0.003 C 
ATOM     23  C   UNL     1      -7.119  -6.673  14.597  1.00  0.00     0.010 C 
ATOM     24  C   UNL     1      -8.993  -5.060  14.154  1.00  0.00     0.012 C 
ATOM     25  C   UNL     1      -7.830  -5.922  17.325  1.00  0.00    -0.006 C 
ATOM     26  C   UNL     1      -6.260  -7.280  15.726  1.00  0.00     0.033 C 
ATOM     27  C   UNL     1      -6.728  -7.021  17.177  1.00  0.00     0.120 C 
ATOM     28  C   UNL     1      -9.225  -6.586  17.127  1.00  0.00     0.014 C 
ATOM     29  C   UNL     1      -7.876  -5.394  18.793  1.00  0.00     0.014 C 
ENDROOT
BRANCH   1  30
ATOM     30  C   UNL     1      -6.962   0.046  12.231  1.00  0.00     0.048 C 
ATOM     31  O   UNL     1      -7.466  -0.756  11.401  1.00  0.00    -0.550 OA
ATOM     32  O   UNL     1      -7.814   0.891  12.937  1.00  0.00    -0.550 OA
ENDBRANCH   1  30
BRANCH  27  33
ATOM     33  O   UNL     1      -5.592  -6.706  17.950  1.00  0.00    -0.393 OA
ATOM     34  H   UNL     1      -4.839  -7.266  17.626  1.00  0.00     0.210 HD
ENDBRANCH  27  33
TORSDOF 2
ENDMDL
MODEL 4
REMARK VINA RESULT:     2.210      2.473      8.442
REMARK INTER + INTRA:           2.939
REMARK INTER:                   2.569
REMARK INTRA:                   0.370
REMARK UNBOUND:                 0.535
REMARK SMILES C[C@@H]1[C@H](C)CC[C@]2(C(=O)[O-])CC[C@]3(C)C(=CC[C@H]4[C@@]5(C)CC[C@@H](O)C(C)(C)[C@H]5CC[C@@]43C)[C@@H]12
REMARK SMILES IDX 7 1 6 2 11 3 33 4 5 5 12 6 15 7 2 8 3 9 13 10 16 11 1 12
REMARK SMILES IDX 4 13 14 14 31 15 17 16 18 17 30 18 32 19 19 20 29 21 28 22
REMARK SMILES IDX 21 23 20 24 25 25 22 26 23 27 26 28 27 29 8 30 9 31 10 32
REMARK SMILES IDX 24 33
REMARK H PARENT 24 34
REMARK Flexibility Score: inf
ROOT
ATOM      1  C   UNL     1      -5.891  -2.756  13.390  1.00  0.00     0.017 C 
ATOM      2  C   UNL     1      -6.919  -3.554  14.232  1.00  0.00     0.014 C 
ATOM      3  C   UNL     1      -6.564  -2.356  12.042  1.00  0.00     0.014 C 
ATOM      4  C   UNL     1      -4.659  -3.665  13.054  1.00  0.00     0.030 C 
ATOM      5  C   UNL     1      -6.288  -4.185  15.482  1.00  0.00     0.004 C 
ATOM      6  C   UNL     1      -5.594  -1.674  11.042  1.00  0.00     0.013 C 
ATOM      7  C   UNL     1      -3.699  -2.866  12.157  1.00  0.00    -0.063 C 
ATOM      8  C   UNL     1      -4.043  -4.402  14.292  1.00  0.00    -0.003 C 
ATOM      9  C   UNL     1      -5.134  -5.141  15.127  1.00  0.00    -0.011 C 
ATOM     10  C   UNL     1      -4.261  -2.466  10.767  1.00  0.00    -0.006 C 
ATOM     11  C   UNL     1      -2.591  -2.272  12.690  1.00  0.00    -0.027 C 
ATOM     12  C   UNL     1      -2.915  -5.368  13.874  1.00  0.00     0.008 C 
ATOM     13  C   UNL     1      -5.662  -6.438  14.479  1.00  0.00     0.008 C 
ATOM     14  C   UNL     1      -4.632  -3.766   9.971  1.00  0.00     0.017 C 
ATOM     15  C   UNL     1      -3.173  -1.617   9.930  1.00  0.00    -0.020 C 
ATOM     16  C   UNL     1      -1.744  -1.236  11.995  1.00  0.00     0.032 C 
ATOM     17  C   UNL     1      -2.541  -0.532  10.879  1.00  0.00     0.006 C 
ATOM     18  C   UNL     1      -3.787  -0.914   8.672  1.00  0.00     0.008 C 
ATOM     19  C   UNL     1      -2.071  -2.620   9.432  1.00  0.00     0.012 C 
ATOM     20  C   UNL     1      -1.881   0.762  10.208  1.00  0.00    -0.025 C 
ATOM     21  C   UNL     1      -4.143   0.561   8.885  1.00  0.00     0.005 C 
ATOM     22  C   UNL     1      -2.928   1.480   9.241  1.00  0.00     0.003 C 
ATOM     23  C   UNL     1      -0.519   0.472   9.485  1.00  0.00     0.010 C 
ATOM     24  C   UNL     1      -1.560   1.746  11.383  1.00  0.00     0.012 C 
ATOM     25  C   UNL     1      -2.288   2.266   8.014  1.00  0.00    -0.006 C 
ATOM     26  C   UNL     1      -0.560   0.297   7.953  1.00  0.00     0.033 C 
ATOM     27  C   UNL     1      -1.365   1.346   7.150  1.00  0.00     0.120 C 
ATOM     28  C   UNL     1      -1.451   3.479   8.518  1.00  0.00     0.014 C 
ATOM     29  C   UNL     1      -3.389   2.920   7.121  1.00  0.00     0.014 C 
ENDROOT
BRANCH   1  30
ATOM     30  C   UNL     1      -5.530  -1.484  14.157  1.00  0.00     0.048 C 
ATOM     31  O   UNL     1      -4.876  -1.525  15.233  1.00  0.00    -0.550 OA
ATOM     32  O   UNL     1      -6.007  -0.252  13.719  1.00  0.00    -0.550 OA
ENDBRANCH   1  30
BRANCH  27  33
ATOM     33  O   UNL     1      -2.109   0.663   6.167  1.00  0.00    -0.393 OA
ATOM     34  H   UNL     1      -1.859   1.037   5.282  1.00  0.00     0.210 HD
ENDBRANCH  27  33
TORSDOF 2
ENDMDL
MODEL 5
REMARK VINA RESULT:     2.329      2.456      8.470
REMARK INTER + INTRA:           3.068
REMARK INTER:                   2.733
REMARK INTRA:                   0.335
REMARK UNBOUND:                 0.535
REMARK SMILES C[C@@H]1[C@H](C)CC[C@]2(C(=O)[O-])CC[C@]3(C)C(=CC[C@H]4[C@@]5(C)CC[C@@H](O)C(C)(C)[C@H]5CC[C@@]43C)[C@@H]12
REMARK SMILES IDX 7 1 6 2 11 3 33 4 5 5 12 6 15 7 2 8 3 9 13 10 16 11 1 12
REMARK SMILES IDX 4 13 14 14 31 15 17 16 18 17 30 18 32 19 19 20 29 21 28 22
REMARK SMILES IDX 21 23 20 24 25 25 22 26 23 27 26 28 27 29 8 30 9 31 10 32
REMARK SMILES IDX 24 33
REMARK H PARENT 24 34
REMARK Flexibility Score: inf
ROOT
ATOM      1  C   UNL     1      -4.652  -2.883  13.856  1.00  0.00     0.017 C 
ATOM      2  C   UNL     1      -5.055  -3.588  15.177  1.00  0.00     0.014 C 
ATOM      3  C   UNL     1      -4.277  -1.405  14.183  1.00  0.00     0.014 C 
ATOM      4  C   UNL     1      -5.872  -2.857  12.873  1.00  0.00     0.030 C 
ATOM      5  C   UNL     1      -5.653  -4.982  14.936  1.00  0.00     0.004 C 
ATOM      6  C   UNL     1      -3.992  -0.545  12.924  1.00  0.00     0.013 C 
ATOM      7  C   UNL     1      -5.459  -2.086  11.609  1.00  0.00    -0.063 C 
ATOM      8  C   UNL     1      -6.570  -4.246  12.674  1.00  0.00    -0.003 C 
ATOM      9  C   UNL     1      -6.902  -4.928  14.036  1.00  0.00    -0.011 C 
ATOM     10  C   UNL     1      -5.118  -0.588  11.824  1.00  0.00    -0.006 C 
ATOM     11  C   UNL     1      -5.092  -2.759  10.480  1.00  0.00    -0.027 C 
ATOM     12  C   UNL     1      -7.830  -4.126  11.792  1.00  0.00     0.008 C 
ATOM     13  C   UNL     1      -8.102  -4.308  14.784  1.00  0.00     0.008 C 
ATOM     14  C   UNL     1      -6.378   0.148  12.398  1.00  0.00     0.017 C 
ATOM     15  C   UNL     1      -4.679   0.106  10.433  1.00  0.00    -0.020 C 
ATOM     16  C   UNL     1      -4.396  -2.144   9.291  1.00  0.00     0.032 C 
ATOM     17  C   UNL     1      -3.669  -0.845   9.691  1.00  0.00     0.006 C 
ATOM     18  C   UNL     1      -4.017   1.512  10.638  1.00  0.00     0.008 C 
ATOM     19  C   UNL     1      -5.979   0.306   9.574  1.00  0.00     0.012 C 
ATOM     20  C   UNL     1      -2.677  -0.196   8.616  1.00  0.00    -0.025 C 
ATOM     21  C   UNL     1      -2.485   1.495  10.617  1.00  0.00     0.005 C 
ATOM     22  C   UNL     1      -1.855   1.003   9.272  1.00  0.00     0.003 C 
ATOM     23  C   UNL     1      -3.385   0.237   7.285  1.00  0.00     0.010 C 
ATOM     24  C   UNL     1      -1.657  -1.321   8.231  1.00  0.00     0.012 C 
ATOM     25  C   UNL     1      -1.419   2.156   8.265  1.00  0.00    -0.006 C 
ATOM     26  C   UNL     1      -3.744   1.730   7.134  1.00  0.00     0.033 C 
ATOM     27  C   UNL     1      -2.643   2.754   7.497  1.00  0.00     0.120 C 
ATOM     28  C   UNL     1      -0.394   1.614   7.224  1.00  0.00     0.014 C 
ATOM     29  C   UNL     1      -0.635   3.288   9.002  1.00  0.00     0.014 C 
ENDROOT
BRANCH   1  30
ATOM     30  C   UNL     1      -3.419  -3.591  13.294  1.00  0.00     0.048 C 
ATOM     31  O   UNL     1      -3.498  -4.727  12.757  1.00  0.00    -0.550 OA
ATOM     32  O   UNL     1      -2.159  -3.021  13.455  1.00  0.00    -0.550 OA
ENDBRANCH   1  30
BRANCH  27  33
ATOM     33  O   UNL     1      -3.243   3.794   8.235  1.00  0.00    -0.393 OA
ATOM     34  H   UNL     1      -2.827   3.807   9.136  1.00  0.00     0.210 HD
ENDBRANCH  27  33
TORSDOF 2
ENDMDL
MODEL 6
REMARK VINA RESULT:     3.259      2.428      8.533
REMARK INTER + INTRA:           4.080
REMARK INTER:                   3.758
REMARK INTRA:                   0.322
REMARK UNBOUND:                 0.535
REMARK SMILES C[C@@H]1[C@H](C)CC[C@]2(C(=O)[O-])CC[C@]3(C)C(=CC[C@H]4[C@@]5(C)CC[C@@H](O)C(C)(C)[C@H]5CC[C@@]43C)[C@@H]12
REMARK SMILES IDX 7 1 6 2 11 3 33 4 5 5 12 6 15 7 2 8 3 9 13 10 16 11 1 12
REMARK SMILES IDX 4 13 14 14 31 15 17 16 18 17 30 18 32 19 19 20 29 21 28 22
REMARK SMILES IDX 21 23 20 24 25 25 22 26 23 27 26 28 27 29 8 30 9 31 10 32
REMARK SMILES IDX 24 33
REMARK H PARENT 24 34
REMARK Flexibility Score: inf
ROOT
ATOM      1  C   UNL     1      -5.080  -3.591  12.694  1.00  0.00     0.017 C 
ATOM      2  C   UNL     1      -5.520  -4.859  13.470  1.00  0.00     0.014 C 
ATOM      3  C   UNL     1      -3.729  -3.897  11.977  1.00  0.00     0.014 C 
ATOM      4  C   UNL     1      -4.828  -2.414  13.698  1.00  0.00     0.030 C 
ATOM      5  C   UNL     1      -6.722  -4.594  14.388  1.00  0.00     0.004 C 
ATOM      6  C   UNL     1      -3.103  -2.661  11.280  1.00  0.00     0.013 C 
ATOM      7  C   UNL     1      -4.321  -1.199  12.903  1.00  0.00    -0.063 C 
ATOM      8  C   UNL     1      -5.994  -2.173  14.716  1.00  0.00    -0.003 C 
ATOM      9  C   UNL     1      -6.427  -3.493  15.424  1.00  0.00    -0.011 C 
ATOM     10  C   UNL     1      -2.954  -1.389  12.195  1.00  0.00    -0.006 C 
ATOM     11  C   UNL     1      -5.175  -0.187  12.573  1.00  0.00    -0.027 C 
ATOM     12  C   UNL     1      -5.632  -1.083  15.747  1.00  0.00     0.008 C 
ATOM     13  C   UNL     1      -5.441  -3.991  16.503  1.00  0.00     0.008 C 
ATOM     14  C   UNL     1      -1.858  -1.700  13.273  1.00  0.00     0.017 C 
ATOM     15  C   UNL     1      -2.541  -0.058  11.378  1.00  0.00    -0.020 C 
ATOM     16  C   UNL     1      -4.886   0.897  11.564  1.00  0.00     0.032 C 
ATOM     17  C   UNL     1      -3.794   0.448  10.573  1.00  0.00     0.006 C 
ATOM     18  C   UNL     1      -1.348  -0.298  10.391  1.00  0.00     0.008 C 
ATOM     19  C   UNL     1      -2.089   1.019  12.428  1.00  0.00     0.012 C 
ATOM     20  C   UNL     1      -3.540   1.372   9.290  1.00  0.00    -0.025 C 
ATOM     21  C   UNL     1      -1.772  -0.540   8.938  1.00  0.00     0.005 C 
ATOM     22  C   UNL     1      -2.543   0.650   8.276  1.00  0.00     0.003 C 
ATOM     23  C   UNL     1      -3.067   2.825   9.644  1.00  0.00     0.010 C 
ATOM     24  C   UNL     1      -4.927   1.516   8.578  1.00  0.00     0.012 C 
ATOM     25  C   UNL     1      -1.652   1.628   7.391  1.00  0.00    -0.006 C 
ATOM     26  C   UNL     1      -1.554   3.115   9.547  1.00  0.00     0.033 C 
ATOM     27  C   UNL     1      -0.829   2.624   8.272  1.00  0.00     0.120 C 
ATOM     28  C   UNL     1      -2.545   2.448   6.414  1.00  0.00     0.014 C 
ATOM     29  C   UNL     1      -0.701   0.830   6.444  1.00  0.00     0.014 C 
ENDROOT
BRANCH   1  30
ATOM     30  C   UNL     1      -6.141  -3.286  11.636  1.00  0.00     0.048 C 
ATOM     31  O   UNL     1      -7.251  -2.776  11.943  1.00  0.00    -0.550 OA
ATOM     32  O   UNL     1      -5.927  -3.659  10.313  1.00  0.00    -0.550 OA
ENDBRANCH   1  30
BRANCH  27  33
ATOM     33  O   UNL     1       0.400   2.056   8.663  1.00  0.00    -0.393 OA
ATOM     34  H   UNL     1       0.251   1.088   8.822  1.00  0.00     0.210 HD
ENDBRANCH  27  33
TORSDOF 2
ENDMDL
