MODEL 1
REMARK VINA RESULT:    61.040      0.000      0.000
REMARK INTER + INTRA:          83.377
REMARK INTER:                  84.234
REMARK INTRA:                  -0.858
REMARK UNBOUND:                -0.858
REMARK SMILES CC[C@@H](CC[C@H](C)[C@H]1CC[C@@H]2[C@@H]3CC=C4C[C@@H](O)CC[C@@]4(C)[C@@H]3CC[C@]21C)C(C)C
REMARK SMILES IDX 5 1 4 2 3 3 2 4 1 5 28 6 29 7 30 8 6 9 7 10 8 11 9 12 26 13
REMARK SMILES IDX 10 14 11 15 25 16 27 17 12 18 24 19 23 20 13 21 21 22 14 23
REMARK SMILES IDX 15 24 20 25 22 26 16 27 19 28 17 29 18 30
REMARK H PARENT 18 31
REMARK Flexibility Score: inf
ROOT
ATOM      1  C   UNL     1     -31.619  27.630  -2.602  1.00  0.00     0.004 C 
ENDROOT
BRANCH   1   2
ATOM      2  C   UNL     1     -32.778  28.472  -2.019  1.00  0.00     0.004 C 
BRANCH   2   3
ATOM      3  C   UNL     1     -32.803  29.920  -2.588  1.00  0.00    -0.009 C 
BRANCH   3   4
ATOM      4  C   UNL     1     -31.971  30.868  -1.664  1.00  0.00     0.000 C 
ATOM      5  C   UNL     1     -30.771  31.476  -2.388  1.00  0.00     0.004 C 
ENDBRANCH   3   4
BRANCH   3   6
ATOM      6  C   UNL     1     -34.261  30.467  -2.791  1.00  0.00    -0.014 C 
ATOM      7  C   UNL     1     -35.323  29.633  -2.046  1.00  0.00     0.007 C 
ATOM      8  C   UNL     1     -34.642  30.508  -4.285  1.00  0.00     0.007 C 
ENDBRANCH   3   6
ENDBRANCH   2   3
ENDBRANCH   1   2
BRANCH   1   9
ATOM      9  C   UNL     1     -31.266  28.018  -4.070  1.00  0.00    -0.011 C 
ATOM     10  C   UNL     1     -32.560  28.049  -4.916  1.00  0.00     0.008 C 
BRANCH   9  11
ATOM     11  C   UNL     1     -30.111  27.107  -4.639  1.00  0.00    -0.002 C 
ATOM     12  C   UNL     1     -30.478  26.328  -5.938  1.00  0.00     0.005 C 
ATOM     13  C   UNL     1     -28.724  27.772  -4.962  1.00  0.00    -0.026 C 
ATOM     14  C   UNL     1     -29.533  26.806  -7.055  1.00  0.00     0.005 C 
ATOM     15  C   UNL     1     -28.877  28.042  -6.470  1.00  0.00    -0.001 C 
ATOM     16  C   UNL     1     -28.361  29.109  -4.263  1.00  0.00     0.007 C 
ATOM     17  C   UNL     1     -27.627  26.713  -4.599  1.00  0.00     0.012 C 
ATOM     18  C   UNL     1     -27.689  28.713  -7.197  1.00  0.00     0.000 C 
ATOM     19  C   UNL     1     -27.139  29.804  -4.930  1.00  0.00     0.005 C 
ATOM     20  C   UNL     1     -27.325  30.038  -6.466  1.00  0.00     0.003 C 
ATOM     21  C   UNL     1     -26.447  27.839  -7.405  1.00  0.00     0.031 C 
ATOM     22  C   UNL     1     -26.160  30.829  -7.217  1.00  0.00    -0.008 C 
ATOM     23  C   UNL     1     -25.403  28.592  -8.163  1.00  0.00    -0.027 C 
ATOM     24  C   UNL     1     -25.217  29.921  -8.032  1.00  0.00    -0.065 C 
ATOM     25  C   UNL     1     -26.826  31.807  -8.237  1.00  0.00     0.014 C 
ATOM     26  C   UNL     1     -25.318  31.662  -6.212  1.00  0.00     0.016 C 
ATOM     27  C   UNL     1     -24.188  30.590  -8.923  1.00  0.00     0.063 C 
ATOM     28  C   UNL     1     -25.836  32.526  -9.178  1.00  0.00     0.033 C 
ATOM     29  C   UNL     1     -24.874  31.561  -9.899  1.00  0.00     0.118 C 
BRANCH  29  30
ATOM     30  O   UNL     1     -25.527  30.870 -10.937  1.00  0.00    -0.393 OA
ATOM     31  H   UNL     1     -26.006  30.097 -10.541  1.00  0.00     0.210 HD
ENDBRANCH  29  30
ENDBRANCH   9  11
ENDBRANCH   1   9
TORSDOF 7
ENDMDL
MODEL 2
REMARK VINA RESULT:    61.472      3.933      6.749
REMARK INTER + INTRA:          83.974
REMARK INTER:                  84.412
REMARK INTRA:                  -0.438
REMARK UNBOUND:                -0.858
REMARK SMILES CC[C@@H](CC[C@H](C)[C@H]1CC[C@@H]2[C@@H]3CC=C4C[C@@H](O)CC[C@@]4(C)[C@@H]3CC[C@]21C)C(C)C
REMARK SMILES IDX 5 1 4 2 3 3 2 4 1 5 28 6 29 7 30 8 6 9 7 10 8 11 9 12 26 13
REMARK SMILES IDX 10 14 11 15 25 16 27 17 12 18 24 19 23 20 13 21 21 22 14 23
REMARK SMILES IDX 15 24 20 25 22 26 16 27 19 28 17 29 18 30
REMARK H PARENT 18 31
REMARK Flexibility Score: inf
ROOT
ATOM      1  C   UNL     1     -27.002  31.549  -6.861  1.00  0.00     0.004 C 
ENDROOT
BRANCH   1   2
ATOM      2  C   UNL     1     -26.442  31.098  -5.492  1.00  0.00     0.004 C 
BRANCH   2   3
ATOM      3  C   UNL     1     -26.696  32.150  -4.373  1.00  0.00    -0.009 C 
BRANCH   3   4
ATOM      4  C   UNL     1     -25.855  31.790  -3.105  1.00  0.00     0.000 C 
ATOM      5  C   UNL     1     -24.814  32.860  -2.779  1.00  0.00     0.004 C 
ENDBRANCH   3   4
BRANCH   3   6
ATOM      6  C   UNL     1     -28.218  32.299  -4.016  1.00  0.00    -0.014 C 
ATOM      7  C   UNL     1     -28.612  33.747  -3.659  1.00  0.00     0.007 C 
ATOM      8  C   UNL     1     -28.607  31.389  -2.833  1.00  0.00     0.007 C 
ENDBRANCH   3   6
ENDBRANCH   2   3
ENDBRANCH   1   2
BRANCH   1   9
ATOM      9  C   UNL     1     -27.183  30.368  -7.862  1.00  0.00    -0.011 C 
ATOM     10  C   UNL     1     -27.584  29.094  -7.081  1.00  0.00     0.008 C 
BRANCH   9  11
ATOM     11  C   UNL     1     -25.924  30.215  -8.799  1.00  0.00    -0.002 C 
ATOM     12  C   UNL     1     -24.941  31.426  -8.770  1.00  0.00     0.005 C 
ATOM     13  C   UNL     1     -24.998  28.959  -8.610  1.00  0.00    -0.026 C 
ATOM     14  C   UNL     1     -23.586  30.919  -8.244  1.00  0.00     0.005 C 
ATOM     15  C   UNL     1     -23.903  29.540  -7.697  1.00  0.00    -0.001 C 
ATOM     16  C   UNL     1     -25.589  27.700  -7.920  1.00  0.00     0.007 C 
ATOM     17  C   UNL     1     -24.504  28.551 -10.040  1.00  0.00     0.012 C 
ATOM     18  C   UNL     1     -22.763  28.591  -7.262  1.00  0.00     0.000 C 
ATOM     19  C   UNL     1     -24.482  26.689  -7.503  1.00  0.00     0.005 C 
ATOM     20  C   UNL     1     -23.376  27.325  -6.597  1.00  0.00     0.003 C 
ATOM     21  C   UNL     1     -21.755  28.208  -8.351  1.00  0.00     0.031 C 
ATOM     22  C   UNL     1     -22.249  26.340  -6.043  1.00  0.00    -0.008 C 
ATOM     23  C   UNL     1     -20.682  27.338  -7.783  1.00  0.00    -0.027 C 
ATOM     24  C   UNL     1     -20.908  26.444  -6.798  1.00  0.00    -0.065 C 
ATOM     25  C   UNL     1     -21.955  26.735  -4.560  1.00  0.00     0.014 C 
ATOM     26  C   UNL     1     -22.735  24.867  -6.075  1.00  0.00     0.016 C 
ATOM     27  C   UNL     1     -19.722  25.682  -6.238  1.00  0.00     0.063 C 
ATOM     28  C   UNL     1     -20.758  25.996  -3.923  1.00  0.00     0.033 C 
ATOM     29  C   UNL     1     -19.474  26.077  -4.772  1.00  0.00     0.118 C 
BRANCH  29  30
ATOM     30  O   UNL     1     -18.879  27.349  -4.677  1.00  0.00    -0.393 OA
ATOM     31  H   UNL     1     -18.032  27.334  -5.195  1.00  0.00     0.210 HD
ENDBRANCH  29  30
ENDBRANCH   9  11
ENDBRANCH   1   9
TORSDOF 7
ENDMDL
