MODEL 1
REMARK VINA RESULT:    -5.581      0.000      0.000
REMARK INTER + INTRA:          -8.540
REMARK INTER:                  -7.375
REMARK INTRA:                  -1.164
REMARK UNBOUND:                -1.164
REMARK SMILES CC[C@@H](C=C[C@H](C)[C@H]1CC[C@H]2[C@H]3CC=C4C[C@H](O)CC[C@]4(C)[C@H]3CC[C@@]12C)C(C)C
REMARK SMILES IDX 6 1 7 2 5 3 4 4 3 5 2 6 1 7 28 8 29 9 30 10 8 11 9 12 26 13
REMARK SMILES IDX 10 14 11 15 25 16 27 17 12 18 24 19 23 20 13 21 21 22 14 23
REMARK SMILES IDX 15 24 20 25 22 26 16 27 19 28 17 29 18 30
REMARK H PARENT 18 31
REMARK Flexibility Score: inf
ROOT
ATOM      1  C   UNL     1     126.689 135.903 121.433  1.00  0.00     0.012 C 
ATOM      2  C   UNL     1     128.127 135.815 121.984  1.00  0.00     0.012 C 
ENDROOT
BRANCH   1   3
ATOM      3  C   UNL     1     126.312 137.356 121.210  1.00  0.00    -0.028 C 
ATOM      4  C   UNL     1     127.014 138.172 120.404  1.00  0.00    -0.027 C 
BRANCH   4   5
ATOM      5  C   UNL     1     126.615 139.621 120.181  1.00  0.00     0.014 C 
BRANCH   5   6
ATOM      6  C   UNL     1     127.867 140.519 120.004  1.00  0.00     0.004 C 
ATOM      7  C   UNL     1     129.202 139.844 120.336  1.00  0.00     0.004 C 
ENDBRANCH   5   6
BRANCH   5   8
ATOM      8  C   UNL     1     125.613 140.185 121.251  1.00  0.00    -0.011 C 
ATOM      9  C   UNL     1     126.159 141.446 121.937  1.00  0.00     0.008 C 
ATOM     10  C   UNL     1     124.200 140.464 120.699  1.00  0.00     0.008 C 
ENDBRANCH   5   8
ENDBRANCH   4   5
ENDBRANCH   1   3
BRANCH   1  11
ATOM     11  C   UNL     1     126.376 135.040 120.156  1.00  0.00     0.002 C 
ATOM     12  C   UNL     1     127.565 134.386 119.463  1.00  0.00     0.005 C 
ATOM     13  C   UNL     1     125.312 133.904 120.285  1.00  0.00    -0.026 C 
ATOM     14  C   UNL     1     126.926 133.486 118.423  1.00  0.00     0.005 C 
ATOM     15  C   UNL     1     125.598 132.991 119.038  1.00  0.00    -0.001 C 
ATOM     16  C   UNL     1     125.459 133.100 121.602  1.00  0.00     0.007 C 
ATOM     17  C   UNL     1     123.891 134.527 120.223  1.00  0.00     0.012 C 
ATOM     18  C   UNL     1     125.512 131.441 119.280  1.00  0.00     0.000 C 
ATOM     19  C   UNL     1     124.650 131.788 121.650  1.00  0.00     0.005 C 
ATOM     20  C   UNL     1     124.367 131.120 120.267  1.00  0.00     0.003 C 
ATOM     21  C   UNL     1     126.814 130.732 119.729  1.00  0.00     0.031 C 
ATOM     22  C   UNL     1     124.086 129.568 120.365  1.00  0.00    -0.008 C 
ATOM     23  C   UNL     1     126.591 129.296 120.126  1.00  0.00    -0.027 C 
ATOM     24  C   UNL     1     125.383 128.764 120.429  1.00  0.00    -0.065 C 
ATOM     25  C   UNL     1     123.306 129.076 119.103  1.00  0.00     0.014 C 
ATOM     26  C   UNL     1     123.208 129.275 121.620  1.00  0.00     0.016 C 
ATOM     27  C   UNL     1     125.251 127.259 120.478  1.00  0.00     0.063 C 
ATOM     28  C   UNL     1     123.154 127.537 119.019  1.00  0.00     0.033 C 
ATOM     29  C   UNL     1     124.480 126.768 119.237  1.00  0.00     0.118 C 
BRANCH  29  30
ATOM     30  O   UNL     1     125.289 126.815 118.086  1.00  0.00    -0.393 OA
ATOM     31  H   UNL     1     124.800 126.372 117.347  1.00  0.00     0.210 HD
ENDBRANCH  29  30
ENDBRANCH   1  11
TORSDOF 6
ENDMDL
MODEL 2
REMARK VINA RESULT:    -5.492      1.605      3.117
REMARK INTER + INTRA:          -8.423
REMARK INTER:                  -7.499
REMARK INTRA:                  -0.924
REMARK UNBOUND:                -1.164
REMARK SMILES CC[C@@H](C=C[C@H](C)[C@H]1CC[C@H]2[C@H]3CC=C4C[C@H](O)CC[C@]4(C)[C@H]3CC[C@@]12C)C(C)C
REMARK SMILES IDX 6 1 7 2 5 3 4 4 3 5 2 6 1 7 28 8 29 9 30 10 8 11 9 12 26 13
REMARK SMILES IDX 10 14 11 15 25 16 27 17 12 18 24 19 23 20 13 21 21 22 14 23
REMARK SMILES IDX 15 24 20 25 22 26 16 27 19 28 17 29 18 30
REMARK H PARENT 18 31
REMARK Flexibility Score: inf
ROOT
ATOM      1  C   UNL     1     127.302 135.654 119.763  1.00  0.00     0.012 C 
ATOM      2  C   UNL     1     127.222 135.648 118.222  1.00  0.00     0.012 C 
ENDROOT
BRANCH   1   3
ATOM      3  C   UNL     1     127.757 137.018 120.248  1.00  0.00    -0.028 C 
ATOM      4  C   UNL     1     127.229 138.166 119.788  1.00  0.00    -0.027 C 
BRANCH   4   5
ATOM      5  C   UNL     1     127.687 139.523 120.295  1.00  0.00     0.014 C 
BRANCH   5   6
ATOM      6  C   UNL     1     126.476 140.384 120.741  1.00  0.00     0.004 C 
ATOM      7  C   UNL     1     125.228 139.591 121.142  1.00  0.00     0.004 C 
ENDBRANCH   5   6
BRANCH   5   8
ATOM      8  C   UNL     1     128.644 140.287 119.313  1.00  0.00    -0.011 C 
ATOM      9  C   UNL     1     128.537 141.811 119.480  1.00  0.00     0.008 C 
ATOM     10  C   UNL     1     130.121 139.856 119.418  1.00  0.00     0.008 C 
ENDBRANCH   5   8
ENDBRANCH   4   5
ENDBRANCH   1   3
BRANCH   1  11
ATOM     11  C   UNL     1     126.011 135.188 120.531  1.00  0.00     0.002 C 
ATOM     12  C   UNL     1     124.671 135.578 119.918  1.00  0.00     0.005 C 
ATOM     13  C   UNL     1     125.871 133.669 120.870  1.00  0.00    -0.026 C 
ATOM     14  C   UNL     1     123.658 134.826 120.759  1.00  0.00     0.005 C 
ATOM     15  C   UNL     1     124.338 133.502 121.173  1.00  0.00    -0.001 C 
ATOM     16  C   UNL     1     126.302 132.758 119.693  1.00  0.00     0.007 C 
ATOM     17  C   UNL     1     126.740 133.343 122.113  1.00  0.00     0.012 C 
ATOM     18  C   UNL     1     123.659 132.200 120.615  1.00  0.00     0.000 C 
ATOM     19  C   UNL     1     125.903 131.276 119.847  1.00  0.00     0.005 C 
ATOM     20  C   UNL     1     124.636 131.007 120.718  1.00  0.00     0.003 C 
ATOM     21  C   UNL     1     123.067 132.279 119.186  1.00  0.00     0.031 C 
ATOM     22  C   UNL     1     123.929 129.632 120.390  1.00  0.00    -0.008 C 
ATOM     23  C   UNL     1     122.619 130.939 118.663  1.00  0.00    -0.027 C 
ATOM     24  C   UNL     1     123.006 129.749 119.178  1.00  0.00    -0.065 C 
ATOM     25  C   UNL     1     123.043 129.174 121.594  1.00  0.00     0.014 C 
ATOM     26  C   UNL     1     125.009 128.535 120.141  1.00  0.00     0.016 C 
ATOM     27  C   UNL     1     122.232 128.510 118.788  1.00  0.00     0.063 C 
ATOM     28  C   UNL     1     122.162 127.937 121.292  1.00  0.00     0.033 C 
ATOM     29  C   UNL     1     121.360 128.052 119.973  1.00  0.00     0.118 C 
BRANCH  29  30
ATOM     30  O   UNL     1     120.240 128.891 120.132  1.00  0.00    -0.393 OA
ATOM     31  H   UNL     1     119.474 128.331 120.416  1.00  0.00     0.210 HD
ENDBRANCH  29  30
ENDBRANCH   1  11
TORSDOF 6
ENDMDL
MODEL 3
REMARK VINA RESULT:    -5.348      3.035      9.587
REMARK INTER + INTRA:          -8.232
REMARK INTER:                  -7.249
REMARK INTRA:                  -0.982
REMARK UNBOUND:                -1.164
REMARK SMILES CC[C@@H](C=C[C@H](C)[C@H]1CC[C@H]2[C@H]3CC=C4C[C@H](O)CC[C@]4(C)[C@H]3CC[C@@]12C)C(C)C
REMARK SMILES IDX 6 1 7 2 5 3 4 4 3 5 2 6 1 7 28 8 29 9 30 10 8 11 9 12 26 13
REMARK SMILES IDX 10 14 11 15 25 16 27 17 12 18 24 19 23 20 13 21 21 22 14 23
REMARK SMILES IDX 15 24 20 25 22 26 16 27 19 28 17 29 18 30
REMARK H PARENT 18 31
REMARK Flexibility Score: inf
ROOT
ATOM      1  C   UNL     1     126.187 131.838 119.831  1.00  0.00     0.012 C 
ATOM      2  C   UNL     1     127.465 131.285 119.167  1.00  0.00     0.012 C 
ENDROOT
BRANCH   1   3
ATOM      3  C   UNL     1     125.367 130.694 120.398  1.00  0.00    -0.028 C 
ATOM      4  C   UNL     1     125.599 129.408 120.082  1.00  0.00    -0.027 C 
BRANCH   4   5
ATOM      5  C   UNL     1     124.777 128.273 120.670  1.00  0.00     0.014 C 
BRANCH   5   6
ATOM      6  C   UNL     1     125.447 126.902 120.393  1.00  0.00     0.004 C 
ATOM      7  C   UNL     1     126.885 126.978 119.867  1.00  0.00     0.004 C 
ENDBRANCH   5   6
BRANCH   5   8
ATOM      8  C   UNL     1     123.261 128.298 120.260  1.00  0.00    -0.011 C 
ATOM      9  C   UNL     1     122.908 127.150 119.302  1.00  0.00     0.008 C 
ATOM     10  C   UNL     1     122.289 128.292 121.458  1.00  0.00     0.008 C 
ENDBRANCH   5   8
ENDBRANCH   4   5
ENDBRANCH   1   3
BRANCH   1  11
ATOM     11  C   UNL     1     126.392 132.967 120.907  1.00  0.00     0.002 C 
ATOM     12  C   UNL     1     127.784 133.089 121.516  1.00  0.00     0.005 C 
ATOM     13  C   UNL     1     125.995 134.427 120.518  1.00  0.00    -0.026 C 
ATOM     14  C   UNL     1     127.708 134.362 122.337  1.00  0.00     0.005 C 
ATOM     15  C   UNL     1     126.748 135.306 121.580  1.00  0.00    -0.001 C 
ATOM     16  C   UNL     1     126.439 134.799 119.080  1.00  0.00     0.007 C 
ATOM     17  C   UNL     1     124.455 134.584 120.633  1.00  0.00     0.012 C 
ATOM     18  C   UNL     1     127.401 136.632 121.046  1.00  0.00     0.000 C 
ATOM     19  C   UNL     1     126.354 136.303 118.749  1.00  0.00     0.005 C 
ATOM     20  C   UNL     1     126.498 137.270 119.965  1.00  0.00     0.003 C 
ATOM     21  C   UNL     1     128.857 136.533 120.529  1.00  0.00     0.031 C 
ATOM     22  C   UNL     1     126.988 138.718 119.563  1.00  0.00    -0.008 C 
ATOM     23  C   UNL     1     129.327 137.797 119.857  1.00  0.00    -0.027 C 
ATOM     24  C   UNL     1     128.506 138.774 119.406  1.00  0.00    -0.065 C 
ATOM     25  C   UNL     1     126.606 139.750 120.673  1.00  0.00     0.014 C 
ATOM     26  C   UNL     1     126.292 139.154 118.238  1.00  0.00     0.016 C 
ATOM     27  C   UNL     1     129.107 140.119 119.067  1.00  0.00     0.063 C 
ATOM     28  C   UNL     1     127.212 141.158 120.457  1.00  0.00     0.033 C 
ATOM     29  C   UNL     1     128.731 141.142 120.156  1.00  0.00     0.118 C 
BRANCH  29  30
ATOM     30  O   UNL     1     129.478 140.930 121.331  1.00  0.00    -0.393 OA
ATOM     31  H   UNL     1     129.916 141.784 121.575  1.00  0.00     0.210 HD
ENDBRANCH  29  30
ENDBRANCH   1  11
TORSDOF 6
ENDMDL
MODEL 4
REMARK VINA RESULT:    -5.329      1.753      3.270
REMARK INTER + INTRA:          -8.207
REMARK INTER:                  -7.390
REMARK INTRA:                  -0.817
REMARK UNBOUND:                -1.164
REMARK SMILES CC[C@@H](C=C[C@H](C)[C@H]1CC[C@H]2[C@H]3CC=C4C[C@H](O)CC[C@]4(C)[C@H]3CC[C@@]12C)C(C)C
REMARK SMILES IDX 6 1 7 2 5 3 4 4 3 5 2 6 1 7 28 8 29 9 30 10 8 11 9 12 26 13
REMARK SMILES IDX 10 14 11 15 25 16 27 17 12 18 24 19 23 20 13 21 21 22 14 23
REMARK SMILES IDX 15 24 20 25 22 26 16 27 19 28 17 29 18 30
REMARK H PARENT 18 31
REMARK Flexibility Score: inf
ROOT
ATOM      1  C   UNL     1     128.556 136.344 120.355  1.00  0.00     0.012 C 
ATOM      2  C   UNL     1     128.690 136.164 118.828  1.00  0.00     0.012 C 
ENDROOT
BRANCH   1   3
ATOM      3  C   UNL     1     127.369 137.238 120.665  1.00  0.00    -0.028 C 
ATOM      4  C   UNL     1     126.256 137.254 119.911  1.00  0.00    -0.027 C 
BRANCH   4   5
ATOM      5  C   UNL     1     125.072 138.145 120.244  1.00  0.00     0.014 C 
BRANCH   5   6
ATOM      6  C   UNL     1     125.498 139.306 121.181  1.00  0.00     0.004 C 
ATOM      7  C   UNL     1     125.771 140.640 120.478  1.00  0.00     0.004 C 
ENDBRANCH   5   6
BRANCH   5   8
ATOM      8  C   UNL     1     123.813 137.371 120.775  1.00  0.00    -0.011 C 
ATOM      9  C   UNL     1     122.527 137.806 120.054  1.00  0.00     0.008 C 
ATOM     10  C   UNL     1     123.949 135.836 120.711  1.00  0.00     0.008 C 
ENDBRANCH   5   8
ENDBRANCH   4   5
ENDBRANCH   1   3
BRANCH   1  11
ATOM     11  C   UNL     1     128.503 135.025 121.211  1.00  0.00     0.002 C 
ATOM     12  C   UNL     1     127.632 135.055 122.462  1.00  0.00     0.005 C 
ATOM     13  C   UNL     1     128.116 133.697 120.485  1.00  0.00    -0.026 C 
ATOM     14  C   UNL     1     127.632 133.614 122.935  1.00  0.00     0.005 C 
ATOM     15  C   UNL     1     127.706 132.742 121.662  1.00  0.00    -0.001 C 
ATOM     16  C   UNL     1     126.941 133.885 119.492  1.00  0.00     0.007 C 
ATOM     17  C   UNL     1     129.352 133.159 119.716  1.00  0.00     0.012 C 
ATOM     18  C   UNL     1     126.454 131.827 121.408  1.00  0.00     0.000 C 
ATOM     19  C   UNL     1     126.316 132.573 118.978  1.00  0.00     0.005 C 
ATOM     20  C   UNL     1     126.436 131.348 119.939  1.00  0.00     0.003 C 
ATOM     21  C   UNL     1     125.072 132.412 121.792  1.00  0.00     0.031 C 
ATOM     22  C   UNL     1     125.335 130.242 119.689  1.00  0.00    -0.008 C 
ATOM     23  C   UNL     1     123.924 131.552 121.332  1.00  0.00    -0.027 C 
ATOM     24  C   UNL     1     124.020 130.591 120.384  1.00  0.00    -0.065 C 
ATOM     25  C   UNL     1     125.805 128.867 120.264  1.00  0.00     0.014 C 
ATOM     26  C   UNL     1     125.106 130.071 118.156  1.00  0.00     0.016 C 
ATOM     27  C   UNL     1     122.897 129.587 120.260  1.00  0.00     0.063 C 
ATOM     28  C   UNL     1     124.713 127.769 120.237  1.00  0.00     0.033 C 
ATOM     29  C   UNL     1     123.355 128.227 120.823  1.00  0.00     0.118 C 
BRANCH  29  30
ATOM     30  O   UNL     1     123.391 128.247 122.230  1.00  0.00    -0.393 OA
ATOM     31  H   UNL     1     123.994 128.981 122.512  1.00  0.00     0.210 HD
ENDBRANCH  29  30
ENDBRANCH   1  11
TORSDOF 6
ENDMDL
MODEL 5
REMARK VINA RESULT:    -5.313      1.565      2.472
REMARK INTER + INTRA:          -8.186
REMARK INTER:                  -7.053
REMARK INTRA:                  -1.132
REMARK UNBOUND:                -1.164
REMARK SMILES CC[C@@H](C=C[C@H](C)[C@H]1CC[C@H]2[C@H]3CC=C4C[C@H](O)CC[C@]4(C)[C@H]3CC[C@@]12C)C(C)C
REMARK SMILES IDX 6 1 7 2 5 3 4 4 3 5 2 6 1 7 28 8 29 9 30 10 8 11 9 12 26 13
REMARK SMILES IDX 10 14 11 15 25 16 27 17 12 18 24 19 23 20 13 21 21 22 14 23
REMARK SMILES IDX 15 24 20 25 22 26 16 27 19 28 17 29 18 30
REMARK H PARENT 18 31
REMARK Flexibility Score: inf
ROOT
ATOM      1  C   UNL     1     125.456 137.243 120.139  1.00  0.00     0.012 C 
ATOM      2  C   UNL     1     124.419 137.414 121.268  1.00  0.00     0.012 C 
ENDROOT
BRANCH   1   3
ATOM      3  C   UNL     1     126.364 138.458 120.086  1.00  0.00    -0.028 C 
ATOM      4  C   UNL     1     127.553 138.449 119.459  1.00  0.00    -0.027 C 
BRANCH   4   5
ATOM      5  C   UNL     1     128.444 139.678 119.405  1.00  0.00     0.014 C 
BRANCH   5   6
ATOM      6  C   UNL     1     129.826 139.390 120.048  1.00  0.00     0.004 C 
ATOM      7  C   UNL     1     130.087 137.920 120.393  1.00  0.00     0.004 C 
ENDBRANCH   5   6
BRANCH   5   8
ATOM      8  C   UNL     1     127.775 140.983 119.968  1.00  0.00    -0.011 C 
ATOM      9  C   UNL     1     128.591 141.593 121.118  1.00  0.00     0.008 C 
ATOM     10  C   UNL     1     127.503 142.059 118.897  1.00  0.00     0.008 C 
ENDBRANCH   5   8
ENDBRANCH   4   5
ENDBRANCH   1   3
BRANCH   1  11
ATOM     11  C   UNL     1     126.298 135.915 120.161  1.00  0.00     0.002 C 
ATOM     12  C   UNL     1     126.721 135.393 121.529  1.00  0.00     0.005 C 
ATOM     13  C   UNL     1     125.717 134.668 119.419  1.00  0.00    -0.026 C 
ATOM     14  C   UNL     1     127.321 134.034 121.228  1.00  0.00     0.005 C 
ATOM     15  C   UNL     1     126.528 133.469 120.028  1.00  0.00    -0.001 C 
ATOM     16  C   UNL     1     124.198 134.489 119.664  1.00  0.00     0.007 C 
ATOM     17  C   UNL     1     125.974 134.817 117.896  1.00  0.00     0.012 C 
ATOM     18  C   UNL     1     125.710 132.160 120.327  1.00  0.00     0.000 C 
ATOM     19  C   UNL     1     123.631 133.125 119.220  1.00  0.00     0.005 C 
ATOM     20  C   UNL     1     124.645 131.939 119.229  1.00  0.00     0.003 C 
ATOM     21  C   UNL     1     125.059 132.049 121.728  1.00  0.00     0.031 C 
ATOM     22  C   UNL     1     123.955 130.522 119.351  1.00  0.00    -0.008 C 
ATOM     23  C   UNL     1     124.138 130.863 121.852  1.00  0.00    -0.027 C 
ATOM     24  C   UNL     1     123.623 130.181 120.802  1.00  0.00    -0.065 C 
ATOM     25  C   UNL     1     124.912 129.403 118.826  1.00  0.00     0.014 C 
ATOM     26  C   UNL     1     122.660 130.496 118.481  1.00  0.00     0.016 C 
ATOM     27  C   UNL     1     123.000 128.828 121.059  1.00  0.00     0.063 C 
ATOM     28  C   UNL     1     124.398 127.965 119.084  1.00  0.00     0.033 C 
ATOM     29  C   UNL     1     123.938 127.720 120.541  1.00  0.00     0.118 C 
BRANCH  29  30
ATOM     30  O   UNL     1     125.041 127.548 121.399  1.00  0.00    -0.393 OA
ATOM     31  H   UNL     1     124.836 126.802 122.018  1.00  0.00     0.210 HD
ENDBRANCH  29  30
ENDBRANCH   1  11
TORSDOF 6
ENDMDL
MODEL 6
REMARK VINA RESULT:    -5.249      3.599      9.952
REMARK INTER + INTRA:          -8.101
REMARK INTER:                  -7.071
REMARK INTRA:                  -1.030
REMARK UNBOUND:                -1.164
REMARK SMILES CC[C@@H](C=C[C@H](C)[C@H]1CC[C@H]2[C@H]3CC=C4C[C@H](O)CC[C@]4(C)[C@H]3CC[C@@]12C)C(C)C
REMARK SMILES IDX 6 1 7 2 5 3 4 4 3 5 2 6 1 7 28 8 29 9 30 10 8 11 9 12 26 13
REMARK SMILES IDX 10 14 11 15 25 16 27 17 12 18 24 19 23 20 13 21 21 22 14 23
REMARK SMILES IDX 15 24 20 25 22 26 16 27 19 28 17 29 18 30
REMARK H PARENT 18 31
REMARK Flexibility Score: inf
ROOT
ATOM      1  C   UNL     1     126.785 127.128 118.802  1.00  0.00     0.012 C 
ATOM      2  C   UNL     1     127.481 126.448 119.998  1.00  0.00     0.012 C 
ENDROOT
BRANCH   1   3
ATOM      3  C   UNL     1     126.760 126.182 117.615  1.00  0.00    -0.028 C 
ATOM      4  C   UNL     1     127.843 125.941 116.856  1.00  0.00    -0.027 C 
BRANCH   4   5
ATOM      5  C   UNL     1     127.805 124.980 115.680  1.00  0.00     0.014 C 
BRANCH   5   6
ATOM      6  C   UNL     1     126.615 125.304 114.739  1.00  0.00     0.004 C 
ATOM      7  C   UNL     1     126.753 126.607 113.944  1.00  0.00     0.004 C 
ENDBRANCH   5   6
BRANCH   5   8
ATOM      8  C   UNL     1     127.859 123.464 116.087  1.00  0.00    -0.011 C 
ATOM      9  C   UNL     1     127.178 122.567 115.041  1.00  0.00     0.008 C 
ATOM     10  C   UNL     1     129.283 122.943 116.369  1.00  0.00     0.008 C 
ENDBRANCH   5   8
ENDBRANCH   4   5
ENDBRANCH   1   3
BRANCH   1  11
ATOM     11  C   UNL     1     125.354 127.724 119.073  1.00  0.00     0.002 C 
ATOM     12  C   UNL     1     124.884 127.745 120.523  1.00  0.00     0.005 C 
ATOM     13  C   UNL     1     125.044 129.155 118.530  1.00  0.00    -0.026 C 
ATOM     14  C   UNL     1     123.595 128.542 120.472  1.00  0.00     0.005 C 
ATOM     15  C   UNL     1     123.783 129.595 119.357  1.00  0.00    -0.001 C 
ATOM     16  C   UNL     1     126.220 130.140 118.750  1.00  0.00     0.007 C 
ATOM     17  C   UNL     1     124.730 129.067 117.012  1.00  0.00     0.012 C 
ATOM     18  C   UNL     1     123.759 131.090 119.842  1.00  0.00     0.000 C 
ATOM     19  C   UNL     1     125.868 131.624 118.520  1.00  0.00     0.005 C 
ATOM     20  C   UNL     1     124.375 132.008 118.761  1.00  0.00     0.003 C 
ATOM     21  C   UNL     1     124.402 131.388 121.219  1.00  0.00     0.031 C 
ATOM     22  C   UNL     1     124.164 133.539 119.093  1.00  0.00    -0.008 C 
ATOM     23  C   UNL     1     124.511 132.862 121.508  1.00  0.00    -0.027 C 
ATOM     24  C   UNL     1     124.423 133.834 120.570  1.00  0.00    -0.065 C 
ATOM     25  C   UNL     1     122.689 133.963 118.795  1.00  0.00     0.014 C 
ATOM     26  C   UNL     1     125.105 134.401 118.198  1.00  0.00     0.016 C 
ATOM     27  C   UNL     1     124.210 135.259 121.027  1.00  0.00     0.063 C 
ATOM     28  C   UNL     1     122.339 135.394 119.271  1.00  0.00     0.033 C 
ATOM     29  C   UNL     1     122.758 135.684 120.733  1.00  0.00     0.118 C 
BRANCH  29  30
ATOM     30  O   UNL     1     121.862 135.093 121.644  1.00  0.00    -0.393 OA
ATOM     31  H   UNL     1     121.646 135.762 122.342  1.00  0.00     0.210 HD
ENDBRANCH  29  30
ENDBRANCH   1  11
TORSDOF 6
ENDMDL
MODEL 7
REMARK VINA RESULT:    -5.129      1.978      3.162
REMARK INTER + INTRA:          -7.942
REMARK INTER:                  -7.186
REMARK INTRA:                  -0.756
REMARK UNBOUND:                -1.164
REMARK SMILES CC[C@@H](C=C[C@H](C)[C@H]1CC[C@H]2[C@H]3CC=C4C[C@H](O)CC[C@]4(C)[C@H]3CC[C@@]12C)C(C)C
REMARK SMILES IDX 6 1 7 2 5 3 4 4 3 5 2 6 1 7 28 8 29 9 30 10 8 11 9 12 26 13
REMARK SMILES IDX 10 14 11 15 25 16 27 17 12 18 24 19 23 20 13 21 21 22 14 23
REMARK SMILES IDX 15 24 20 25 22 26 16 27 19 28 17 29 18 30
REMARK H PARENT 18 31
REMARK Flexibility Score: inf
ROOT
ATOM      1  C   UNL     1     125.166 136.378 120.201  1.00  0.00     0.012 C 
ATOM      2  C   UNL     1     123.920 136.962 120.900  1.00  0.00     0.012 C 
ENDROOT
BRANCH   1   3
ATOM      3  C   UNL     1     126.151 135.878 121.241  1.00  0.00    -0.028 C 
ATOM      4  C   UNL     1     127.482 135.998 121.097  1.00  0.00    -0.027 C 
BRANCH   4   5
ATOM      5  C   UNL     1     128.455 135.504 122.154  1.00  0.00     0.014 C 
BRANCH   5   6
ATOM      6  C   UNL     1     129.857 136.136 121.956  1.00  0.00     0.004 C 
ATOM      7  C   UNL     1     130.052 136.879 120.630  1.00  0.00     0.004 C 
ENDBRANCH   5   6
BRANCH   5   8
ATOM      8  C   UNL     1     128.511 133.941 122.297  1.00  0.00    -0.011 C 
ATOM      9  C   UNL     1     127.519 133.426 123.352  1.00  0.00     0.008 C 
ATOM     10  C   UNL     1     128.295 133.184 120.970  1.00  0.00     0.008 C 
ENDBRANCH   5   8
ENDBRANCH   4   5
ENDBRANCH   1   3
BRANCH   1  11
ATOM     11  C   UNL     1     124.902 135.281 119.106  1.00  0.00     0.002 C 
ATOM     12  C   UNL     1     126.119 134.768 118.343  1.00  0.00     0.005 C 
ATOM     13  C   UNL     1     124.124 133.995 119.531  1.00  0.00    -0.026 C 
ATOM     14  C   UNL     1     125.573 133.609 117.532  1.00  0.00     0.005 C 
ATOM     15  C   UNL     1     124.457 132.971 118.388  1.00  0.00    -0.001 C 
ATOM     16  C   UNL     1     124.584 133.454 120.909  1.00  0.00     0.007 C 
ATOM     17  C   UNL     1     122.607 134.315 119.590  1.00  0.00     0.012 C 
ATOM     18  C   UNL     1     124.729 131.491 118.842  1.00  0.00     0.000 C 
ATOM     19  C   UNL     1     124.082 132.034 121.243  1.00  0.00     0.005 C 
ATOM     20  C   UNL     1     123.795 131.115 120.014  1.00  0.00     0.003 C 
ATOM     21  C   UNL     1     126.193 131.126 119.192  1.00  0.00     0.031 C 
ATOM     22  C   UNL     1     123.862 129.573 120.354  1.00  0.00    -0.008 C 
ATOM     23  C   UNL     1     126.325 129.755 119.802  1.00  0.00    -0.027 C 
ATOM     24  C   UNL     1     125.299 129.055 120.340  1.00  0.00    -0.065 C 
ATOM     25  C   UNL     1     123.068 128.746 119.291  1.00  0.00     0.014 C 
ATOM     26  C   UNL     1     123.210 129.317 121.748  1.00  0.00     0.016 C 
ATOM     27  C   UNL     1     125.495 127.580 120.605  1.00  0.00     0.063 C 
ATOM     28  C   UNL     1     123.238 127.213 119.432  1.00  0.00     0.033 C 
ATOM     29  C   UNL     1     124.712 126.759 119.561  1.00  0.00     0.118 C 
BRANCH  29  30
ATOM     30  O   UNL     1     125.360 126.780 118.311  1.00  0.00    -0.393 OA
ATOM     31  H   UNL     1     126.216 127.267 118.415  1.00  0.00     0.210 HD
ENDBRANCH  29  30
ENDBRANCH   1  11
TORSDOF 6
ENDMDL
MODEL 8
REMARK VINA RESULT:    -5.021      3.299      9.376
REMARK INTER + INTRA:          -7.799
REMARK INTER:                  -6.436
REMARK INTRA:                  -1.364
REMARK UNBOUND:                -1.164
REMARK SMILES CC[C@@H](C=C[C@H](C)[C@H]1CC[C@H]2[C@H]3CC=C4C[C@H](O)CC[C@]4(C)[C@H]3CC[C@@]12C)C(C)C
REMARK SMILES IDX 6 1 7 2 5 3 4 4 3 5 2 6 1 7 28 8 29 9 30 10 8 11 9 12 26 13
REMARK SMILES IDX 10 14 11 15 25 16 27 17 12 18 24 19 23 20 13 21 21 22 14 23
REMARK SMILES IDX 15 24 20 25 22 26 16 27 19 28 17 29 18 30
REMARK H PARENT 18 31
REMARK Flexibility Score: inf
ROOT
ATOM      1  C   UNL     1     126.547 127.566 119.874  1.00  0.00     0.012 C 
ATOM      2  C   UNL     1     125.630 126.648 120.709  1.00  0.00     0.012 C 
ENDROOT
BRANCH   1   3
ATOM      3  C   UNL     1     127.588 126.732 119.150  1.00  0.00    -0.028 C 
ATOM      4  C   UNL     1     127.511 126.456 117.836  1.00  0.00    -0.027 C 
BRANCH   4   5
ATOM      5  C   UNL     1     128.568 125.630 117.124  1.00  0.00     0.014 C 
BRANCH   5   6
ATOM      6  C   UNL     1     129.906 126.409 117.026  1.00  0.00     0.004 C 
ATOM      7  C   UNL     1     129.801 127.804 116.400  1.00  0.00     0.004 C 
ENDBRANCH   5   6
BRANCH   5   8
ATOM      8  C   UNL     1     128.106 125.048 115.740  1.00  0.00    -0.011 C 
ATOM      9  C   UNL     1     127.969 123.518 115.781  1.00  0.00     0.008 C 
ATOM     10  C   UNL     1     126.801 125.671 115.204  1.00  0.00     0.008 C 
ENDBRANCH   5   8
ENDBRANCH   4   5
ENDBRANCH   1   3
BRANCH   1  11
ATOM     11  C   UNL     1     125.831 128.553 118.882  1.00  0.00     0.002 C 
ATOM     12  C   UNL     1     124.307 128.566 118.908  1.00  0.00     0.005 C 
ATOM     13  C   UNL     1     126.245 130.059 118.922  1.00  0.00    -0.026 C 
ATOM     14  C   UNL     1     123.940 129.734 118.012  1.00  0.00     0.005 C 
ATOM     15  C   UNL     1     125.056 130.786 118.197  1.00  0.00    -0.001 C 
ATOM     16  C   UNL     1     126.415 130.588 120.369  1.00  0.00     0.007 C 
ATOM     17  C   UNL     1     127.581 130.241 118.153  1.00  0.00     0.012 C 
ATOM     18  C   UNL     1     124.590 132.148 118.826  1.00  0.00     0.000 C 
ATOM     19  C   UNL     1     126.519 132.122 120.486  1.00  0.00     0.005 C 
ATOM     20  C   UNL     1     125.811 132.933 119.356  1.00  0.00     0.003 C 
ATOM     21  C   UNL     1     123.492 132.075 119.916  1.00  0.00     0.031 C 
ATOM     22  C   UNL     1     125.428 134.406 119.785  1.00  0.00    -0.008 C 
ATOM     23  C   UNL     1     123.253 133.397 120.597  1.00  0.00    -0.027 C 
ATOM     24  C   UNL     1     124.114 134.442 120.562  1.00  0.00    -0.065 C 
ATOM     25  C   UNL     1     125.236 135.308 118.523  1.00  0.00     0.014 C 
ATOM     26  C   UNL     1     126.579 135.015 120.643  1.00  0.00     0.016 C 
ATOM     27  C   UNL     1     123.612 135.802 120.991  1.00  0.00     0.063 C 
ATOM     28  C   UNL     1     124.673 136.716 118.836  1.00  0.00     0.033 C 
ATOM     29  C   UNL     1     123.424 136.697 119.750  1.00  0.00     0.118 C 
BRANCH  29  30
ATOM     30  O   UNL     1     122.273 136.327 119.028  1.00  0.00    -0.393 OA
ATOM     31  H   UNL     1     122.390 135.393 118.720  1.00  0.00     0.210 HD
ENDBRANCH  29  30
ENDBRANCH   1  11
TORSDOF 6
ENDMDL
