MODEL 1
REMARK VINA RESULT:    -4.682      0.000      0.000
REMARK INTER + INTRA:         -13.107
REMARK INTER:                 -10.155
REMARK INTRA:                  -2.951
REMARK UNBOUND:                -2.951
REMARK SMILES CCCCCCCCCCCCCCCCCCCCCC(=O)[O-]
REMARK SMILES IDX 12 1 11 2 10 3 9 4 8 5 7 6 6 7 5 8 4 9 3 10 2 11 1 12 13 13
REMARK SMILES IDX 14 14 15 15 16 16 17 17 18 18 19 19 20 20 21 21 22 22 23 23
REMARK SMILES IDX 24 24
REMARK H PARENT
REMARK Flexibility Score: inf
ROOT
ATOM      1  C   UNL     1      17.464  54.091 159.384  1.00  0.00     0.000 C 
ENDROOT
BRANCH   1   2
ATOM      2  C   UNL     1      16.860  52.963 160.237  1.00  0.00     0.000 C 
BRANCH   2   3
ATOM      3  C   UNL     1      16.262  51.836 159.383  1.00  0.00     0.000 C 
BRANCH   3   4
ATOM      4  C   UNL     1      14.767  51.655 159.679  1.00  0.00    -0.000 C 
BRANCH   4   5
ATOM      5  C   UNL     1      13.874  52.571 158.822  1.00  0.00    -0.000 C 
BRANCH   5   6
ATOM      6  C   UNL     1      14.403  52.783 157.388  1.00  0.00    -0.000 C 
BRANCH   6   7
ATOM      7  C   UNL     1      13.515  53.742 156.578  1.00  0.00    -0.000 C 
BRANCH   7   8
ATOM      8  C   UNL     1      14.275  54.981 156.073  1.00  0.00    -0.000 C 
BRANCH   8   9
ATOM      9  C   UNL     1      15.408  55.438 157.016  1.00  0.00    -0.000 C 
BRANCH   9  10
ATOM     10  C   UNL     1      15.782  56.915 156.804  1.00  0.00    -0.000 C 
BRANCH  10  11
ATOM     11  C   UNL     1      16.782  57.426 157.854  1.00  0.00    -0.003 C 
ATOM     12  C   UNL     1      18.236  57.207 157.439  1.00  0.00     0.004 C 
ENDBRANCH  10  11
ENDBRANCH   9  10
ENDBRANCH   8   9
ENDBRANCH   7   8
ENDBRANCH   6   7
ENDBRANCH   5   6
ENDBRANCH   4   5
ENDBRANCH   3   4
ENDBRANCH   2   3
ENDBRANCH   1   2
BRANCH   1  13
ATOM     13  C   UNL     1      18.413  53.565 158.294  1.00  0.00     0.000 C 
BRANCH  13  14
ATOM     14  C   UNL     1      19.883  53.914 158.575  1.00  0.00     0.000 C 
BRANCH  14  15
ATOM     15  C   UNL     1      20.371  53.362 159.926  1.00  0.00     0.000 C 
BRANCH  15  16
ATOM     16  C   UNL     1      21.189  54.389 160.725  1.00  0.00     0.000 C 
BRANCH  16  17
ATOM     17  C   UNL     1      20.302  55.354 161.528  1.00  0.00     0.000 C 
BRANCH  17  18
ATOM     18  C   UNL     1      20.074  56.690 160.801  1.00  0.00     0.000 C 
BRANCH  18  19
ATOM     19  C   UNL     1      18.914  57.503 161.403  1.00  0.00     0.000 C 
BRANCH  19  20
ATOM     20  C   UNL     1      19.190  59.015 161.402  1.00  0.00     0.006 C 
BRANCH  20  21
ATOM     21  C   UNL     1      19.608  59.537 160.022  1.00  0.00     0.053 C 
BRANCH  21  22
ATOM     22  C   UNL     1      18.641  60.574 159.543  1.00  0.00     0.041 C 
ATOM     23  O   UNL     1      19.061  61.638 159.017  1.00  0.00    -0.550 OA
ATOM     24  O   UNL     1      17.277  60.391 159.730  1.00  0.00    -0.550 OA
ENDBRANCH  21  22
ENDBRANCH  20  21
ENDBRANCH  19  20
ENDBRANCH  18  19
ENDBRANCH  17  18
ENDBRANCH  16  17
ENDBRANCH  15  16
ENDBRANCH  14  15
ENDBRANCH  13  14
ENDBRANCH   1  13
TORSDOF 20
ENDMDL
MODEL 2
REMARK VINA RESULT:    -4.647      3.004      4.998
REMARK INTER + INTRA:         -13.032
REMARK INTER:                  -9.780
REMARK INTRA:                  -3.253
REMARK UNBOUND:                -2.951
REMARK SMILES CCCCCCCCCCCCCCCCCCCCCC(=O)[O-]
REMARK SMILES IDX 12 1 11 2 10 3 9 4 8 5 7 6 6 7 5 8 4 9 3 10 2 11 1 12 13 13
REMARK SMILES IDX 14 14 15 15 16 16 17 17 18 18 19 19 20 20 21 21 22 22 23 23
REMARK SMILES IDX 24 24
REMARK H PARENT
REMARK Flexibility Score: inf
ROOT
ATOM      1  C   UNL     1      14.418  52.321 158.857  1.00  0.00     0.000 C 
ENDROOT
BRANCH   1   2
ATOM      2  C   UNL     1      14.643  52.599 157.362  1.00  0.00     0.000 C 
BRANCH   2   3
ATOM      3  C   UNL     1      13.695  53.677 156.815  1.00  0.00     0.000 C 
BRANCH   3   4
ATOM      4  C   UNL     1      14.475  54.927 156.384  1.00  0.00    -0.000 C 
BRANCH   4   5
ATOM      5  C   UNL     1      15.987  54.806 156.640  1.00  0.00    -0.000 C 
BRANCH   5   6
ATOM      6  C   UNL     1      16.592  56.033 157.355  1.00  0.00    -0.000 C 
BRANCH   6   7
ATOM      7  C   UNL     1      18.122  55.937 157.479  1.00  0.00    -0.000 C 
BRANCH   7   8
ATOM      8  C   UNL     1      18.712  56.977 158.447  1.00  0.00    -0.000 C 
BRANCH   8   9
ATOM      9  C   UNL     1      17.753  57.373 159.589  1.00  0.00    -0.000 C 
BRANCH   9  10
ATOM     10  C   UNL     1      18.504  57.913 160.819  1.00  0.00    -0.000 C 
BRANCH  10  11
ATOM     11  C   UNL     1      17.896  57.420 162.142  1.00  0.00    -0.003 C 
ATOM     12  C   UNL     1      18.908  57.407 163.287  1.00  0.00     0.004 C 
ENDBRANCH  10  11
ENDBRANCH   9  10
ENDBRANCH   8   9
ENDBRANCH   7   8
ENDBRANCH   6   7
ENDBRANCH   5   6
ENDBRANCH   4   5
ENDBRANCH   3   4
ENDBRANCH   2   3
ENDBRANCH   1   2
BRANCH   1  13
ATOM     13  C   UNL     1      15.689  51.820 159.563  1.00  0.00     0.000 C 
BRANCH  13  14
ATOM     14  C   UNL     1      16.925  51.862 158.650  1.00  0.00     0.000 C 
BRANCH  14  15
ATOM     15  C   UNL     1      17.958  52.908 159.106  1.00  0.00     0.000 C 
BRANCH  15  16
ATOM     16  C   UNL     1      17.505  53.685 160.353  1.00  0.00     0.000 C 
BRANCH  16  17
ATOM     17  C   UNL     1      18.683  54.090 161.254  1.00  0.00     0.000 C 
BRANCH  17  18
ATOM     18  C   UNL     1      20.031  54.059 160.514  1.00  0.00     0.000 C 
BRANCH  18  19
ATOM     19  C   UNL     1      21.081  54.985 161.155  1.00  0.00     0.000 C 
BRANCH  19  20
ATOM     20  C   UNL     1      22.393  55.030 160.357  1.00  0.00     0.006 C 
BRANCH  20  21
ATOM     21  C   UNL     1      23.308  56.182 160.791  1.00  0.00     0.053 C 
BRANCH  21  22
ATOM     22  C   UNL     1      24.505  55.653 161.516  1.00  0.00     0.041 C 
ATOM     23  O   UNL     1      25.402  56.440 161.918  1.00  0.00    -0.550 OA
ATOM     24  O   UNL     1      24.659  54.284 161.698  1.00  0.00    -0.550 OA
ENDBRANCH  21  22
ENDBRANCH  20  21
ENDBRANCH  19  20
ENDBRANCH  18  19
ENDBRANCH  17  18
ENDBRANCH  16  17
ENDBRANCH  15  16
ENDBRANCH  14  15
ENDBRANCH  13  14
ENDBRANCH   1  13
TORSDOF 20
ENDMDL
MODEL 3
REMARK VINA RESULT:    -4.628      1.461      2.149
REMARK INTER + INTRA:         -12.990
REMARK INTER:                  -9.661
REMARK INTRA:                  -3.329
REMARK UNBOUND:                -2.951
REMARK SMILES CCCCCCCCCCCCCCCCCCCCCC(=O)[O-]
REMARK SMILES IDX 12 1 11 2 10 3 9 4 8 5 7 6 6 7 5 8 4 9 3 10 2 11 1 12 13 13
REMARK SMILES IDX 14 14 15 15 16 16 17 17 18 18 19 19 20 20 21 21 22 22 23 23
REMARK SMILES IDX 24 24
REMARK H PARENT
REMARK Flexibility Score: inf
ROOT
ATOM      1  C   UNL     1      17.298  53.287 160.388  1.00  0.00     0.000 C 
ENDROOT
BRANCH   1   2
ATOM      2  C   UNL     1      17.527  52.644 159.011  1.00  0.00     0.000 C 
BRANCH   2   3
ATOM      3  C   UNL     1      16.449  51.608 158.659  1.00  0.00     0.000 C 
BRANCH   3   4
ATOM      4  C   UNL     1      15.100  51.982 159.290  1.00  0.00    -0.000 C 
BRANCH   4   5
ATOM      5  C   UNL     1      14.195  52.780 158.336  1.00  0.00    -0.000 C 
BRANCH   5   6
ATOM      6  C   UNL     1      14.491  52.523 156.844  1.00  0.00    -0.000 C 
BRANCH   6   7
ATOM      7  C   UNL     1      14.562  53.828 156.033  1.00  0.00    -0.000 C 
BRANCH   7   8
ATOM      8  C   UNL     1      15.383  54.926 156.732  1.00  0.00    -0.000 C 
BRANCH   8   9
ATOM      9  C   UNL     1      16.816  55.073 156.179  1.00  0.00    -0.000 C 
BRANCH   9  10
ATOM     10  C   UNL     1      17.735  55.846 157.142  1.00  0.00    -0.000 C 
BRANCH  10  11
ATOM     11  C   UNL     1      16.950  56.594 158.232  1.00  0.00    -0.003 C 
ATOM     12  C   UNL     1      16.776  58.079 157.919  1.00  0.00     0.004 C 
ENDBRANCH  10  11
ENDBRANCH   9  10
ENDBRANCH   8   9
ENDBRANCH   7   8
ENDBRANCH   6   7
ENDBRANCH   5   6
ENDBRANCH   4   5
ENDBRANCH   3   4
ENDBRANCH   2   3
ENDBRANCH   1   2
BRANCH   1  13
ATOM     13  C   UNL     1      18.195  54.514 160.625  1.00  0.00     0.000 C 
BRANCH  13  14
ATOM     14  C   UNL     1      18.892  54.478 161.994  1.00  0.00     0.000 C 
BRANCH  14  15
ATOM     15  C   UNL     1      20.382  54.109 161.887  1.00  0.00     0.000 C 
BRANCH  15  16
ATOM     16  C   UNL     1      20.819  53.820 160.443  1.00  0.00     0.000 C 
BRANCH  16  17
ATOM     17  C   UNL     1      22.301  54.149 160.198  1.00  0.00     0.000 C 
BRANCH  17  18
ATOM     18  C   UNL     1      22.796  55.323 161.060  1.00  0.00     0.000 C 
BRANCH  18  19
ATOM     19  C   UNL     1      22.628  56.684 160.360  1.00  0.00     0.000 C 
BRANCH  19  20
ATOM     20  C   UNL     1      21.503  57.529 160.976  1.00  0.00     0.006 C 
BRANCH  20  21
ATOM     21  C   UNL     1      20.232  57.535 160.119  1.00  0.00     0.053 C 
BRANCH  21  22
ATOM     22  C   UNL     1      19.216  58.469 160.698  1.00  0.00     0.041 C 
ATOM     23  O   UNL     1      19.324  59.711 160.521  1.00  0.00    -0.550 OA
ATOM     24  O   UNL     1      18.183  57.972 161.482  1.00  0.00    -0.550 OA
ENDBRANCH  21  22
ENDBRANCH  20  21
ENDBRANCH  19  20
ENDBRANCH  18  19
ENDBRANCH  17  18
ENDBRANCH  16  17
ENDBRANCH  15  16
ENDBRANCH  14  15
ENDBRANCH  13  14
ENDBRANCH   1  13
TORSDOF 20
ENDMDL
MODEL 4
REMARK VINA RESULT:    -4.618      1.331      3.844
REMARK INTER + INTRA:         -12.969
REMARK INTER:                  -9.585
REMARK INTRA:                  -3.384
REMARK UNBOUND:                -2.951
REMARK SMILES CCCCCCCCCCCCCCCCCCCCCC(=O)[O-]
REMARK SMILES IDX 12 1 11 2 10 3 9 4 8 5 7 6 6 7 5 8 4 9 3 10 2 11 1 12 13 13
REMARK SMILES IDX 14 14 15 15 16 16 17 17 18 18 19 19 20 20 21 21 22 22 23 23
REMARK SMILES IDX 24 24
REMARK H PARENT
REMARK Flexibility Score: inf
ROOT
ATOM      1  C   UNL     1      20.704  54.065 160.400  1.00  0.00     0.000 C 
ENDROOT
BRANCH   1   2
ATOM      2  C   UNL     1      19.419  53.450 159.821  1.00  0.00     0.000 C 
BRANCH   2   3
ATOM      3  C   UNL     1      19.169  53.872 158.366  1.00  0.00     0.000 C 
BRANCH   3   4
ATOM      4  C   UNL     1      18.574  55.286 158.298  1.00  0.00    -0.000 C 
BRANCH   4   5
ATOM      5  C   UNL     1      17.067  55.314 158.608  1.00  0.00    -0.000 C 
BRANCH   5   6
ATOM      6  C   UNL     1      16.209  55.872 157.452  1.00  0.00    -0.000 C 
BRANCH   6   7
ATOM      7  C   UNL     1      15.162  54.857 156.964  1.00  0.00    -0.000 C 
BRANCH   7   8
ATOM      8  C   UNL     1      15.787  53.546 156.456  1.00  0.00    -0.000 C 
BRANCH   8   9
ATOM      9  C   UNL     1      15.237  52.286 157.157  1.00  0.00    -0.000 C 
BRANCH   9  10
ATOM     10  C   UNL     1      16.262  51.663 158.121  1.00  0.00    -0.000 C 
BRANCH  10  11
ATOM     11  C   UNL     1      15.742  51.592 159.566  1.00  0.00    -0.003 C 
ATOM     12  C   UNL     1      14.250  51.902 159.673  1.00  0.00     0.004 C 
ENDBRANCH  10  11
ENDBRANCH   9  10
ENDBRANCH   8   9
ENDBRANCH   7   8
ENDBRANCH   6   7
ENDBRANCH   5   6
ENDBRANCH   4   5
ENDBRANCH   3   4
ENDBRANCH   2   3
ENDBRANCH   1   2
BRANCH   1  13
ATOM     13  C   UNL     1      20.528  54.547 161.850  1.00  0.00     0.000 C 
BRANCH  13  14
ATOM     14  C   UNL     1      19.067  54.892 162.182  1.00  0.00     0.000 C 
BRANCH  14  15
ATOM     15  C   UNL     1      18.870  56.388 162.485  1.00  0.00     0.000 C 
BRANCH  15  16
ATOM     16  C   UNL     1      17.784  57.032 161.609  1.00  0.00     0.000 C 
BRANCH  16  17
ATOM     17  C   UNL     1      18.321  58.203 160.770  1.00  0.00     0.000 C 
BRANCH  17  18
ATOM     18  C   UNL     1      19.834  58.413 160.950  1.00  0.00     0.000 C 
BRANCH  18  19
ATOM     19  C   UNL     1      20.639  58.035 159.693  1.00  0.00     0.000 C 
BRANCH  19  20
ATOM     20  C   UNL     1      21.248  59.259 158.992  1.00  0.00     0.006 C 
BRANCH  20  21
ATOM     21  C   UNL     1      21.058  60.553 159.794  1.00  0.00     0.053 C 
BRANCH  21  22
ATOM     22  C   UNL     1      20.175  61.504 159.049  1.00  0.00     0.041 C 
ATOM     23  O   UNL     1      18.925  61.450 159.190  1.00  0.00    -0.550 OA
ATOM     24  O   UNL     1      20.729  62.410 158.154  1.00  0.00    -0.550 OA
ENDBRANCH  21  22
ENDBRANCH  20  21
ENDBRANCH  19  20
ENDBRANCH  18  19
ENDBRANCH  17  18
ENDBRANCH  16  17
ENDBRANCH  15  16
ENDBRANCH  14  15
ENDBRANCH  13  14
ENDBRANCH   1  13
TORSDOF 20
ENDMDL
MODEL 5
REMARK VINA RESULT:    -4.565      1.199      4.094
REMARK INTER + INTRA:         -12.854
REMARK INTER:                  -9.502
REMARK INTRA:                  -3.352
REMARK UNBOUND:                -2.951
REMARK SMILES CCCCCCCCCCCCCCCCCCCCCC(=O)[O-]
REMARK SMILES IDX 12 1 11 2 10 3 9 4 8 5 7 6 6 7 5 8 4 9 3 10 2 11 1 12 13 13
REMARK SMILES IDX 14 14 15 15 16 16 17 17 18 18 19 19 20 20 21 21 22 22 23 23
REMARK SMILES IDX 24 24
REMARK H PARENT
REMARK Flexibility Score: inf
ROOT
ATOM      1  C   UNL     1      15.242  54.964 156.996  1.00  0.00     0.000 C 
ENDROOT
BRANCH   1   2
ATOM      2  C   UNL     1      15.225  53.747 156.057  1.00  0.00     0.000 C 
BRANCH   2   3
ATOM      3  C   UNL     1      14.738  52.470 156.758  1.00  0.00     0.000 C 
BRANCH   3   4
ATOM      4  C   UNL     1      14.270  52.772 158.188  1.00  0.00    -0.000 C 
BRANCH   4   5
ATOM      5  C   UNL     1      14.912  51.844 159.235  1.00  0.00    -0.000 C 
BRANCH   5   6
ATOM      6  C   UNL     1      16.163  52.444 159.908  1.00  0.00    -0.000 C 
BRANCH   6   7
ATOM      7  C   UNL     1      17.431  52.245 159.061  1.00  0.00    -0.000 C 
BRANCH   7   8
ATOM      8  C   UNL     1      18.199  53.555 158.812  1.00  0.00    -0.000 C 
BRANCH   8   9
ATOM      9  C   UNL     1      19.663  53.515 159.298  1.00  0.00    -0.000 C 
BRANCH   9  10
ATOM     10  C   UNL     1      20.093  54.837 159.958  1.00  0.00    -0.000 C 
BRANCH  10  11
ATOM     11  C   UNL     1      19.082  55.328 161.007  1.00  0.00    -0.003 C 
ATOM     12  C   UNL     1      19.073  54.463 162.267  1.00  0.00     0.004 C 
ENDBRANCH  10  11
ENDBRANCH   9  10
ENDBRANCH   8   9
ENDBRANCH   7   8
ENDBRANCH   6   7
ENDBRANCH   5   6
ENDBRANCH   4   5
ENDBRANCH   3   4
ENDBRANCH   2   3
ENDBRANCH   1   2
BRANCH   1  13
ATOM     13  C   UNL     1      15.121  56.298 156.239  1.00  0.00     0.000 C 
BRANCH  13  14
ATOM     14  C   UNL     1      16.083  57.369 156.777  1.00  0.00     0.000 C 
BRANCH  14  15
ATOM     15  C   UNL     1      17.164  56.779 157.700  1.00  0.00     0.000 C 
BRANCH  15  16
ATOM     16  C   UNL     1      18.558  56.774 157.053  1.00  0.00     0.000 C 
BRANCH  16  17
ATOM     17  C   UNL     1      18.999  58.173 156.591  1.00  0.00     0.000 C 
BRANCH  17  18
ATOM     18  C   UNL     1      20.399  58.551 157.106  1.00  0.00     0.000 C 
BRANCH  18  19
ATOM     19  C   UNL     1      20.639  58.098 158.557  1.00  0.00     0.000 C 
BRANCH  19  20
ATOM     20  C   UNL     1      20.289  59.188 159.581  1.00  0.00     0.006 C 
BRANCH  20  21
ATOM     21  C   UNL     1      18.903  58.986 160.207  1.00  0.00     0.053 C 
BRANCH  21  22
ATOM     22  C   UNL     1      17.943  60.009 159.689  1.00  0.00     0.041 C 
ATOM     23  O   UNL     1      16.723  59.724 159.555  1.00  0.00    -0.550 OA
ATOM     24  O   UNL     1      18.403  61.260 159.299  1.00  0.00    -0.550 OA
ENDBRANCH  21  22
ENDBRANCH  20  21
ENDBRANCH  19  20
ENDBRANCH  18  19
ENDBRANCH  17  18
ENDBRANCH  16  17
ENDBRANCH  15  16
ENDBRANCH  14  15
ENDBRANCH  13  14
ENDBRANCH   1  13
TORSDOF 20
ENDMDL
MODEL 6
REMARK VINA RESULT:    -4.556      2.336      6.037
REMARK INTER + INTRA:         -12.835
REMARK INTER:                  -9.263
REMARK INTRA:                  -3.572
REMARK UNBOUND:                -2.951
REMARK SMILES CCCCCCCCCCCCCCCCCCCCCC(=O)[O-]
REMARK SMILES IDX 12 1 11 2 10 3 9 4 8 5 7 6 6 7 5 8 4 9 3 10 2 11 1 12 13 13
REMARK SMILES IDX 14 14 15 15 16 16 17 17 18 18 19 19 20 20 21 21 22 22 23 23
REMARK SMILES IDX 24 24
REMARK H PARENT
REMARK Flexibility Score: inf
ROOT
ATOM      1  C   UNL     1      16.064  54.253 156.091  1.00  0.00     0.000 C 
ENDROOT
BRANCH   1   2
ATOM      2  C   UNL     1      16.666  55.660 156.237  1.00  0.00     0.000 C 
BRANCH   2   3
ATOM      3  C   UNL     1      16.124  56.406 157.465  1.00  0.00     0.000 C 
BRANCH   3   4
ATOM      4  C   UNL     1      17.254  57.125 158.215  1.00  0.00    -0.000 C 
BRANCH   4   5
ATOM      5  C   UNL     1      18.464  57.437 157.316  1.00  0.00    -0.000 C 
BRANCH   5   6
ATOM      6  C   UNL     1      19.178  58.756 157.677  1.00  0.00    -0.000 C 
BRANCH   6   7
ATOM      7  C   UNL     1      18.552  59.438 158.905  1.00  0.00    -0.000 C 
BRANCH   7   8
ATOM      8  C   UNL     1      19.591  60.145 159.793  1.00  0.00    -0.000 C 
BRANCH   8   9
ATOM      9  C   UNL     1      20.526  59.174 160.544  1.00  0.00    -0.000 C 
BRANCH   9  10
ATOM     10  C   UNL     1      19.871  57.802 160.781  1.00  0.00    -0.000 C 
BRANCH  10  11
ATOM     11  C   UNL     1      19.124  57.731 162.123  1.00  0.00    -0.003 C 
ATOM     12  C   UNL     1      17.625  57.488 161.951  1.00  0.00     0.004 C 
ENDBRANCH  10  11
ENDBRANCH   9  10
ENDBRANCH   8   9
ENDBRANCH   7   8
ENDBRANCH   6   7
ENDBRANCH   5   6
ENDBRANCH   4   5
ENDBRANCH   3   4
ENDBRANCH   2   3
ENDBRANCH   1   2
BRANCH   1  13
ATOM     13  C   UNL     1      14.713  54.109 156.814  1.00  0.00     0.000 C 
BRANCH  13  14
ATOM     14  C   UNL     1      14.596  52.784 157.582  1.00  0.00     0.000 C 
BRANCH  14  15
ATOM     15  C   UNL     1      15.764  51.827 157.287  1.00  0.00     0.000 C 
BRANCH  15  16
ATOM     16  C   UNL     1      16.622  51.538 158.529  1.00  0.00     0.000 C 
BRANCH  16  17
ATOM     17  C   UNL     1      16.298  52.478 159.702  1.00  0.00     0.000 C 
BRANCH  17  18
ATOM     18  C   UNL     1      17.291  53.647 159.814  1.00  0.00     0.000 C 
BRANCH  18  19
ATOM     19  C   UNL     1      18.495  53.495 158.866  1.00  0.00     0.000 C 
BRANCH  19  20
ATOM     20  C   UNL     1      19.690  54.364 159.286  1.00  0.00     0.006 C 
BRANCH  20  21
ATOM     21  C   UNL     1      20.649  53.631 160.232  1.00  0.00     0.053 C 
BRANCH  21  22
ATOM     22  C   UNL     1      20.727  54.339 161.547  1.00  0.00     0.041 C 
ATOM     23  O   UNL     1      19.768  54.269 162.362  1.00  0.00    -0.550 OA
ATOM     24  O   UNL     1      21.832  55.123 161.851  1.00  0.00    -0.550 OA
ENDBRANCH  21  22
ENDBRANCH  20  21
ENDBRANCH  19  20
ENDBRANCH  18  19
ENDBRANCH  17  18
ENDBRANCH  16  17
ENDBRANCH  15  16
ENDBRANCH  14  15
ENDBRANCH  13  14
ENDBRANCH   1  13
TORSDOF 20
ENDMDL
MODEL 7
REMARK VINA RESULT:    -4.547      2.167      3.275
REMARK INTER + INTRA:         -12.815
REMARK INTER:                  -9.290
REMARK INTRA:                  -3.525
REMARK UNBOUND:                -2.951
REMARK SMILES CCCCCCCCCCCCCCCCCCCCCC(=O)[O-]
REMARK SMILES IDX 12 1 11 2 10 3 9 4 8 5 7 6 6 7 5 8 4 9 3 10 2 11 1 12 13 13
REMARK SMILES IDX 14 14 15 15 16 16 17 17 18 18 19 19 20 20 21 21 22 22 23 23
REMARK SMILES IDX 24 24
REMARK H PARENT
REMARK Flexibility Score: inf
ROOT
ATOM      1  C   UNL     1      17.273  52.259 158.607  1.00  0.00     0.000 C 
ENDROOT
BRANCH   1   2
ATOM      2  C   UNL     1      16.039  51.935 157.749  1.00  0.00     0.000 C 
BRANCH   2   3
ATOM      3  C   UNL     1      14.733  52.438 158.383  1.00  0.00     0.000 C 
BRANCH   3   4
ATOM      4  C   UNL     1      14.017  53.428 157.455  1.00  0.00    -0.000 C 
BRANCH   4   5
ATOM      5  C   UNL     1      14.947  54.022 156.382  1.00  0.00    -0.000 C 
BRANCH   5   6
ATOM      6  C   UNL     1      15.241  55.523 156.582  1.00  0.00    -0.000 C 
BRANCH   6   7
ATOM      7  C   UNL     1      16.242  55.772 157.724  1.00  0.00    -0.000 C 
BRANCH   7   8
ATOM      8  C   UNL     1      17.670  56.043 157.221  1.00  0.00    -0.000 C 
BRANCH   8   9
ATOM      9  C   UNL     1      18.412  57.133 158.025  1.00  0.00    -0.000 C 
BRANCH   9  10
ATOM     10  C   UNL     1      17.742  57.413 159.382  1.00  0.00    -0.000 C 
BRANCH  10  11
ATOM     11  C   UNL     1      17.372  58.894 159.562  1.00  0.00    -0.003 C 
ATOM     12  C   UNL     1      18.589  59.816 159.506  1.00  0.00     0.004 C 
ENDBRANCH  10  11
ENDBRANCH   9  10
ENDBRANCH   8   9
ENDBRANCH   7   8
ENDBRANCH   6   7
ENDBRANCH   5   6
ENDBRANCH   4   5
ENDBRANCH   3   4
ENDBRANCH   2   3
ENDBRANCH   1   2
BRANCH   1  13
ATOM     13  C   UNL     1      16.904  52.905 159.954  1.00  0.00     0.000 C 
BRANCH  13  14
ATOM     14  C   UNL     1      18.006  53.836 160.481  1.00  0.00     0.000 C 
BRANCH  14  15
ATOM     15  C   UNL     1      19.294  53.759 159.641  1.00  0.00     0.000 C 
BRANCH  15  16
ATOM     16  C   UNL     1      20.554  53.586 160.502  1.00  0.00     0.000 C 
BRANCH  16  17
ATOM     17  C   UNL     1      20.907  54.857 161.292  1.00  0.00     0.000 C 
BRANCH  17  18
ATOM     18  C   UNL     1      21.209  56.057 160.378  1.00  0.00     0.000 C 
BRANCH  18  19
ATOM     19  C   UNL     1      21.033  57.408 161.094  1.00  0.00     0.000 C 
BRANCH  19  20
ATOM     20  C   UNL     1      20.506  57.251 162.529  1.00  0.00     0.006 C 
BRANCH  20  21
ATOM     21  C   UNL     1      19.307  58.162 162.820  1.00  0.00     0.053 C 
BRANCH  21  22
ATOM     22  C   UNL     1      18.879  58.021 164.246  1.00  0.00     0.041 C 
ATOM     23  O   UNL     1      19.656  58.360 165.178  1.00  0.00    -0.550 OA
ATOM     24  O   UNL     1      17.645  57.461 164.550  1.00  0.00    -0.550 OA
ENDBRANCH  21  22
ENDBRANCH  20  21
ENDBRANCH  19  20
ENDBRANCH  18  19
ENDBRANCH  17  18
ENDBRANCH  16  17
ENDBRANCH  15  16
ENDBRANCH  14  15
ENDBRANCH  13  14
ENDBRANCH   1  13
TORSDOF 20
ENDMDL
MODEL 8
REMARK VINA RESULT:    -4.523      1.907      6.274
REMARK INTER + INTRA:         -12.764
REMARK INTER:                  -9.269
REMARK INTRA:                  -3.494
REMARK UNBOUND:                -2.951
REMARK SMILES CCCCCCCCCCCCCCCCCCCCCC(=O)[O-]
REMARK SMILES IDX 12 1 11 2 10 3 9 4 8 5 7 6 6 7 5 8 4 9 3 10 2 11 1 12 13 13
REMARK SMILES IDX 14 14 15 15 16 16 17 17 18 18 19 19 20 20 21 21 22 22 23 23
REMARK SMILES IDX 24 24
REMARK H PARENT
REMARK Flexibility Score: inf
ROOT
ATOM      1  C   UNL     1      18.721  53.798 159.661  1.00  0.00     0.000 C 
ENDROOT
BRANCH   1   2
ATOM      2  C   UNL     1      18.210  54.339 161.006  1.00  0.00     0.000 C 
BRANCH   2   3
ATOM      3  C   UNL     1      19.319  54.422 162.065  1.00  0.00     0.000 C 
BRANCH   3   4
ATOM      4  C   UNL     1      20.699  54.187 161.437  1.00  0.00    -0.000 C 
BRANCH   4   5
ATOM      5  C   UNL     1      21.680  55.342 161.701  1.00  0.00    -0.000 C 
BRANCH   5   6
ATOM      6  C   UNL     1      22.176  56.038 160.416  1.00  0.00    -0.000 C 
BRANCH   6   7
ATOM      7  C   UNL     1      21.541  57.425 160.224  1.00  0.00    -0.000 C 
BRANCH   7   8
ATOM      8  C   UNL     1      20.071  57.355 159.775  1.00  0.00    -0.000 C 
BRANCH   8   9
ATOM      9  C   UNL     1      19.099  58.086 160.726  1.00  0.00    -0.000 C 
BRANCH   9  10
ATOM     10  C   UNL     1      19.829  58.748 161.908  1.00  0.00    -0.000 C 
BRANCH  10  11
ATOM     11  C   UNL     1      19.561  58.030 163.241  1.00  0.00    -0.003 C 
ATOM     12  C   UNL     1      18.131  57.502 163.350  1.00  0.00     0.004 C 
ENDBRANCH  10  11
ENDBRANCH   9  10
ENDBRANCH   8   9
ENDBRANCH   7   8
ENDBRANCH   6   7
ENDBRANCH   5   6
ENDBRANCH   4   5
ENDBRANCH   3   4
ENDBRANCH   2   3
ENDBRANCH   1   2
BRANCH   1  13
ATOM     13  C   UNL     1      17.749  52.793 159.020  1.00  0.00     0.000 C 
BRANCH  13  14
ATOM     14  C   UNL     1      16.442  52.650 159.814  1.00  0.00     0.000 C 
BRANCH  14  15
ATOM     15  C   UNL     1      15.385  51.819 159.065  1.00  0.00     0.000 C 
BRANCH  15  16
ATOM     16  C   UNL     1      14.354  52.692 158.333  1.00  0.00     0.000 C 
BRANCH  16  17
ATOM     17  C   UNL     1      14.516  52.641 156.805  1.00  0.00     0.000 C 
BRANCH  17  18
ATOM     18  C   UNL     1      15.306  53.840 156.255  1.00  0.00     0.000 C 
BRANCH  18  19
ATOM     19  C   UNL     1      14.489  55.145 156.267  1.00  0.00     0.000 C 
BRANCH  19  20
ATOM     20  C   UNL     1      15.334  56.367 156.655  1.00  0.00     0.006 C 
BRANCH  20  21
ATOM     21  C   UNL     1      16.508  56.005 157.573  1.00  0.00     0.053 C 
BRANCH  21  22
ATOM     22  C   UNL     1      17.790  56.541 157.018  1.00  0.00     0.041 C 
ATOM     23  O   UNL     1      17.925  57.777 156.814  1.00  0.00    -0.550 OA
ATOM     24  O   UNL     1      18.815  55.670 156.671  1.00  0.00    -0.550 OA
ENDBRANCH  21  22
ENDBRANCH  20  21
ENDBRANCH  19  20
ENDBRANCH  18  19
ENDBRANCH  17  18
ENDBRANCH  16  17
ENDBRANCH  15  16
ENDBRANCH  14  15
ENDBRANCH  13  14
ENDBRANCH   1  13
TORSDOF 20
ENDMDL
MODEL 9
REMARK VINA RESULT:    -4.520      1.792      5.211
REMARK INTER + INTRA:         -12.756
REMARK INTER:                  -9.550
REMARK INTRA:                  -3.206
REMARK UNBOUND:                -2.951
REMARK SMILES CCCCCCCCCCCCCCCCCCCCCC(=O)[O-]
REMARK SMILES IDX 12 1 11 2 10 3 9 4 8 5 7 6 6 7 5 8 4 9 3 10 2 11 1 12 13 13
REMARK SMILES IDX 14 14 15 15 16 16 17 17 18 18 19 19 20 20 21 21 22 22 23 23
REMARK SMILES IDX 24 24
REMARK H PARENT
REMARK Flexibility Score: inf
ROOT
ATOM      1  C   UNL     1      13.880  52.652 158.265  1.00  0.00     0.000 C 
ENDROOT
BRANCH   1   2
ATOM      2  C   UNL     1      14.943  52.076 159.215  1.00  0.00     0.000 C 
BRANCH   2   3
ATOM      3  C   UNL     1      16.168  51.531 158.465  1.00  0.00     0.000 C 
BRANCH   3   4
ATOM      4  C   UNL     1      17.430  52.328 158.821  1.00  0.00    -0.000 C 
BRANCH   4   5
ATOM      5  C   UNL     1      17.190  53.362 159.935  1.00  0.00    -0.000 C 
BRANCH   5   6
ATOM      6  C   UNL     1      18.442  54.189 160.291  1.00  0.00    -0.000 C 
BRANCH   6   7
ATOM      7  C   UNL     1      19.600  53.943 159.308  1.00  0.00    -0.000 C 
BRANCH   7   8
ATOM      8  C   UNL     1      20.926  53.611 160.013  1.00  0.00    -0.000 C 
BRANCH   8   9
ATOM      9  C   UNL     1      21.304  54.615 161.124  1.00  0.00    -0.000 C 
BRANCH   9  10
ATOM     10  C   UNL     1      22.608  55.368 160.808  1.00  0.00    -0.000 C 
BRANCH  10  11
ATOM     11  C   UNL     1      23.561  55.426 162.012  1.00  0.00    -0.003 C 
ATOM     12  C   UNL     1      24.929  56.007 161.654  1.00  0.00     0.004 C 
ENDBRANCH  10  11
ENDBRANCH   9  10
ENDBRANCH   8   9
ENDBRANCH   7   8
ENDBRANCH   6   7
ENDBRANCH   5   6
ENDBRANCH   4   5
ENDBRANCH   3   4
ENDBRANCH   2   3
ENDBRANCH   1   2
BRANCH   1  13
ATOM     13  C   UNL     1      14.376  52.751 156.813  1.00  0.00     0.000 C 
BRANCH  13  14
ATOM     14  C   UNL     1      14.794  54.179 156.429  1.00  0.00     0.000 C 
BRANCH  14  15
ATOM     15  C   UNL     1      16.228  54.244 155.875  1.00  0.00     0.000 C 
BRANCH  15  16
ATOM     16  C   UNL     1      17.088  55.306 156.579  1.00  0.00     0.000 C 
BRANCH  16  17
ATOM     17  C   UNL     1      16.242  56.328 157.357  1.00  0.00     0.000 C 
BRANCH  17  18
ATOM     18  C   UNL     1      17.052  57.061 158.440  1.00  0.00     0.000 C 
BRANCH  18  19
ATOM     19  C   UNL     1      18.525  57.266 158.043  1.00  0.00     0.000 C 
BRANCH  19  20
ATOM     20  C   UNL     1      19.176  58.447 158.779  1.00  0.00     0.006 C 
BRANCH  20  21
ATOM     21  C   UNL     1      20.045  57.998 159.961  1.00  0.00     0.053 C 
BRANCH  21  22
ATOM     22  C   UNL     1      19.376  58.332 161.257  1.00  0.00     0.041 C 
ATOM     23  O   UNL     1      19.608  59.432 161.825  1.00  0.00    -0.550 OA
ATOM     24  O   UNL     1      18.540  57.406 161.867  1.00  0.00    -0.550 OA
ENDBRANCH  21  22
ENDBRANCH  20  21
ENDBRANCH  19  20
ENDBRANCH  18  19
ENDBRANCH  17  18
ENDBRANCH  16  17
ENDBRANCH  15  16
ENDBRANCH  14  15
ENDBRANCH  13  14
ENDBRANCH   1  13
TORSDOF 20
ENDMDL
