MODEL 1
REMARK VINA RESULT:    -6.889      0.000      0.000
REMARK INTER + INTRA:          -8.361
REMARK INTER:                  -8.097
REMARK INTRA:                  -0.264
REMARK UNBOUND:                -0.264
REMARK SMILES O=c1cc(-c2ccc(O)c(O)c2)oc2cc(O)cc(O)c12
REMARK SMILES IDX 4 1 3 2 2 3 1 4 21 5 19 6 18 7 16 8 15 9 14 10 13 11 5 12
REMARK SMILES IDX 6 13 7 14 8 15 12 16 10 17 9 18 11 20 20 22 17 24
REMARK H PARENT 9 19 11 21 20 23 17 25
REMARK Flexibility Score: inf
ROOT
ATOM      1  C   UNL     1      32.511 -35.752  35.862  1.00  0.00     0.138 A 
ATOM      2  C   UNL     1      33.599 -36.050  35.030  1.00  0.00     0.100 A 
ATOM      3  C   UNL     1      33.620 -37.258  34.329  1.00  0.00     0.197 A 
ATOM      4  O   UNL     1      34.579 -37.471  33.543  1.00  0.00    -0.289 OA
ATOM      5  C   UNL     1      32.560 -38.182  34.487  1.00  0.00     0.107 A 
ATOM      6  C   UNL     1      32.495 -39.460  33.855  1.00  0.00     0.134 A 
ATOM      7  C   UNL     1      31.341 -40.240  33.995  1.00  0.00     0.093 A 
ATOM      8  C   UNL     1      30.277 -39.819  34.792  1.00  0.00     0.123 A 
ATOM      9  C   UNL     1      30.353 -38.595  35.458  1.00  0.00     0.094 A 
ATOM     10  C   UNL     1      31.475 -37.777  35.311  1.00  0.00     0.146 A 
ATOM     11  O   UNL     1      31.502 -36.613  35.951  1.00  0.00    -0.456 OA
ENDROOT
BRANCH   1  12
ATOM     12  C   UNL     1      32.438 -34.483  36.631  1.00  0.00     0.021 A 
ATOM     13  C   UNL     1      32.474 -34.468  38.037  1.00  0.00     0.016 A 
ATOM     14  C   UNL     1      32.393 -33.261  38.733  1.00  0.00     0.051 A 
ATOM     15  C   UNL     1      32.267 -32.047  38.050  1.00  0.00     0.157 A 
ATOM     16  C   UNL     1      32.297 -33.264  35.946  1.00  0.00     0.062 A 
ATOM     17  C   UNL     1      32.216 -32.049  36.637  1.00  0.00     0.158 A 
BRANCH  15  18
ATOM     18  O   UNL     1      32.193 -30.877  38.807  1.00  0.00    -0.504 OA
ATOM     19  H   UNL     1      32.439 -30.822  39.785  1.00  0.00     0.293 HD
ENDBRANCH  15  18
BRANCH  17  20
ATOM     20  O   UNL     1      32.086 -30.879  35.886  1.00  0.00    -0.504 OA
ATOM     21  H   UNL     1      31.210 -30.402  35.729  1.00  0.00     0.293 HD
ENDBRANCH  17  20
ENDBRANCH   1  12
BRANCH   6  22
ATOM     22  O   UNL     1      33.537 -40.014  33.106  1.00  0.00    -0.507 OA
ATOM     23  H   UNL     1      33.428 -40.456  32.206  1.00  0.00     0.293 HD
ENDBRANCH   6  22
BRANCH   8  24
ATOM     24  O   UNL     1      29.151 -40.629  34.920  1.00  0.00    -0.508 OA
ATOM     25  H   UNL     1      29.168 -41.607  34.653  1.00  0.00     0.293 HD
ENDBRANCH   8  24
TORSDOF 5
ENDMDL
MODEL 2
REMARK VINA RESULT:    -6.711      0.783      1.572
REMARK INTER + INTRA:          -8.152
REMARK INTER:                  -7.862
REMARK INTRA:                  -0.290
REMARK UNBOUND:                -0.264
REMARK SMILES O=c1cc(-c2ccc(O)c(O)c2)oc2cc(O)cc(O)c12
REMARK SMILES IDX 4 1 3 2 2 3 1 4 21 5 19 6 18 7 16 8 15 9 14 10 13 11 5 12
REMARK SMILES IDX 6 13 7 14 8 15 12 16 10 17 9 18 11 20 20 22 17 24
REMARK H PARENT 9 19 11 21 20 23 17 25
REMARK Flexibility Score: inf
ROOT
ATOM      1  C   UNL     1      32.410 -35.547  35.868  1.00  0.00     0.138 A 
ATOM      2  C   UNL     1      33.418 -35.718  34.909  1.00  0.00     0.100 A 
ATOM      3  C   UNL     1      33.447 -36.883  34.139  1.00  0.00     0.197 A 
ATOM      4  O   UNL     1      34.327 -36.981  33.244  1.00  0.00    -0.289 OA
ATOM      5  C   UNL     1      32.481 -37.894  34.355  1.00  0.00     0.107 A 
ATOM      6  C   UNL     1      32.439 -39.139  33.660  1.00  0.00     0.134 A 
ATOM      7  C   UNL     1      31.367 -40.013  33.877  1.00  0.00     0.093 A 
ATOM      8  C   UNL     1      30.371 -39.717  34.806  1.00  0.00     0.123 A 
ATOM      9  C   UNL     1      30.431 -38.526  35.531  1.00  0.00     0.094 A 
ATOM     10  C   UNL     1      31.468 -37.617  35.313  1.00  0.00     0.146 A 
ATOM     11  O   UNL     1      31.482 -36.488  36.013  1.00  0.00    -0.456 OA
ENDROOT
BRANCH   1  12
ATOM     12  C   UNL     1      32.332 -34.329  36.713  1.00  0.00     0.021 A 
ATOM     13  C   UNL     1      32.459 -33.040  36.166  1.00  0.00     0.016 A 
ATOM     14  C   UNL     1      32.392 -31.913  36.987  1.00  0.00     0.051 A 
ATOM     15  C   UNL     1      32.205 -32.043  38.367  1.00  0.00     0.157 A 
ATOM     16  C   UNL     1      32.159 -34.459  38.102  1.00  0.00     0.062 A 
ATOM     17  C   UNL     1      32.089 -33.334  38.932  1.00  0.00     0.158 A 
BRANCH  15  18
ATOM     18  O   UNL     1      32.145 -30.875  39.130  1.00  0.00    -0.504 OA
ATOM     19  H   UNL     1      32.725 -30.698  39.937  1.00  0.00     0.293 HD
ENDBRANCH  15  18
BRANCH  17  20
ATOM     20  O   UNL     1      31.906 -33.543  40.301  1.00  0.00    -0.504 OA
ATOM     21  H   UNL     1      31.228 -34.183  40.689  1.00  0.00     0.293 HD
ENDBRANCH  17  20
ENDBRANCH   1  12
BRANCH   6  22
ATOM     22  O   UNL     1      33.428 -39.572  32.772  1.00  0.00    -0.507 OA
ATOM     23  H   UNL     1      34.005 -40.388  32.905  1.00  0.00     0.293 HD
ENDBRANCH   6  22
BRANCH   8  24
ATOM     24  O   UNL     1      29.327 -40.618  35.006  1.00  0.00    -0.508 OA
ATOM     25  H   UNL     1      28.706 -40.887  34.251  1.00  0.00     0.293 HD
ENDBRANCH   8  24
TORSDOF 5
ENDMDL
MODEL 3
REMARK VINA RESULT:    -6.585      2.333      7.264
REMARK INTER + INTRA:          -8.004
REMARK INTER:                  -7.715
REMARK INTRA:                  -0.289
REMARK UNBOUND:                -0.264
REMARK SMILES O=c1cc(-c2ccc(O)c(O)c2)oc2cc(O)cc(O)c12
REMARK SMILES IDX 4 1 3 2 2 3 1 4 21 5 19 6 18 7 16 8 15 9 14 10 13 11 5 12
REMARK SMILES IDX 6 13 7 14 8 15 12 16 10 17 9 18 11 20 20 22 17 24
REMARK H PARENT 9 19 11 21 20 23 17 25
REMARK Flexibility Score: inf
ROOT
ATOM      1  C   UNL     1      29.813 -35.756  35.129  1.00  0.00     0.138 A 
ATOM      2  C   UNL     1      29.703 -34.722  34.190  1.00  0.00     0.100 A 
ATOM      3  C   UNL     1      30.317 -33.493  34.443  1.00  0.00     0.197 A 
ATOM      4  O   UNL     1      30.253 -32.604  33.554  1.00  0.00    -0.289 OA
ATOM      5  C   UNL     1      31.016 -33.292  35.657  1.00  0.00     0.107 A 
ATOM      6  C   UNL     1      31.644 -32.069  36.039  1.00  0.00     0.134 A 
ATOM      7  C   UNL     1      32.407 -32.024  37.213  1.00  0.00     0.093 A 
ATOM      8  C   UNL     1      32.513 -33.136  38.047  1.00  0.00     0.123 A 
ATOM      9  C   UNL     1      31.858 -34.321  37.710  1.00  0.00     0.094 A 
ATOM     10  C   UNL     1      31.119 -34.409  36.529  1.00  0.00     0.146 A 
ATOM     11  O   UNL     1      30.521 -35.560  36.237  1.00  0.00    -0.456 OA
ENDROOT
BRANCH   1  12
ATOM     12  C   UNL     1      29.180 -37.082  34.912  1.00  0.00     0.021 A 
ATOM     13  C   UNL     1      27.822 -37.205  34.568  1.00  0.00     0.016 A 
ATOM     14  C   UNL     1      27.251 -38.465  34.379  1.00  0.00     0.051 A 
ATOM     15  C   UNL     1      28.014 -39.627  34.537  1.00  0.00     0.157 A 
ATOM     16  C   UNL     1      29.942 -38.250  35.083  1.00  0.00     0.062 A 
ATOM     17  C   UNL     1      29.377 -39.518  34.895  1.00  0.00     0.158 A 
BRANCH  15  18
ATOM     18  O   UNL     1      27.382 -40.855  34.331  1.00  0.00    -0.504 OA
ATOM     19  H   UNL     1      26.435 -41.056  34.617  1.00  0.00     0.293 HD
ENDBRANCH  15  18
BRANCH  17  20
ATOM     20  O   UNL     1      30.201 -40.632  35.075  1.00  0.00    -0.504 OA
ATOM     21  H   UNL     1      29.931 -41.577  34.844  1.00  0.00     0.293 HD
ENDBRANCH  17  20
ENDBRANCH   1  12
BRANCH   6  22
ATOM     22  O   UNL     1      31.532 -30.875  35.321  1.00  0.00    -0.507 OA
ATOM     23  H   UNL     1      32.264 -30.189  35.225  1.00  0.00     0.293 HD
ENDBRANCH   6  22
BRANCH   8  24
ATOM     24  O   UNL     1      33.268 -33.049  39.215  1.00  0.00    -0.508 OA
ATOM     25  H   UNL     1      34.271 -32.903  39.189  1.00  0.00     0.293 HD
ENDBRANCH   8  24
TORSDOF 5
ENDMDL
MODEL 4
REMARK VINA RESULT:    -6.443      1.959      3.054
REMARK INTER + INTRA:          -7.837
REMARK INTER:                  -7.527
REMARK INTRA:                  -0.310
REMARK UNBOUND:                -0.264
REMARK SMILES O=c1cc(-c2ccc(O)c(O)c2)oc2cc(O)cc(O)c12
REMARK SMILES IDX 4 1 3 2 2 3 1 4 21 5 19 6 18 7 16 8 15 9 14 10 13 11 5 12
REMARK SMILES IDX 6 13 7 14 8 15 12 16 10 17 9 18 11 20 20 22 17 24
REMARK H PARENT 9 19 11 21 20 23 17 25
REMARK Flexibility Score: inf
ROOT
ATOM      1  C   UNL     1      32.102 -35.366  35.350  1.00  0.00     0.138 A 
ATOM      2  C   UNL     1      31.122 -35.767  34.433  1.00  0.00     0.100 A 
ATOM      3  C   UNL     1      31.358 -36.870  33.609  1.00  0.00     0.197 A 
ATOM      4  O   UNL     1      30.435 -37.244  32.840  1.00  0.00    -0.289 OA
ATOM      5  C   UNL     1      32.595 -37.552  33.684  1.00  0.00     0.107 A 
ATOM      6  C   UNL     1      32.962 -38.661  32.865  1.00  0.00     0.134 A 
ATOM      7  C   UNL     1      34.169 -39.329  33.110  1.00  0.00     0.093 A 
ATOM      8  C   UNL     1      35.048 -38.892  34.099  1.00  0.00     0.123 A 
ATOM      9  C   UNL     1      34.723 -37.775  34.870  1.00  0.00     0.094 A 
ATOM     10  C   UNL     1      33.512 -37.108  34.675  1.00  0.00     0.146 A 
ATOM     11  O   UNL     1      33.235 -36.057  35.439  1.00  0.00    -0.456 OA
ENDROOT
BRANCH   1  12
ATOM     12  C   UNL     1      31.904 -34.200  36.249  1.00  0.00     0.021 A 
ATOM     13  C   UNL     1      31.043 -33.142  35.908  1.00  0.00     0.016 A 
ATOM     14  C   UNL     1      30.883 -32.054  36.768  1.00  0.00     0.051 A 
ATOM     15  C   UNL     1      31.581 -31.992  37.980  1.00  0.00     0.157 A 
ATOM     16  C   UNL     1      32.614 -34.130  37.459  1.00  0.00     0.062 A 
ATOM     17  C   UNL     1      32.460 -33.042  38.328  1.00  0.00     0.158 A 
BRANCH  15  18
ATOM     18  O   UNL     1      31.374 -30.877  38.794  1.00  0.00    -0.504 OA
ATOM     19  H   UNL     1      30.735 -30.860  39.576  1.00  0.00     0.293 HD
ENDBRANCH  15  18
BRANCH  17  20
ATOM     20  O   UNL     1      33.193 -33.048  39.517  1.00  0.00    -0.504 OA
ATOM     21  H   UNL     1      33.930 -33.707  39.723  1.00  0.00     0.293 HD
ENDBRANCH  17  20
ENDBRANCH   1  12
BRANCH   6  22
ATOM     22  O   UNL     1      32.196 -39.128  31.794  1.00  0.00    -0.507 OA
ATOM     23  H   UNL     1      32.372 -38.917  30.823  1.00  0.00     0.293 HD
ENDBRANCH   6  22
BRANCH   8  24
ATOM     24  O   UNL     1      36.246 -39.572  34.304  1.00  0.00    -0.508 OA
ATOM     25  H   UNL     1      37.066 -39.103  34.673  1.00  0.00     0.293 HD
ENDBRANCH   8  24
TORSDOF 5
ENDMDL
MODEL 5
REMARK VINA RESULT:    -6.272      4.404      8.464
REMARK INTER + INTRA:          -7.636
REMARK INTER:                  -7.336
REMARK INTRA:                  -0.300
REMARK UNBOUND:                -0.264
REMARK SMILES O=c1cc(-c2ccc(O)c(O)c2)oc2cc(O)cc(O)c12
REMARK SMILES IDX 4 1 3 2 2 3 1 4 21 5 19 6 18 7 16 8 15 9 14 10 13 11 5 12
REMARK SMILES IDX 6 13 7 14 8 15 12 16 10 17 9 18 11 20 20 22 17 24
REMARK H PARENT 9 19 11 21 20 23 17 25
REMARK Flexibility Score: inf
ROOT
ATOM      1  C   UNL     1      30.785 -32.594  40.238  1.00  0.00     0.138 A 
ATOM      2  C   UNL     1      29.748 -31.701  40.539  1.00  0.00     0.100 A 
ATOM      3  C   UNL     1      29.085 -31.802  41.764  1.00  0.00     0.197 A 
ATOM      4  O   UNL     1      28.200 -30.948  42.032  1.00  0.00    -0.289 OA
ATOM      5  C   UNL     1      29.443 -32.823  42.676  1.00  0.00     0.107 A 
ATOM      6  C   UNL     1      28.809 -33.047  43.934  1.00  0.00     0.134 A 
ATOM      7  C   UNL     1      29.326 -34.015  44.804  1.00  0.00     0.093 A 
ATOM      8  C   UNL     1      30.413 -34.807  44.437  1.00  0.00     0.123 A 
ATOM      9  C   UNL     1      31.007 -34.633  43.187  1.00  0.00     0.094 A 
ATOM     10  C   UNL     1      30.537 -33.653  42.311  1.00  0.00     0.146 A 
ATOM     11  O   UNL     1      31.139 -33.510  41.134  1.00  0.00    -0.456 OA
ENDROOT
BRANCH   1  12
ATOM     12  C   UNL     1      31.523 -32.533  38.950  1.00  0.00     0.021 A 
ATOM     13  C   UNL     1      31.799 -31.309  38.315  1.00  0.00     0.016 A 
ATOM     14  C   UNL     1      32.486 -31.282  37.100  1.00  0.00     0.051 A 
ATOM     15  C   UNL     1      32.904 -32.469  36.487  1.00  0.00     0.157 A 
ATOM     16  C   UNL     1      31.931 -33.725  38.327  1.00  0.00     0.062 A 
ATOM     17  C   UNL     1      32.620 -33.707  37.109  1.00  0.00     0.158 A 
BRANCH  15  18
ATOM     18  O   UNL     1      33.587 -32.371  35.274  1.00  0.00    -0.504 OA
ATOM     19  H   UNL     1      33.153 -32.110  34.401  1.00  0.00     0.293 HD
ENDBRANCH  15  18
BRANCH  17  20
ATOM     20  O   UNL     1      33.001 -34.932  36.556  1.00  0.00    -0.504 OA
ATOM     21  H   UNL     1      33.749 -35.042  35.887  1.00  0.00     0.293 HD
ENDBRANCH  17  20
ENDBRANCH   1  12
BRANCH   6  22
ATOM     22  O   UNL     1      27.665 -32.368  44.364  1.00  0.00    -0.507 OA
ATOM     23  H   UNL     1      27.532 -31.990  45.290  1.00  0.00     0.293 HD
ENDBRANCH   6  22
BRANCH   8  24
ATOM     24  O   UNL     1      30.891 -35.771  45.323  1.00  0.00    -0.508 OA
ATOM     25  H   UNL     1      30.333 -36.098  46.104  1.00  0.00     0.293 HD
ENDBRANCH   8  24
TORSDOF 5
ENDMDL
MODEL 6
REMARK VINA RESULT:    -6.247      4.457      6.709
REMARK INTER + INTRA:          -7.607
REMARK INTER:                  -7.293
REMARK INTRA:                  -0.315
REMARK UNBOUND:                -0.264
REMARK SMILES O=c1cc(-c2ccc(O)c(O)c2)oc2cc(O)cc(O)c12
REMARK SMILES IDX 4 1 3 2 2 3 1 4 21 5 19 6 18 7 16 8 15 9 14 10 13 11 5 12
REMARK SMILES IDX 6 13 7 14 8 15 12 16 10 17 9 18 11 20 20 22 17 24
REMARK H PARENT 9 19 11 21 20 23 17 25
REMARK Flexibility Score: inf
ROOT
ATOM      1  C   UNL     1      32.453 -37.316  32.787  1.00  0.00     0.138 A 
ATOM      2  C   UNL     1      32.437 -36.386  31.739  1.00  0.00     0.100 A 
ATOM      3  C   UNL     1      33.636 -35.823  31.298  1.00  0.00     0.197 A 
ATOM      4  O   UNL     1      33.598 -35.039  30.314  1.00  0.00    -0.289 OA
ATOM      5  C   UNL     1      34.852 -36.171  31.933  1.00  0.00     0.107 A 
ATOM      6  C   UNL     1      36.128 -35.629  31.596  1.00  0.00     0.134 A 
ATOM      7  C   UNL     1      37.278 -36.135  32.216  1.00  0.00     0.093 A 
ATOM      8  C   UNL     1      37.192 -37.117  33.202  1.00  0.00     0.123 A 
ATOM      9  C   UNL     1      35.944 -37.615  33.578  1.00  0.00     0.094 A 
ATOM     10  C   UNL     1      34.782 -37.156  32.954  1.00  0.00     0.146 A 
ATOM     11  O   UNL     1      33.615 -37.666  33.331  1.00  0.00    -0.456 OA
ENDROOT
BRANCH   1  12
ATOM     12  C   UNL     1      31.207 -37.944  33.296  1.00  0.00     0.021 A 
ATOM     13  C   UNL     1      29.941 -37.392  33.035  1.00  0.00     0.016 A 
ATOM     14  C   UNL     1      28.787 -37.999  33.534  1.00  0.00     0.051 A 
ATOM     15  C   UNL     1      28.869 -39.161  34.310  1.00  0.00     0.157 A 
ATOM     16  C   UNL     1      31.289 -39.103  34.087  1.00  0.00     0.062 A 
ATOM     17  C   UNL     1      30.137 -39.719  34.591  1.00  0.00     0.158 A 
BRANCH  15  18
ATOM     18  O   UNL     1      27.677 -39.718  34.776  1.00  0.00    -0.504 OA
ATOM     19  H   UNL     1      27.497 -40.711  34.820  1.00  0.00     0.293 HD
ENDBRANCH  15  18
BRANCH  17  20
ATOM     20  O   UNL     1      30.298 -40.873  35.361  1.00  0.00    -0.504 OA
ATOM     21  H   UNL     1      29.538 -41.364  35.810  1.00  0.00     0.293 HD
ENDBRANCH  17  20
ENDBRANCH   1  12
BRANCH   6  22
ATOM     22  O   UNL     1      36.318 -34.586  30.685  1.00  0.00    -0.507 OA
ATOM     23  H   UNL     1      36.285 -34.683  29.681  1.00  0.00     0.293 HD
ENDBRANCH   6  22
BRANCH   8  24
ATOM     24  O   UNL     1      38.356 -37.586  33.808  1.00  0.00    -0.508 OA
ATOM     25  H   UNL     1      39.149 -36.977  33.976  1.00  0.00     0.293 HD
ENDBRANCH   8  24
TORSDOF 5
ENDMDL
MODEL 7
REMARK VINA RESULT:    -6.152      2.071      7.018
REMARK INTER + INTRA:          -7.495
REMARK INTER:                  -7.210
REMARK INTRA:                  -0.286
REMARK UNBOUND:                -0.264
REMARK SMILES O=c1cc(-c2ccc(O)c(O)c2)oc2cc(O)cc(O)c12
REMARK SMILES IDX 4 1 3 2 2 3 1 4 21 5 19 6 18 7 16 8 15 9 14 10 13 11 5 12
REMARK SMILES IDX 6 13 7 14 8 15 12 16 10 17 9 18 11 20 20 22 17 24
REMARK H PARENT 9 19 11 21 20 23 17 25
REMARK Flexibility Score: inf
ROOT
ATOM      1  C   UNL     1      32.489 -35.545  34.965  1.00  0.00     0.138 A 
ATOM      2  C   UNL     1      31.736 -34.649  34.195  1.00  0.00     0.100 A 
ATOM      3  C   UNL     1      31.221 -33.494  34.788  1.00  0.00     0.197 A 
ATOM      4  O   UNL     1      30.602 -32.678  34.057  1.00  0.00    -0.289 OA
ATOM      5  C   UNL     1      31.434 -33.255  36.166  1.00  0.00     0.107 A 
ATOM      6  C   UNL     1      30.921 -32.135  36.885  1.00  0.00     0.134 A 
ATOM      7  C   UNL     1      31.296 -31.943  38.221  1.00  0.00     0.093 A 
ATOM      8  C   UNL     1      32.112 -32.861  38.880  1.00  0.00     0.123 A 
ATOM      9  C   UNL     1      32.575 -33.989  38.202  1.00  0.00     0.094 A 
ATOM     10  C   UNL     1      32.249 -34.191  36.859  1.00  0.00     0.146 A 
ATOM     11  O   UNL     1      32.721 -35.270  36.245  1.00  0.00    -0.456 OA
ENDROOT
BRANCH   1  12
ATOM     12  C   UNL     1      33.060 -36.788  34.386  1.00  0.00     0.021 A 
ATOM     13  C   UNL     1      34.265 -37.338  34.859  1.00  0.00     0.016 A 
ATOM     14  C   UNL     1      34.783 -38.502  34.289  1.00  0.00     0.051 A 
ATOM     15  C   UNL     1      34.121 -39.138  33.233  1.00  0.00     0.157 A 
ATOM     16  C   UNL     1      32.403 -37.420  33.316  1.00  0.00     0.062 A 
ATOM     17  C   UNL     1      32.916 -38.588  32.739  1.00  0.00     0.158 A 
BRANCH  15  18
ATOM     18  O   UNL     1      34.693 -40.299  32.709  1.00  0.00    -0.504 OA
ATOM     19  H   UNL     1      34.996 -40.396  31.752  1.00  0.00     0.293 HD
ENDBRANCH  15  18
BRANCH  17  20
ATOM     20  O   UNL     1      32.201 -39.163  31.685  1.00  0.00    -0.504 OA
ATOM     21  H   UNL     1      31.230 -38.969  31.490  1.00  0.00     0.293 HD
ENDBRANCH  17  20
ENDBRANCH   1  12
BRANCH   6  22
ATOM     22  O   UNL     1      30.030 -31.202  36.346  1.00  0.00    -0.507 OA
ATOM     23  H   UNL     1      29.068 -31.392  36.113  1.00  0.00     0.293 HD
ENDBRANCH   6  22
BRANCH   8  24
ATOM     24  O   UNL     1      32.451 -32.645  40.214  1.00  0.00    -0.508 OA
ATOM     25  H   UNL     1      33.395 -32.396  40.488  1.00  0.00     0.293 HD
ENDBRANCH   8  24
TORSDOF 5
ENDMDL
MODEL 8
REMARK VINA RESULT:    -6.150      4.257      6.591
REMARK INTER + INTRA:          -7.493
REMARK INTER:                  -7.199
REMARK INTRA:                  -0.294
REMARK UNBOUND:                -0.264
REMARK SMILES O=c1cc(-c2ccc(O)c(O)c2)oc2cc(O)cc(O)c12
REMARK SMILES IDX 4 1 3 2 2 3 1 4 21 5 19 6 18 7 16 8 15 9 14 10 13 11 5 12
REMARK SMILES IDX 6 13 7 14 8 15 12 16 10 17 9 18 11 20 20 22 17 24
REMARK H PARENT 9 19 11 21 20 23 17 25
REMARK Flexibility Score: inf
ROOT
ATOM      1  C   UNL     1      32.665 -38.163  33.474  1.00  0.00     0.138 A 
ATOM      2  C   UNL     1      33.556 -39.205  33.765  1.00  0.00     0.100 A 
ATOM      3  C   UNL     1      34.928 -39.006  33.602  1.00  0.00     0.197 A 
ATOM      4  O   UNL     1      35.707 -39.938  33.931  1.00  0.00    -0.289 OA
ATOM      5  C   UNL     1      35.406 -37.767  33.114  1.00  0.00     0.107 A 
ATOM      6  C   UNL     1      36.779 -37.465  32.869  1.00  0.00     0.134 A 
ATOM      7  C   UNL     1      37.143 -36.165  32.496  1.00  0.00     0.093 A 
ATOM      8  C   UNL     1      36.181 -35.175  32.300  1.00  0.00     0.123 A 
ATOM      9  C   UNL     1      34.831 -35.474  32.484  1.00  0.00     0.094 A 
ATOM     10  C   UNL     1      34.438 -36.750  32.890  1.00  0.00     0.146 A 
ATOM     11  O   UNL     1      33.143 -36.991  33.068  1.00  0.00    -0.456 OA
ENDROOT
BRANCH   1  12
ATOM     12  C   UNL     1      31.196 -38.321  33.629  1.00  0.00     0.021 A 
ATOM     13  C   UNL     1      30.297 -37.331  33.196  1.00  0.00     0.016 A 
ATOM     14  C   UNL     1      28.922 -37.502  33.364  1.00  0.00     0.051 A 
ATOM     15  C   UNL     1      28.413 -38.655  33.972  1.00  0.00     0.157 A 
ATOM     16  C   UNL     1      30.685 -39.473  34.251  1.00  0.00     0.062 A 
ATOM     17  C   UNL     1      29.307 -39.653  34.423  1.00  0.00     0.158 A 
BRANCH  15  18
ATOM     18  O   UNL     1      27.028 -38.764  34.107  1.00  0.00    -0.504 OA
ATOM     19  H   UNL     1      26.568 -39.137  34.925  1.00  0.00     0.293 HD
ENDBRANCH  15  18
BRANCH  17  20
ATOM     20  O   UNL     1      28.875 -40.828  35.043  1.00  0.00    -0.504 OA
ATOM     21  H   UNL     1      29.222 -41.158  35.932  1.00  0.00     0.293 HD
ENDBRANCH  17  20
ENDBRANCH   1  12
BRANCH   6  22
ATOM     22  O   UNL     1      37.812 -38.403  32.953  1.00  0.00    -0.507 OA
ATOM     23  H   UNL     1      37.829 -39.287  32.470  1.00  0.00     0.293 HD
ENDBRANCH   6  22
BRANCH   8  24
ATOM     24  O   UNL     1      36.580 -33.897  31.914  1.00  0.00    -0.508 OA
ATOM     25  H   UNL     1      37.494 -33.530  32.155  1.00  0.00     0.293 HD
ENDBRANCH   8  24
TORSDOF 5
ENDMDL
MODEL 9
REMARK VINA RESULT:    -6.056      6.251      9.652
REMARK INTER + INTRA:          -7.383
REMARK INTER:                  -7.100
REMARK INTRA:                  -0.283
REMARK UNBOUND:                -0.264
REMARK SMILES O=c1cc(-c2ccc(O)c(O)c2)oc2cc(O)cc(O)c12
REMARK SMILES IDX 4 1 3 2 2 3 1 4 21 5 19 6 18 7 16 8 15 9 14 10 13 11 5 12
REMARK SMILES IDX 6 13 7 14 8 15 12 16 10 17 9 18 11 20 20 22 17 24
REMARK H PARENT 9 19 11 21 20 23 17 25
REMARK Flexibility Score: inf
ROOT
ATOM      1  C   UNL     1      29.688 -33.850  42.284  1.00  0.00     0.138 A 
ATOM      2  C   UNL     1      28.621 -34.757  42.331  1.00  0.00     0.100 A 
ATOM      3  C   UNL     1      28.230 -35.298  43.558  1.00  0.00     0.197 A 
ATOM      4  O   UNL     1      27.229 -36.061  43.578  1.00  0.00    -0.289 OA
ATOM      5  C   UNL     1      28.933 -34.951  44.736  1.00  0.00     0.107 A 
ATOM      6  C   UNL     1      28.649 -35.473  46.034  1.00  0.00     0.134 A 
ATOM      7  C   UNL     1      29.337 -34.968  47.144  1.00  0.00     0.093 A 
ATOM      8  C   UNL     1      30.338 -34.009  46.998  1.00  0.00     0.123 A 
ATOM      9  C   UNL     1      30.661 -33.532  45.727  1.00  0.00     0.094 A 
ATOM     10  C   UNL     1      29.969 -33.989  44.604  1.00  0.00     0.146 A 
ATOM     11  O   UNL     1      30.297 -33.499  43.413  1.00  0.00    -0.456 OA
ENDROOT
BRANCH   1  12
ATOM     12  C   UNL     1      30.146 -33.245  41.007  1.00  0.00     0.021 A 
ATOM     13  C   UNL     1      29.258 -32.579  40.144  1.00  0.00     0.016 A 
ATOM     14  C   UNL     1      29.714 -32.029  38.945  1.00  0.00     0.051 A 
ATOM     15  C   UNL     1      31.060 -32.136  38.575  1.00  0.00     0.157 A 
ATOM     16  C   UNL     1      31.494 -33.364  40.628  1.00  0.00     0.062 A 
ATOM     17  C   UNL     1      31.961 -32.815  39.427  1.00  0.00     0.158 A 
BRANCH  15  18
ATOM     18  O   UNL     1      31.451 -31.562  37.364  1.00  0.00    -0.504 OA
ATOM     19  H   UNL     1      32.382 -31.633  36.981  1.00  0.00     0.293 HD
ENDBRANCH  15  18
BRANCH  17  20
ATOM     20  O   UNL     1      33.316 -32.967  39.124  1.00  0.00    -0.504 OA
ATOM     21  H   UNL     1      33.740 -33.842  38.855  1.00  0.00     0.293 HD
ENDBRANCH  17  20
ENDBRANCH   1  12
BRANCH   6  22
ATOM     22  O   UNL     1      27.727 -36.494  46.281  1.00  0.00    -0.507 OA
ATOM     23  H   UNL     1      26.744 -36.354  46.454  1.00  0.00     0.293 HD
ENDBRANCH   6  22
BRANCH   8  24
ATOM     24  O   UNL     1      31.012 -33.541  48.124  1.00  0.00    -0.508 OA
ATOM     25  H   UNL     1      31.068 -32.551  48.336  1.00  0.00     0.293 HD
ENDBRANCH   8  24
TORSDOF 5
ENDMDL
