MODEL 1
REMARK VINA RESULT:    -4.149      0.000      0.000
REMARK INTER + INTRA:         -13.256
REMARK INTER:                  -9.484
REMARK INTRA:                  -3.772
REMARK UNBOUND:                -3.772
REMARK SMILES CCCCCCCCCCCCCCCCCCCCCCCC(=O)[O-]
REMARK SMILES IDX 13 1 14 2 15 3 16 4 17 5 18 6 19 7 20 8 21 9 22 10 23 11
REMARK SMILES IDX 24 12 25 13 26 14 12 15 11 16 10 17 9 18 8 19 7 20 6 21 5 22
REMARK SMILES IDX 4 23 3 24 2 25 1 26
REMARK H PARENT
REMARK Flexibility Score: inf
ROOT
ATOM      1  C   UNL     1      45.542  28.626  15.962  1.00  0.00     0.000 C 
ENDROOT
BRANCH   1   2
ATOM      2  C   UNL     1      44.053  28.240  15.976  1.00  0.00     0.000 C 
BRANCH   2   3
ATOM      3  C   UNL     1      43.618  27.611  17.313  1.00  0.00     0.000 C 
BRANCH   3   4
ATOM      4  C   UNL     1      43.472  26.083  17.231  1.00  0.00     0.000 C 
BRANCH   4   5
ATOM      5  C   UNL     1      43.448  25.418  18.617  1.00  0.00     0.000 C 
BRANCH   5   6
ATOM      6  C   UNL     1      44.642  24.475  18.839  1.00  0.00     0.000 C 
BRANCH   6   7
ATOM      7  C   UNL     1      45.967  25.233  19.034  1.00  0.00     0.000 C 
BRANCH   7   8
ATOM      8  C   UNL     1      47.100  24.673  18.160  1.00  0.00     0.000 C 
BRANCH   8   9
ATOM      9  C   UNL     1      47.452  25.605  16.986  1.00  0.00     0.000 C 
BRANCH   9  10
ATOM     10  C   UNL     1      48.153  26.897  17.442  1.00  0.00     0.006 C 
BRANCH  10  11
ATOM     11  C   UNL     1      49.509  26.670  18.127  1.00  0.00     0.053 C 
BRANCH  11  12
ATOM     12  C   UNL     1      49.553  27.268  19.499  1.00  0.00     0.041 C 
ATOM     13  O   UNL     1      50.018  28.426  19.669  1.00  0.00    -0.550 OA
ATOM     14  O   UNL     1      49.118  26.534  20.595  1.00  0.00    -0.550 OA
ENDBRANCH  11  12
ENDBRANCH  10  11
ENDBRANCH   9  10
ENDBRANCH   8   9
ENDBRANCH   7   8
ENDBRANCH   6   7
ENDBRANCH   5   6
ENDBRANCH   4   5
ENDBRANCH   3   4
ENDBRANCH   2   3
ENDBRANCH   1   2
BRANCH   1  15
ATOM     15  C   UNL     1      45.861  29.704  14.912  1.00  0.00     0.000 C 
BRANCH  15  16
ATOM     16  C   UNL     1      47.111  29.371  14.081  1.00  0.00     0.000 C 
BRANCH  16  17
ATOM     17  C   UNL     1      47.321  27.857  13.907  1.00  0.00     0.000 C 
BRANCH  17  18
ATOM     18  C   UNL     1      48.810  27.475  13.848  1.00  0.00    -0.000 C 
BRANCH  18  19
ATOM     19  C   UNL     1      49.724  28.688  13.597  1.00  0.00    -0.000 C 
BRANCH  19  20
ATOM     20  C   UNL     1      50.813  28.842  14.671  1.00  0.00    -0.000 C 
BRANCH  20  21
ATOM     21  C   UNL     1      50.303  29.572  15.925  1.00  0.00    -0.000 C 
BRANCH  21  22
ATOM     22  C   UNL     1      50.636  31.076  15.921  1.00  0.00    -0.000 C 
BRANCH  22  23
ATOM     23  C   UNL     1      49.481  32.001  15.493  1.00  0.00    -0.000 C 
BRANCH  23  24
ATOM     24  C   UNL     1      49.415  32.313  13.985  1.00  0.00    -0.000 C 
BRANCH  24  25
ATOM     25  C   UNL     1      50.782  32.661  13.360  1.00  0.00    -0.003 C 
ATOM     26  C   UNL     1      51.140  31.757  12.180  1.00  0.00     0.004 C 
ENDBRANCH  24  25
ENDBRANCH  23  24
ENDBRANCH  22  23
ENDBRANCH  21  22
ENDBRANCH  20  21
ENDBRANCH  19  20
ENDBRANCH  18  19
ENDBRANCH  17  18
ENDBRANCH  16  17
ENDBRANCH  15  16
ENDBRANCH   1  15
TORSDOF 22
ENDMDL
MODEL 2
REMARK VINA RESULT:    -4.089      1.178      6.749
REMARK INTER + INTRA:         -13.119
REMARK INTER:                  -9.557
REMARK INTRA:                  -3.563
REMARK UNBOUND:                -3.772
REMARK SMILES CCCCCCCCCCCCCCCCCCCCCCCC(=O)[O-]
REMARK SMILES IDX 13 1 14 2 15 3 16 4 17 5 18 6 19 7 20 8 21 9 22 10 23 11
REMARK SMILES IDX 24 12 25 13 26 14 12 15 11 16 10 17 9 18 8 19 7 20 6 21 5 22
REMARK SMILES IDX 4 23 3 24 2 25 1 26
REMARK H PARENT
REMARK Flexibility Score: inf
ROOT
ATOM      1  C   UNL     1      46.790  30.988  15.266  1.00  0.00     0.000 C 
ENDROOT
BRANCH   1   2
ATOM      2  C   UNL     1      47.686  32.223  15.068  1.00  0.00     0.000 C 
BRANCH   2   3
ATOM      3  C   UNL     1      49.183  31.896  15.219  1.00  0.00     0.000 C 
BRANCH   3   4
ATOM      4  C   UNL     1      49.993  32.226  13.955  1.00  0.00     0.000 C 
BRANCH   4   5
ATOM      5  C   UNL     1      51.218  31.312  13.784  1.00  0.00     0.000 C 
BRANCH   5   6
ATOM      6  C   UNL     1      50.837  29.900  13.308  1.00  0.00     0.000 C 
BRANCH   6   7
ATOM      7  C   UNL     1      51.291  28.803  14.288  1.00  0.00     0.000 C 
BRANCH   7   8
ATOM      8  C   UNL     1      50.109  28.044  14.910  1.00  0.00     0.000 C 
BRANCH   8   9
ATOM      9  C   UNL     1      49.873  28.425  16.382  1.00  0.00     0.000 C 
BRANCH   9  10
ATOM     10  C   UNL     1      50.556  27.456  17.364  1.00  0.00     0.006 C 
BRANCH  10  11
ATOM     11  C   UNL     1      49.895  27.396  18.751  1.00  0.00     0.053 C 
BRANCH  11  12
ATOM     12  C   UNL     1      50.584  28.285  19.740  1.00  0.00     0.041 C 
ATOM     13  O   UNL     1      49.916  28.880  20.626  1.00  0.00    -0.550 OA
ATOM     14  O   UNL     1      51.955  28.488  19.658  1.00  0.00    -0.550 OA
ENDBRANCH  11  12
ENDBRANCH  10  11
ENDBRANCH   9  10
ENDBRANCH   8   9
ENDBRANCH   7   8
ENDBRANCH   6   7
ENDBRANCH   5   6
ENDBRANCH   4   5
ENDBRANCH   3   4
ENDBRANCH   2   3
ENDBRANCH   1   2
BRANCH   1  15
ATOM     15  C   UNL     1      47.122  29.854  14.281  1.00  0.00     0.000 C 
BRANCH  15  16
ATOM     16  C   UNL     1      46.382  28.547  14.609  1.00  0.00     0.000 C 
BRANCH  16  17
ATOM     17  C   UNL     1      45.707  28.578  15.991  1.00  0.00     0.000 C 
BRANCH  17  18
ATOM     18  C   UNL     1      44.183  28.397  15.903  1.00  0.00    -0.000 C 
BRANCH  18  19
ATOM     19  C   UNL     1      43.606  27.632  17.107  1.00  0.00    -0.000 C 
BRANCH  19  20
ATOM     20  C   UNL     1      42.714  26.452  16.689  1.00  0.00    -0.000 C 
BRANCH  20  21
ATOM     21  C   UNL     1      43.127  25.133  17.365  1.00  0.00    -0.000 C 
BRANCH  21  22
ATOM     22  C   UNL     1      43.608  25.328  18.815  1.00  0.00    -0.000 C 
BRANCH  22  23
ATOM     23  C   UNL     1      45.014  24.774  19.118  1.00  0.00    -0.000 C 
BRANCH  23  24
ATOM     24  C   UNL     1      45.888  24.490  17.881  1.00  0.00    -0.000 C 
BRANCH  24  25
ATOM     25  C   UNL     1      46.851  25.641  17.521  1.00  0.00    -0.003 C 
ATOM     26  C   UNL     1      47.623  25.382  16.227  1.00  0.00     0.004 C 
ENDBRANCH  24  25
ENDBRANCH  23  24
ENDBRANCH  22  23
ENDBRANCH  21  22
ENDBRANCH  20  21
ENDBRANCH  19  20
ENDBRANCH  18  19
ENDBRANCH  17  18
ENDBRANCH  16  17
ENDBRANCH  15  16
ENDBRANCH   1  15
TORSDOF 22
ENDMDL
MODEL 3
REMARK VINA RESULT:    -4.085      1.142      3.211
REMARK INTER + INTRA:         -13.111
REMARK INTER:                 -10.125
REMARK INTRA:                  -2.986
REMARK UNBOUND:                -3.772
REMARK SMILES CCCCCCCCCCCCCCCCCCCCCCCC(=O)[O-]
REMARK SMILES IDX 13 1 14 2 15 3 16 4 17 5 18 6 19 7 20 8 21 9 22 10 23 11
REMARK SMILES IDX 24 12 25 13 26 14 12 15 11 16 10 17 9 18 8 19 7 20 6 21 5 22
REMARK SMILES IDX 4 23 3 24 2 25 1 26
REMARK H PARENT
REMARK Flexibility Score: inf
ROOT
ATOM      1  C   UNL     1      45.707  29.742  14.798  1.00  0.00     0.000 C 
ENDROOT
BRANCH   1   2
ATOM      2  C   UNL     1      45.488  28.607  15.813  1.00  0.00     0.000 C 
BRANCH   2   3
ATOM      3  C   UNL     1      44.001  28.245  15.983  1.00  0.00     0.000 C 
BRANCH   3   4
ATOM      4  C   UNL     1      43.700  27.596  17.343  1.00  0.00     0.000 C 
BRANCH   4   5
ATOM      5  C   UNL     1      43.261  26.128  17.211  1.00  0.00     0.000 C 
BRANCH   5   6
ATOM      6  C   UNL     1      44.363  25.144  17.634  1.00  0.00     0.000 C 
BRANCH   6   7
ATOM      7  C   UNL     1      45.544  25.842  18.333  1.00  0.00     0.000 C 
BRANCH   7   8
ATOM      8  C   UNL     1      46.889  25.547  17.650  1.00  0.00     0.000 C 
BRANCH   8   9
ATOM      9  C   UNL     1      47.846  26.752  17.690  1.00  0.00     0.000 C 
BRANCH   9  10
ATOM     10  C   UNL     1      48.853  26.673  18.851  1.00  0.00     0.006 C 
BRANCH  10  11
ATOM     11  C   UNL     1      50.214  27.319  18.549  1.00  0.00     0.053 C 
BRANCH  11  12
ATOM     12  C   UNL     1      50.677  28.204  19.665  1.00  0.00     0.041 C 
ATOM     13  O   UNL     1      49.840  28.705  20.462  1.00  0.00    -0.550 OA
ATOM     14  O   UNL     1      52.024  28.508  19.801  1.00  0.00    -0.550 OA
ENDBRANCH  11  12
ENDBRANCH  10  11
ENDBRANCH   9  10
ENDBRANCH   8   9
ENDBRANCH   7   8
ENDBRANCH   6   7
ENDBRANCH   5   6
ENDBRANCH   4   5
ENDBRANCH   3   4
ENDBRANCH   2   3
ENDBRANCH   1   2
BRANCH   1  15
ATOM     15  C   UNL     1      47.159  30.250  14.786  1.00  0.00     0.000 C 
BRANCH  15  16
ATOM     16  C   UNL     1      47.269  31.742  15.141  1.00  0.00     0.000 C 
BRANCH  16  17
ATOM     17  C   UNL     1      48.728  32.214  15.275  1.00  0.00     0.000 C 
BRANCH  17  18
ATOM     18  C   UNL     1      49.416  32.381  13.910  1.00  0.00    -0.000 C 
BRANCH  18  19
ATOM     19  C   UNL     1      50.947  32.246  13.997  1.00  0.00    -0.000 C 
BRANCH  19  20
ATOM     20  C   UNL     1      51.455  30.894  13.471  1.00  0.00    -0.000 C 
BRANCH  20  21
ATOM     21  C   UNL     1      50.564  30.325  12.353  1.00  0.00    -0.000 C 
BRANCH  21  22
ATOM     22  C   UNL     1      49.887  28.998  12.742  1.00  0.00    -0.000 C 
BRANCH  22  23
ATOM     23  C   UNL     1      50.261  28.456  14.136  1.00  0.00    -0.000 C 
BRANCH  23  24
ATOM     24  C   UNL     1      49.723  27.049  14.457  1.00  0.00    -0.000 C 
BRANCH  24  25
ATOM     25  C   UNL     1      48.263  26.822  14.011  1.00  0.00    -0.003 C 
ATOM     26  C   UNL     1      48.160  26.040  12.701  1.00  0.00     0.004 C 
ENDBRANCH  24  25
ENDBRANCH  23  24
ENDBRANCH  22  23
ENDBRANCH  21  22
ENDBRANCH  20  21
ENDBRANCH  19  20
ENDBRANCH  18  19
ENDBRANCH  17  18
ENDBRANCH  16  17
ENDBRANCH  15  16
ENDBRANCH   1  15
TORSDOF 22
ENDMDL
MODEL 4
REMARK VINA RESULT:    -4.075      0.894      1.842
REMARK INTER + INTRA:         -13.088
REMARK INTER:                  -9.511
REMARK INTRA:                  -3.577
REMARK UNBOUND:                -3.772
REMARK SMILES CCCCCCCCCCCCCCCCCCCCCCCC(=O)[O-]
REMARK SMILES IDX 13 1 14 2 15 3 16 4 17 5 18 6 19 7 20 8 21 9 22 10 23 11
REMARK SMILES IDX 24 12 25 13 26 14 12 15 11 16 10 17 9 18 8 19 7 20 6 21 5 22
REMARK SMILES IDX 4 23 3 24 2 25 1 26
REMARK H PARENT
REMARK Flexibility Score: inf
ROOT
ATOM      1  C   UNL     1      45.592  28.638  15.948  1.00  0.00     0.000 C 
ENDROOT
BRANCH   1   2
ATOM      2  C   UNL     1      44.081  28.355  15.892  1.00  0.00     0.000 C 
BRANCH   2   3
ATOM      3  C   UNL     1      43.579  27.581  17.125  1.00  0.00     0.000 C 
BRANCH   3   4
ATOM      4  C   UNL     1      42.720  26.362  16.751  1.00  0.00     0.000 C 
BRANCH   4   5
ATOM      5  C   UNL     1      43.154  25.085  17.489  1.00  0.00     0.000 C 
BRANCH   5   6
ATOM      6  C   UNL     1      43.804  25.385  18.850  1.00  0.00     0.000 C 
BRANCH   6   7
ATOM      7  C   UNL     1      45.265  24.906  18.927  1.00  0.00     0.000 C 
BRANCH   7   8
ATOM      8  C   UNL     1      45.814  24.471  17.559  1.00  0.00     0.000 C 
BRANCH   8   9
ATOM      9  C   UNL     1      46.950  25.384  17.063  1.00  0.00     0.000 C 
BRANCH   9  10
ATOM     10  C   UNL     1      47.498  26.304  18.169  1.00  0.00     0.006 C 
BRANCH  10  11
ATOM     11  C   UNL     1      48.909  26.848  17.892  1.00  0.00     0.053 C 
BRANCH  11  12
ATOM     12  C   UNL     1      49.554  27.391  19.129  1.00  0.00     0.041 C 
ATOM     13  O   UNL     1      49.342  26.844  20.244  1.00  0.00    -0.550 OA
ATOM     14  O   UNL     1      50.356  28.522  19.059  1.00  0.00    -0.550 OA
ENDBRANCH  11  12
ENDBRANCH  10  11
ENDBRANCH   9  10
ENDBRANCH   8   9
ENDBRANCH   7   8
ENDBRANCH   6   7
ENDBRANCH   5   6
ENDBRANCH   4   5
ENDBRANCH   3   4
ENDBRANCH   2   3
ENDBRANCH   1   2
BRANCH   1  15
ATOM     15  C   UNL     1      46.041  29.654  14.884  1.00  0.00     0.000 C 
BRANCH  15  16
ATOM     16  C   UNL     1      47.156  29.110  13.977  1.00  0.00     0.000 C 
BRANCH  16  17
ATOM     17  C   UNL     1      47.625  27.704  14.391  1.00  0.00     0.000 C 
BRANCH  17  18
ATOM     18  C   UNL     1      49.144  27.522  14.231  1.00  0.00    -0.000 C 
BRANCH  18  19
ATOM     19  C   UNL     1      49.527  26.899  12.878  1.00  0.00    -0.000 C 
BRANCH  19  20
ATOM     20  C   UNL     1      50.334  27.859  11.989  1.00  0.00    -0.000 C 
BRANCH  20  21
ATOM     21  C   UNL     1      50.786  29.120  12.744  1.00  0.00    -0.000 C 
BRANCH  21  22
ATOM     22  C   UNL     1      50.186  30.414  12.164  1.00  0.00    -0.000 C 
BRANCH  22  23
ATOM     23  C   UNL     1      50.451  31.688  12.991  1.00  0.00    -0.000 C 
BRANCH  23  24
ATOM     24  C   UNL     1      49.444  31.953  14.126  1.00  0.00    -0.000 C 
BRANCH  24  25
ATOM     25  C   UNL     1      50.083  31.989  15.531  1.00  0.00    -0.003 C 
ATOM     26  C   UNL     1      50.418  30.595  16.063  1.00  0.00     0.004 C 
ENDBRANCH  24  25
ENDBRANCH  23  24
ENDBRANCH  22  23
ENDBRANCH  21  22
ENDBRANCH  20  21
ENDBRANCH  19  20
ENDBRANCH  18  19
ENDBRANCH  17  18
ENDBRANCH  16  17
ENDBRANCH  15  16
ENDBRANCH   1  15
TORSDOF 22
ENDMDL
MODEL 5
REMARK VINA RESULT:    -4.033      1.192      2.638
REMARK INTER + INTRA:         -12.992
REMARK INTER:                  -9.323
REMARK INTRA:                  -3.668
REMARK UNBOUND:                -3.772
REMARK SMILES CCCCCCCCCCCCCCCCCCCCCCCC(=O)[O-]
REMARK SMILES IDX 13 1 14 2 15 3 16 4 17 5 18 6 19 7 20 8 21 9 22 10 23 11
REMARK SMILES IDX 24 12 25 13 26 14 12 15 11 16 10 17 9 18 8 19 7 20 6 21 5 22
REMARK SMILES IDX 4 23 3 24 2 25 1 26
REMARK H PARENT
REMARK Flexibility Score: inf
ROOT
ATOM      1  C   UNL     1      45.095  28.428  16.133  1.00  0.00     0.000 C 
ENDROOT
BRANCH   1   2
ATOM      2  C   UNL     1      43.635  27.946  16.093  1.00  0.00     0.000 C 
BRANCH   2   3
ATOM      3  C   UNL     1      43.210  27.242  17.396  1.00  0.00     0.000 C 
BRANCH   3   4
ATOM      4  C   UNL     1      43.799  25.829  17.526  1.00  0.00     0.000 C 
BRANCH   4   5
ATOM      5  C   UNL     1      44.627  25.651  18.810  1.00  0.00     0.000 C 
BRANCH   5   6
ATOM      6  C   UNL     1      46.136  25.565  18.529  1.00  0.00     0.000 C 
BRANCH   6   7
ATOM      7  C   UNL     1      46.448  24.999  17.132  1.00  0.00     0.000 C 
BRANCH   7   8
ATOM      8  C   UNL     1      47.621  25.722  16.453  1.00  0.00     0.000 C 
BRANCH   8   9
ATOM      9  C   UNL     1      48.158  26.893  17.295  1.00  0.00     0.000 C 
BRANCH   9  10
ATOM     10  C   UNL     1      49.542  26.602  17.902  1.00  0.00     0.006 C 
BRANCH  10  11
ATOM     11  C   UNL     1      49.612  26.787  19.426  1.00  0.00     0.053 C 
BRANCH  11  12
ATOM     12  C   UNL     1      50.350  28.032  19.809  1.00  0.00     0.041 C 
ATOM     13  O   UNL     1      51.411  28.347  19.208  1.00  0.00    -0.550 OA
ATOM     14  O   UNL     1      49.890  28.822  20.853  1.00  0.00    -0.550 OA
ENDBRANCH  11  12
ENDBRANCH  10  11
ENDBRANCH   9  10
ENDBRANCH   8   9
ENDBRANCH   7   8
ENDBRANCH   6   7
ENDBRANCH   5   6
ENDBRANCH   4   5
ENDBRANCH   3   4
ENDBRANCH   2   3
ENDBRANCH   1   2
BRANCH   1  15
ATOM     15  C   UNL     1      45.466  29.285  14.910  1.00  0.00     0.000 C 
BRANCH  15  16
ATOM     16  C   UNL     1      46.835  28.915  14.319  1.00  0.00     0.000 C 
BRANCH  16  17
ATOM     17  C   UNL     1      47.841  30.078  14.377  1.00  0.00     0.000 C 
BRANCH  17  18
ATOM     18  C   UNL     1      47.293  31.288  15.151  1.00  0.00    -0.000 C 
BRANCH  18  19
ATOM     19  C   UNL     1      48.138  32.557  14.943  1.00  0.00    -0.000 C 
BRANCH  19  20
ATOM     20  C   UNL     1      49.530  32.255  14.363  1.00  0.00    -0.000 C 
BRANCH  20  21
ATOM     21  C   UNL     1      50.626  32.241  15.441  1.00  0.00    -0.000 C 
BRANCH  21  22
ATOM     22  C   UNL     1      51.540  31.005  15.351  1.00  0.00    -0.000 C 
BRANCH  22  23
ATOM     23  C   UNL     1      51.019  29.751  16.079  1.00  0.00    -0.000 C 
BRANCH  23  24
ATOM     24  C   UNL     1      51.551  28.410  15.537  1.00  0.00    -0.000 C 
BRANCH  24  25
ATOM     25  C   UNL     1      50.885  27.963  14.218  1.00  0.00    -0.003 C 
ATOM     26  C   UNL     1      50.474  26.491  14.234  1.00  0.00     0.004 C 
ENDBRANCH  24  25
ENDBRANCH  23  24
ENDBRANCH  22  23
ENDBRANCH  21  22
ENDBRANCH  20  21
ENDBRANCH  19  20
ENDBRANCH  18  19
ENDBRANCH  17  18
ENDBRANCH  16  17
ENDBRANCH  15  16
ENDBRANCH   1  15
TORSDOF 22
ENDMDL
MODEL 6
REMARK VINA RESULT:    -4.011      0.873      2.129
REMARK INTER + INTRA:         -12.941
REMARK INTER:                  -9.399
REMARK INTRA:                  -3.543
REMARK UNBOUND:                -3.772
REMARK SMILES CCCCCCCCCCCCCCCCCCCCCCCC(=O)[O-]
REMARK SMILES IDX 13 1 14 2 15 3 16 4 17 5 18 6 19 7 20 8 21 9 22 10 23 11
REMARK SMILES IDX 24 12 25 13 26 14 12 15 11 16 10 17 9 18 8 19 7 20 6 21 5 22
REMARK SMILES IDX 4 23 3 24 2 25 1 26
REMARK H PARENT
REMARK Flexibility Score: inf
ROOT
ATOM      1  C   UNL     1      45.820  29.278  14.760  1.00  0.00     0.000 C 
ENDROOT
BRANCH   1   2
ATOM      2  C   UNL     1      45.225  28.697  16.054  1.00  0.00     0.000 C 
BRANCH   2   3
ATOM      3  C   UNL     1      43.754  28.273  15.889  1.00  0.00     0.000 C 
BRANCH   3   4
ATOM      4  C   UNL     1      43.382  27.069  16.768  1.00  0.00     0.000 C 
BRANCH   4   5
ATOM      5  C   UNL     1      44.204  27.010  18.067  1.00  0.00     0.000 C 
BRANCH   5   6
ATOM      6  C   UNL     1      44.517  25.569  18.500  1.00  0.00     0.000 C 
BRANCH   6   7
ATOM      7  C   UNL     1      46.026  25.318  18.679  1.00  0.00     0.000 C 
BRANCH   7   8
ATOM      8  C   UNL     1      46.836  25.692  17.427  1.00  0.00     0.000 C 
BRANCH   8   9
ATOM      9  C   UNL     1      47.724  26.929  17.649  1.00  0.00     0.000 C 
BRANCH   9  10
ATOM     10  C   UNL     1      49.186  26.695  17.229  1.00  0.00     0.006 C 
BRANCH  10  11
ATOM     11  C   UNL     1      50.147  26.448  18.403  1.00  0.00     0.053 C 
BRANCH  11  12
ATOM     12  C   UNL     1      49.960  27.448  19.502  1.00  0.00     0.041 C 
ATOM     13  O   UNL     1      50.344  28.637  19.346  1.00  0.00    -0.550 OA
ATOM     14  O   UNL     1      49.399  27.059  20.711  1.00  0.00    -0.550 OA
ENDBRANCH  11  12
ENDBRANCH  10  11
ENDBRANCH   9  10
ENDBRANCH   8   9
ENDBRANCH   7   8
ENDBRANCH   6   7
ENDBRANCH   5   6
ENDBRANCH   4   5
ENDBRANCH   3   4
ENDBRANCH   2   3
ENDBRANCH   1   2
BRANCH   1  15
ATOM     15  C   UNL     1      46.876  28.354  14.129  1.00  0.00     0.000 C 
BRANCH  15  16
ATOM     16  C   UNL     1      48.153  29.105  13.720  1.00  0.00     0.000 C 
BRANCH  16  17
ATOM     17  C   UNL     1      49.400  28.204  13.731  1.00  0.00     0.000 C 
BRANCH  17  18
ATOM     18  C   UNL     1      50.569  28.810  12.935  1.00  0.00    -0.000 C 
BRANCH  18  19
ATOM     19  C   UNL     1      50.197  30.140  12.257  1.00  0.00    -0.000 C 
BRANCH  19  20
ATOM     20  C   UNL     1      51.272  31.223  12.447  1.00  0.00    -0.000 C 
BRANCH  20  21
ATOM     21  C   UNL     1      50.676  32.573  12.884  1.00  0.00    -0.000 C 
BRANCH  21  22
ATOM     22  C   UNL     1      49.545  32.423  13.918  1.00  0.00    -0.000 C 
BRANCH  22  23
ATOM     23  C   UNL     1      49.999  32.424  15.390  1.00  0.00    -0.000 C 
BRANCH  23  24
ATOM     24  C   UNL     1      50.304  31.036  15.984  1.00  0.00    -0.000 C 
BRANCH  24  25
ATOM     25  C   UNL     1      51.811  30.731  16.116  1.00  0.00    -0.003 C 
ATOM     26  C   UNL     1      52.094  29.253  16.383  1.00  0.00     0.004 C 
ENDBRANCH  24  25
ENDBRANCH  23  24
ENDBRANCH  22  23
ENDBRANCH  21  22
ENDBRANCH  20  21
ENDBRANCH  19  20
ENDBRANCH  18  19
ENDBRANCH  17  18
ENDBRANCH  16  17
ENDBRANCH  15  16
ENDBRANCH   1  15
TORSDOF 22
ENDMDL
MODEL 7
REMARK VINA RESULT:    -4.000      1.277      2.947
REMARK INTER + INTRA:         -12.916
REMARK INTER:                  -9.809
REMARK INTRA:                  -3.107
REMARK UNBOUND:                -3.772
REMARK SMILES CCCCCCCCCCCCCCCCCCCCCCCC(=O)[O-]
REMARK SMILES IDX 13 1 14 2 15 3 16 4 17 5 18 6 19 7 20 8 21 9 22 10 23 11
REMARK SMILES IDX 24 12 25 13 26 14 12 15 11 16 10 17 9 18 8 19 7 20 6 21 5 22
REMARK SMILES IDX 4 23 3 24 2 25 1 26
REMARK H PARENT
REMARK Flexibility Score: inf
ROOT
ATOM      1  C   UNL     1      42.852  26.325  16.863  1.00  0.00     0.000 C 
ENDROOT
BRANCH   1   2
ATOM      2  C   UNL     1      43.244  24.909  17.317  1.00  0.00     0.000 C 
BRANCH   2   3
ATOM      3  C   UNL     1      44.050  24.911  18.629  1.00  0.00     0.000 C 
BRANCH   3   4
ATOM      4  C   UNL     1      45.182  23.871  18.630  1.00  0.00     0.000 C 
BRANCH   4   5
ATOM      5  C   UNL     1      45.649  23.506  17.211  1.00  0.00     0.000 C 
BRANCH   5   6
ATOM      6  C   UNL     1      47.139  23.810  16.985  1.00  0.00     0.000 C 
BRANCH   6   7
ATOM      7  C   UNL     1      47.371  25.186  16.336  1.00  0.00     0.000 C 
BRANCH   7   8
ATOM      8  C   UNL     1      48.546  25.946  16.971  1.00  0.00     0.000 C 
BRANCH   8   9
ATOM      9  C   UNL     1      48.106  26.835  18.147  1.00  0.00     0.000 C 
BRANCH   9  10
ATOM     10  C   UNL     1      48.914  26.567  19.430  1.00  0.00     0.006 C 
BRANCH  10  11
ATOM     11  C   UNL     1      49.770  27.756  19.894  1.00  0.00     0.053 C 
BRANCH  11  12
ATOM     12  C   UNL     1      51.232  27.516  19.675  1.00  0.00     0.041 C 
ATOM     13  O   UNL     1      52.031  28.487  19.623  1.00  0.00    -0.550 OA
ATOM     14  O   UNL     1      51.705  26.224  19.489  1.00  0.00    -0.550 OA
ENDBRANCH  11  12
ENDBRANCH  10  11
ENDBRANCH   9  10
ENDBRANCH   8   9
ENDBRANCH   7   8
ENDBRANCH   6   7
ENDBRANCH   5   6
ENDBRANCH   4   5
ENDBRANCH   3   4
ENDBRANCH   2   3
ENDBRANCH   1   2
BRANCH   1  15
ATOM     15  C   UNL     1      43.726  27.414  17.508  1.00  0.00     0.000 C 
BRANCH  15  16
ATOM     16  C   UNL     1      44.915  27.823  16.623  1.00  0.00     0.000 C 
BRANCH  16  17
ATOM     17  C   UNL     1      44.508  28.775  15.485  1.00  0.00     0.000 C 
BRANCH  17  18
ATOM     18  C   UNL     1      45.723  29.423  14.800  1.00  0.00    -0.000 C 
BRANCH  18  19
ATOM     19  C   UNL     1      46.844  28.412  14.501  1.00  0.00    -0.000 C 
BRANCH  19  20
ATOM     20  C   UNL     1      47.969  29.011  13.642  1.00  0.00    -0.000 C 
BRANCH  20  21
ATOM     21  C   UNL     1      49.368  28.641  14.163  1.00  0.00    -0.000 C 
BRANCH  21  22
ATOM     22  C   UNL     1      50.476  29.557  13.612  1.00  0.00    -0.000 C 
BRANCH  22  23
ATOM     23  C   UNL     1      49.992  30.914  13.064  1.00  0.00    -0.000 C 
BRANCH  23  24
ATOM     24  C   UNL     1      50.412  32.143  13.892  1.00  0.00    -0.000 C 
BRANCH  24  25
ATOM     25  C   UNL     1      49.728  32.227  15.273  1.00  0.00    -0.003 C 
ATOM     26  C   UNL     1      48.202  32.253  15.176  1.00  0.00     0.004 C 
ENDBRANCH  24  25
ENDBRANCH  23  24
ENDBRANCH  22  23
ENDBRANCH  21  22
ENDBRANCH  20  21
ENDBRANCH  19  20
ENDBRANCH  18  19
ENDBRANCH  17  18
ENDBRANCH  16  17
ENDBRANCH  15  16
ENDBRANCH   1  15
TORSDOF 22
ENDMDL
MODEL 8
REMARK VINA RESULT:    -3.978      2.139      3.938
REMARK INTER + INTRA:         -12.867
REMARK INTER:                  -9.590
REMARK INTRA:                  -3.277
REMARK UNBOUND:                -3.772
REMARK SMILES CCCCCCCCCCCCCCCCCCCCCCCC(=O)[O-]
REMARK SMILES IDX 13 1 14 2 15 3 16 4 17 5 18 6 19 7 20 8 21 9 22 10 23 11
REMARK SMILES IDX 24 12 25 13 26 14 12 15 11 16 10 17 9 18 8 19 7 20 6 21 5 22
REMARK SMILES IDX 4 23 3 24 2 25 1 26
REMARK H PARENT
REMARK Flexibility Score: inf
ROOT
ATOM      1  C   UNL     1      45.497  28.640  15.265  1.00  0.00     0.000 C 
ENDROOT
BRANCH   1   2
ATOM      2  C   UNL     1      44.027  28.555  15.709  1.00  0.00     0.000 C 
BRANCH   2   3
ATOM      3  C   UNL     1      43.848  27.741  17.004  1.00  0.00     0.000 C 
BRANCH   3   4
ATOM      4  C   UNL     1      42.943  26.513  16.812  1.00  0.00     0.000 C 
BRANCH   4   5
ATOM      5  C   UNL     1      43.378  25.320  17.681  1.00  0.00     0.000 C 
BRANCH   5   6
ATOM      6  C   UNL     1      44.259  25.746  18.867  1.00  0.00     0.000 C 
BRANCH   6   7
ATOM      7  C   UNL     1      45.618  25.022  18.884  1.00  0.00     0.000 C 
BRANCH   7   8
ATOM      8  C   UNL     1      46.749  25.882  18.300  1.00  0.00     0.000 C 
BRANCH   8   9
ATOM      9  C   UNL     1      47.050  25.540  16.830  1.00  0.00     0.000 C 
BRANCH   9  10
ATOM     10  C   UNL     1      48.069  26.502  16.192  1.00  0.00     0.006 C 
BRANCH  10  11
ATOM     11  C   UNL     1      48.638  26.017  14.850  1.00  0.00     0.053 C 
BRANCH  11  12
ATOM     12  C   UNL     1      48.611  27.092  13.807  1.00  0.00     0.041 C 
ATOM     13  O   UNL     1      47.649  27.161  12.996  1.00  0.00    -0.550 OA
ATOM     14  O   UNL     1      49.664  27.990  13.704  1.00  0.00    -0.550 OA
ENDBRANCH  11  12
ENDBRANCH  10  11
ENDBRANCH   9  10
ENDBRANCH   8   9
ENDBRANCH   7   8
ENDBRANCH   6   7
ENDBRANCH   5   6
ENDBRANCH   4   5
ENDBRANCH   3   4
ENDBRANCH   2   3
ENDBRANCH   1   2
BRANCH   1  15
ATOM     15  C   UNL     1      45.842  29.993  14.620  1.00  0.00     0.000 C 
BRANCH  15  16
ATOM     16  C   UNL     1      47.297  30.419  14.875  1.00  0.00     0.000 C 
BRANCH  16  17
ATOM     17  C   UNL     1      47.421  31.899  15.277  1.00  0.00     0.000 C 
BRANCH  17  18
ATOM     18  C   UNL     1      48.769  32.509  14.857  1.00  0.00    -0.000 C 
BRANCH  18  19
ATOM     19  C   UNL     1      49.545  31.614  13.875  1.00  0.00    -0.000 C 
BRANCH  19  20
ATOM     20  C   UNL     1      50.920  31.190  14.418  1.00  0.00    -0.000 C 
BRANCH  20  21
ATOM     21  C   UNL     1      50.982  31.227  15.954  1.00  0.00    -0.000 C 
BRANCH  21  22
ATOM     22  C   UNL     1      50.507  29.915  16.605  1.00  0.00    -0.000 C 
BRANCH  22  23
ATOM     23  C   UNL     1      51.529  28.761  16.575  1.00  0.00    -0.000 C 
BRANCH  23  24
ATOM     24  C   UNL     1      51.400  27.741  17.722  1.00  0.00    -0.000 C 
BRANCH  24  25
ATOM     25  C   UNL     1      50.717  28.306  18.986  1.00  0.00    -0.003 C 
ATOM     26  C   UNL     1      49.769  27.303  19.644  1.00  0.00     0.004 C 
ENDBRANCH  24  25
ENDBRANCH  23  24
ENDBRANCH  22  23
ENDBRANCH  21  22
ENDBRANCH  20  21
ENDBRANCH  19  20
ENDBRANCH  18  19
ENDBRANCH  17  18
ENDBRANCH  16  17
ENDBRANCH  15  16
ENDBRANCH   1  15
TORSDOF 22
ENDMDL
MODEL 9
REMARK VINA RESULT:    -3.913      1.211      6.593
REMARK INTER + INTRA:         -12.718
REMARK INTER:                  -9.107
REMARK INTRA:                  -3.611
REMARK UNBOUND:                -3.772
REMARK SMILES CCCCCCCCCCCCCCCCCCCCCCCC(=O)[O-]
REMARK SMILES IDX 13 1 14 2 15 3 16 4 17 5 18 6 19 7 20 8 21 9 22 10 23 11
REMARK SMILES IDX 24 12 25 13 26 14 12 15 11 16 10 17 9 18 8 19 7 20 6 21 5 22
REMARK SMILES IDX 4 23 3 24 2 25 1 26
REMARK H PARENT
REMARK Flexibility Score: inf
ROOT
ATOM      1  C   UNL     1      48.149  32.012  15.268  1.00  0.00     0.000 C 
ENDROOT
BRANCH   1   2
ATOM      2  C   UNL     1      49.599  32.441  14.988  1.00  0.00     0.000 C 
BRANCH   2   3
ATOM      3  C   UNL     1      49.938  32.435  13.486  1.00  0.00     0.000 C 
BRANCH   3   4
ATOM      4  C   UNL     1      51.402  32.057  13.209  1.00  0.00     0.000 C 
BRANCH   4   5
ATOM      5  C   UNL     1      51.531  30.869  12.241  1.00  0.00     0.000 C 
BRANCH   5   6
ATOM      6  C   UNL     1      50.697  29.656  12.683  1.00  0.00     0.000 C 
BRANCH   6   7
ATOM      7  C   UNL     1      51.421  28.788  13.728  1.00  0.00     0.000 C 
BRANCH   7   8
ATOM      8  C   UNL     1      50.905  29.033  15.155  1.00  0.00     0.000 C 
BRANCH   8   9
ATOM      9  C   UNL     1      51.433  27.993  16.159  1.00  0.00     0.000 C 
BRANCH   9  10
ATOM     10  C   UNL     1      51.114  28.360  17.619  1.00  0.00     0.006 C 
BRANCH  10  11
ATOM     11  C   UNL     1      50.782  27.154  18.513  1.00  0.00     0.053 C 
BRANCH  11  12
ATOM     12  C   UNL     1      49.787  27.501  19.577  1.00  0.00     0.041 C 
ATOM     13  O   UNL     1      49.856  28.611  20.168  1.00  0.00    -0.550 OA
ATOM     14  O   UNL     1      48.811  26.584  19.945  1.00  0.00    -0.550 OA
ENDBRANCH  11  12
ENDBRANCH  10  11
ENDBRANCH   9  10
ENDBRANCH   8   9
ENDBRANCH   7   8
ENDBRANCH   6   7
ENDBRANCH   5   6
ENDBRANCH   4   5
ENDBRANCH   3   4
ENDBRANCH   2   3
ENDBRANCH   1   2
BRANCH   1  15
ATOM     15  C   UNL     1      47.769  30.708  14.546  1.00  0.00     0.000 C 
BRANCH  15  16
ATOM     16  C   UNL     1      46.364  30.210  14.919  1.00  0.00     0.000 C 
BRANCH  16  17
ATOM     17  C   UNL     1      46.156  28.720  14.594  1.00  0.00     0.000 C 
BRANCH  17  18
ATOM     18  C   UNL     1      47.289  28.147  13.727  1.00  0.00    -0.000 C 
BRANCH  18  19
ATOM     19  C   UNL     1      47.922  26.884  14.337  1.00  0.00    -0.000 C 
BRANCH  19  20
ATOM     20  C   UNL     1      47.947  26.916  15.874  1.00  0.00    -0.000 C 
BRANCH  20  21
ATOM     21  C   UNL     1      47.840  25.513  16.494  1.00  0.00    -0.000 C 
BRANCH  21  22
ATOM     22  C   UNL     1      46.545  25.312  17.302  1.00  0.00    -0.000 C 
BRANCH  22  23
ATOM     23  C   UNL     1      45.850  26.609  17.760  1.00  0.00    -0.000 C 
BRANCH  23  24
ATOM     24  C   UNL     1      44.415  26.804  17.236  1.00  0.00    -0.000 C 
BRANCH  24  25
ATOM     25  C   UNL     1      43.365  25.927  17.951  1.00  0.00    -0.003 C 
ATOM     26  C   UNL     1      42.967  24.697  17.134  1.00  0.00     0.004 C 
ENDBRANCH  24  25
ENDBRANCH  23  24
ENDBRANCH  22  23
ENDBRANCH  21  22
ENDBRANCH  20  21
ENDBRANCH  19  20
ENDBRANCH  18  19
ENDBRANCH  17  18
ENDBRANCH  16  17
ENDBRANCH  15  16
ENDBRANCH   1  15
TORSDOF 22
ENDMDL
