MODEL 1
REMARK VINA RESULT:    -6.107      0.000      0.000
REMARK INTER + INTRA:          -9.119
REMARK INTER:                  -8.070
REMARK INTRA:                  -1.049
REMARK UNBOUND:                -1.049
REMARK SMILES CC[C@@H](C=C[C@@H](C)[C@H]1CC[C@H]2[C@H]3CC=C4C[C@H](O)CC[C@@]4(C)[C@@H]3CC[C@]12C)C(C)C
REMARK SMILES IDX 6 1 7 2 5 3 4 4 3 5 2 6 1 7 28 8 29 9 30 10 8 11 9 12 26 13
REMARK SMILES IDX 10 14 11 15 25 16 27 17 12 18 24 19 23 20 13 21 21 22 14 23
REMARK SMILES IDX 15 24 20 25 22 26 16 27 19 28 17 29 18 30
REMARK H PARENT 18 31
REMARK Flexibility Score: inf
ROOT
ATOM      1  C   UNL     1      12.724  -4.326  38.052  1.00  0.00     0.012 C 
ATOM      2  C   UNL     1      13.999  -3.521  37.767  1.00  0.00     0.012 C 
ENDROOT
BRANCH   1   3
ATOM      3  C   UNL     1      12.405  -5.158  36.825  1.00  0.00    -0.028 C 
ATOM      4  C   UNL     1      12.743  -4.747  35.592  1.00  0.00    -0.027 C 
BRANCH   4   5
ATOM      5  C   UNL     1      12.300  -5.501  34.354  1.00  0.00     0.014 C 
BRANCH   5   6
ATOM      6  C   UNL     1      12.319  -4.576  33.116  1.00  0.00     0.004 C 
ATOM      7  C   UNL     1      13.147  -5.156  31.968  1.00  0.00     0.004 C 
ENDBRANCH   5   6
BRANCH   5   8
ATOM      8  C   UNL     1      10.904  -6.168  34.549  1.00  0.00    -0.011 C 
ATOM      9  C   UNL     1       9.763  -5.216  34.156  1.00  0.00     0.008 C 
ATOM     10  C   UNL     1      10.755  -7.504  33.801  1.00  0.00     0.008 C 
ENDBRANCH   5   8
ENDBRANCH   4   5
ENDBRANCH   1   3
BRANCH   1  11
ATOM     11  C   UNL     1      11.573  -3.385  38.537  1.00  0.00     0.002 C 
ATOM     12  C   UNL     1      10.119  -3.837  38.225  1.00  0.00     0.005 C 
ATOM     13  C   UNL     1      11.554  -2.977  40.040  1.00  0.00    -0.026 C 
ATOM     14  C   UNL     1       9.231  -3.252  39.341  1.00  0.00     0.005 C 
ATOM     15  C   UNL     1      10.165  -2.321  40.103  1.00  0.00    -0.001 C 
ATOM     16  C   UNL     1      12.643  -1.920  40.436  1.00  0.00     0.007 C 
ATOM     17  C   UNL     1      11.666  -4.247  40.939  1.00  0.00     0.012 C 
ATOM     18  C   UNL     1       9.747  -1.727  41.477  1.00  0.00     0.000 C 
ATOM     19  C   UNL     1      12.125  -0.790  41.379  1.00  0.00     0.005 C 
ATOM     20  C   UNL     1      10.982  -1.279  42.309  1.00  0.00     0.003 C 
ATOM     21  C   UNL     1       8.838  -2.586  42.355  1.00  0.00     0.031 C 
ATOM     22  C   UNL     1      10.550  -0.313  43.469  1.00  0.00    -0.008 C 
ATOM     23  C   UNL     1       8.541  -1.882  43.661  1.00  0.00    -0.027 C 
ATOM     24  C   UNL     1       9.324  -0.907  44.197  1.00  0.00    -0.065 C 
ATOM     25  C   UNL     1      11.722  -0.188  44.496  1.00  0.00     0.014 C 
ATOM     26  C   UNL     1      10.194   1.097  42.928  1.00  0.00     0.016 C 
ATOM     27  C   UNL     1       8.935  -0.315  45.538  1.00  0.00     0.063 C 
ATOM     28  C   UNL     1      11.316   0.462  45.829  1.00  0.00     0.033 C 
ATOM     29  C   UNL     1      10.145  -0.284  46.479  1.00  0.00     0.118 C 
BRANCH  29  30
ATOM     30  O   UNL     1       9.801   0.362  47.677  1.00  0.00    -0.393 OA
ATOM     31  H   UNL     1       9.649   1.318  47.453  1.00  0.00     0.210 HD
ENDBRANCH  29  30
ENDBRANCH   1  11
TORSDOF 6
ENDMDL
MODEL 2
REMARK VINA RESULT:    -6.051     12.193     14.254
REMARK INTER + INTRA:          -9.046
REMARK INTER:                  -7.700
REMARK INTRA:                  -1.346
REMARK UNBOUND:                -1.049
REMARK SMILES CC[C@@H](C=C[C@@H](C)[C@H]1CC[C@H]2[C@H]3CC=C4C[C@H](O)CC[C@@]4(C)[C@@H]3CC[C@]12C)C(C)C
REMARK SMILES IDX 6 1 7 2 5 3 4 4 3 5 2 6 1 7 28 8 29 9 30 10 8 11 9 12 26 13
REMARK SMILES IDX 10 14 11 15 25 16 27 17 12 18 24 19 23 20 13 21 21 22 14 23
REMARK SMILES IDX 15 24 20 25 22 26 16 27 19 28 17 29 18 30
REMARK H PARENT 18 31
REMARK Flexibility Score: inf
ROOT
ATOM      1  C   UNL     1      18.675  -9.710  40.510  1.00  0.00     0.012 C 
ATOM      2  C   UNL     1      19.285  -8.433  39.919  1.00  0.00     0.012 C 
ENDROOT
BRANCH   1   3
ATOM      3  C   UNL     1      17.195  -9.725  40.183  1.00  0.00    -0.028 C 
ATOM      4  C   UNL     1      16.541 -10.873  39.945  1.00  0.00    -0.027 C 
BRANCH   4   5
ATOM      5  C   UNL     1      15.100 -10.885  39.476  1.00  0.00     0.014 C 
BRANCH   5   6
ATOM      6  C   UNL     1      14.679  -9.487  38.968  1.00  0.00     0.004 C 
ATOM      7  C   UNL     1      13.581  -8.861  39.830  1.00  0.00     0.004 C 
ENDBRANCH   5   6
BRANCH   5   8
ATOM      8  C   UNL     1      14.134 -11.406  40.584  1.00  0.00    -0.011 C 
ATOM      9  C   UNL     1      13.243 -12.547  40.068  1.00  0.00     0.008 C 
ATOM     10  C   UNL     1      14.859 -11.845  41.869  1.00  0.00     0.008 C 
ENDBRANCH   5   8
ENDBRANCH   4   5
ENDBRANCH   1   3
BRANCH   1  11
ATOM     11  C   UNL     1      19.022  -9.835  42.030  1.00  0.00     0.002 C 
ATOM     12  C   UNL     1      17.825  -9.882  43.021  1.00  0.00     0.005 C 
ATOM     13  C   UNL     1      19.953 -11.004  42.468  1.00  0.00    -0.026 C 
ATOM     14  C   UNL     1      18.297 -10.704  44.237  1.00  0.00     0.005 C 
ATOM     15  C   UNL     1      19.788 -10.897  43.993  1.00  0.00    -0.001 C 
ATOM     16  C   UNL     1      21.463 -10.801  42.097  1.00  0.00     0.007 C 
ATOM     17  C   UNL     1      19.421 -12.354  41.895  1.00  0.00     0.012 C 
ATOM     18  C   UNL     1      20.608 -11.904  44.846  1.00  0.00     0.000 C 
ATOM     19  C   UNL     1      22.460 -11.198  43.230  1.00  0.00     0.005 C 
ATOM     20  C   UNL     1      21.911 -12.344  44.120  1.00  0.00     0.003 C 
ATOM     21  C   UNL     1      19.872 -13.146  45.349  1.00  0.00     0.031 C 
ATOM     22  C   UNL     1      22.917 -13.000  45.133  1.00  0.00    -0.008 C 
ATOM     23  C   UNL     1      20.808 -14.034  46.140  1.00  0.00    -0.027 C 
ATOM     24  C   UNL     1      22.163 -14.019  46.015  1.00  0.00    -0.065 C 
ATOM     25  C   UNL     1      24.025 -13.760  44.335  1.00  0.00     0.014 C 
ATOM     26  C   UNL     1      23.584 -11.931  46.038  1.00  0.00     0.016 C 
ATOM     27  C   UNL     1      22.982 -14.995  46.836  1.00  0.00     0.063 C 
ATOM     28  C   UNL     1      24.877 -14.706  45.198  1.00  0.00     0.033 C 
ATOM     29  C   UNL     1      24.002 -15.717  45.947  1.00  0.00     0.118 C 
BRANCH  29  30
ATOM     30  O   UNL     1      24.824 -16.538  46.735  1.00  0.00    -0.393 OA
ATOM     31  H   UNL     1      24.295 -17.349  46.952  1.00  0.00     0.210 HD
ENDBRANCH  29  30
ENDBRANCH   1  11
TORSDOF 6
ENDMDL
MODEL 3
REMARK VINA RESULT:    -5.973     11.154     13.992
REMARK INTER + INTRA:          -8.943
REMARK INTER:                  -7.682
REMARK INTRA:                  -1.261
REMARK UNBOUND:                -1.049
REMARK SMILES CC[C@@H](C=C[C@@H](C)[C@H]1CC[C@H]2[C@H]3CC=C4C[C@H](O)CC[C@@]4(C)[C@@H]3CC[C@]12C)C(C)C
REMARK SMILES IDX 6 1 7 2 5 3 4 4 3 5 2 6 1 7 28 8 29 9 30 10 8 11 9 12 26 13
REMARK SMILES IDX 10 14 11 15 25 16 27 17 12 18 24 19 23 20 13 21 21 22 14 23
REMARK SMILES IDX 15 24 20 25 22 26 16 27 19 28 17 29 18 30
REMARK H PARENT 18 31
REMARK Flexibility Score: inf
ROOT
ATOM      1  C   UNL     1      21.205 -13.065  42.925  1.00  0.00     0.012 C 
ATOM      2  C   UNL     1      21.162 -14.597  42.995  1.00  0.00     0.012 C 
ENDROOT
BRANCH   1   3
ATOM      3  C   UNL     1      22.348 -12.583  43.795  1.00  0.00    -0.028 C 
ATOM      4  C   UNL     1      22.895 -13.371  44.735  1.00  0.00    -0.027 C 
BRANCH   4   5
ATOM      5  C   UNL     1      23.938 -12.848  45.703  1.00  0.00     0.014 C 
BRANCH   5   6
ATOM      6  C   UNL     1      24.112 -13.818  46.894  1.00  0.00     0.004 C 
ATOM      7  C   UNL     1      23.411 -15.157  46.661  1.00  0.00     0.004 C 
ENDBRANCH   5   6
BRANCH   5   8
ATOM      8  C   UNL     1      23.607 -11.402  46.186  1.00  0.00    -0.011 C 
ATOM      9  C   UNL     1      22.359 -11.377  47.082  1.00  0.00     0.008 C 
ATOM     10  C   UNL     1      24.783 -10.714  46.903  1.00  0.00     0.008 C 
ENDBRANCH   5   8
ENDBRANCH   4   5
ENDBRANCH   1   3
BRANCH   1  11
ATOM     11  C   UNL     1      19.804 -12.458  43.268  1.00  0.00     0.002 C 
ATOM     12  C   UNL     1      19.719 -11.569  44.540  1.00  0.00     0.005 C 
ATOM     13  C   UNL     1      19.075 -11.644  42.159  1.00  0.00    -0.026 C 
ATOM     14  C   UNL     1      18.587 -10.553  44.288  1.00  0.00     0.005 C 
ATOM     15  C   UNL     1      17.938 -11.040  42.998  1.00  0.00    -0.001 C 
ATOM     16  C   UNL     1      18.461 -12.521  41.013  1.00  0.00     0.007 C 
ATOM     17  C   UNL     1      20.034 -10.563  41.572  1.00  0.00     0.012 C 
ATOM     18  C   UNL     1      16.918 -10.149  42.237  1.00  0.00     0.000 C 
ATOM     19  C   UNL     1      17.029 -12.086  40.572  1.00  0.00     0.005 C 
ATOM     20  C   UNL     1      16.800 -10.561  40.742  1.00  0.00     0.003 C 
ATOM     21  C   UNL     1      17.121  -8.636  42.323  1.00  0.00     0.031 C 
ATOM     22  C   UNL     1      15.495  -9.964  40.103  1.00  0.00    -0.008 C 
ATOM     23  C   UNL     1      16.068  -7.912  41.515  1.00  0.00    -0.027 C 
ATOM     24  C   UNL     1      15.374  -8.473  40.488  1.00  0.00    -0.065 C 
ATOM     25  C   UNL     1      15.592 -10.068  38.547  1.00  0.00     0.014 C 
ATOM     26  C   UNL     1      14.230 -10.724  40.587  1.00  0.00     0.016 C 
ATOM     27  C   UNL     1      14.376  -7.620  39.729  1.00  0.00     0.063 C 
ATOM     28  C   UNL     1      14.538  -9.235  37.799  1.00  0.00     0.033 C 
ATOM     29  C   UNL     1      14.592  -7.761  38.218  1.00  0.00     0.118 C 
BRANCH  29  30
ATOM     30  O   UNL     1      13.598  -7.053  37.526  1.00  0.00    -0.393 OA
ATOM     31  H   UNL     1      12.840  -7.681  37.391  1.00  0.00     0.210 HD
ENDBRANCH  29  30
ENDBRANCH   1  11
TORSDOF 6
ENDMDL
MODEL 4
REMARK VINA RESULT:    -5.961     12.265     14.909
REMARK INTER + INTRA:          -8.927
REMARK INTER:                  -7.960
REMARK INTRA:                  -0.967
REMARK UNBOUND:                -1.049
REMARK SMILES CC[C@@H](C=C[C@@H](C)[C@H]1CC[C@H]2[C@H]3CC=C4C[C@H](O)CC[C@@]4(C)[C@@H]3CC[C@]12C)C(C)C
REMARK SMILES IDX 6 1 7 2 5 3 4 4 3 5 2 6 1 7 28 8 29 9 30 10 8 11 9 12 26 13
REMARK SMILES IDX 10 14 11 15 25 16 27 17 12 18 24 19 23 20 13 21 21 22 14 23
REMARK SMILES IDX 15 24 20 25 22 26 16 27 19 28 17 29 18 30
REMARK H PARENT 18 31
REMARK Flexibility Score: inf
ROOT
ATOM      1  C   UNL     1      21.349 -12.095  45.832  1.00  0.00     0.012 C 
ATOM      2  C   UNL     1      22.120 -11.364  46.938  1.00  0.00     0.012 C 
ENDROOT
BRANCH   1   3
ATOM      3  C   UNL     1      22.036 -13.420  45.571  1.00  0.00    -0.028 C 
ATOM      4  C   UNL     1      22.506 -14.177  46.576  1.00  0.00    -0.027 C 
BRANCH   4   5
ATOM      5  C   UNL     1      23.320 -15.429  46.316  1.00  0.00     0.014 C 
BRANCH   5   6
ATOM      6  C   UNL     1      24.743 -15.286  46.903  1.00  0.00     0.004 C 
ATOM      7  C   UNL     1      25.125 -13.826  47.154  1.00  0.00     0.004 C 
ENDBRANCH   5   6
BRANCH   5   8
ATOM      8  C   UNL     1      23.360 -15.789  44.799  1.00  0.00    -0.011 C 
ATOM      9  C   UNL     1      24.769 -16.216  44.357  1.00  0.00     0.008 C 
ATOM     10  C   UNL     1      22.335 -16.865  44.399  1.00  0.00     0.008 C 
ENDBRANCH   5   8
ENDBRANCH   4   5
ENDBRANCH   1   3
BRANCH   1  11
ATOM     11  C   UNL     1      21.176 -11.175  44.579  1.00  0.00     0.002 C 
ATOM     12  C   UNL     1      22.304 -11.228  43.510  1.00  0.00     0.005 C 
ATOM     13  C   UNL     1      19.850 -11.291  43.770  1.00  0.00    -0.026 C 
ATOM     14  C   UNL     1      21.641 -10.894  42.159  1.00  0.00     0.005 C 
ATOM     15  C   UNL     1      20.233 -10.453  42.540  1.00  0.00    -0.001 C 
ATOM     16  C   UNL     1      18.607 -10.641  44.471  1.00  0.00     0.007 C 
ATOM     17  C   UNL     1      19.567 -12.785  43.420  1.00  0.00     0.012 C 
ATOM     18  C   UNL     1      19.135 -10.281  41.455  1.00  0.00     0.000 C 
ATOM     19  C   UNL     1      17.694  -9.813  43.515  1.00  0.00     0.005 C 
ATOM     20  C   UNL     1      17.707 -10.366  42.065  1.00  0.00     0.003 C 
ATOM     21  C   UNL     1      19.213 -11.203  40.237  1.00  0.00     0.031 C 
ATOM     22  C   UNL     1      16.642  -9.777  41.072  1.00  0.00    -0.008 C 
ATOM     23  C   UNL     1      18.066 -10.930  39.289  1.00  0.00    -0.027 C 
ATOM     24  C   UNL     1      16.894 -10.345  39.657  1.00  0.00    -0.065 C 
ATOM     25  C   UNL     1      15.214 -10.213  41.533  1.00  0.00     0.014 C 
ATOM     26  C   UNL     1      16.711  -8.228  41.023  1.00  0.00     0.016 C 
ATOM     27  C   UNL     1      15.808 -10.170  38.615  1.00  0.00     0.063 C 
ATOM     28  C   UNL     1      14.119  -9.979  40.478  1.00  0.00     0.033 C 
ATOM     29  C   UNL     1      14.463 -10.673  39.155  1.00  0.00     0.118 C 
BRANCH  29  30
ATOM     30  O   UNL     1      13.447 -10.408  38.224  1.00  0.00    -0.393 OA
ATOM     31  H   UNL     1      12.850  -9.730  38.636  1.00  0.00     0.210 HD
ENDBRANCH  29  30
ENDBRANCH   1  11
TORSDOF 6
ENDMDL
MODEL 5
REMARK VINA RESULT:    -5.922     11.005     13.800
REMARK INTER + INTRA:          -8.875
REMARK INTER:                  -7.731
REMARK INTRA:                  -1.144
REMARK UNBOUND:                -1.049
REMARK SMILES CC[C@@H](C=C[C@@H](C)[C@H]1CC[C@H]2[C@H]3CC=C4C[C@H](O)CC[C@@]4(C)[C@@H]3CC[C@]12C)C(C)C
REMARK SMILES IDX 6 1 7 2 5 3 4 4 3 5 2 6 1 7 28 8 29 9 30 10 8 11 9 12 26 13
REMARK SMILES IDX 10 14 11 15 25 16 27 17 12 18 24 19 23 20 13 21 21 22 14 23
REMARK SMILES IDX 15 24 20 25 22 26 16 27 19 28 17 29 18 30
REMARK H PARENT 18 31
REMARK Flexibility Score: inf
ROOT
ATOM      1  C   UNL     1      21.480 -10.802  43.659  1.00  0.00     0.012 C 
ATOM      2  C   UNL     1      22.577  -9.949  43.008  1.00  0.00     0.012 C 
ENDROOT
BRANCH   1   3
ATOM      3  C   UNL     1      22.140 -11.770  44.620  1.00  0.00    -0.028 C 
ATOM      4  C   UNL     1      21.761 -11.848  45.907  1.00  0.00    -0.027 C 
BRANCH   4   5
ATOM      5  C   UNL     1      22.511 -12.707  46.906  1.00  0.00     0.014 C 
BRANCH   5   6
ATOM      6  C   UNL     1      24.038 -12.548  46.725  1.00  0.00     0.004 C 
ATOM      7  C   UNL     1      24.566 -11.257  47.355  1.00  0.00     0.004 C 
ENDBRANCH   5   6
BRANCH   5   8
ATOM      8  C   UNL     1      22.078 -14.204  46.823  1.00  0.00    -0.011 C 
ATOM      9  C   UNL     1      20.701 -14.358  46.158  1.00  0.00     0.008 C 
ATOM     10  C   UNL     1      23.109 -15.099  46.112  1.00  0.00     0.008 C 
ENDBRANCH   5   8
ENDBRANCH   4   5
ENDBRANCH   1   3
BRANCH   1  11
ATOM     11  C   UNL     1      20.573 -11.460  42.567  1.00  0.00     0.002 C 
ATOM     12  C   UNL     1      20.263 -12.974  42.734  1.00  0.00     0.005 C 
ATOM     13  C   UNL     1      19.196 -10.797  42.272  1.00  0.00    -0.026 C 
ATOM     14  C   UNL     1      18.886 -13.212  42.085  1.00  0.00     0.005 C 
ATOM     15  C   UNL     1      18.575 -11.892  41.389  1.00  0.00    -0.001 C 
ATOM     16  C   UNL     1      19.283  -9.462  41.454  1.00  0.00     0.007 C 
ATOM     17  C   UNL     1      18.412 -10.577  43.603  1.00  0.00     0.012 C 
ATOM     18  C   UNL     1      17.154 -11.603  40.831  1.00  0.00     0.000 C 
ATOM     19  C   UNL     1      18.217  -9.334  40.322  1.00  0.00     0.005 C 
ATOM     20  C   UNL     1      16.900 -10.078  40.669  1.00  0.00     0.003 C 
ATOM     21  C   UNL     1      15.976 -12.229  41.579  1.00  0.00     0.031 C 
ATOM     22  C   UNL     1      15.669  -9.817  39.728  1.00  0.00    -0.008 C 
ATOM     23  C   UNL     1      14.667 -11.838  40.930  1.00  0.00    -0.027 C 
ATOM     24  C   UNL     1      14.502 -10.737  40.148  1.00  0.00    -0.065 C 
ATOM     25  C   UNL     1      15.210  -8.331  39.885  1.00  0.00     0.014 C 
ATOM     26  C   UNL     1      16.026 -10.086  38.242  1.00  0.00     0.016 C 
ATOM     27  C   UNL     1      13.122 -10.435  39.596  1.00  0.00     0.063 C 
ATOM     28  C   UNL     1      13.831  -8.037  39.272  1.00  0.00     0.033 C 
ATOM     29  C   UNL     1      12.756  -8.967  39.846  1.00  0.00     0.118 C 
BRANCH  29  30
ATOM     30  O   UNL     1      11.526  -8.673  39.237  1.00  0.00    -0.393 OA
ATOM     31  H   UNL     1      10.852  -8.622  39.965  1.00  0.00     0.210 HD
ENDBRANCH  29  30
ENDBRANCH   1  11
TORSDOF 6
ENDMDL
MODEL 6
REMARK VINA RESULT:    -5.629     11.025     13.817
REMARK INTER + INTRA:          -8.487
REMARK INTER:                  -7.373
REMARK INTRA:                  -1.114
REMARK UNBOUND:                -1.049
REMARK SMILES CC[C@@H](C=C[C@@H](C)[C@H]1CC[C@H]2[C@H]3CC=C4C[C@H](O)CC[C@@]4(C)[C@@H]3CC[C@]12C)C(C)C
REMARK SMILES IDX 6 1 7 2 5 3 4 4 3 5 2 6 1 7 28 8 29 9 30 10 8 11 9 12 26 13
REMARK SMILES IDX 10 14 11 15 25 16 27 17 12 18 24 19 23 20 13 21 21 22 14 23
REMARK SMILES IDX 15 24 20 25 22 26 16 27 19 28 17 29 18 30
REMARK H PARENT 18 31
REMARK Flexibility Score: inf
ROOT
ATOM      1  C   UNL     1      20.687 -12.887  42.984  1.00  0.00     0.012 C 
ATOM      2  C   UNL     1      20.519 -14.369  42.625  1.00  0.00     0.012 C 
ENDROOT
BRANCH   1   3
ATOM      3  C   UNL     1      21.673 -12.786  44.131  1.00  0.00    -0.028 C 
ATOM      4  C   UNL     1      21.777 -13.757  45.053  1.00  0.00    -0.027 C 
BRANCH   4   5
ATOM      5  C   UNL     1      22.655 -13.598  46.279  1.00  0.00     0.014 C 
BRANCH   5   6
ATOM      6  C   UNL     1      23.633 -12.414  46.101  1.00  0.00     0.004 C 
ATOM      7  C   UNL     1      23.317 -11.252  47.044  1.00  0.00     0.004 C 
ENDBRANCH   5   6
BRANCH   5   8
ATOM      8  C   UNL     1      23.410 -14.918  46.626  1.00  0.00    -0.011 C 
ATOM      9  C   UNL     1      23.162 -16.006  45.569  1.00  0.00     0.008 C 
ATOM     10  C   UNL     1      24.923 -14.720  46.831  1.00  0.00     0.008 C 
ENDBRANCH   5   8
ENDBRANCH   4   5
ENDBRANCH   1   3
BRANCH   1  11
ATOM     11  C   UNL     1      19.296 -12.220  43.241  1.00  0.00     0.002 C 
ATOM     12  C   UNL     1      19.176 -11.309  44.495  1.00  0.00     0.005 C 
ATOM     13  C   UNL     1      18.662 -11.395  42.082  1.00  0.00    -0.026 C 
ATOM     14  C   UNL     1      18.101 -10.254  44.166  1.00  0.00     0.005 C 
ATOM     15  C   UNL     1      17.505 -10.734  42.849  1.00  0.00    -0.001 C 
ATOM     16  C   UNL     1      18.077 -12.264  40.915  1.00  0.00     0.007 C 
ATOM     17  C   UNL     1      19.694 -10.361  41.535  1.00  0.00     0.012 C 
ATOM     18  C   UNL     1      16.565  -9.815  42.021  1.00  0.00     0.000 C 
ATOM     19  C   UNL     1      16.690 -11.781  40.389  1.00  0.00     0.005 C 
ATOM     20  C   UNL     1      16.513 -10.245  40.527  1.00  0.00     0.003 C 
ATOM     21  C   UNL     1      16.824  -8.310  42.099  1.00  0.00     0.031 C 
ATOM     22  C   UNL     1      15.270  -9.607  39.809  1.00  0.00    -0.008 C 
ATOM     23  C   UNL     1      15.846  -7.558  41.223  1.00  0.00    -0.027 C 
ATOM     24  C   UNL     1      15.188  -8.107  40.167  1.00  0.00    -0.065 C 
ATOM     25  C   UNL     1      15.449  -9.738  38.262  1.00  0.00     0.014 C 
ATOM     26  C   UNL     1      13.952 -10.309  40.231  1.00  0.00     0.016 C 
ATOM     27  C   UNL     1      14.269  -7.227  39.343  1.00  0.00     0.063 C 
ATOM     28  C   UNL     1      14.471  -8.876  37.446  1.00  0.00     0.033 C 
ATOM     29  C   UNL     1      14.562  -7.399  37.848  1.00  0.00     0.118 C 
BRANCH  29  30
ATOM     30  O   UNL     1      13.636  -6.663  37.093  1.00  0.00    -0.393 OA
ATOM     31  H   UNL     1      13.868  -5.704  37.210  1.00  0.00     0.210 HD
ENDBRANCH  29  30
ENDBRANCH   1  11
TORSDOF 6
ENDMDL
MODEL 7
REMARK VINA RESULT:    -5.602      9.782     12.032
REMARK INTER + INTRA:          -8.452
REMARK INTER:                  -7.587
REMARK INTRA:                  -0.865
REMARK UNBOUND:                -1.049
REMARK SMILES CC[C@@H](C=C[C@@H](C)[C@H]1CC[C@H]2[C@H]3CC=C4C[C@H](O)CC[C@@]4(C)[C@@H]3CC[C@]12C)C(C)C
REMARK SMILES IDX 6 1 7 2 5 3 4 4 3 5 2 6 1 7 28 8 29 9 30 10 8 11 9 12 26 13
REMARK SMILES IDX 10 14 11 15 25 16 27 17 12 18 24 19 23 20 13 21 21 22 14 23
REMARK SMILES IDX 15 24 20 25 22 26 16 27 19 28 17 29 18 30
REMARK H PARENT 18 31
REMARK Flexibility Score: inf
ROOT
ATOM      1  C   UNL     1       9.056 -17.180  38.277  1.00  0.00     0.012 C 
ATOM      2  C   UNL     1       9.476 -18.505  38.926  1.00  0.00     0.012 C 
ENDROOT
BRANCH   1   3
ATOM      3  C   UNL     1      10.289 -16.309  38.137  1.00  0.00    -0.028 C 
ATOM      4  C   UNL     1      11.510 -16.764  38.465  1.00  0.00    -0.027 C 
BRANCH   4   5
ATOM      5  C   UNL     1      12.724 -15.856  38.465  1.00  0.00     0.014 C 
BRANCH   5   6
ATOM      6  C   UNL     1      13.477 -15.951  39.812  1.00  0.00     0.004 C 
ATOM      7  C   UNL     1      13.103 -17.208  40.600  1.00  0.00     0.004 C 
ENDBRANCH   5   6
BRANCH   5   8
ATOM      8  C   UNL     1      12.344 -14.382  38.124  1.00  0.00    -0.011 C 
ATOM      9  C   UNL     1      12.462 -13.469  39.354  1.00  0.00     0.008 C 
ATOM     10  C   UNL     1      13.157 -13.797  36.955  1.00  0.00     0.008 C 
ENDBRANCH   5   8
ENDBRANCH   4   5
ENDBRANCH   1   3
BRANCH   1  11
ATOM     11  C   UNL     1       7.869 -16.532  39.062  1.00  0.00     0.002 C 
ATOM     12  C   UNL     1       7.113 -17.445  40.068  1.00  0.00     0.005 C 
ATOM     13  C   UNL     1       8.149 -15.216  39.846  1.00  0.00    -0.026 C 
ATOM     14  C   UNL     1       6.569 -16.520  41.174  1.00  0.00     0.005 C 
ATOM     15  C   UNL     1       6.839 -15.117  40.645  1.00  0.00    -0.001 C 
ATOM     16  C   UNL     1       8.298 -13.944  38.941  1.00  0.00     0.007 C 
ATOM     17  C   UNL     1       9.402 -15.393  40.758  1.00  0.00     0.012 C 
ATOM     18  C   UNL     1       6.689 -13.877  41.569  1.00  0.00     0.000 C 
ATOM     19  C   UNL     1       7.566 -12.679  39.487  1.00  0.00     0.005 C 
ATOM     20  C   UNL     1       7.501 -12.663  41.038  1.00  0.00     0.003 C 
ATOM     21  C   UNL     1       7.002 -14.077  43.053  1.00  0.00     0.031 C 
ATOM     22  C   UNL     1       7.015 -11.331  41.713  1.00  0.00    -0.008 C 
ATOM     23  C   UNL     1       6.832 -12.779  43.811  1.00  0.00    -0.027 C 
ATOM     24  C   UNL     1       6.890 -11.547  43.237  1.00  0.00    -0.065 C 
ATOM     25  C   UNL     1       8.074 -10.210  41.457  1.00  0.00     0.014 C 
ATOM     26  C   UNL     1       5.645 -10.876  41.144  1.00  0.00     0.016 C 
ATOM     27  C   UNL     1       6.748 -10.323  44.121  1.00  0.00     0.063 C 
ATOM     28  C   UNL     1       7.880  -8.958  42.328  1.00  0.00     0.033 C 
ATOM     29  C   UNL     1       7.863  -9.314  43.820  1.00  0.00     0.118 C 
BRANCH  29  30
ATOM     30  O   UNL     1       7.660  -8.143  44.566  1.00  0.00    -0.393 OA
ATOM     31  H   UNL     1       7.822  -8.378  45.517  1.00  0.00     0.210 HD
ENDBRANCH  29  30
ENDBRANCH   1  11
TORSDOF 6
ENDMDL
MODEL 8
REMARK VINA RESULT:    -5.594      4.222      9.079
REMARK INTER + INTRA:          -8.442
REMARK INTER:                  -8.176
REMARK INTRA:                  -0.266
REMARK UNBOUND:                -1.049
REMARK SMILES CC[C@@H](C=C[C@@H](C)[C@H]1CC[C@H]2[C@H]3CC=C4C[C@H](O)CC[C@@]4(C)[C@@H]3CC[C@]12C)C(C)C
REMARK SMILES IDX 6 1 7 2 5 3 4 4 3 5 2 6 1 7 28 8 29 9 30 10 8 11 9 12 26 13
REMARK SMILES IDX 10 14 11 15 25 16 27 17 12 18 24 19 23 20 13 21 21 22 14 23
REMARK SMILES IDX 15 24 20 25 22 26 16 27 19 28 17 29 18 30
REMARK H PARENT 18 31
REMARK Flexibility Score: inf
ROOT
ATOM      1  C   UNL     1       8.603  -3.278  41.502  1.00  0.00     0.012 C 
ATOM      2  C   UNL     1       8.705  -2.423  42.772  1.00  0.00     0.012 C 
ENDROOT
BRANCH   1   3
ATOM      3  C   UNL     1       8.662  -4.737  41.906  1.00  0.00    -0.028 C 
ATOM      4  C   UNL     1       7.564  -5.510  41.907  1.00  0.00    -0.027 C 
BRANCH   4   5
ATOM      5  C   UNL     1       7.589  -6.927  42.447  1.00  0.00     0.014 C 
BRANCH   5   6
ATOM      6  C   UNL     1       8.555  -7.036  43.649  1.00  0.00     0.004 C 
ATOM      7  C   UNL     1       8.092  -8.072  44.675  1.00  0.00     0.004 C 
ENDBRANCH   5   6
BRANCH   5   8
ATOM      8  C   UNL     1       7.938  -7.964  41.336  1.00  0.00    -0.011 C 
ATOM      9  C   UNL     1       9.437  -8.303  41.330  1.00  0.00     0.008 C 
ATOM     10  C   UNL     1       7.107  -9.257  41.424  1.00  0.00     0.008 C 
ENDBRANCH   5   8
ENDBRANCH   4   5
ENDBRANCH   1   3
BRANCH   1  11
ATOM     11  C   UNL     1       9.671  -2.833  40.450  1.00  0.00     0.002 C 
ATOM     12  C   UNL     1      11.086  -2.484  40.993  1.00  0.00     0.005 C 
ATOM     13  C   UNL     1       9.927  -3.771  39.234  1.00  0.00    -0.026 C 
ATOM     14  C   UNL     1      12.079  -2.802  39.858  1.00  0.00     0.005 C 
ATOM     15  C   UNL     1      11.186  -3.100  38.661  1.00  0.00    -0.001 C 
ATOM     16  C   UNL     1       8.793  -3.750  38.151  1.00  0.00     0.007 C 
ATOM     17  C   UNL     1      10.190  -5.227  39.728  1.00  0.00     0.012 C 
ATOM     18  C   UNL     1      11.774  -3.731  37.369  1.00  0.00     0.000 C 
ATOM     19  C   UNL     1       9.312  -3.713  36.681  1.00  0.00     0.005 C 
ATOM     20  C   UNL     1      10.677  -4.435  36.522  1.00  0.00     0.003 C 
ATOM     21  C   UNL     1      12.959  -4.682  37.540  1.00  0.00     0.031 C 
ATOM     22  C   UNL     1      11.180  -4.683  35.055  1.00  0.00    -0.008 C 
ATOM     23  C   UNL     1      13.400  -5.227  36.199  1.00  0.00    -0.027 C 
ATOM     24  C   UNL     1      12.602  -5.285  35.099  1.00  0.00    -0.065 C 
ATOM     25  C   UNL     1      10.231  -5.707  34.353  1.00  0.00     0.014 C 
ATOM     26  C   UNL     1      11.205  -3.366  34.235  1.00  0.00     0.016 C 
ATOM     27  C   UNL     1      13.156  -5.899  33.828  1.00  0.00     0.063 C 
ATOM     28  C   UNL     1      10.791  -6.279  33.040  1.00  0.00     0.033 C 
ATOM     29  C   UNL     1      12.167  -6.920  33.253  1.00  0.00     0.118 C 
BRANCH  29  30
ATOM     30  O   UNL     1      12.641  -7.403  32.023  1.00  0.00    -0.393 OA
ATOM     31  H   UNL     1      12.414  -6.718  31.341  1.00  0.00     0.210 HD
ENDBRANCH  29  30
ENDBRANCH   1  11
TORSDOF 6
ENDMDL
MODEL 9
REMARK VINA RESULT:    -5.510     11.238     15.032
REMARK INTER + INTRA:          -8.331
REMARK INTER:                  -7.046
REMARK INTRA:                  -1.284
REMARK UNBOUND:                -1.049
REMARK SMILES CC[C@@H](C=C[C@@H](C)[C@H]1CC[C@H]2[C@H]3CC=C4C[C@H](O)CC[C@@]4(C)[C@@H]3CC[C@]12C)C(C)C
REMARK SMILES IDX 6 1 7 2 5 3 4 4 3 5 2 6 1 7 28 8 29 9 30 10 8 11 9 12 26 13
REMARK SMILES IDX 10 14 11 15 25 16 27 17 12 18 24 19 23 20 13 21 21 22 14 23
REMARK SMILES IDX 15 24 20 25 22 26 16 27 19 28 17 29 18 30
REMARK H PARENT 18 31
REMARK Flexibility Score: inf
ROOT
ATOM      1  C   UNL     1       8.029 -14.686  42.690  1.00  0.00     0.012 C 
ATOM      2  C   UNL     1       7.485 -15.363  43.955  1.00  0.00     0.012 C 
ENDROOT
BRANCH   1   3
ATOM      3  C   UNL     1       7.007 -13.672  42.219  1.00  0.00    -0.028 C 
ATOM      4  C   UNL     1       7.379 -12.505  41.668  1.00  0.00    -0.027 C 
BRANCH   4   5
ATOM      5  C   UNL     1       6.369 -11.427  41.328  1.00  0.00     0.014 C 
BRANCH   5   6
ATOM      6  C   UNL     1       6.319 -11.187  39.802  1.00  0.00     0.004 C 
ATOM      7  C   UNL     1       7.191 -12.178  39.028  1.00  0.00     0.004 C 
ENDBRANCH   5   6
BRANCH   5   8
ATOM      8  C   UNL     1       6.649 -10.104  42.106  1.00  0.00    -0.011 C 
ATOM      9  C   UNL     1       6.973 -10.376  43.584  1.00  0.00     0.008 C 
ATOM     10  C   UNL     1       7.759  -9.247  41.473  1.00  0.00     0.008 C 
ENDBRANCH   5   8
ENDBRANCH   4   5
ENDBRANCH   1   3
BRANCH   1  11
ATOM     11  C   UNL     1       8.445 -15.756  41.628  1.00  0.00     0.002 C 
ATOM     12  C   UNL     1       7.576 -15.841  40.341  1.00  0.00     0.005 C 
ATOM     13  C   UNL     1       9.916 -15.741  41.120  1.00  0.00    -0.026 C 
ATOM     14  C   UNL     1       8.507 -16.340  39.218  1.00  0.00     0.005 C 
ATOM     15  C   UNL     1       9.787 -16.728  39.948  1.00  0.00    -0.001 C 
ATOM     16  C   UNL     1      10.961 -16.296  42.149  1.00  0.00     0.007 C 
ATOM     17  C   UNL     1      10.307 -14.302  40.659  1.00  0.00     0.012 C 
ATOM     18  C   UNL     1      11.090 -17.033  39.158  1.00  0.00     0.000 C 
ATOM     19  C   UNL     1      12.038 -17.236  41.524  1.00  0.00     0.005 C 
ATOM     20  C   UNL     1      12.353 -16.870  40.050  1.00  0.00     0.003 C 
ATOM     21  C   UNL     1      11.300 -16.272  37.849  1.00  0.00     0.031 C 
ATOM     22  C   UNL     1      13.592 -17.577  39.392  1.00  0.00    -0.008 C 
ATOM     23  C   UNL     1      12.618 -16.661  37.214  1.00  0.00    -0.027 C 
ATOM     24  C   UNL     1      13.667 -17.192  37.899  1.00  0.00    -0.065 C 
ATOM     25  C   UNL     1      14.897 -17.084  40.097  1.00  0.00     0.014 C 
ATOM     26  C   UNL     1      13.496 -19.121  39.521  1.00  0.00     0.016 C 
ATOM     27  C   UNL     1      14.948 -17.495  37.147  1.00  0.00     0.063 C 
ATOM     28  C   UNL     1      16.188 -17.447  39.343  1.00  0.00     0.033 C 
ATOM     29  C   UNL     1      16.157 -16.927  37.901  1.00  0.00     0.118 C 
BRANCH  29  30
ATOM     30  O   UNL     1      17.343 -17.305  37.254  1.00  0.00    -0.393 OA
ATOM     31  H   UNL     1      17.830 -16.467  37.037  1.00  0.00     0.210 HD
ENDBRANCH  29  30
ENDBRANCH   1  11
TORSDOF 6
ENDMDL
