MODEL 1
REMARK VINA RESULT:    -3.781      0.000      0.000
REMARK INTER + INTRA:          -4.566
REMARK INTER:                  -4.444
REMARK INTRA:                  -0.122
REMARK UNBOUND:                -0.122
REMARK SMILES O=C([O-])C=Cc1ccc(O)c(O)c1
REMARK SMILES IDX 6 1 13 2 7 3 11 4 8 5 9 6 5 7 4 8 2 9 1 10 3 11 12 12 10 14
REMARK H PARENT 12 13 10 15
REMARK Flexibility Score: inf
ROOT
ATOM      1  C   UNL     1      34.118  20.176  12.529  1.00  0.00    -0.022 A 
ATOM      2  C   UNL     1      34.940  20.450  13.639  1.00  0.00     0.058 A 
ATOM      3  C   UNL     1      33.096  19.227  12.663  1.00  0.00     0.012 A 
ATOM      4  C   UNL     1      34.762  19.773  14.853  1.00  0.00     0.157 A 
ATOM      5  C   UNL     1      32.913  18.545  13.868  1.00  0.00     0.051 A 
ATOM      6  C   UNL     1      33.739  18.803  14.967  1.00  0.00     0.157 A 
ENDROOT
BRANCH   1   7
ATOM      7  C   UNL     1      34.267  20.880  11.231  1.00  0.00     0.010 C 
ATOM      8  C   UNL     1      35.438  21.026  10.594  1.00  0.00     0.025 C 
BRANCH   8   9
ATOM      9  C   UNL     1      35.547  21.722   9.300  1.00  0.00     0.064 C 
ATOM     10  O   UNL     1      36.669  22.032   8.819  1.00  0.00    -0.545 OA
ATOM     11  O   UNL     1      34.393  22.040   8.597  1.00  0.00    -0.545 OA
ENDBRANCH   8   9
ENDBRANCH   1   7
BRANCH   4  12
ATOM     12  O   UNL     1      35.613  20.096  15.911  1.00  0.00    -0.504 OA
ATOM     13  H   UNL     1      36.231  19.437  16.362  1.00  0.00     0.293 HD
ENDBRANCH   4  12
BRANCH   6  14
ATOM     14  O   UNL     1      33.508  18.082  16.140  1.00  0.00    -0.504 OA
ATOM     15  H   UNL     1      33.916  18.312  17.034  1.00  0.00     0.293 HD
ENDBRANCH   6  14
TORSDOF 4
ENDMDL
MODEL 2
REMARK VINA RESULT:    -3.697      1.419      6.186
REMARK INTER + INTRA:          -4.468
REMARK INTER:                  -4.319
REMARK INTRA:                  -0.149
REMARK UNBOUND:                -0.122
REMARK SMILES O=C([O-])C=Cc1ccc(O)c(O)c1
REMARK SMILES IDX 6 1 13 2 7 3 11 4 8 5 9 6 5 7 4 8 2 9 1 10 3 11 12 12 10 14
REMARK H PARENT 12 13 10 15
REMARK Flexibility Score: inf
ROOT
ATOM      1  C   UNL     1      35.028  21.401  11.587  1.00  0.00    -0.022 A 
ATOM      2  C   UNL     1      34.228  21.279  10.435  1.00  0.00     0.058 A 
ATOM      3  C   UNL     1      36.234  22.111  11.501  1.00  0.00     0.012 A 
ATOM      4  C   UNL     1      34.634  21.832   9.213  1.00  0.00     0.157 A 
ATOM      5  C   UNL     1      36.647  22.663  10.287  1.00  0.00     0.051 A 
ATOM      6  C   UNL     1      35.863  22.528   9.137  1.00  0.00     0.157 A 
ENDROOT
BRANCH   1   7
ATOM      7  C   UNL     1      34.627  20.840  12.901  1.00  0.00     0.010 C 
ATOM      8  C   UNL     1      35.492  20.565  13.888  1.00  0.00     0.025 C 
BRANCH   8   9
ATOM      9  C   UNL     1      35.057  20.018  15.184  1.00  0.00     0.064 C 
ATOM     10  O   UNL     1      35.497  20.484  16.270  1.00  0.00    -0.545 OA
ATOM     11  O   UNL     1      34.145  18.972  15.212  1.00  0.00    -0.545 OA
ENDBRANCH   8   9
ENDBRANCH   1   7
BRANCH   4  12
ATOM     12  O   UNL     1      33.791  21.673   8.112  1.00  0.00    -0.504 OA
ATOM     13  H   UNL     1      33.138  22.374   7.793  1.00  0.00     0.293 HD
ENDBRANCH   4  12
BRANCH   6  14
ATOM     14  O   UNL     1      36.337  23.098   7.953  1.00  0.00    -0.504 OA
ATOM     15  H   UNL     1      36.008  22.845   7.033  1.00  0.00     0.293 HD
ENDBRANCH   6  14
TORSDOF 4
ENDMDL
MODEL 3
REMARK VINA RESULT:    -3.559     14.194     15.281
REMARK INTER + INTRA:          -4.305
REMARK INTER:                  -4.155
REMARK INTRA:                  -0.150
REMARK UNBOUND:                -0.122
REMARK SMILES O=C([O-])C=Cc1ccc(O)c(O)c1
REMARK SMILES IDX 6 1 13 2 7 3 11 4 8 5 9 6 5 7 4 8 2 9 1 10 3 11 12 12 10 14
REMARK H PARENT 12 13 10 15
REMARK Flexibility Score: inf
ROOT
ATOM      1  C   UNL     1      48.654  21.746  16.088  1.00  0.00    -0.022 A 
ATOM      2  C   UNL     1      47.557  20.978  15.652  1.00  0.00     0.058 A 
ATOM      3  C   UNL     1      48.425  22.813  16.969  1.00  0.00     0.012 A 
ATOM      4  C   UNL     1      46.253  21.283  16.065  1.00  0.00     0.157 A 
ATOM      5  C   UNL     1      47.129  23.125  17.383  1.00  0.00     0.051 A 
ATOM      6  C   UNL     1      46.036  22.375  16.938  1.00  0.00     0.157 A 
ENDROOT
BRANCH   1   7
ATOM      7  C   UNL     1      50.050  21.448  15.682  1.00  0.00     0.010 C 
ATOM      8  C   UNL     1      51.127  21.999  16.260  1.00  0.00     0.025 C 
BRANCH   8   9
ATOM      9  C   UNL     1      52.499  21.672  15.838  1.00  0.00     0.064 C 
ATOM     10  O   UNL     1      53.121  20.697  16.340  1.00  0.00    -0.545 OA
ATOM     11  O   UNL     1      53.119  22.449  14.869  1.00  0.00    -0.545 OA
ENDBRANCH   8   9
ENDBRANCH   1   7
BRANCH   4  12
ATOM     12  O   UNL     1      45.214  20.479  15.593  1.00  0.00    -0.504 OA
ATOM     13  H   UNL     1      45.263  19.473  15.528  1.00  0.00     0.293 HD
ENDBRANCH   4  12
BRANCH   6  14
ATOM     14  O   UNL     1      44.765  22.744  17.385  1.00  0.00    -0.504 OA
ATOM     15  H   UNL     1      44.580  23.561  17.948  1.00  0.00     0.293 HD
ENDBRANCH   6  14
TORSDOF 4
ENDMDL
MODEL 4
REMARK VINA RESULT:    -3.540     14.514     15.805
REMARK INTER + INTRA:          -4.283
REMARK INTER:                  -4.137
REMARK INTRA:                  -0.146
REMARK UNBOUND:                -0.122
REMARK SMILES O=C([O-])C=Cc1ccc(O)c(O)c1
REMARK SMILES IDX 6 1 13 2 7 3 11 4 8 5 9 6 5 7 4 8 2 9 1 10 3 11 12 12 10 14
REMARK H PARENT 12 13 10 15
REMARK Flexibility Score: inf
ROOT
ATOM      1  C   UNL     1      49.226  22.004  16.030  1.00  0.00    -0.022 A 
ATOM      2  C   UNL     1      50.324  22.381  16.828  1.00  0.00     0.058 A 
ATOM      3  C   UNL     1      49.459  21.235  14.881  1.00  0.00     0.012 A 
ATOM      4  C   UNL     1      51.630  22.021  16.474  1.00  0.00     0.157 A 
ATOM      5  C   UNL     1      50.758  20.874  14.519  1.00  0.00     0.051 A 
ATOM      6  C   UNL     1      51.851  21.262  15.300  1.00  0.00     0.157 A 
ENDROOT
BRANCH   1   7
ATOM      7  C   UNL     1      47.827  22.355  16.377  1.00  0.00     0.010 C 
ATOM      8  C   UNL     1      46.787  21.526  16.208  1.00  0.00     0.025 C 
BRANCH   8   9
ATOM      9  C   UNL     1      45.412  21.905  16.575  1.00  0.00     0.064 C 
ATOM     10  O   UNL     1      44.429  21.187  16.251  1.00  0.00    -0.545 OA
ATOM     11  O   UNL     1      45.195  23.075  17.291  1.00  0.00    -0.545 OA
ENDBRANCH   8   9
ENDBRANCH   1   7
BRANCH   4  12
ATOM     12  O   UNL     1      52.669  22.429  17.312  1.00  0.00    -0.504 OA
ATOM     13  H   UNL     1      53.299  21.795  17.782  1.00  0.00     0.293 HD
ENDBRANCH   4  12
BRANCH   6  14
ATOM     14  O   UNL     1      53.125  20.874  14.879  1.00  0.00    -0.504 OA
ATOM     15  H   UNL     1      53.310  20.053  14.322  1.00  0.00     0.293 HD
ENDBRANCH   6  14
TORSDOF 4
ENDMDL
MODEL 5
REMARK VINA RESULT:    -3.497      1.026      5.911
REMARK INTER + INTRA:          -4.233
REMARK INTER:                  -4.081
REMARK INTRA:                  -0.152
REMARK UNBOUND:                -0.122
REMARK SMILES O=C([O-])C=Cc1ccc(O)c(O)c1
REMARK SMILES IDX 6 1 13 2 7 3 11 4 8 5 9 6 5 7 4 8 2 9 1 10 3 11 12 12 10 14
REMARK H PARENT 12 13 10 15
REMARK Flexibility Score: inf
ROOT
ATOM      1  C   UNL     1      34.611  20.861  11.429  1.00  0.00    -0.022 A 
ATOM      2  C   UNL     1      35.609  21.290  10.532  1.00  0.00     0.058 A 
ATOM      3  C   UNL     1      33.267  20.963  11.044  1.00  0.00     0.012 A 
ATOM      4  C   UNL     1      35.272  21.833   9.285  1.00  0.00     0.157 A 
ATOM      5  C   UNL     1      32.923  21.506   9.804  1.00  0.00     0.051 A 
ATOM      6  C   UNL     1      33.911  21.948   8.919  1.00  0.00     0.157 A 
ENDROOT
BRANCH   1   7
ATOM      7  C   UNL     1      34.927  20.270  12.752  1.00  0.00     0.010 C 
ATOM      8  C   UNL     1      33.997  19.917  13.652  1.00  0.00     0.025 C 
BRANCH   8   9
ATOM      9  C   UNL     1      34.347  19.322  14.952  1.00  0.00     0.064 C 
ATOM     10  O   UNL     1      33.631  18.426  15.474  1.00  0.00    -0.545 OA
ATOM     11  O   UNL     1      35.487  19.755  15.616  1.00  0.00    -0.545 OA
ENDBRANCH   8   9
ENDBRANCH   1   7
BRANCH   4  12
ATOM     12  O   UNL     1      36.313  22.237   8.447  1.00  0.00    -0.504 OA
ATOM     13  H   UNL     1      36.390  23.160   8.046  1.00  0.00     0.293 HD
ENDBRANCH   4  12
BRANCH   6  14
ATOM     14  O   UNL     1      33.499  22.487   7.698  1.00  0.00    -0.504 OA
ATOM     15  H   UNL     1      33.172  21.936   6.919  1.00  0.00     0.293 HD
ENDBRANCH   6  14
TORSDOF 4
ENDMDL
MODEL 6
REMARK VINA RESULT:    -3.481      1.202      2.178
REMARK INTER + INTRA:          -4.214
REMARK INTER:                  -4.090
REMARK INTRA:                  -0.124
REMARK UNBOUND:                -0.122
REMARK SMILES O=C([O-])C=Cc1ccc(O)c(O)c1
REMARK SMILES IDX 6 1 13 2 7 3 11 4 8 5 9 6 5 7 4 8 2 9 1 10 3 11 12 12 10 14
REMARK H PARENT 12 13 10 15
REMARK Flexibility Score: inf
ROOT
ATOM      1  C   UNL     1      34.967  20.867  13.247  1.00  0.00    -0.022 A 
ATOM      2  C   UNL     1      34.150  19.741  13.027  1.00  0.00     0.058 A 
ATOM      3  C   UNL     1      35.340  21.186  14.560  1.00  0.00     0.012 A 
ATOM      4  C   UNL     1      33.691  18.963  14.098  1.00  0.00     0.157 A 
ATOM      5  C   UNL     1      34.885  20.417  15.633  1.00  0.00     0.051 A 
ATOM      6  C   UNL     1      34.060  19.309  15.419  1.00  0.00     0.157 A 
ENDROOT
BRANCH   1   7
ATOM      7  C   UNL     1      35.482  21.709  12.139  1.00  0.00     0.010 C 
ATOM      8  C   UNL     1      35.512  21.316  10.857  1.00  0.00     0.025 C 
BRANCH   8   9
ATOM      9  C   UNL     1      36.021  22.183   9.781  1.00  0.00     0.064 C 
ATOM     10  O   UNL     1      35.571  22.097   8.606  1.00  0.00    -0.545 OA
ATOM     11  O   UNL     1      37.011  23.113  10.065  1.00  0.00    -0.545 OA
ENDBRANCH   8   9
ENDBRANCH   1   7
BRANCH   4  12
ATOM     12  O   UNL     1      32.885  17.862  13.807  1.00  0.00    -0.504 OA
ATOM     13  H   UNL     1      32.721  17.512  12.873  1.00  0.00     0.293 HD
ENDBRANCH   4  12
BRANCH   6  14
ATOM     14  O   UNL     1      33.634  18.587  16.537  1.00  0.00    -0.504 OA
ATOM     15  H   UNL     1      33.117  18.988  17.305  1.00  0.00     0.293 HD
ENDBRANCH   6  14
TORSDOF 4
ENDMDL
MODEL 7
REMARK VINA RESULT:    -3.431      1.590      2.665
REMARK INTER + INTRA:          -4.156
REMARK INTER:                  -4.034
REMARK INTRA:                  -0.122
REMARK UNBOUND:                -0.122
REMARK SMILES O=C([O-])C=Cc1ccc(O)c(O)c1
REMARK SMILES IDX 6 1 13 2 7 3 11 4 8 5 9 6 5 7 4 8 2 9 1 10 3 11 12 12 10 14
REMARK H PARENT 12 13 10 15
REMARK Flexibility Score: inf
ROOT
ATOM      1  C   UNL     1      35.737  21.842  12.486  1.00  0.00    -0.022 A 
ATOM      2  C   UNL     1      34.977  20.727  12.888  1.00  0.00     0.058 A 
ATOM      3  C   UNL     1      36.719  22.338  13.354  1.00  0.00     0.012 A 
ATOM      4  C   UNL     1      35.175  20.133  14.142  1.00  0.00     0.157 A 
ATOM      5  C   UNL     1      36.921  21.754  14.606  1.00  0.00     0.051 A 
ATOM      6  C   UNL     1      36.156  20.658  15.015  1.00  0.00     0.157 A 
ENDROOT
BRANCH   1   7
ATOM      7  C   UNL     1      35.565  22.491  11.163  1.00  0.00     0.010 C 
ATOM      8  C   UNL     1      35.385  21.814  10.020  1.00  0.00     0.025 C 
BRANCH   8   9
ATOM      9  C   UNL     1      35.207  22.492   8.725  1.00  0.00     0.064 C 
ATOM     10  O   UNL     1      36.154  23.123   8.183  1.00  0.00    -0.545 OA
ATOM     11  O   UNL     1      33.974  22.435   8.088  1.00  0.00    -0.545 OA
ENDBRANCH   8   9
ENDBRANCH   1   7
BRANCH   4  12
ATOM     12  O   UNL     1      34.385  19.030  14.474  1.00  0.00    -0.504 OA
ATOM     13  H   UNL     1      34.654  18.072  14.306  1.00  0.00     0.293 HD
ENDBRANCH   4  12
BRANCH   6  14
ATOM     14  O   UNL     1      36.403  20.125  16.282  1.00  0.00    -0.504 OA
ATOM     15  H   UNL     1      36.682  19.170  16.449  1.00  0.00     0.293 HD
ENDBRANCH   6  14
TORSDOF 4
ENDMDL
MODEL 8
REMARK VINA RESULT:    -3.390      1.674      5.976
REMARK INTER + INTRA:          -4.107
REMARK INTER:                  -3.983
REMARK INTRA:                  -0.124
REMARK UNBOUND:                -0.122
REMARK SMILES O=C([O-])C=Cc1ccc(O)c(O)c1
REMARK SMILES IDX 6 1 13 2 7 3 11 4 8 5 9 6 5 7 4 8 2 9 1 10 3 11 12 12 10 14
REMARK H PARENT 12 13 10 15
REMARK Flexibility Score: inf
ROOT
ATOM      1  C   UNL     1      34.864  21.183  13.458  1.00  0.00    -0.022 A 
ATOM      2  C   UNL     1      35.050  20.520  12.230  1.00  0.00     0.058 A 
ATOM      3  C   UNL     1      35.362  22.485  13.606  1.00  0.00     0.012 A 
ATOM      4  C   UNL     1      35.741  21.133  11.177  1.00  0.00     0.157 A 
ATOM      5  C   UNL     1      36.054  23.102  12.562  1.00  0.00     0.051 A 
ATOM      6  C   UNL     1      36.255  22.440  11.348  1.00  0.00     0.157 A 
ENDROOT
BRANCH   1   7
ATOM      7  C   UNL     1      34.128  20.572  14.593  1.00  0.00     0.010 C 
ATOM      8  C   UNL     1      33.933  19.253  14.731  1.00  0.00     0.025 C 
BRANCH   8   9
ATOM      9  C   UNL     1      33.207  18.680  15.877  1.00  0.00     0.064 C 
ATOM     10  O   UNL     1      32.882  17.463  15.901  1.00  0.00    -0.545 OA
ATOM     11  O   UNL     1      32.875  19.496  16.950  1.00  0.00    -0.545 OA
ENDBRANCH   8   9
ENDBRANCH   1   7
BRANCH   4  12
ATOM     12  O   UNL     1      35.887  20.417   9.988  1.00  0.00    -0.504 OA
ATOM     13  H   UNL     1      36.426  20.738   9.197  1.00  0.00     0.293 HD
ENDBRANCH   4  12
BRANCH   6  14
ATOM     14  O   UNL     1      36.962  23.111  10.347  1.00  0.00    -0.504 OA
ATOM     15  H   UNL     1      37.904  23.457  10.456  1.00  0.00     0.293 HD
ENDBRANCH   6  14
TORSDOF 4
ENDMDL
