MODEL 1
REMARK VINA RESULT:    -7.320      0.000      0.000
REMARK INTER + INTRA:          -8.972
REMARK INTER:                  -9.031
REMARK INTRA:                   0.059
REMARK UNBOUND:                 0.059
REMARK SMILES Oc1cc(O)c2cc(O)c(-c3cc(O)c(O)c(O)c3)[o+]c2c1
REMARK SMILES IDX 10 1 20 2 21 3 22 4 2 5 3 6 4 7 6 8 7 9 8 10 11 11 12 12
REMARK SMILES IDX 13 13 19 14 15 15 17 16 14 17 16 19 18 21 9 23 1 25 5 27
REMARK H PARENT 14 18 16 20 18 22 9 24 1 26 5 28
REMARK Flexibility Score: inf
ROOT
ATOM      1  C   UNL     1      15.443 -20.759  17.369  1.00  0.00     0.402 A 
ATOM      2  O   UNL     1      15.051 -19.517  17.099  1.00  0.00    -0.202 OA
ATOM      3  C   UNL     1      15.830 -18.618  16.505  1.00  0.00     0.368 A 
ATOM      4  C   UNL     1      15.329 -17.336  16.267  1.00  0.00     0.162 A 
ATOM      5  C   UNL     1      16.125 -16.371  15.649  1.00  0.00     0.128 A 
ATOM      6  C   UNL     1      17.434 -16.688  15.267  1.00  0.00     0.093 A 
ATOM      7  C   UNL     1      17.959 -17.966  15.495  1.00  0.00     0.136 A 
ATOM      8  C   UNL     1      17.151 -18.950  16.121  1.00  0.00     0.125 A 
ATOM      9  C   UNL     1      17.590 -20.260  16.377  1.00  0.00     0.078 A 
ATOM     10  C   UNL     1      16.734 -21.177  16.994  1.00  0.00     0.223 A 
ENDROOT
BRANCH   1  11
ATOM     11  C   UNL     1      14.486 -21.666  18.042  1.00  0.00     0.091 A 
ATOM     12  C   UNL     1      14.323 -22.975  17.564  1.00  0.00     0.068 A 
ATOM     13  C   UNL     1      13.410 -23.847  18.167  1.00  0.00     0.162 A 
ATOM     14  C   UNL     1      13.692 -21.226  19.115  1.00  0.00     0.068 A 
ATOM     15  C   UNL     1      12.634 -23.409  19.254  1.00  0.00     0.200 A 
ATOM     16  C   UNL     1      12.774 -22.092  19.724  1.00  0.00     0.162 A 
BRANCH  13  17
ATOM     17  O   UNL     1      13.289 -25.145  17.673  1.00  0.00    -0.504 OA
ATOM     18  H   UNL     1      13.993 -25.854  17.839  1.00  0.00     0.293 HD
ENDBRANCH  13  17
BRANCH  15  19
ATOM     19  O   UNL     1      11.729 -24.286  19.852  1.00  0.00    -0.502 OA
ATOM     20  H   UNL     1      11.097 -23.991  20.587  1.00  0.00     0.293 HD
ENDBRANCH  15  19
BRANCH  16  21
ATOM     21  O   UNL     1      11.996 -21.646  20.792  1.00  0.00    -0.504 OA
ATOM     22  H   UNL     1      11.245 -22.208  21.174  1.00  0.00     0.293 HD
ENDBRANCH  16  21
ENDBRANCH   1  11
BRANCH  10  23
ATOM     23  O   UNL     1      17.150 -22.492  17.204  1.00  0.00    -0.500 OA
ATOM     24  H   UNL     1      16.487 -23.254  17.285  1.00  0.00     0.294 HD
ENDBRANCH  10  23
BRANCH   5  25
ATOM     25  O   UNL     1      15.608 -15.098  15.419  1.00  0.00    -0.507 OA
ATOM     26  H   UNL     1      16.205 -14.324  15.153  1.00  0.00     0.293 HD
ENDBRANCH   5  25
BRANCH   7  27
ATOM     27  O   UNL     1      19.275 -18.203  15.086  1.00  0.00    -0.507 OA
ATOM     28  H   UNL     1      19.549 -18.406  14.136  1.00  0.00     0.293 HD
ENDBRANCH   7  27
TORSDOF 7
ENDMDL
MODEL 2
REMARK VINA RESULT:    -6.995      2.139      7.769
REMARK INTER + INTRA:          -8.572
REMARK INTER:                  -8.256
REMARK INTRA:                  -0.316
REMARK UNBOUND:                 0.059
REMARK SMILES Oc1cc(O)c2cc(O)c(-c3cc(O)c(O)c(O)c3)[o+]c2c1
REMARK SMILES IDX 10 1 20 2 21 3 22 4 2 5 3 6 4 7 6 8 7 9 8 10 11 11 12 12
REMARK SMILES IDX 13 13 19 14 15 15 17 16 14 17 16 19 18 21 9 23 1 25 5 27
REMARK H PARENT 14 18 16 20 18 22 9 24 1 26 5 28
REMARK Flexibility Score: inf
ROOT
ATOM      1  C   UNL     1      16.567 -17.690  16.720  1.00  0.00     0.402 A 
ATOM      2  O   UNL     1      16.586 -19.017  16.802  1.00  0.00    -0.202 OA
ATOM      3  C   UNL     1      15.561 -19.736  17.251  1.00  0.00     0.368 A 
ATOM      4  C   UNL     1      15.678 -21.127  17.303  1.00  0.00     0.162 A 
ATOM      5  C   UNL     1      14.620 -21.906  17.773  1.00  0.00     0.128 A 
ATOM      6  C   UNL     1      13.436 -21.291  18.195  1.00  0.00     0.093 A 
ATOM      7  C   UNL     1      13.295 -19.898  18.153  1.00  0.00     0.136 A 
ATOM      8  C   UNL     1      14.368 -19.103  17.673  1.00  0.00     0.125 A 
ATOM      9  C   UNL     1      14.310 -17.703  17.583  1.00  0.00     0.078 A 
ATOM     10  C   UNL     1      15.407 -16.987  17.095  1.00  0.00     0.223 A 
ENDROOT
BRANCH   1  11
ATOM     11  C   UNL     1      17.776 -17.002  16.211  1.00  0.00     0.091 A 
ATOM     12  C   UNL     1      18.138 -17.150  14.864  1.00  0.00     0.068 A 
ATOM     13  C   UNL     1      19.285 -16.529  14.360  1.00  0.00     0.162 A 
ATOM     14  C   UNL     1      18.602 -16.249  17.062  1.00  0.00     0.068 A 
ATOM     15  C   UNL     1      20.098 -15.759  15.211  1.00  0.00     0.200 A 
ATOM     16  C   UNL     1      19.755 -15.624  16.566  1.00  0.00     0.162 A 
BRANCH  13  17
ATOM     17  O   UNL     1      19.603 -16.688  13.011  1.00  0.00    -0.504 OA
ATOM     18  H   UNL     1      20.506 -16.427  12.635  1.00  0.00     0.293 HD
ENDBRANCH  13  17
BRANCH  15  19
ATOM     19  O   UNL     1      21.239 -15.140  14.699  1.00  0.00    -0.502 OA
ATOM     20  H   UNL     1      22.140 -15.208  15.157  1.00  0.00     0.293 HD
ENDBRANCH  15  19
BRANCH  16  21
ATOM     21  O   UNL     1      20.564 -14.875  17.419  1.00  0.00    -0.504 OA
ATOM     22  H   UNL     1      20.360 -13.905  17.630  1.00  0.00     0.293 HD
ENDBRANCH  16  21
ENDBRANCH   1  11
BRANCH  10  23
ATOM     23  O   UNL     1      15.333 -15.601  16.957  1.00  0.00    -0.500 OA
ATOM     24  H   UNL     1      14.503 -15.082  17.223  1.00  0.00     0.294 HD
ENDBRANCH  10  23
BRANCH   5  25
ATOM     25  O   UNL     1      14.755 -23.292  17.818  1.00  0.00    -0.507 OA
ATOM     26  H   UNL     1      14.074 -23.904  17.386  1.00  0.00     0.293 HD
ENDBRANCH   5  25
BRANCH   7  27
ATOM     27  O   UNL     1      12.082 -19.361  18.594  1.00  0.00    -0.507 OA
ATOM     28  H   UNL     1      11.254 -19.906  18.788  1.00  0.00     0.293 HD
ENDBRANCH   7  27
TORSDOF 7
ENDMDL
MODEL 3
REMARK VINA RESULT:    -6.864      1.607      2.079
REMARK INTER + INTRA:          -8.411
REMARK INTER:                  -8.434
REMARK INTRA:                   0.024
REMARK UNBOUND:                 0.059
REMARK SMILES Oc1cc(O)c2cc(O)c(-c3cc(O)c(O)c(O)c3)[o+]c2c1
REMARK SMILES IDX 10 1 20 2 21 3 22 4 2 5 3 6 4 7 6 8 7 9 8 10 11 11 12 12
REMARK SMILES IDX 13 13 19 14 15 15 17 16 14 17 16 19 18 21 9 23 1 25 5 27
REMARK H PARENT 14 18 16 20 18 22 9 24 1 26 5 28
REMARK Flexibility Score: inf
ROOT
ATOM      1  C   UNL     1      14.869 -20.271  17.581  1.00  0.00     0.402 A 
ATOM      2  O   UNL     1      14.968 -20.290  16.254  1.00  0.00    -0.202 OA
ATOM      3  C   UNL     1      15.617 -19.363  15.557  1.00  0.00     0.368 A 
ATOM      4  C   UNL     1      15.662 -19.468  14.164  1.00  0.00     0.162 A 
ATOM      5  C   UNL     1      16.333 -18.507  13.406  1.00  0.00     0.128 A 
ATOM      6  C   UNL     1      16.963 -17.432  14.044  1.00  0.00     0.093 A 
ATOM      7  C   UNL     1      16.932 -17.305  15.438  1.00  0.00     0.136 A 
ATOM      8  C   UNL     1      16.253 -18.281  16.212  1.00  0.00     0.125 A 
ATOM      9  C   UNL     1      16.181 -18.241  17.614  1.00  0.00     0.078 A 
ATOM     10  C   UNL     1      15.497 -19.243  18.309  1.00  0.00     0.223 A 
ENDROOT
BRANCH   1  11
ATOM     11  C   UNL     1      14.111 -21.357  18.243  1.00  0.00     0.091 A 
ATOM     12  C   UNL     1      14.201 -22.664  17.743  1.00  0.00     0.068 A 
ATOM     13  C   UNL     1      13.481 -23.707  18.335  1.00  0.00     0.162 A 
ATOM     14  C   UNL     1      13.257 -21.097  19.327  1.00  0.00     0.068 A 
ATOM     15  C   UNL     1      12.643 -23.446  19.434  1.00  0.00     0.200 A 
ATOM     16  C   UNL     1      12.529 -22.135  19.926  1.00  0.00     0.162 A 
BRANCH  13  17
ATOM     17  O   UNL     1      13.609 -24.996  17.819  1.00  0.00    -0.504 OA
ATOM     18  H   UNL     1      13.675 -25.812  18.415  1.00  0.00     0.293 HD
ENDBRANCH  13  17
BRANCH  15  19
ATOM     19  O   UNL     1      11.930 -24.491  20.021  1.00  0.00    -0.502 OA
ATOM     20  H   UNL     1      11.183 -24.329  20.685  1.00  0.00     0.293 HD
ENDBRANCH  15  19
BRANCH  16  21
ATOM     21  O   UNL     1      11.689 -21.865  21.005  1.00  0.00    -0.504 OA
ATOM     22  H   UNL     1      10.746 -21.519  20.872  1.00  0.00     0.293 HD
ENDBRANCH  16  21
ENDBRANCH   1  11
BRANCH  10  23
ATOM     23  O   UNL     1      15.467 -19.232  19.704  1.00  0.00    -0.500 OA
ATOM     24  H   UNL     1      15.944 -19.940  20.252  1.00  0.00     0.294 HD
ENDBRANCH  10  23
BRANCH   5  25
ATOM     25  O   UNL     1      16.368 -18.628  12.019  1.00  0.00    -0.507 OA
ATOM     26  H   UNL     1      15.647 -18.223  11.434  1.00  0.00     0.293 HD
ENDBRANCH   5  25
BRANCH   7  27
ATOM     27  O   UNL     1      17.583 -16.202  15.998  1.00  0.00    -0.507 OA
ATOM     28  H   UNL     1      18.521 -15.913  15.761  1.00  0.00     0.293 HD
ENDBRANCH   7  27
TORSDOF 7
ENDMDL
MODEL 4
REMARK VINA RESULT:    -6.497      2.319      3.614
REMARK INTER + INTRA:          -7.957
REMARK INTER:                  -7.574
REMARK INTRA:                  -0.384
REMARK UNBOUND:                 0.059
REMARK SMILES Oc1cc(O)c2cc(O)c(-c3cc(O)c(O)c(O)c3)[o+]c2c1
REMARK SMILES IDX 10 1 20 2 21 3 22 4 2 5 3 6 4 7 6 8 7 9 8 10 11 11 12 12
REMARK SMILES IDX 13 13 19 14 15 15 17 16 14 17 16 19 18 21 9 23 1 25 5 27
REMARK H PARENT 14 18 16 20 18 22 9 24 1 26 5 28
REMARK Flexibility Score: inf
ROOT
ATOM      1  C   UNL     1      16.319 -18.583  16.448  1.00  0.00     0.402 A 
ATOM      2  O   UNL     1      17.128 -17.929  17.278  1.00  0.00    -0.202 OA
ATOM      3  C   UNL     1      18.041 -17.054  16.869  1.00  0.00     0.368 A 
ATOM      4  C   UNL     1      18.847 -16.419  17.817  1.00  0.00     0.162 A 
ATOM      5  C   UNL     1      19.817 -15.499  17.416  1.00  0.00     0.128 A 
ATOM      6  C   UNL     1      19.985 -15.211  16.057  1.00  0.00     0.093 A 
ATOM      7  C   UNL     1      19.190 -15.835  15.087  1.00  0.00     0.136 A 
ATOM      8  C   UNL     1      18.201 -16.769  15.492  1.00  0.00     0.125 A 
ATOM      9  C   UNL     1      17.351 -17.431  14.591  1.00  0.00     0.078 A 
ATOM     10  C   UNL     1      16.396 -18.336  15.065  1.00  0.00     0.223 A 
ENDROOT
BRANCH   1  11
ATOM     11  C   UNL     1      15.348 -19.539  17.026  1.00  0.00     0.091 A 
ATOM     12  C   UNL     1      14.138 -19.061  17.551  1.00  0.00     0.068 A 
ATOM     13  C   UNL     1      13.210 -19.939  18.121  1.00  0.00     0.162 A 
ATOM     14  C   UNL     1      15.635 -20.912  17.112  1.00  0.00     0.068 A 
ATOM     15  C   UNL     1      13.493 -21.315  18.186  1.00  0.00     0.200 A 
ATOM     16  C   UNL     1      14.712 -21.799  17.683  1.00  0.00     0.162 A 
BRANCH  13  17
ATOM     17  O   UNL     1      12.012 -19.426  18.618  1.00  0.00    -0.504 OA
ATOM     18  H   UNL     1      11.225 -20.020  18.848  1.00  0.00     0.293 HD
ENDBRANCH  13  17
BRANCH  15  19
ATOM     19  O   UNL     1      12.561 -22.184  18.753  1.00  0.00    -0.502 OA
ATOM     20  H   UNL     1      11.921 -22.731  18.190  1.00  0.00     0.293 HD
ENDBRANCH  15  19
BRANCH  16  21
ATOM     21  O   UNL     1      15.006 -23.159  17.758  1.00  0.00    -0.504 OA
ATOM     22  H   UNL     1      15.691 -23.521  18.412  1.00  0.00     0.293 HD
ENDBRANCH  16  21
ENDBRANCH   1  11
BRANCH  10  23
ATOM     23  O   UNL     1      15.518 -18.957  14.176  1.00  0.00    -0.500 OA
ATOM     24  H   UNL     1      15.580 -19.949  13.972  1.00  0.00     0.294 HD
ENDBRANCH  10  23
BRANCH   5  25
ATOM     25  O   UNL     1      20.611 -14.875  18.377  1.00  0.00    -0.507 OA
ATOM     26  H   UNL     1      20.247 -14.639  19.292  1.00  0.00     0.293 HD
ENDBRANCH   5  25
BRANCH   7  27
ATOM     27  O   UNL     1      19.421 -15.496  13.751  1.00  0.00    -0.507 OA
ATOM     28  H   UNL     1      20.311 -15.592  13.284  1.00  0.00     0.293 HD
ENDBRANCH   7  27
TORSDOF 7
ENDMDL
MODEL 5
REMARK VINA RESULT:    -6.471      1.413      7.033
REMARK INTER + INTRA:          -7.925
REMARK INTER:                  -7.580
REMARK INTRA:                  -0.345
REMARK UNBOUND:                 0.059
REMARK SMILES Oc1cc(O)c2cc(O)c(-c3cc(O)c(O)c(O)c3)[o+]c2c1
REMARK SMILES IDX 10 1 20 2 21 3 22 4 2 5 3 6 4 7 6 8 7 9 8 10 11 11 12 12
REMARK SMILES IDX 13 13 19 14 15 15 17 16 14 17 16 19 18 21 9 23 1 25 5 27
REMARK H PARENT 14 18 16 20 18 22 9 24 1 26 5 28
REMARK Flexibility Score: inf
ROOT
ATOM      1  C   UNL     1      15.568 -20.345  17.252  1.00  0.00     0.402 A 
ATOM      2  O   UNL     1      14.601 -20.246  18.161  1.00  0.00    -0.202 OA
ATOM      3  C   UNL     1      13.975 -21.298  18.678  1.00  0.00     0.368 A 
ATOM      4  C   UNL     1      12.969 -21.092  19.625  1.00  0.00     0.162 A 
ATOM      5  C   UNL     1      12.291 -22.178  20.182  1.00  0.00     0.128 A 
ATOM      6  C   UNL     1      12.620 -23.480  19.789  1.00  0.00     0.093 A 
ATOM      7  C   UNL     1      13.625 -23.712  18.841  1.00  0.00     0.136 A 
ATOM      8  C   UNL     1      14.317 -22.611  18.275  1.00  0.00     0.125 A 
ATOM      9  C   UNL     1      15.346 -22.750  17.329  1.00  0.00     0.078 A 
ATOM     10  C   UNL     1      15.987 -21.617  16.819  1.00  0.00     0.223 A 
ENDROOT
BRANCH   1  11
ATOM     11  C   UNL     1      16.184 -19.097  16.746  1.00  0.00     0.091 A 
ATOM     12  C   UNL     1      17.051 -18.370  17.575  1.00  0.00     0.068 A 
ATOM     13  C   UNL     1      17.631 -17.177  17.131  1.00  0.00     0.162 A 
ATOM     14  C   UNL     1      15.875 -18.594  15.471  1.00  0.00     0.068 A 
ATOM     15  C   UNL     1      17.336 -16.688  15.847  1.00  0.00     0.200 A 
ATOM     16  C   UNL     1      16.450 -17.398  15.018  1.00  0.00     0.162 A 
BRANCH  13  17
ATOM     17  O   UNL     1      18.500 -16.492  17.980  1.00  0.00    -0.504 OA
ATOM     18  H   UNL     1      19.496 -16.673  17.994  1.00  0.00     0.293 HD
ENDBRANCH  13  17
BRANCH  15  19
ATOM     19  O   UNL     1      17.921 -15.500  15.410  1.00  0.00    -0.502 OA
ATOM     20  H   UNL     1      17.420 -14.829  14.840  1.00  0.00     0.293 HD
ENDBRANCH  15  19
BRANCH  16  21
ATOM     21  O   UNL     1      16.140 -16.912  13.749  1.00  0.00    -0.504 OA
ATOM     22  H   UNL     1      16.656 -17.202  12.927  1.00  0.00     0.293 HD
ENDBRANCH  16  21
ENDBRANCH   1  11
BRANCH  10  23
ATOM     23  O   UNL     1      17.042 -21.755  15.917  1.00  0.00    -0.500 OA
ATOM     24  H   UNL     1      17.436 -20.956  15.432  1.00  0.00     0.294 HD
ENDBRANCH  10  23
BRANCH   5  25
ATOM     25  O   UNL     1      11.291 -21.953  21.125  1.00  0.00    -0.507 OA
ATOM     26  H   UNL     1      10.312 -22.083  20.900  1.00  0.00     0.293 HD
ENDBRANCH   5  25
BRANCH   7  27
ATOM     27  O   UNL     1      13.892 -25.042  18.500  1.00  0.00    -0.507 OA
ATOM     28  H   UNL     1      14.609 -25.607  18.930  1.00  0.00     0.293 HD
ENDBRANCH   7  27
TORSDOF 7
ENDMDL
MODEL 6
REMARK VINA RESULT:    -6.408      1.689      7.425
REMARK INTER + INTRA:          -7.848
REMARK INTER:                  -7.565
REMARK INTRA:                  -0.283
REMARK UNBOUND:                 0.059
REMARK SMILES Oc1cc(O)c2cc(O)c(-c3cc(O)c(O)c(O)c3)[o+]c2c1
REMARK SMILES IDX 10 1 20 2 21 3 22 4 2 5 3 6 4 7 6 8 7 9 8 10 11 11 12 12
REMARK SMILES IDX 13 13 19 14 15 15 17 16 14 17 16 19 18 21 9 23 1 25 5 27
REMARK H PARENT 14 18 16 20 18 22 9 24 1 26 5 28
REMARK Flexibility Score: inf
ROOT
ATOM      1  C   UNL     1      14.827 -20.091  17.426  1.00  0.00     0.402 A 
ATOM      2  O   UNL     1      14.961 -21.412  17.514  1.00  0.00    -0.202 OA
ATOM      3  C   UNL     1      14.233 -22.168  18.330  1.00  0.00     0.368 A 
ATOM      4  C   UNL     1      14.450 -23.548  18.353  1.00  0.00     0.162 A 
ATOM      5  C   UNL     1      13.703 -24.365  19.202  1.00  0.00     0.128 A 
ATOM      6  C   UNL     1      12.731 -23.800  20.035  1.00  0.00     0.093 A 
ATOM      7  C   UNL     1      12.495 -22.420  20.031  1.00  0.00     0.136 A 
ATOM      8  C   UNL     1      13.251 -21.586  19.167  1.00  0.00     0.125 A 
ATOM      9  C   UNL     1      13.073 -20.195  19.086  1.00  0.00     0.078 A 
ATOM     10  C   UNL     1      13.853 -19.439  18.206  1.00  0.00     0.223 A 
ENDROOT
BRANCH   1  11
ATOM     11  C   UNL     1      15.704 -19.359  16.486  1.00  0.00     0.091 A 
ATOM     12  C   UNL     1      16.696 -18.504  16.990  1.00  0.00     0.068 A 
ATOM     13  C   UNL     1      17.526 -17.784  16.125  1.00  0.00     0.162 A 
ATOM     14  C   UNL     1      15.528 -19.455  15.095  1.00  0.00     0.068 A 
ATOM     15  C   UNL     1      17.360 -17.899  14.734  1.00  0.00     0.200 A 
ATOM     16  C   UNL     1      16.354 -18.735  14.221  1.00  0.00     0.162 A 
BRANCH  13  17
ATOM     17  O   UNL     1      18.510 -16.957  16.666  1.00  0.00    -0.504 OA
ATOM     18  H   UNL     1      18.883 -16.161  16.163  1.00  0.00     0.293 HD
ENDBRANCH  13  17
BRANCH  15  19
ATOM     19  O   UNL     1      18.194 -17.180  13.878  1.00  0.00    -0.502 OA
ATOM     20  H   UNL     1      17.860 -16.782  13.008  1.00  0.00     0.293 HD
ENDBRANCH  15  19
BRANCH  16  21
ATOM     21  O   UNL     1      16.173 -18.843  12.843  1.00  0.00    -0.504 OA
ATOM     22  H   UNL     1      16.679 -18.254  12.192  1.00  0.00     0.293 HD
ENDBRANCH  16  21
ENDBRANCH   1  11
BRANCH  10  23
ATOM     23  O   UNL     1      13.644 -18.065  18.088  1.00  0.00    -0.500 OA
ATOM     24  H   UNL     1      14.186 -17.497  17.446  1.00  0.00     0.294 HD
ENDBRANCH  10  23
BRANCH   5  25
ATOM     25  O   UNL     1      13.934 -25.739  19.211  1.00  0.00    -0.507 OA
ATOM     26  H   UNL     1      13.789 -26.294  20.046  1.00  0.00     0.293 HD
ENDBRANCH   5  25
BRANCH   7  27
ATOM     27  O   UNL     1      11.509 -21.933  20.894  1.00  0.00    -0.507 OA
ATOM     28  H   UNL     1      10.546 -22.239  20.890  1.00  0.00     0.293 HD
ENDBRANCH   7  27
TORSDOF 7
ENDMDL
MODEL 7
REMARK VINA RESULT:    -6.074      1.110      3.174
REMARK INTER + INTRA:          -7.435
REMARK INTER:                  -7.689
REMARK INTRA:                   0.254
REMARK UNBOUND:                 0.059
REMARK SMILES Oc1cc(O)c2cc(O)c(-c3cc(O)c(O)c(O)c3)[o+]c2c1
REMARK SMILES IDX 10 1 20 2 21 3 22 4 2 5 3 6 4 7 6 8 7 9 8 10 11 11 12 12
REMARK SMILES IDX 13 13 19 14 15 15 17 16 14 17 16 19 18 21 9 23 1 25 5 27
REMARK H PARENT 14 18 16 20 18 22 9 24 1 26 5 28
REMARK Flexibility Score: inf
ROOT
ATOM      1  C   UNL     1      14.466 -19.681  17.756  1.00  0.00     0.402 A 
ATOM      2  O   UNL     1      15.652 -19.735  17.154  1.00  0.00    -0.202 OA
ATOM      3  C   UNL     1      16.267 -18.667  16.657  1.00  0.00     0.368 A 
ATOM      4  C   UNL     1      17.510 -18.826  16.039  1.00  0.00     0.162 A 
ATOM      5  C   UNL     1      18.177 -17.723  15.504  1.00  0.00     0.128 A 
ATOM      6  C   UNL     1      17.599 -16.451  15.586  1.00  0.00     0.093 A 
ATOM      7  C   UNL     1      16.354 -16.267  16.200  1.00  0.00     0.136 A 
ATOM      8  C   UNL     1      15.674 -17.386  16.747  1.00  0.00     0.125 A 
ATOM      9  C   UNL     1      14.429 -17.293  17.392  1.00  0.00     0.078 A 
ATOM     10  C   UNL     1      13.822 -18.440  17.911  1.00  0.00     0.223 A 
ENDROOT
BRANCH   1  11
ATOM     11  C   UNL     1      13.879 -20.943  18.262  1.00  0.00     0.091 A 
ATOM     12  C   UNL     1      13.062 -20.915  19.401  1.00  0.00     0.068 A 
ATOM     13  C   UNL     1      12.510 -22.094  19.914  1.00  0.00     0.162 A 
ATOM     14  C   UNL     1      14.169 -22.178  17.659  1.00  0.00     0.068 A 
ATOM     15  C   UNL     1      12.786 -23.325  19.294  1.00  0.00     0.200 A 
ATOM     16  C   UNL     1      13.622 -23.365  18.166  1.00  0.00     0.162 A 
BRANCH  13  17
ATOM     17  O   UNL     1      11.689 -22.022  21.040  1.00  0.00    -0.504 OA
ATOM     18  H   UNL     1      10.711 -22.282  21.012  1.00  0.00     0.293 HD
ENDBRANCH  13  17
BRANCH  15  19
ATOM     19  O   UNL     1      12.229 -24.496  19.810  1.00  0.00    -0.502 OA
ATOM     20  H   UNL     1      11.580 -25.064  19.278  1.00  0.00     0.293 HD
ENDBRANCH  15  19
BRANCH  16  21
ATOM     21  O   UNL     1      13.913 -24.584  17.556  1.00  0.00    -0.504 OA
ATOM     22  H   UNL     1      13.510 -24.841  16.663  1.00  0.00     0.293 HD
ENDBRANCH  16  21
ENDBRANCH   1  11
BRANCH  10  23
ATOM     23  O   UNL     1      12.610 -18.342  18.595  1.00  0.00    -0.500 OA
ATOM     24  H   UNL     1      11.985 -19.135  18.687  1.00  0.00     0.294 HD
ENDBRANCH  10  23
BRANCH   5  25
ATOM     25  O   UNL     1      19.416 -17.900  14.891  1.00  0.00    -0.507 OA
ATOM     26  H   UNL     1      19.777 -18.824  14.684  1.00  0.00     0.293 HD
ENDBRANCH   5  25
BRANCH   7  27
ATOM     27  O   UNL     1      15.842 -14.966  16.239  1.00  0.00    -0.507 OA
ATOM     28  H   UNL     1      15.626 -14.464  17.088  1.00  0.00     0.293 HD
ENDBRANCH   7  27
TORSDOF 7
ENDMDL
MODEL 8
REMARK VINA RESULT:    -5.390     13.350     15.942
REMARK INTER + INTRA:          -6.591
REMARK INTER:                  -6.416
REMARK INTRA:                  -0.175
REMARK UNBOUND:                 0.059
REMARK SMILES Oc1cc(O)c2cc(O)c(-c3cc(O)c(O)c(O)c3)[o+]c2c1
REMARK SMILES IDX 10 1 20 2 21 3 22 4 2 5 3 6 4 7 6 8 7 9 8 10 11 11 12 12
REMARK SMILES IDX 13 13 19 14 15 15 17 16 14 17 16 19 18 21 9 23 1 25 5 27
REMARK H PARENT 14 18 16 20 18 22 9 24 1 26 5 28
REMARK Flexibility Score: inf
ROOT
ATOM      1  C   UNL     1       5.564 -28.191  25.186  1.00  0.00     0.402 A 
ATOM      2  O   UNL     1       4.938 -29.343  24.961  1.00  0.00    -0.202 OA
ATOM      3  C   UNL     1       5.149 -30.090  23.881  1.00  0.00     0.368 A 
ATOM      4  C   UNL     1       4.440 -31.284  23.732  1.00  0.00     0.162 A 
ATOM      5  C   UNL     1       4.638 -32.086  22.607  1.00  0.00     0.128 A 
ATOM      6  C   UNL     1       5.552 -31.692  21.623  1.00  0.00     0.093 A 
ATOM      7  C   UNL     1       6.275 -30.499  21.750  1.00  0.00     0.136 A 
ATOM      8  C   UNL     1       6.077 -29.683  22.894  1.00  0.00     0.125 A 
ATOM      9  C   UNL     1       6.767 -28.479  23.110  1.00  0.00     0.078 A 
ATOM     10  C   UNL     1       6.523 -27.729  24.265  1.00  0.00     0.223 A 
ENDROOT
BRANCH   1  11
ATOM     11  C   UNL     1       5.236 -27.446  26.423  1.00  0.00     0.091 A 
ATOM     12  C   UNL     1       5.324 -28.095  27.663  1.00  0.00     0.068 A 
ATOM     13  C   UNL     1       5.001 -27.422  28.846  1.00  0.00     0.162 A 
ATOM     14  C   UNL     1       4.782 -26.117  26.378  1.00  0.00     0.068 A 
ATOM     15  C   UNL     1       4.567 -26.085  28.798  1.00  0.00     0.200 A 
ATOM     16  C   UNL     1       4.454 -25.435  27.557  1.00  0.00     0.162 A 
BRANCH  13  17
ATOM     17  O   UNL     1       5.117 -28.097  30.061  1.00  0.00    -0.504 OA
ATOM     18  H   UNL     1       4.438 -27.991  30.805  1.00  0.00     0.293 HD
ENDBRANCH  13  17
BRANCH  15  19
ATOM     19  O   UNL     1       4.250 -25.420  29.982  1.00  0.00    -0.502 OA
ATOM     20  H   UNL     1       4.834 -24.684  30.361  1.00  0.00     0.293 HD
ENDBRANCH  15  19
BRANCH  16  21
ATOM     21  O   UNL     1       4.009 -24.115  27.500  1.00  0.00    -0.504 OA
ATOM     22  H   UNL     1       3.546 -23.745  26.679  1.00  0.00     0.293 HD
ENDBRANCH  16  21
ENDBRANCH   1  11
BRANCH  10  23
ATOM     23  O   UNL     1       7.243 -26.559  24.506  1.00  0.00    -0.500 OA
ATOM     24  H   UNL     1       6.781 -25.663  24.618  1.00  0.00     0.294 HD
ENDBRANCH  10  23
BRANCH   5  25
ATOM     25  O   UNL     1       3.922 -33.274  22.476  1.00  0.00    -0.507 OA
ATOM     26  H   UNL     1       3.529 -33.559  21.587  1.00  0.00     0.293 HD
ENDBRANCH   5  25
BRANCH   7  27
ATOM     27  O   UNL     1       7.166 -30.175  20.723  1.00  0.00    -0.507 OA
ATOM     28  H   UNL     1       7.808 -29.396  20.750  1.00  0.00     0.293 HD
ENDBRANCH   7  27
TORSDOF 7
ENDMDL
MODEL 9
REMARK VINA RESULT:    -5.299     14.039     17.197
REMARK INTER + INTRA:          -6.480
REMARK INTER:                  -6.449
REMARK INTRA:                  -0.031
REMARK UNBOUND:                 0.059
REMARK SMILES Oc1cc(O)c2cc(O)c(-c3cc(O)c(O)c(O)c3)[o+]c2c1
REMARK SMILES IDX 10 1 20 2 21 3 22 4 2 5 3 6 4 7 6 8 7 9 8 10 11 11 12 12
REMARK SMILES IDX 13 13 19 14 15 15 17 16 14 17 16 19 18 21 9 23 1 25 5 27
REMARK H PARENT 14 18 16 20 18 22 9 24 1 26 5 28
REMARK Flexibility Score: inf
ROOT
ATOM      1  C   UNL     1       7.355 -30.612  27.299  1.00  0.00     0.402 A 
ATOM      2  O   UNL     1       7.654 -31.279  26.187  1.00  0.00    -0.202 OA
ATOM      3  C   UNL     1       8.218 -32.483  26.187  1.00  0.00     0.368 A 
ATOM      4  C   UNL     1       8.497 -33.102  24.966  1.00  0.00     0.162 A 
ATOM      5  C   UNL     1       9.093 -34.364  24.935  1.00  0.00     0.128 A 
ATOM      6  C   UNL     1       9.413 -35.012  26.133  1.00  0.00     0.093 A 
ATOM      7  C   UNL     1       9.143 -34.412  27.369  1.00  0.00     0.136 A 
ATOM      8  C   UNL     1       8.536 -33.130  27.404  1.00  0.00     0.125 A 
ATOM      9  C   UNL     1       8.217 -32.460  28.596  1.00  0.00     0.078 A 
ATOM     10  C   UNL     1       7.614 -31.199  28.552  1.00  0.00     0.223 A 
ENDROOT
BRANCH   1  11
ATOM     11  C   UNL     1       6.735 -29.274  27.168  1.00  0.00     0.091 A 
ATOM     12  C   UNL     1       7.343 -28.310  26.350  1.00  0.00     0.068 A 
ATOM     13  C   UNL     1       6.792 -27.031  26.223  1.00  0.00     0.162 A 
ATOM     14  C   UNL     1       5.582 -28.928  27.891  1.00  0.00     0.068 A 
ATOM     15  C   UNL     1       5.625 -26.695  26.933  1.00  0.00     0.200 A 
ATOM     16  C   UNL     1       5.023 -27.648  27.772  1.00  0.00     0.162 A 
BRANCH  13  17
ATOM     17  O   UNL     1       7.417 -26.105  25.388  1.00  0.00    -0.504 OA
ATOM     18  H   UNL     1       8.249 -26.333  24.857  1.00  0.00     0.293 HD
ENDBRANCH  13  17
BRANCH  15  19
ATOM     19  O   UNL     1       5.080 -25.418  26.798  1.00  0.00    -0.502 OA
ATOM     20  H   UNL     1       4.673 -24.920  27.581  1.00  0.00     0.293 HD
ENDBRANCH  15  19
BRANCH  16  21
ATOM     21  O   UNL     1       3.875 -27.318  28.491  1.00  0.00    -0.504 OA
ATOM     22  H   UNL     1       3.248 -28.029  28.848  1.00  0.00     0.293 HD
ENDBRANCH  16  21
ENDBRANCH   1  11
BRANCH  10  23
ATOM     23  O   UNL     1       7.251 -30.554  29.734  1.00  0.00    -0.500 OA
ATOM     24  H   UNL     1       7.946 -30.226  30.396  1.00  0.00     0.294 HD
ENDBRANCH  10  23
BRANCH   5  25
ATOM     25  O   UNL     1       9.364 -34.965  23.708  1.00  0.00    -0.507 OA
ATOM     26  H   UNL     1       9.300 -35.969  23.585  1.00  0.00     0.293 HD
ENDBRANCH   5  25
BRANCH   7  27
ATOM     27  O   UNL     1       9.496 -35.124  28.520  1.00  0.00    -0.507 OA
ATOM     28  H   UNL     1      10.358 -35.637  28.631  1.00  0.00     0.293 HD
ENDBRANCH   7  27
TORSDOF 7
ENDMDL
