MODEL 1
REMARK VINA RESULT:    22.256      0.000      0.000
REMARK INTER + INTRA:          56.832
REMARK INTER:                  58.688
REMARK INTRA:                  -1.856
REMARK UNBOUND:                -1.856
REMARK SMILES CCCCCCCCCCCCCCCCCCCCCCCCCCCCCC(=O)[O-]
REMARK SMILES IDX 16 1 17 2 18 3 19 4 20 5 21 6 22 7 23 8 24 9 25 10 26 11
REMARK SMILES IDX 27 12 28 13 29 14 30 15 31 16 32 17 15 18 14 19 13 20 12 21
REMARK SMILES IDX 11 22 10 23 9 24 8 25 7 26 6 27 5 28 4 29 3 30 2 31 1 32
REMARK H PARENT
REMARK Flexibility Score: inf
ROOT
ATOM      1  C   UNL     1     -32.867  20.536  -9.985  1.00  0.00     0.000 C 
ENDROOT
BRANCH   1   2
ATOM      2  C   UNL     1     -33.125  19.303 -10.868  1.00  0.00     0.000 C 
BRANCH   2   3
ATOM      3  C   UNL     1     -33.809  18.151 -10.108  1.00  0.00     0.000 C 
BRANCH   3   4
ATOM      4  C   UNL     1     -32.894  16.972  -9.736  1.00  0.00     0.000 C 
BRANCH   4   5
ATOM      5  C   UNL     1     -31.766  16.740 -10.754  1.00  0.00     0.000 C 
BRANCH   5   6
ATOM      6  C   UNL     1     -30.615  17.749 -10.606  1.00  0.00     0.000 C 
BRANCH   6   7
ATOM      7  C   UNL     1     -29.227  17.226 -11.022  1.00  0.00     0.000 C 
BRANCH   7   8
ATOM      8  C   UNL     1     -29.260  16.420 -12.333  1.00  0.00     0.000 C 
BRANCH   8   9
ATOM      9  C   UNL     1     -29.358  17.331 -13.575  1.00  0.00     0.000 C 
BRANCH   9  10
ATOM     10  C   UNL     1     -29.440  16.556 -14.901  1.00  0.00     0.000 C 
BRANCH  10  11
ATOM     11  C   UNL     1     -30.831  16.622 -15.545  1.00  0.00     0.000 C 
BRANCH  11  12
ATOM     12  C   UNL     1     -30.743  17.092 -17.001  1.00  0.00     0.000 C 
BRANCH  12  13
ATOM     13  C   UNL     1     -30.979  18.605 -17.106  1.00  0.00     0.006 C 
BRANCH  13  14
ATOM     14  C   UNL     1     -30.198  19.238 -18.266  1.00  0.00     0.053 C 
BRANCH  14  15
ATOM     15  C   UNL     1     -29.522  20.514 -17.863  1.00  0.00     0.041 C 
ATOM     16  O   UNL     1     -29.023  21.273 -18.737  1.00  0.00    -0.550 OA
ATOM     17  O   UNL     1     -29.467  20.879 -16.525  1.00  0.00    -0.550 OA
ENDBRANCH  14  15
ENDBRANCH  13  14
ENDBRANCH  12  13
ENDBRANCH  11  12
ENDBRANCH  10  11
ENDBRANCH   9  10
ENDBRANCH   8   9
ENDBRANCH   7   8
ENDBRANCH   6   7
ENDBRANCH   5   6
ENDBRANCH   4   5
ENDBRANCH   3   4
ENDBRANCH   2   3
ENDBRANCH   1   2
BRANCH   1  18
ATOM     18  C   UNL     1     -33.210  21.850 -10.705  1.00  0.00     0.000 C 
BRANCH  18  19
ATOM     19  C   UNL     1     -32.395  23.042 -10.174  1.00  0.00     0.000 C 
BRANCH  19  20
ATOM     20  C   UNL     1     -30.902  22.952 -10.541  1.00  0.00     0.000 C 
BRANCH  20  21
ATOM     21  C   UNL     1     -30.518  21.756 -11.435  1.00  0.00     0.000 C 
BRANCH  21  22
ATOM     22  C   UNL     1     -29.184  21.077 -11.075  1.00  0.00     0.000 C 
BRANCH  22  23
ATOM     23  C   UNL     1     -28.377  20.658 -12.312  1.00  0.00     0.000 C 
BRANCH  23  24
ATOM     24  C   UNL     1     -27.670  21.867 -12.944  1.00  0.00    -0.000 C 
BRANCH  24  25
ATOM     25  C   UNL     1     -27.103  22.842 -11.891  1.00  0.00    -0.000 C 
BRANCH  25  26
ATOM     26  C   UNL     1     -26.069  22.204 -10.944  1.00  0.00    -0.000 C 
BRANCH  26  27
ATOM     27  C   UNL     1     -26.197  22.605  -9.462  1.00  0.00    -0.000 C 
BRANCH  27  28
ATOM     28  C   UNL     1     -26.786  21.527  -8.526  1.00  0.00    -0.000 C 
BRANCH  28  29
ATOM     29  C   UNL     1     -25.771  20.890  -7.557  1.00  0.00    -0.000 C 
BRANCH  29  30
ATOM     30  C   UNL     1     -24.445  21.675  -7.452  1.00  0.00    -0.000 C 
BRANCH  30  31
ATOM     31  C   UNL     1     -23.893  21.742  -6.019  1.00  0.00    -0.003 C 
ATOM     32  C   UNL     1     -22.418  22.139  -5.971  1.00  0.00     0.004 C 
ENDBRANCH  30  31
ENDBRANCH  29  30
ENDBRANCH  28  29
ENDBRANCH  27  28
ENDBRANCH  26  27
ENDBRANCH  25  26
ENDBRANCH  24  25
ENDBRANCH  23  24
ENDBRANCH  22  23
ENDBRANCH  21  22
ENDBRANCH  20  21
ENDBRANCH  19  20
ENDBRANCH  18  19
ENDBRANCH   1  18
TORSDOF 28
ENDMDL
MODEL 2
REMARK VINA RESULT:    22.601      5.393      6.693
REMARK INTER + INTRA:          57.740
REMARK INTER:                  57.717
REMARK INTRA:                   0.023
REMARK UNBOUND:                -1.856
REMARK SMILES CCCCCCCCCCCCCCCCCCCCCCCCCCCCCC(=O)[O-]
REMARK SMILES IDX 16 1 17 2 18 3 19 4 20 5 21 6 22 7 23 8 24 9 25 10 26 11
REMARK SMILES IDX 27 12 28 13 29 14 30 15 31 16 32 17 15 18 14 19 13 20 12 21
REMARK SMILES IDX 11 22 10 23 9 24 8 25 7 26 6 27 5 28 4 29 3 30 2 31 1 32
REMARK H PARENT
REMARK Flexibility Score: inf
ROOT
ATOM      1  C   UNL     1     -30.473  17.938 -10.597  1.00  0.00     0.000 C 
ENDROOT
BRANCH   1   2
ATOM      2  C   UNL     1     -29.428  16.835 -10.840  1.00  0.00     0.000 C 
BRANCH   2   3
ATOM      3  C   UNL     1     -29.726  15.989 -12.093  1.00  0.00     0.000 C 
BRANCH   3   4
ATOM      4  C   UNL     1     -29.551  16.719 -13.436  1.00  0.00     0.000 C 
BRANCH   4   5
ATOM      5  C   UNL     1     -29.192  15.774 -14.593  1.00  0.00     0.000 C 
BRANCH   5   6
ATOM      6  C   UNL     1     -28.519  14.476 -14.113  1.00  0.00     0.000 C 
BRANCH   6   7
ATOM      7  C   UNL     1     -28.009  13.550 -15.233  1.00  0.00     0.000 C 
BRANCH   7   8
ATOM      8  C   UNL     1     -26.487  13.327 -15.177  1.00  0.00     0.000 C 
BRANCH   8   9
ATOM      9  C   UNL     1     -25.833  13.414 -16.571  1.00  0.00     0.000 C 
BRANCH   9  10
ATOM     10  C   UNL     1     -24.521  12.620 -16.686  1.00  0.00     0.000 C 
BRANCH  10  11
ATOM     11  C   UNL     1     -24.145  12.295 -18.137  1.00  0.00     0.000 C 
BRANCH  11  12
ATOM     12  C   UNL     1     -23.151  11.130 -18.202  1.00  0.00     0.000 C 
BRANCH  12  13
ATOM     13  C   UNL     1     -23.728   9.877 -17.527  1.00  0.00     0.006 C 
BRANCH  13  14
ATOM     14  C   UNL     1     -23.452   9.850 -16.018  1.00  0.00     0.053 C 
BRANCH  14  15
ATOM     15  C   UNL     1     -22.043   9.442 -15.708  1.00  0.00     0.041 C 
ATOM     16  O   UNL     1     -21.234   9.187 -16.641  1.00  0.00    -0.550 OA
ATOM     17  O   UNL     1     -21.614   9.371 -14.390  1.00  0.00    -0.550 OA
ENDBRANCH  14  15
ENDBRANCH  13  14
ENDBRANCH  12  13
ENDBRANCH  11  12
ENDBRANCH  10  11
ENDBRANCH   9  10
ENDBRANCH   8   9
ENDBRANCH   7   8
ENDBRANCH   6   7
ENDBRANCH   5   6
ENDBRANCH   4   5
ENDBRANCH   3   4
ENDBRANCH   2   3
ENDBRANCH   1   2
BRANCH   1  18
ATOM     18  C   UNL     1     -31.912  17.400 -10.656  1.00  0.00     0.000 C 
BRANCH  18  19
ATOM     19  C   UNL     1     -32.962  18.506 -10.451  1.00  0.00     0.000 C 
BRANCH  19  20
ATOM     20  C   UNL     1     -32.332  19.903 -10.295  1.00  0.00     0.000 C 
BRANCH  20  21
ATOM     21  C   UNL     1     -33.323  21.037  -9.966  1.00  0.00     0.000 C 
BRANCH  21  22
ATOM     22  C   UNL     1     -32.863  22.444 -10.386  1.00  0.00     0.000 C 
BRANCH  22  23
ATOM     23  C   UNL     1     -31.353  22.654 -10.207  1.00  0.00     0.000 C 
BRANCH  23  24
ATOM     24  C   UNL     1     -30.554  21.617 -11.012  1.00  0.00    -0.000 C 
BRANCH  24  25
ATOM     25  C   UNL     1     -29.154  21.352 -10.417  1.00  0.00    -0.000 C 
BRANCH  25  26
ATOM     26  C   UNL     1     -28.924  22.013  -9.045  1.00  0.00    -0.000 C 
BRANCH  26  27
ATOM     27  C   UNL     1     -27.949  21.272  -8.111  1.00  0.00    -0.000 C 
BRANCH  27  28
ATOM     28  C   UNL     1     -26.453  21.603  -8.308  1.00  0.00    -0.000 C 
BRANCH  28  29
ATOM     29  C   UNL     1     -25.485  20.717  -7.499  1.00  0.00    -0.000 C 
BRANCH  29  30
ATOM     30  C   UNL     1     -24.089  21.348  -7.307  1.00  0.00    -0.000 C 
BRANCH  30  31
ATOM     31  C   UNL     1     -23.817  21.791  -5.860  1.00  0.00    -0.003 C 
ATOM     32  C   UNL     1     -22.692  22.819  -5.757  1.00  0.00     0.004 C 
ENDBRANCH  30  31
ENDBRANCH  29  30
ENDBRANCH  28  29
ENDBRANCH  27  28
ENDBRANCH  26  27
ENDBRANCH  25  26
ENDBRANCH  24  25
ENDBRANCH  23  24
ENDBRANCH  22  23
ENDBRANCH  21  22
ENDBRANCH  20  21
ENDBRANCH  19  20
ENDBRANCH  18  19
ENDBRANCH   1  18
TORSDOF 28
ENDMDL
MODEL 3
REMARK VINA RESULT:    22.602      4.938      6.127
REMARK INTER + INTRA:          57.744
REMARK INTER:                  57.868
REMARK INTRA:                  -0.123
REMARK UNBOUND:                -1.856
REMARK SMILES CCCCCCCCCCCCCCCCCCCCCCCCCCCCCC(=O)[O-]
REMARK SMILES IDX 16 1 17 2 18 3 19 4 20 5 21 6 22 7 23 8 24 9 25 10 26 11
REMARK SMILES IDX 27 12 28 13 29 14 30 15 31 16 32 17 15 18 14 19 13 20 12 21
REMARK SMILES IDX 11 22 10 23 9 24 8 25 7 26 6 27 5 28 4 29 3 30 2 31 1 32
REMARK H PARENT
REMARK Flexibility Score: inf
ROOT
ATOM      1  C   UNL     1     -31.896  17.699 -10.387  1.00  0.00     0.000 C 
ENDROOT
BRANCH   1   2
ATOM      2  C   UNL     1     -31.668  16.246 -10.840  1.00  0.00     0.000 C 
BRANCH   2   3
ATOM      3  C   UNL     1     -30.241  15.998 -11.365  1.00  0.00     0.000 C 
BRANCH   3   4
ATOM      4  C   UNL     1     -29.378  17.258 -11.547  1.00  0.00     0.000 C 
BRANCH   4   5
ATOM      5  C   UNL     1     -28.945  17.489 -13.003  1.00  0.00     0.000 C 
BRANCH   5   6
ATOM      6  C   UNL     1     -29.629  16.522 -13.986  1.00  0.00     0.000 C 
BRANCH   6   7
ATOM      7  C   UNL     1     -29.117  15.070 -13.940  1.00  0.00     0.000 C 
BRANCH   7   8
ATOM      8  C   UNL     1     -28.436  14.635 -15.249  1.00  0.00     0.000 C 
BRANCH   8   9
ATOM      9  C   UNL     1     -27.726  13.272 -15.112  1.00  0.00     0.000 C 
BRANCH   9  10
ATOM     10  C   UNL     1     -26.251  13.386 -14.691  1.00  0.00     0.000 C 
BRANCH  10  11
ATOM     11  C   UNL     1     -25.284  12.840 -15.749  1.00  0.00     0.000 C 
BRANCH  11  12
ATOM     12  C   UNL     1     -24.105  12.111 -15.096  1.00  0.00     0.000 C 
BRANCH  12  13
ATOM     13  C   UNL     1     -24.242  10.590 -15.259  1.00  0.00     0.006 C 
BRANCH  13  14
ATOM     14  C   UNL     1     -23.445  10.059 -16.458  1.00  0.00     0.053 C 
BRANCH  14  15
ATOM     15  C   UNL     1     -22.072   9.602 -16.066  1.00  0.00     0.041 C 
ATOM     16  O   UNL     1     -21.229   9.287 -16.950  1.00  0.00    -0.550 OA
ATOM     17  O   UNL     1     -21.712   9.550 -14.727  1.00  0.00    -0.550 OA
ENDBRANCH  14  15
ENDBRANCH  13  14
ENDBRANCH  12  13
ENDBRANCH  11  12
ENDBRANCH  10  11
ENDBRANCH   9  10
ENDBRANCH   8   9
ENDBRANCH   7   8
ENDBRANCH   6   7
ENDBRANCH   5   6
ENDBRANCH   4   5
ENDBRANCH   3   4
ENDBRANCH   2   3
ENDBRANCH   1   2
BRANCH   1  18
ATOM     18  C   UNL     1     -33.361  17.965 -10.002  1.00  0.00     0.000 C 
BRANCH  18  19
ATOM     19  C   UNL     1     -33.784  19.421 -10.265  1.00  0.00     0.000 C 
BRANCH  19  20
ATOM     20  C   UNL     1     -32.611  20.412 -10.138  1.00  0.00     0.000 C 
BRANCH  20  21
ATOM     21  C   UNL     1     -33.017  21.887  -9.946  1.00  0.00     0.000 C 
BRANCH  21  22
ATOM     22  C   UNL     1     -31.892  22.908 -10.194  1.00  0.00     0.000 C 
BRANCH  22  23
ATOM     23  C   UNL     1     -30.903  22.451 -11.275  1.00  0.00     0.000 C 
BRANCH  23  24
ATOM     24  C   UNL     1     -30.398  21.028 -10.994  1.00  0.00    -0.000 C 
BRANCH  24  25
ATOM     25  C   UNL     1     -28.904  20.993 -10.604  1.00  0.00    -0.000 C 
BRANCH  25  26
ATOM     26  C   UNL     1     -28.653  21.076  -9.087  1.00  0.00    -0.000 C 
BRANCH  26  27
ATOM     27  C   UNL     1     -27.318  21.723  -8.675  1.00  0.00    -0.000 C 
BRANCH  27  28
ATOM     28  C   UNL     1     -26.497  20.948  -7.620  1.00  0.00    -0.000 C 
BRANCH  28  29
ATOM     29  C   UNL     1     -24.995  21.294  -7.590  1.00  0.00    -0.000 C 
BRANCH  29  30
ATOM     30  C   UNL     1     -24.266  20.762  -6.336  1.00  0.00    -0.000 C 
BRANCH  30  31
ATOM     31  C   UNL     1     -23.576  21.868  -5.522  1.00  0.00    -0.003 C 
ATOM     32  C   UNL     1     -22.772  22.831  -6.393  1.00  0.00     0.004 C 
ENDBRANCH  30  31
ENDBRANCH  29  30
ENDBRANCH  28  29
ENDBRANCH  27  28
ENDBRANCH  26  27
ENDBRANCH  25  26
ENDBRANCH  24  25
ENDBRANCH  23  24
ENDBRANCH  22  23
ENDBRANCH  21  22
ENDBRANCH  20  21
ENDBRANCH  19  20
ENDBRANCH  18  19
ENDBRANCH   1  18
TORSDOF 28
ENDMDL
MODEL 4
REMARK VINA RESULT:    22.794      6.423      8.269
REMARK INTER + INTRA:          58.249
REMARK INTER:                  58.492
REMARK INTRA:                  -0.244
REMARK UNBOUND:                -1.856
REMARK SMILES CCCCCCCCCCCCCCCCCCCCCCCCCCCCCC(=O)[O-]
REMARK SMILES IDX 16 1 17 2 18 3 19 4 20 5 21 6 22 7 23 8 24 9 25 10 26 11
REMARK SMILES IDX 27 12 28 13 29 14 30 15 31 16 32 17 15 18 14 19 13 20 12 21
REMARK SMILES IDX 11 22 10 23 9 24 8 25 7 26 6 27 5 28 4 29 3 30 2 31 1 32
REMARK H PARENT
REMARK Flexibility Score: inf
ROOT
ATOM      1  C   UNL     1     -31.957  17.325 -10.348  1.00  0.00     0.000 C 
ENDROOT
BRANCH   1   2
ATOM      2  C   UNL     1     -30.576  17.994 -10.467  1.00  0.00     0.000 C 
BRANCH   2   3
ATOM      3  C   UNL     1     -29.731  17.428 -11.624  1.00  0.00     0.000 C 
BRANCH   3   4
ATOM      4  C   UNL     1     -29.866  15.914 -11.858  1.00  0.00     0.000 C 
BRANCH   4   5
ATOM      5  C   UNL     1     -31.120  15.312 -11.205  1.00  0.00     0.000 C 
BRANCH   5   6
ATOM      6  C   UNL     1     -31.090  13.774 -11.166  1.00  0.00     0.000 C 
BRANCH   6   7
ATOM      7  C   UNL     1     -32.468  13.090 -11.237  1.00  0.00     0.000 C 
BRANCH   7   8
ATOM      8  C   UNL     1     -32.376  11.554 -11.192  1.00  0.00     0.000 C 
BRANCH   8   9
ATOM      9  C   UNL     1     -32.779  10.985  -9.816  1.00  0.00     0.000 C 
BRANCH   9  10
ATOM     10  C   UNL     1     -31.585  10.737  -8.878  1.00  0.00     0.000 C 
BRANCH  10  11
ATOM     11  C   UNL     1     -31.754   9.480  -8.016  1.00  0.00     0.000 C 
BRANCH  11  12
ATOM     12  C   UNL     1     -31.794   8.217  -8.884  1.00  0.00     0.000 C 
BRANCH  12  13
ATOM     13  C   UNL     1     -32.247   7.001  -8.063  1.00  0.00     0.006 C 
BRANCH  13  14
ATOM     14  C   UNL     1     -31.634   5.691  -8.575  1.00  0.00     0.053 C 
BRANCH  14  15
ATOM     15  C   UNL     1     -30.442   5.272  -7.768  1.00  0.00     0.041 C 
ATOM     16  O   UNL     1     -29.392   4.875  -8.343  1.00  0.00    -0.550 OA
ATOM     17  O   UNL     1     -30.478   5.346  -6.383  1.00  0.00    -0.550 OA
ENDBRANCH  14  15
ENDBRANCH  13  14
ENDBRANCH  12  13
ENDBRANCH  11  12
ENDBRANCH  10  11
ENDBRANCH   9  10
ENDBRANCH   8   9
ENDBRANCH   7   8
ENDBRANCH   6   7
ENDBRANCH   5   6
ENDBRANCH   4   5
ENDBRANCH   3   4
ENDBRANCH   2   3
ENDBRANCH   1   2
BRANCH   1  18
ATOM     18  C   UNL     1     -33.099  18.353 -10.294  1.00  0.00     0.000 C 
BRANCH  18  19
ATOM     19  C   UNL     1     -32.637  19.767 -10.686  1.00  0.00     0.000 C 
BRANCH  19  20
ATOM     20  C   UNL     1     -33.380  20.871  -9.909  1.00  0.00     0.000 C 
BRANCH  20  21
ATOM     21  C   UNL     1     -32.843  22.300 -10.125  1.00  0.00     0.000 C 
BRANCH  21  22
ATOM     22  C   UNL     1     -31.737  22.425 -11.187  1.00  0.00     0.000 C 
BRANCH  22  23
ATOM     23  C   UNL     1     -30.334  22.542 -10.574  1.00  0.00     0.000 C 
BRANCH  23  24
ATOM     24  C   UNL     1     -29.491  21.297 -10.888  1.00  0.00    -0.000 C 
BRANCH  24  25
ATOM     25  C   UNL     1     -28.857  20.675  -9.626  1.00  0.00    -0.000 C 
BRANCH  25  26
ATOM     26  C   UNL     1     -28.339  21.712  -8.611  1.00  0.00    -0.000 C 
BRANCH  26  27
ATOM     27  C   UNL     1     -27.064  21.308  -7.848  1.00  0.00    -0.000 C 
BRANCH  27  28
ATOM     28  C   UNL     1     -25.730  21.656  -8.545  1.00  0.00    -0.000 C 
BRANCH  28  29
ATOM     29  C   UNL     1     -24.481  21.026  -7.897  1.00  0.00    -0.000 C 
BRANCH  29  30
ATOM     30  C   UNL     1     -24.576  20.911  -6.360  1.00  0.00    -0.000 C 
BRANCH  30  31
ATOM     31  C   UNL     1     -23.602  21.841  -5.620  1.00  0.00    -0.003 C 
ATOM     32  C   UNL     1     -22.785  22.716  -6.569  1.00  0.00     0.004 C 
ENDBRANCH  30  31
ENDBRANCH  29  30
ENDBRANCH  28  29
ENDBRANCH  27  28
ENDBRANCH  26  27
ENDBRANCH  25  26
ENDBRANCH  24  25
ENDBRANCH  23  24
ENDBRANCH  22  23
ENDBRANCH  21  22
ENDBRANCH  20  21
ENDBRANCH  19  20
ENDBRANCH  18  19
ENDBRANCH   1  18
TORSDOF 28
ENDMDL
MODEL 5
REMARK VINA RESULT:    22.829      5.506      6.786
REMARK INTER + INTRA:          58.342
REMARK INTER:                  60.218
REMARK INTRA:                  -1.876
REMARK UNBOUND:                -1.856
REMARK SMILES CCCCCCCCCCCCCCCCCCCCCCCCCCCCCC(=O)[O-]
REMARK SMILES IDX 16 1 17 2 18 3 19 4 20 5 21 6 22 7 23 8 24 9 25 10 26 11
REMARK SMILES IDX 27 12 28 13 29 14 30 15 31 16 32 17 15 18 14 19 13 20 12 21
REMARK SMILES IDX 11 22 10 23 9 24 8 25 7 26 6 27 5 28 4 29 3 30 2 31 1 32
REMARK H PARENT
REMARK Flexibility Score: inf
ROOT
ATOM      1  C   UNL     1     -30.501  17.574 -10.573  1.00  0.00     0.000 C 
ENDROOT
BRANCH   1   2
ATOM      2  C   UNL     1     -29.635  16.794 -11.578  1.00  0.00     0.000 C 
BRANCH   2   3
ATOM      3  C   UNL     1     -29.365  17.579 -12.876  1.00  0.00     0.000 C 
BRANCH   3   4
ATOM      4  C   UNL     1     -28.828  16.745 -14.051  1.00  0.00     0.000 C 
BRANCH   4   5
ATOM      5  C   UNL     1     -29.292  15.281 -14.012  1.00  0.00     0.000 C 
BRANCH   5   6
ATOM      6  C   UNL     1     -28.720  14.445 -15.171  1.00  0.00     0.000 C 
BRANCH   6   7
ATOM      7  C   UNL     1     -27.780  13.300 -14.751  1.00  0.00     0.000 C 
BRANCH   7   8
ATOM      8  C   UNL     1     -26.297  13.617 -15.015  1.00  0.00     0.000 C 
BRANCH   8   9
ATOM      9  C   UNL     1     -25.373  12.438 -14.644  1.00  0.00     0.000 C 
BRANCH   9  10
ATOM     10  C   UNL     1     -24.603  11.860 -15.843  1.00  0.00     0.000 C 
BRANCH  10  11
ATOM     11  C   UNL     1     -23.353  11.074 -15.426  1.00  0.00     0.000 C 
BRANCH  11  12
ATOM     12  C   UNL     1     -22.864  10.170 -16.563  1.00  0.00     0.000 C 
BRANCH  12  13
ATOM     13  C   UNL     1     -22.930  10.900 -17.912  1.00  0.00     0.006 C 
BRANCH  13  14
ATOM     14  C   UNL     1     -23.788  10.150 -18.940  1.00  0.00     0.053 C 
BRANCH  14  15
ATOM     15  C   UNL     1     -23.848   8.678 -18.659  1.00  0.00     0.041 C 
ATOM     16  O   UNL     1     -24.898   8.161 -18.191  1.00  0.00    -0.550 OA
ATOM     17  O   UNL     1     -22.754   7.872 -18.941  1.00  0.00    -0.550 OA
ENDBRANCH  14  15
ENDBRANCH  13  14
ENDBRANCH  12  13
ENDBRANCH  11  12
ENDBRANCH  10  11
ENDBRANCH   9  10
ENDBRANCH   8   9
ENDBRANCH   7   8
ENDBRANCH   6   7
ENDBRANCH   5   6
ENDBRANCH   4   5
ENDBRANCH   3   4
ENDBRANCH   2   3
ENDBRANCH   1   2
BRANCH   1  18
ATOM     18  C   UNL     1     -31.889  16.940 -10.386  1.00  0.00     0.000 C 
BRANCH  18  19
ATOM     19  C   UNL     1     -33.014  17.988 -10.344  1.00  0.00     0.000 C 
BRANCH  19  20
ATOM     20  C   UNL     1     -32.515  19.409 -10.667  1.00  0.00     0.000 C 
BRANCH  20  21
ATOM     21  C   UNL     1     -33.280  20.549  -9.965  1.00  0.00     0.000 C 
BRANCH  21  22
ATOM     22  C   UNL     1     -32.906  21.967 -10.432  1.00  0.00     0.000 C 
BRANCH  22  23
ATOM     23  C   UNL     1     -31.505  22.394  -9.971  1.00  0.00     0.000 C 
BRANCH  23  24
ATOM     24  C   UNL     1     -30.524  22.433 -11.152  1.00  0.00    -0.000 C 
BRANCH  24  25
ATOM     25  C   UNL     1     -29.588  21.206 -11.189  1.00  0.00    -0.000 C 
BRANCH  25  26
ATOM     26  C   UNL     1     -29.054  20.786  -9.807  1.00  0.00    -0.000 C 
BRANCH  26  27
ATOM     27  C   UNL     1     -27.805  21.546  -9.324  1.00  0.00    -0.000 C 
BRANCH  27  28
ATOM     28  C   UNL     1     -27.400  21.300  -7.854  1.00  0.00    -0.000 C 
BRANCH  28  29
ATOM     29  C   UNL     1     -26.010  20.661  -7.666  1.00  0.00    -0.000 C 
BRANCH  29  30
ATOM     30  C   UNL     1     -25.128  21.397  -6.634  1.00  0.00    -0.000 C 
BRANCH  30  31
ATOM     31  C   UNL     1     -23.674  21.580  -7.099  1.00  0.00    -0.003 C 
ATOM     32  C   UNL     1     -22.814  22.318  -6.075  1.00  0.00     0.004 C 
ENDBRANCH  30  31
ENDBRANCH  29  30
ENDBRANCH  28  29
ENDBRANCH  27  28
ENDBRANCH  26  27
ENDBRANCH  25  26
ENDBRANCH  24  25
ENDBRANCH  23  24
ENDBRANCH  22  23
ENDBRANCH  21  22
ENDBRANCH  20  21
ENDBRANCH  19  20
ENDBRANCH  18  19
ENDBRANCH   1  18
TORSDOF 28
ENDMDL
MODEL 6
REMARK VINA RESULT:    22.969      4.976      6.366
REMARK INTER + INTRA:          58.711
REMARK INTER:                  58.343
REMARK INTRA:                   0.369
REMARK UNBOUND:                -1.856
REMARK SMILES CCCCCCCCCCCCCCCCCCCCCCCCCCCCCC(=O)[O-]
REMARK SMILES IDX 16 1 17 2 18 3 19 4 20 5 21 6 22 7 23 8 24 9 25 10 26 11
REMARK SMILES IDX 27 12 28 13 29 14 30 15 31 16 32 17 15 18 14 19 13 20 12 21
REMARK SMILES IDX 11 22 10 23 9 24 8 25 7 26 6 27 5 28 4 29 3 30 2 31 1 32
REMARK H PARENT
REMARK Flexibility Score: inf
ROOT
ATOM      1  C   UNL     1     -31.484  16.107 -10.950  1.00  0.00     0.000 C 
ENDROOT
BRANCH   1   2
ATOM      2  C   UNL     1     -29.988  16.464 -10.993  1.00  0.00     0.000 C 
BRANCH   2   3
ATOM      3  C   UNL     1     -29.709  17.799 -11.709  1.00  0.00     0.000 C 
BRANCH   3   4
ATOM      4  C   UNL     1     -28.865  17.695 -12.991  1.00  0.00     0.000 C 
BRANCH   4   5
ATOM      5  C   UNL     1     -29.511  16.809 -14.067  1.00  0.00     0.000 C 
BRANCH   5   6
ATOM      6  C   UNL     1     -29.224  15.312 -13.855  1.00  0.00     0.000 C 
BRANCH   6   7
ATOM      7  C   UNL     1     -28.326  14.660 -14.923  1.00  0.00     0.000 C 
BRANCH   7   8
ATOM      8  C   UNL     1     -27.915  13.221 -14.562  1.00  0.00     0.000 C 
BRANCH   8   9
ATOM      9  C   UNL     1     -26.790  12.689 -15.473  1.00  0.00     0.000 C 
BRANCH   9  10
ATOM     10  C   UNL     1     -25.386  12.827 -14.861  1.00  0.00     0.000 C 
BRANCH  10  11
ATOM     11  C   UNL     1     -24.323  12.022 -15.620  1.00  0.00     0.000 C 
BRANCH  11  12
ATOM     12  C   UNL     1     -24.601  10.518 -15.533  1.00  0.00     0.000 C 
BRANCH  12  13
ATOM     13  C   UNL     1     -23.296   9.713 -15.605  1.00  0.00     0.006 C 
BRANCH  13  14
ATOM     14  C   UNL     1     -22.592   9.864 -16.960  1.00  0.00     0.053 C 
BRANCH  14  15
ATOM     15  C   UNL     1     -23.536   9.684 -18.110  1.00  0.00     0.041 C 
ATOM     16  O   UNL     1     -24.096   8.571 -18.306  1.00  0.00    -0.550 OA
ATOM     17  O   UNL     1     -23.822  10.751 -18.950  1.00  0.00    -0.550 OA
ENDBRANCH  14  15
ENDBRANCH  13  14
ENDBRANCH  12  13
ENDBRANCH  11  12
ENDBRANCH  10  11
ENDBRANCH   9  10
ENDBRANCH   8   9
ENDBRANCH   7   8
ENDBRANCH   6   7
ENDBRANCH   5   6
ENDBRANCH   4   5
ENDBRANCH   3   4
ENDBRANCH   2   3
ENDBRANCH   1   2
BRANCH   1  18
ATOM     18  C   UNL     1     -32.273  17.022  -9.999  1.00  0.00     0.000 C 
BRANCH  18  19
ATOM     19  C   UNL     1     -32.966  18.181 -10.736  1.00  0.00     0.000 C 
BRANCH  19  20
ATOM     20  C   UNL     1     -32.414  19.560 -10.327  1.00  0.00     0.000 C 
BRANCH  20  21
ATOM     21  C   UNL     1     -33.462  20.687 -10.241  1.00  0.00     0.000 C 
BRANCH  21  22
ATOM     22  C   UNL     1     -33.002  21.945  -9.483  1.00  0.00     0.000 C 
BRANCH  22  23
ATOM     23  C   UNL     1     -31.944  22.749 -10.253  1.00  0.00     0.000 C 
BRANCH  23  24
ATOM     24  C   UNL     1     -31.114  21.834 -11.166  1.00  0.00    -0.000 C 
BRANCH  24  25
ATOM     25  C   UNL     1     -30.042  21.037 -10.392  1.00  0.00    -0.000 C 
BRANCH  25  26
ATOM     26  C   UNL     1     -28.598  21.487 -10.684  1.00  0.00    -0.000 C 
BRANCH  26  27
ATOM     27  C   UNL     1     -27.716  21.721  -9.444  1.00  0.00    -0.000 C 
BRANCH  27  28
ATOM     28  C   UNL     1     -26.286  22.233  -9.727  1.00  0.00    -0.000 C 
BRANCH  28  29
ATOM     29  C   UNL     1     -25.415  22.439  -8.472  1.00  0.00    -0.000 C 
BRANCH  29  30
ATOM     30  C   UNL     1     -24.880  21.121  -7.871  1.00  0.00    -0.000 C 
BRANCH  30  31
ATOM     31  C   UNL     1     -24.258  21.299  -6.477  1.00  0.00    -0.003 C 
ATOM     32  C   UNL     1     -22.923  22.039  -6.515  1.00  0.00     0.004 C 
ENDBRANCH  30  31
ENDBRANCH  29  30
ENDBRANCH  28  29
ENDBRANCH  27  28
ENDBRANCH  26  27
ENDBRANCH  25  26
ENDBRANCH  24  25
ENDBRANCH  23  24
ENDBRANCH  22  23
ENDBRANCH  21  22
ENDBRANCH  20  21
ENDBRANCH  19  20
ENDBRANCH  18  19
ENDBRANCH   1  18
TORSDOF 28
ENDMDL
MODEL 7
REMARK VINA RESULT:    23.261      1.615      3.721
REMARK INTER + INTRA:          59.481
REMARK INTER:                  60.685
REMARK INTRA:                  -1.204
REMARK UNBOUND:                -1.856
REMARK SMILES CCCCCCCCCCCCCCCCCCCCCCCCCCCCCC(=O)[O-]
REMARK SMILES IDX 16 1 17 2 18 3 19 4 20 5 21 6 22 7 23 8 24 9 25 10 26 11
REMARK SMILES IDX 27 12 28 13 29 14 30 15 31 16 32 17 15 18 14 19 13 20 12 21
REMARK SMILES IDX 11 22 10 23 9 24 8 25 7 26 6 27 5 28 4 29 3 30 2 31 1 32
REMARK H PARENT
REMARK Flexibility Score: inf
ROOT
ATOM      1  C   UNL     1     -30.014  22.303 -11.316  1.00  0.00     0.000 C 
ENDROOT
BRANCH   1   2
ATOM      2  C   UNL     1     -30.972  21.114 -11.124  1.00  0.00     0.000 C 
BRANCH   2   3
ATOM      3  C   UNL     1     -31.966  21.324  -9.966  1.00  0.00     0.000 C 
BRANCH   3   4
ATOM      4  C   UNL     1     -33.364  20.720 -10.181  1.00  0.00     0.000 C 
BRANCH   4   5
ATOM      5  C   UNL     1     -33.351  19.187 -10.279  1.00  0.00     0.000 C 
BRANCH   5   6
ATOM      6  C   UNL     1     -31.935  18.617 -10.477  1.00  0.00     0.000 C 
BRANCH   6   7
ATOM      7  C   UNL     1     -31.819  17.088 -10.331  1.00  0.00     0.000 C 
BRANCH   7   8
ATOM      8  C   UNL     1     -30.545  16.521 -10.982  1.00  0.00     0.000 C 
BRANCH   8   9
ATOM      9  C   UNL     1     -29.623  17.632 -11.527  1.00  0.00     0.000 C 
BRANCH   9  10
ATOM     10  C   UNL     1     -29.226  17.435 -12.999  1.00  0.00     0.000 C 
BRANCH  10  11
ATOM     11  C   UNL     1     -29.658  16.073 -13.557  1.00  0.00     0.000 C 
BRANCH  11  12
ATOM     12  C   UNL     1     -29.653  16.077 -15.090  1.00  0.00     0.000 C 
BRANCH  12  13
ATOM     13  C   UNL     1     -29.856  17.497 -15.636  1.00  0.00     0.006 C 
BRANCH  13  14
ATOM     14  C   UNL     1     -30.445  17.498 -17.053  1.00  0.00     0.053 C 
BRANCH  14  15
ATOM     15  C   UNL     1     -30.849  18.872 -17.498  1.00  0.00     0.041 C 
ATOM     16  O   UNL     1     -29.973  19.716 -17.829  1.00  0.00    -0.550 OA
ATOM     17  O   UNL     1     -32.192  19.211 -17.573  1.00  0.00    -0.550 OA
ENDBRANCH  14  15
ENDBRANCH  13  14
ENDBRANCH  12  13
ENDBRANCH  11  12
ENDBRANCH  10  11
ENDBRANCH   9  10
ENDBRANCH   8   9
ENDBRANCH   7   8
ENDBRANCH   6   7
ENDBRANCH   5   6
ENDBRANCH   4   5
ENDBRANCH   3   4
ENDBRANCH   2   3
ENDBRANCH   1   2
BRANCH   1  18
ATOM     18  C   UNL     1     -29.250  22.227 -12.648  1.00  0.00     0.000 C 
BRANCH  18  19
ATOM     19  C   UNL     1     -27.807  21.723 -12.470  1.00  0.00     0.000 C 
BRANCH  19  20
ATOM     20  C   UNL     1     -26.840  22.838 -12.027  1.00  0.00     0.000 C 
BRANCH  20  21
ATOM     21  C   UNL     1     -25.785  22.415 -10.984  1.00  0.00     0.000 C 
BRANCH  21  22
ATOM     22  C   UNL     1     -26.124  22.787  -9.530  1.00  0.00     0.000 C 
BRANCH  22  23
ATOM     23  C   UNL     1     -27.206  21.882  -8.922  1.00  0.00     0.000 C 
BRANCH  23  24
ATOM     24  C   UNL     1     -26.607  20.942  -7.865  1.00  0.00    -0.000 C 
BRANCH  24  25
ATOM     25  C   UNL     1     -25.068  21.034  -7.791  1.00  0.00    -0.000 C 
BRANCH  25  26
ATOM     26  C   UNL     1     -24.540  21.615  -6.466  1.00  0.00    -0.000 C 
BRANCH  26  27
ATOM     27  C   UNL     1     -23.183  22.338  -6.557  1.00  0.00    -0.000 C 
BRANCH  27  28
ATOM     28  C   UNL     1     -22.289  22.243  -5.301  1.00  0.00    -0.000 C 
BRANCH  28  29
ATOM     29  C   UNL     1     -21.881  20.809  -4.907  1.00  0.00    -0.000 C 
BRANCH  29  30
ATOM     30  C   UNL     1     -23.052  19.965  -4.358  1.00  0.00    -0.000 C 
BRANCH  30  31
ATOM     31  C   UNL     1     -22.593  18.679  -3.653  1.00  0.00    -0.003 C 
ATOM     32  C   UNL     1     -23.641  17.569  -3.707  1.00  0.00     0.004 C 
ENDBRANCH  30  31
ENDBRANCH  29  30
ENDBRANCH  28  29
ENDBRANCH  27  28
ENDBRANCH  26  27
ENDBRANCH  25  26
ENDBRANCH  24  25
ENDBRANCH  23  24
ENDBRANCH  22  23
ENDBRANCH  21  22
ENDBRANCH  20  21
ENDBRANCH  19  20
ENDBRANCH  18  19
ENDBRANCH   1  18
TORSDOF 28
ENDMDL
MODEL 8
REMARK VINA RESULT:    23.292      3.151      8.641
REMARK INTER + INTRA:          59.564
REMARK INTER:                  57.269
REMARK INTRA:                   2.294
REMARK UNBOUND:                -1.856
REMARK SMILES CCCCCCCCCCCCCCCCCCCCCCCCCCCCCC(=O)[O-]
REMARK SMILES IDX 16 1 17 2 18 3 19 4 20 5 21 6 22 7 23 8 24 9 25 10 26 11
REMARK SMILES IDX 27 12 28 13 29 14 30 15 31 16 32 17 15 18 14 19 13 20 12 21
REMARK SMILES IDX 11 22 10 23 9 24 8 25 7 26 6 27 5 28 4 29 3 30 2 31 1 32
REMARK H PARENT
REMARK Flexibility Score: inf
ROOT
ATOM      1  C   UNL     1     -32.684  20.553 -10.530  1.00  0.00     0.000 C 
ENDROOT
BRANCH   1   2
ATOM      2  C   UNL     1     -33.437  21.653  -9.761  1.00  0.00     0.000 C 
BRANCH   2   3
ATOM      3  C   UNL     1     -32.836  23.056  -9.977  1.00  0.00     0.000 C 
BRANCH   3   4
ATOM      4  C   UNL     1     -31.307  23.098 -10.139  1.00  0.00     0.000 C 
BRANCH   4   5
ATOM      5  C   UNL     1     -30.781  22.086 -11.168  1.00  0.00     0.000 C 
BRANCH   5   6
ATOM      6  C   UNL     1     -29.494  22.561 -11.865  1.00  0.00     0.000 C 
BRANCH   6   7
ATOM      7  C   UNL     1     -28.662  21.450 -12.533  1.00  0.00     0.000 C 
BRANCH   7   8
ATOM      8  C   UNL     1     -27.149  21.728 -12.488  1.00  0.00     0.000 C 
BRANCH   8   9
ATOM      9  C   UNL     1     -26.827  23.112 -11.888  1.00  0.00     0.000 C 
BRANCH   9  10
ATOM     10  C   UNL     1     -25.562  23.125 -11.014  1.00  0.00     0.000 C 
BRANCH  10  11
ATOM     11  C   UNL     1     -25.862  22.904  -9.526  1.00  0.00     0.000 C 
BRANCH  11  12
ATOM     12  C   UNL     1     -24.814  21.990  -8.881  1.00  0.00     0.000 C 
BRANCH  12  13
ATOM     13  C   UNL     1     -25.435  21.158  -7.750  1.00  0.00     0.006 C 
BRANCH  13  14
ATOM     14  C   UNL     1     -24.640  21.268  -6.442  1.00  0.00     0.053 C 
BRANCH  14  15
ATOM     15  C   UNL     1     -23.349  22.008  -6.626  1.00  0.00     0.041 C 
ATOM     16  O   UNL     1     -23.251  22.908  -7.503  1.00  0.00    -0.550 OA
ATOM     17  O   UNL     1     -22.263  21.725  -5.810  1.00  0.00    -0.550 OA
ENDBRANCH  14  15
ENDBRANCH  13  14
ENDBRANCH  12  13
ENDBRANCH  11  12
ENDBRANCH  10  11
ENDBRANCH   9  10
ENDBRANCH   8   9
ENDBRANCH   7   8
ENDBRANCH   6   7
ENDBRANCH   5   6
ENDBRANCH   4   5
ENDBRANCH   3   4
ENDBRANCH   2   3
ENDBRANCH   1   2
BRANCH   1  18
ATOM     18  C   UNL     1     -33.154  19.143 -10.136  1.00  0.00     0.000 C 
BRANCH  18  19
ATOM     19  C   UNL     1     -32.266  18.038 -10.733  1.00  0.00     0.000 C 
BRANCH  19  20
ATOM     20  C   UNL     1     -32.577  16.646 -10.152  1.00  0.00     0.000 C 
BRANCH  20  21
ATOM     21  C   UNL     1     -31.734  15.490 -10.727  1.00  0.00     0.000 C 
BRANCH  21  22
ATOM     22  C   UNL     1     -30.333  15.891 -11.220  1.00  0.00     0.000 C 
BRANCH  22  23
ATOM     23  C   UNL     1     -29.887  17.263 -10.692  1.00  0.00     0.000 C 
BRANCH  23  24
ATOM     24  C   UNL     1     -29.706  18.263 -11.844  1.00  0.00    -0.000 C 
BRANCH  24  25
ATOM     25  C   UNL     1     -28.482  17.940 -12.726  1.00  0.00    -0.000 C 
BRANCH  25  26
ATOM     26  C   UNL     1     -28.829  17.675 -14.203  1.00  0.00    -0.000 C 
BRANCH  26  27
ATOM     27  C   UNL     1     -29.850  16.549 -14.449  1.00  0.00    -0.000 C 
BRANCH  27  28
ATOM     28  C   UNL     1     -30.528  16.553 -15.837  1.00  0.00    -0.000 C 
BRANCH  28  29
ATOM     29  C   UNL     1     -30.109  17.717 -16.756  1.00  0.00    -0.000 C 
BRANCH  29  30
ATOM     30  C   UNL     1     -31.301  18.420 -17.442  1.00  0.00    -0.000 C 
BRANCH  30  31
ATOM     31  C   UNL     1     -31.005  19.878 -17.828  1.00  0.00    -0.003 C 
ATOM     32  C   UNL     1     -29.513  20.206 -17.800  1.00  0.00     0.004 C 
ENDBRANCH  30  31
ENDBRANCH  29  30
ENDBRANCH  28  29
ENDBRANCH  27  28
ENDBRANCH  26  27
ENDBRANCH  25  26
ENDBRANCH  24  25
ENDBRANCH  23  24
ENDBRANCH  22  23
ENDBRANCH  21  22
ENDBRANCH  20  21
ENDBRANCH  19  20
ENDBRANCH  18  19
ENDBRANCH   1  18
TORSDOF 28
ENDMDL
MODEL 9
REMARK VINA RESULT:    23.996      6.852      8.729
REMARK INTER + INTRA:          61.418
REMARK INTER:                  61.622
REMARK INTRA:                  -0.204
REMARK UNBOUND:                -1.856
REMARK SMILES CCCCCCCCCCCCCCCCCCCCCCCCCCCCCC(=O)[O-]
REMARK SMILES IDX 16 1 17 2 18 3 19 4 20 5 21 6 22 7 23 8 24 9 25 10 26 11
REMARK SMILES IDX 27 12 28 13 29 14 30 15 31 16 32 17 15 18 14 19 13 20 12 21
REMARK SMILES IDX 11 22 10 23 9 24 8 25 7 26 6 27 5 28 4 29 3 30 2 31 1 32
REMARK H PARENT
REMARK Flexibility Score: inf
ROOT
ATOM      1  C   UNL     1     -30.598  17.697 -10.746  1.00  0.00     0.000 C 
ENDROOT
BRANCH   1   2
ATOM      2  C   UNL     1     -29.972  16.893 -11.899  1.00  0.00     0.000 C 
BRANCH   2   3
ATOM      3  C   UNL     1     -30.404  15.414 -11.904  1.00  0.00     0.000 C 
BRANCH   3   4
ATOM      4  C   UNL     1     -29.720  14.525 -10.852  1.00  0.00     0.000 C 
BRANCH   4   5
ATOM      5  C   UNL     1     -30.323  13.114 -10.770  1.00  0.00     0.000 C 
BRANCH   5   6
ATOM      6  C   UNL     1     -31.810  13.080 -11.165  1.00  0.00     0.000 C 
BRANCH   6   7
ATOM      7  C   UNL     1     -32.556  11.785 -10.794  1.00  0.00     0.000 C 
BRANCH   7   8
ATOM      8  C   UNL     1     -31.675  10.787 -10.021  1.00  0.00     0.000 C 
BRANCH   8   9
ATOM      9  C   UNL     1     -32.444  10.092  -8.879  1.00  0.00     0.000 C 
BRANCH   9  10
ATOM     10  C   UNL     1     -31.771   8.803  -8.378  1.00  0.00     0.000 C 
BRANCH  10  11
ATOM     11  C   UNL     1     -32.306   7.543  -9.069  1.00  0.00     0.000 C 
BRANCH  11  12
ATOM     12  C   UNL     1     -33.084   6.662  -8.085  1.00  0.00     0.000 C 
BRANCH  12  13
ATOM     13  C   UNL     1     -32.192   5.545  -7.525  1.00  0.00     0.006 C 
BRANCH  13  14
ATOM     14  C   UNL     1     -31.060   5.165  -8.489  1.00  0.00     0.053 C 
BRANCH  14  15
ATOM     15  C   UNL     1     -29.715   5.210  -7.829  1.00  0.00     0.041 C 
ATOM     16  O   UNL     1     -29.532   5.924  -6.806  1.00  0.00    -0.550 OA
ATOM     17  O   UNL     1     -28.671   4.441  -8.324  1.00  0.00    -0.550 OA
ENDBRANCH  14  15
ENDBRANCH  13  14
ENDBRANCH  12  13
ENDBRANCH  11  12
ENDBRANCH  10  11
ENDBRANCH   9  10
ENDBRANCH   8   9
ENDBRANCH   7   8
ENDBRANCH   6   7
ENDBRANCH   5   6
ENDBRANCH   4   5
ENDBRANCH   3   4
ENDBRANCH   2   3
ENDBRANCH   1   2
BRANCH   1  18
ATOM     18  C   UNL     1     -32.048  17.274 -10.461  1.00  0.00     0.000 C 
BRANCH  18  19
ATOM     19  C   UNL     1     -33.003  18.477 -10.355  1.00  0.00     0.000 C 
BRANCH  19  20
ATOM     20  C   UNL     1     -32.264  19.827 -10.405  1.00  0.00     0.000 C 
BRANCH  20  21
ATOM     21  C   UNL     1     -33.113  21.054 -10.016  1.00  0.00     0.000 C 
BRANCH  21  22
ATOM     22  C   UNL     1     -32.639  22.389 -10.617  1.00  0.00     0.000 C 
BRANCH  22  23
ATOM     23  C   UNL     1     -31.125  22.424 -10.869  1.00  0.00     0.000 C 
BRANCH  23  24
ATOM     24  C   UNL     1     -30.421  21.259 -10.156  1.00  0.00    -0.000 C 
BRANCH  24  25
ATOM     25  C   UNL     1     -29.044  20.931 -10.770  1.00  0.00    -0.000 C 
BRANCH  25  26
ATOM     26  C   UNL     1     -28.039  22.097 -10.709  1.00  0.00    -0.000 C 
BRANCH  26  27
ATOM     27  C   UNL     1     -27.070  22.071  -9.513  1.00  0.00    -0.000 C 
BRANCH  27  28
ATOM     28  C   UNL     1     -27.581  21.335  -8.254  1.00  0.00    -0.000 C 
BRANCH  28  29
ATOM     29  C   UNL     1     -26.474  20.767  -7.345  1.00  0.00    -0.000 C 
BRANCH  29  30
ATOM     30  C   UNL     1     -25.059  21.265  -7.714  1.00  0.00    -0.000 C 
BRANCH  30  31
ATOM     31  C   UNL     1     -24.080  21.241  -6.529  1.00  0.00    -0.003 C 
ATOM     32  C   UNL     1     -23.013  22.331  -6.622  1.00  0.00     0.004 C 
ENDBRANCH  30  31
ENDBRANCH  29  30
ENDBRANCH  28  29
ENDBRANCH  27  28
ENDBRANCH  26  27
ENDBRANCH  25  26
ENDBRANCH  24  25
ENDBRANCH  23  24
ENDBRANCH  22  23
ENDBRANCH  21  22
ENDBRANCH  20  21
ENDBRANCH  19  20
ENDBRANCH  18  19
ENDBRANCH   1  18
TORSDOF 28
ENDMDL
