MODEL 1
REMARK VINA RESULT:    -3.964      0.000      0.000
REMARK INTER + INTRA:          -9.568
REMARK INTER:                  -7.209
REMARK INTRA:                  -2.360
REMARK UNBOUND:                -2.360
REMARK SMILES CCCCCCCCCCCCCCCC(=O)[O-]
REMARK SMILES IDX 9 1 10 2 11 3 12 4 13 5 14 6 15 7 16 8 17 9 18 10 8 11 7 12
REMARK SMILES IDX 6 13 5 14 4 15 3 16 2 17 1 18
REMARK H PARENT
REMARK Flexibility Score: inf
ROOT
ATOM      1  C   UNL     1      35.777  76.460  10.564  1.00  0.00     0.000 C 
ENDROOT
BRANCH   1   2
ATOM      2  C   UNL     1      35.017  77.781  10.776  1.00  0.00     0.000 C 
BRANCH   2   3
ATOM      3  C   UNL     1      34.077  77.735  11.992  1.00  0.00     0.000 C 
BRANCH   3   4
ATOM      4  C   UNL     1      32.787  78.540  11.775  1.00  0.00     0.000 C 
BRANCH   4   5
ATOM      5  C   UNL     1      32.130  78.896  13.116  1.00  0.00     0.000 C 
BRANCH   5   6
ATOM      6  C   UNL     1      32.608  78.005  14.278  1.00  0.00     0.006 C 
BRANCH   6   7
ATOM      7  C   UNL     1      33.299  78.778  15.416  1.00  0.00     0.053 C 
BRANCH   7   8
ATOM      8  C   UNL     1      32.404  79.799  16.051  1.00  0.00     0.041 C 
ATOM      9  O   UNL     1      32.773  81.000  16.139  1.00  0.00    -0.550 OA
ATOM     10  O   UNL     1      31.149  79.430  16.517  1.00  0.00    -0.550 OA
ENDBRANCH   7   8
ENDBRANCH   6   7
ENDBRANCH   5   6
ENDBRANCH   4   5
ENDBRANCH   3   4
ENDBRANCH   2   3
ENDBRANCH   1   2
BRANCH   1  11
ATOM     11  C   UNL     1      35.548  75.863   9.165  1.00  0.00     0.000 C 
BRANCH  11  12
ATOM     12  C   UNL     1      34.569  76.697   8.320  1.00  0.00    -0.000 C 
BRANCH  12  13
ATOM     13  C   UNL     1      33.258  75.945   8.035  1.00  0.00    -0.000 C 
BRANCH  13  14
ATOM     14  C   UNL     1      32.024  76.681   8.586  1.00  0.00    -0.000 C 
BRANCH  14  15
ATOM     15  C   UNL     1      31.295  75.859   9.670  1.00  0.00    -0.000 C 
BRANCH  15  16
ATOM     16  C   UNL     1      32.096  74.641  10.162  1.00  0.00    -0.000 C 
BRANCH  16  17
ATOM     17  C   UNL     1      32.253  74.606  11.688  1.00  0.00    -0.003 C 
ATOM     18  C   UNL     1      33.600  74.013  12.089  1.00  0.00     0.004 C 
ENDBRANCH  16  17
ENDBRANCH  15  16
ENDBRANCH  14  15
ENDBRANCH  13  14
ENDBRANCH  12  13
ENDBRANCH  11  12
ENDBRANCH   1  11
TORSDOF 14
ENDMDL
MODEL 2
REMARK VINA RESULT:    -3.937      1.158      1.581
REMARK INTER + INTRA:          -9.520
REMARK INTER:                  -7.145
REMARK INTRA:                  -2.375
REMARK UNBOUND:                -2.360
REMARK SMILES CCCCCCCCCCCCCCCC(=O)[O-]
REMARK SMILES IDX 9 1 10 2 11 3 12 4 13 5 14 6 15 7 16 8 17 9 18 10 8 11 7 12
REMARK SMILES IDX 6 13 5 14 4 15 3 16 2 17 1 18
REMARK H PARENT
REMARK Flexibility Score: inf
ROOT
ATOM      1  C   UNL     1      35.692  75.584   9.809  1.00  0.00     0.000 C 
ENDROOT
BRANCH   1   2
ATOM      2  C   UNL     1      36.483  76.604  10.647  1.00  0.00     0.000 C 
BRANCH   2   3
ATOM      3  C   UNL     1      35.589  77.711  11.231  1.00  0.00     0.000 C 
BRANCH   3   4
ATOM      4  C   UNL     1      34.323  77.953  10.395  1.00  0.00     0.000 C 
BRANCH   4   5
ATOM      5  C   UNL     1      33.171  78.455  11.277  1.00  0.00     0.000 C 
BRANCH   5   6
ATOM      6  C   UNL     1      33.374  78.143  12.771  1.00  0.00     0.006 C 
BRANCH   6   7
ATOM      7  C   UNL     1      32.063  77.994  13.563  1.00  0.00     0.053 C 
BRANCH   7   8
ATOM      8  C   UNL     1      31.776  79.177  14.439  1.00  0.00     0.041 C 
ATOM      9  O   UNL     1      32.653  79.606  15.234  1.00  0.00    -0.550 OA
ATOM     10  O   UNL     1      30.550  79.824  14.355  1.00  0.00    -0.550 OA
ENDBRANCH   7   8
ENDBRANCH   6   7
ENDBRANCH   5   6
ENDBRANCH   4   5
ENDBRANCH   3   4
ENDBRANCH   2   3
ENDBRANCH   1   2
BRANCH   1  11
ATOM     11  C   UNL     1      36.196  75.493   8.359  1.00  0.00     0.000 C 
BRANCH  11  12
ATOM     12  C   UNL     1      35.050  75.510   7.332  1.00  0.00    -0.000 C 
BRANCH  12  13
ATOM     13  C   UNL     1      33.806  74.757   7.833  1.00  0.00    -0.000 C 
BRANCH  13  14
ATOM     14  C   UNL     1      32.546  75.640   7.845  1.00  0.00    -0.000 C 
BRANCH  14  15
ATOM     15  C   UNL     1      31.826  75.604   9.210  1.00  0.00    -0.000 C 
BRANCH  15  16
ATOM     16  C   UNL     1      32.207  74.390  10.075  1.00  0.00    -0.000 C 
BRANCH  16  17
ATOM     17  C   UNL     1      32.420  74.751  11.551  1.00  0.00    -0.003 C 
ATOM     18  C   UNL     1      33.603  73.989  12.139  1.00  0.00     0.004 C 
ENDBRANCH  16  17
ENDBRANCH  15  16
ENDBRANCH  14  15
ENDBRANCH  13  14
ENDBRANCH  12  13
ENDBRANCH  11  12
ENDBRANCH   1  11
TORSDOF 14
ENDMDL
MODEL 3
REMARK VINA RESULT:    -3.934      1.357      2.558
REMARK INTER + INTRA:          -9.513
REMARK INTER:                  -7.405
REMARK INTRA:                  -2.108
REMARK UNBOUND:                -2.360
REMARK SMILES CCCCCCCCCCCCCCCC(=O)[O-]
REMARK SMILES IDX 9 1 10 2 11 3 12 4 13 5 14 6 15 7 16 8 17 9 18 10 8 11 7 12
REMARK SMILES IDX 6 13 5 14 4 15 3 16 2 17 1 18
REMARK H PARENT
REMARK Flexibility Score: inf
ROOT
ATOM      1  C   UNL     1      31.631  78.182  10.212  1.00  0.00     0.000 C 
ENDROOT
BRANCH   1   2
ATOM      2  C   UNL     1      32.629  78.876  11.156  1.00  0.00     0.000 C 
BRANCH   2   3
ATOM      3  C   UNL     1      32.104  78.981  12.597  1.00  0.00     0.000 C 
BRANCH   3   4
ATOM      4  C   UNL     1      33.117  78.474  13.635  1.00  0.00     0.000 C 
BRANCH   4   5
ATOM      5  C   UNL     1      32.401  77.918  14.875  1.00  0.00     0.000 C 
BRANCH   5   6
ATOM      6  C   UNL     1      31.603  78.989  15.641  1.00  0.00     0.006 C 
BRANCH   6   7
ATOM      7  C   UNL     1      32.465  80.142  16.186  1.00  0.00     0.053 C 
BRANCH   7   8
ATOM      8  C   UNL     1      32.057  81.478  15.643  1.00  0.00     0.041 C 
ATOM      9  O   UNL     1      32.695  82.516  15.963  1.00  0.00    -0.550 OA
ATOM     10  O   UNL     1      30.990  81.573  14.759  1.00  0.00    -0.550 OA
ENDBRANCH   7   8
ENDBRANCH   6   7
ENDBRANCH   5   6
ENDBRANCH   4   5
ENDBRANCH   3   4
ENDBRANCH   2   3
ENDBRANCH   1   2
BRANCH   1  11
ATOM     11  C   UNL     1      32.273  77.760   8.880  1.00  0.00     0.000 C 
BRANCH  11  12
ATOM     12  C   UNL     1      33.811  77.774   8.933  1.00  0.00    -0.000 C 
BRANCH  12  13
ATOM     13  C   UNL     1      34.423  76.439   8.476  1.00  0.00    -0.000 C 
BRANCH  13  14
ATOM     14  C   UNL     1      35.373  75.834   9.524  1.00  0.00    -0.000 C 
BRANCH  14  15
ATOM     15  C   UNL     1      34.856  76.042  10.963  1.00  0.00    -0.000 C 
BRANCH  15  16
ATOM     16  C   UNL     1      34.132  74.814  11.541  1.00  0.00    -0.000 C 
BRANCH  16  17
ATOM     17  C   UNL     1      32.648  74.758  11.156  1.00  0.00    -0.003 C 
ATOM     18  C   UNL     1      31.759  75.162  12.328  1.00  0.00     0.004 C 
ENDBRANCH  16  17
ENDBRANCH  15  16
ENDBRANCH  14  15
ENDBRANCH  13  14
ENDBRANCH  12  13
ENDBRANCH  11  12
ENDBRANCH   1  11
TORSDOF 14
ENDMDL
MODEL 4
REMARK VINA RESULT:    -3.858      1.644      3.089
REMARK INTER + INTRA:          -9.375
REMARK INTER:                  -7.477
REMARK INTRA:                  -1.897
REMARK UNBOUND:                -2.360
REMARK SMILES CCCCCCCCCCCCCCCC(=O)[O-]
REMARK SMILES IDX 9 1 10 2 11 3 12 4 13 5 14 6 15 7 16 8 17 9 18 10 8 11 7 12
REMARK SMILES IDX 6 13 5 14 4 15 3 16 2 17 1 18
REMARK H PARENT
REMARK Flexibility Score: inf
ROOT
ATOM      1  C   UNL     1      33.083  78.142  12.677  1.00  0.00     0.000 C 
ENDROOT
BRANCH   1   2
ATOM      2  C   UNL     1      31.993  77.131  13.075  1.00  0.00     0.000 C 
BRANCH   2   3
ATOM      3  C   UNL     1      31.186  77.584  14.303  1.00  0.00     0.000 C 
BRANCH   3   4
ATOM      4  C   UNL     1      30.082  78.591  13.949  1.00  0.00     0.000 C 
BRANCH   4   5
ATOM      5  C   UNL     1      30.112  79.797  14.901  1.00  0.00     0.000 C 
BRANCH   5   6
ATOM      6  C   UNL     1      31.362  80.678  14.719  1.00  0.00     0.006 C 
BRANCH   6   7
ATOM      7  C   UNL     1      32.373  80.576  15.875  1.00  0.00     0.053 C 
BRANCH   7   8
ATOM      8  C   UNL     1      32.425  81.821  16.710  1.00  0.00     0.041 C 
ATOM      9  O   UNL     1      32.029  81.800  17.905  1.00  0.00    -0.550 OA
ATOM     10  O   UNL     1      32.938  82.995  16.177  1.00  0.00    -0.550 OA
ENDBRANCH   7   8
ENDBRANCH   6   7
ENDBRANCH   5   6
ENDBRANCH   4   5
ENDBRANCH   3   4
ENDBRANCH   2   3
ENDBRANCH   1   2
BRANCH   1  11
ATOM     11  C   UNL     1      32.741  78.904  11.386  1.00  0.00     0.000 C 
BRANCH  11  12
ATOM     12  C   UNL     1      31.707  78.165  10.519  1.00  0.00    -0.000 C 
BRANCH  12  13
ATOM     13  C   UNL     1      32.261  77.804   9.130  1.00  0.00    -0.000 C 
BRANCH  13  14
ATOM     14  C   UNL     1      33.793  77.926   9.057  1.00  0.00    -0.000 C 
BRANCH  14  15
ATOM     15  C   UNL     1      34.467  76.578   8.725  1.00  0.00    -0.000 C 
BRANCH  15  16
ATOM     16  C   UNL     1      33.944  75.404   9.572  1.00  0.00    -0.000 C 
BRANCH  16  17
ATOM     17  C   UNL     1      34.599  75.327  10.957  1.00  0.00    -0.003 C 
ATOM     18  C   UNL     1      33.864  74.343  11.861  1.00  0.00     0.004 C 
ENDBRANCH  16  17
ENDBRANCH  15  16
ENDBRANCH  14  15
ENDBRANCH  13  14
ENDBRANCH  12  13
ENDBRANCH  11  12
ENDBRANCH   1  11
TORSDOF 14
ENDMDL
MODEL 5
REMARK VINA RESULT:    -3.814      4.113      7.813
REMARK INTER + INTRA:          -9.295
REMARK INTER:                  -8.059
REMARK INTRA:                  -1.236
REMARK UNBOUND:                -2.360
REMARK SMILES CCCCCCCCCCCCCCCC(=O)[O-]
REMARK SMILES IDX 9 1 10 2 11 3 12 4 13 5 14 6 15 7 16 8 17 9 18 10 8 11 7 12
REMARK SMILES IDX 6 13 5 14 4 15 3 16 2 17 1 18
REMARK H PARENT
REMARK Flexibility Score: inf
ROOT
ATOM      1  C   UNL     1      32.301  78.031  13.602  1.00  0.00     0.000 C 
ENDROOT
BRANCH   1   2
ATOM      2  C   UNL     1      32.837  77.399  12.305  1.00  0.00     0.000 C 
BRANCH   2   3
ATOM      3  C   UNL     1      33.003  78.426  11.172  1.00  0.00     0.000 C 
BRANCH   3   4
ATOM      4  C   UNL     1      34.245  78.160  10.308  1.00  0.00     0.000 C 
BRANCH   4   5
ATOM      5  C   UNL     1      35.433  77.718  11.175  1.00  0.00     0.000 C 
BRANCH   5   6
ATOM      6  C   UNL     1      36.117  76.440  10.655  1.00  0.00     0.006 C 
BRANCH   6   7
ATOM      7  C   UNL     1      35.273  75.646   9.642  1.00  0.00     0.053 C 
BRANCH   7   8
ATOM      8  C   UNL     1      35.991  75.410   8.347  1.00  0.00     0.041 C 
ATOM      9  O   UNL     1      37.221  75.141   8.343  1.00  0.00    -0.550 OA
ATOM     10  O   UNL     1      35.294  75.458   7.147  1.00  0.00    -0.550 OA
ENDBRANCH   7   8
ENDBRANCH   6   7
ENDBRANCH   5   6
ENDBRANCH   4   5
ENDBRANCH   3   4
ENDBRANCH   2   3
ENDBRANCH   1   2
BRANCH   1  11
ATOM     11  C   UNL     1      33.424  78.545  14.517  1.00  0.00     0.000 C 
BRANCH  11  12
ATOM     12  C   UNL     1      32.887  79.309  15.741  1.00  0.00    -0.000 C 
BRANCH  12  13
ATOM     13  C   UNL     1      31.603  80.093  15.422  1.00  0.00    -0.000 C 
BRANCH  13  14
ATOM     14  C   UNL     1      31.782  81.612  15.587  1.00  0.00    -0.000 C 
BRANCH  14  15
ATOM     15  C   UNL     1      32.483  81.973  16.913  1.00  0.00    -0.000 C 
BRANCH  15  16
ATOM     16  C   UNL     1      31.549  81.926  18.136  1.00  0.00    -0.000 C 
BRANCH  16  17
ATOM     17  C   UNL     1      32.010  80.923  19.201  1.00  0.00    -0.003 C 
ATOM     18  C   UNL     1      31.265  79.598  19.069  1.00  0.00     0.004 C 
ENDBRANCH  16  17
ENDBRANCH  15  16
ENDBRANCH  14  15
ENDBRANCH  13  14
ENDBRANCH  12  13
ENDBRANCH  11  12
ENDBRANCH   1  11
TORSDOF 14
ENDMDL
MODEL 6
REMARK VINA RESULT:    -3.801      1.297      2.453
REMARK INTER + INTRA:          -9.272
REMARK INTER:                  -6.827
REMARK INTRA:                  -2.445
REMARK UNBOUND:                -2.360
REMARK SMILES CCCCCCCCCCCCCCCC(=O)[O-]
REMARK SMILES IDX 9 1 10 2 11 3 12 4 13 5 14 6 15 7 16 8 17 9 18 10 8 11 7 12
REMARK SMILES IDX 6 13 5 14 4 15 3 16 2 17 1 18
REMARK H PARENT
REMARK Flexibility Score: inf
ROOT
ATOM      1  C   UNL     1      32.412  76.901   8.479  1.00  0.00     0.000 C 
ENDROOT
BRANCH   1   2
ATOM      2  C   UNL     1      31.557  78.042   9.059  1.00  0.00     0.000 C 
BRANCH   2   3
ATOM      3  C   UNL     1      31.487  78.007  10.595  1.00  0.00     0.000 C 
BRANCH   3   4
ATOM      4  C   UNL     1      32.510  78.942  11.257  1.00  0.00     0.000 C 
BRANCH   4   5
ATOM      5  C   UNL     1      33.307  78.204  12.342  1.00  0.00     0.000 C 
BRANCH   5   6
ATOM      6  C   UNL     1      32.449  77.813  13.559  1.00  0.00     0.006 C 
BRANCH   6   7
ATOM      7  C   UNL     1      31.904  79.014  14.353  1.00  0.00     0.053 C 
BRANCH   7   8
ATOM      8  C   UNL     1      32.802  79.416  15.485  1.00  0.00     0.041 C 
ATOM      9  O   UNL     1      33.653  78.607  15.939  1.00  0.00    -0.550 OA
ATOM     10  O   UNL     1      32.719  80.696  16.017  1.00  0.00    -0.550 OA
ENDBRANCH   7   8
ENDBRANCH   6   7
ENDBRANCH   5   6
ENDBRANCH   4   5
ENDBRANCH   3   4
ENDBRANCH   2   3
ENDBRANCH   1   2
BRANCH   1  11
ATOM     11  C   UNL     1      33.864  77.329   8.209  1.00  0.00     0.000 C 
BRANCH  11  12
ATOM     12  C   UNL     1      34.865  76.674   9.177  1.00  0.00    -0.000 C 
BRANCH  12  13
ATOM     13  C   UNL     1      34.356  75.328   9.719  1.00  0.00    -0.000 C 
BRANCH  13  14
ATOM     14  C   UNL     1      34.635  75.153  11.222  1.00  0.00    -0.000 C 
BRANCH  14  15
ATOM     15  C   UNL     1      33.409  74.600  11.978  1.00  0.00    -0.000 C 
BRANCH  15  16
ATOM     16  C   UNL     1      32.296  74.080  11.051  1.00  0.00    -0.000 C 
BRANCH  16  17
ATOM     17  C   UNL     1      30.889  74.440  11.545  1.00  0.00    -0.003 C 
ATOM     18  C   UNL     1      30.822  74.432  13.069  1.00  0.00     0.004 C 
ENDBRANCH  16  17
ENDBRANCH  15  16
ENDBRANCH  14  15
ENDBRANCH  13  14
ENDBRANCH  12  13
ENDBRANCH  11  12
ENDBRANCH   1  11
TORSDOF 14
ENDMDL
MODEL 7
REMARK VINA RESULT:    -3.777      1.420      3.282
REMARK INTER + INTRA:          -9.228
REMARK INTER:                  -7.525
REMARK INTRA:                  -1.702
REMARK UNBOUND:                -2.360
REMARK SMILES CCCCCCCCCCCCCCCC(=O)[O-]
REMARK SMILES IDX 9 1 10 2 11 3 12 4 13 5 14 6 15 7 16 8 17 9 18 10 8 11 7 12
REMARK SMILES IDX 6 13 5 14 4 15 3 16 2 17 1 18
REMARK H PARENT
REMARK Flexibility Score: inf
ROOT
ATOM      1  C   UNL     1      32.027  78.448  10.330  1.00  0.00     0.000 C 
ENDROOT
BRANCH   1   2
ATOM      2  C   UNL     1      32.492  79.138  11.624  1.00  0.00     0.000 C 
BRANCH   2   3
ATOM      3  C   UNL     1      33.269  78.191  12.553  1.00  0.00     0.000 C 
BRANCH   3   4
ATOM      4  C   UNL     1      32.536  77.924  13.876  1.00  0.00     0.000 C 
BRANCH   4   5
ATOM      5  C   UNL     1      33.219  78.658  15.040  1.00  0.00     0.000 C 
BRANCH   5   6
ATOM      6  C   UNL     1      32.228  79.434  15.927  1.00  0.00     0.006 C 
BRANCH   6   7
ATOM      7  C   UNL     1      31.983  80.884  15.470  1.00  0.00     0.053 C 
BRANCH   7   8
ATOM      8  C   UNL     1      32.436  81.895  16.481  1.00  0.00     0.041 C 
ATOM      9  O   UNL     1      32.807  83.040  16.112  1.00  0.00    -0.550 OA
ATOM     10  O   UNL     1      32.419  81.581  17.834  1.00  0.00    -0.550 OA
ENDBRANCH   7   8
ENDBRANCH   6   7
ENDBRANCH   5   6
ENDBRANCH   4   5
ENDBRANCH   3   4
ENDBRANCH   2   3
ENDBRANCH   1   2
BRANCH   1  11
ATOM     11  C   UNL     1      30.681  77.724  10.497  1.00  0.00     0.000 C 
BRANCH  11  12
ATOM     12  C   UNL     1      30.807  76.198  10.340  1.00  0.00    -0.000 C 
BRANCH  12  13
ATOM     13  C   UNL     1      32.220  75.770   9.909  1.00  0.00    -0.000 C 
BRANCH  13  14
ATOM     14  C   UNL     1      32.860  74.773  10.891  1.00  0.00    -0.000 C 
BRANCH  14  15
ATOM     15  C   UNL     1      34.336  75.115  11.184  1.00  0.00    -0.000 C 
BRANCH  15  16
ATOM     16  C   UNL     1      34.981  76.022  10.122  1.00  0.00    -0.000 C 
BRANCH  16  17
ATOM     17  C   UNL     1      36.448  76.351  10.427  1.00  0.00    -0.003 C 
ATOM     18  C   UNL     1      36.560  77.564  11.346  1.00  0.00     0.004 C 
ENDBRANCH  16  17
ENDBRANCH  15  16
ENDBRANCH  14  15
ENDBRANCH  13  14
ENDBRANCH  12  13
ENDBRANCH  11  12
ENDBRANCH   1  11
TORSDOF 14
ENDMDL
MODEL 8
REMARK VINA RESULT:    -3.765      1.286      3.319
REMARK INTER + INTRA:          -9.205
REMARK INTER:                  -6.663
REMARK INTRA:                  -2.543
REMARK UNBOUND:                -2.360
REMARK SMILES CCCCCCCCCCCCCCCC(=O)[O-]
REMARK SMILES IDX 9 1 10 2 11 3 12 4 13 5 14 6 15 7 16 8 17 9 18 10 8 11 7 12
REMARK SMILES IDX 6 13 5 14 4 15 3 16 2 17 1 18
REMARK H PARENT
REMARK Flexibility Score: inf
ROOT
ATOM      1  C   UNL     1      31.368  74.776  11.352  1.00  0.00     0.000 C 
ENDROOT
BRANCH   1   2
ATOM      2  C   UNL     1      31.371  75.796  12.504  1.00  0.00     0.000 C 
BRANCH   2   3
ATOM      3  C   UNL     1      30.958  77.205  12.047  1.00  0.00     0.000 C 
BRANCH   3   4
ATOM      4  C   UNL     1      31.584  78.314  12.906  1.00  0.00     0.000 C 
BRANCH   4   5
ATOM      5  C   UNL     1      32.624  77.736  13.877  1.00  0.00     0.000 C 
BRANCH   5   6
ATOM      6  C   UNL     1      33.291  78.809  14.756  1.00  0.00     0.006 C 
BRANCH   6   7
ATOM      7  C   UNL     1      32.391  79.341  15.885  1.00  0.00     0.053 C 
BRANCH   7   8
ATOM      8  C   UNL     1      32.276  80.837  15.880  1.00  0.00     0.041 C 
ATOM      9  O   UNL     1      31.580  81.417  15.005  1.00  0.00    -0.550 OA
ATOM     10  O   UNL     1      32.913  81.587  16.860  1.00  0.00    -0.550 OA
ENDBRANCH   7   8
ENDBRANCH   6   7
ENDBRANCH   5   6
ENDBRANCH   4   5
ENDBRANCH   3   4
ENDBRANCH   2   3
ENDBRANCH   1   2
BRANCH   1  11
ATOM     11  C   UNL     1      32.718  74.057  11.196  1.00  0.00     0.000 C 
BRANCH  11  12
ATOM     12  C   UNL     1      33.877  74.823  11.857  1.00  0.00    -0.000 C 
BRANCH  12  13
ATOM     13  C   UNL     1      34.786  75.511  10.825  1.00  0.00    -0.000 C 
BRANCH  13  14
ATOM     14  C   UNL     1      35.111  76.967  11.202  1.00  0.00    -0.000 C 
BRANCH  14  15
ATOM     15  C   UNL     1      34.231  77.975  10.434  1.00  0.00    -0.000 C 
BRANCH  15  16
ATOM     16  C   UNL     1      33.935  77.554   8.984  1.00  0.00    -0.000 C 
BRANCH  16  17
ATOM     17  C   UNL     1      32.435  77.401   8.701  1.00  0.00    -0.003 C 
ATOM     18  C   UNL     1      32.140  76.087   7.985  1.00  0.00     0.004 C 
ENDBRANCH  16  17
ENDBRANCH  15  16
ENDBRANCH  14  15
ENDBRANCH  13  14
ENDBRANCH  12  13
ENDBRANCH  11  12
ENDBRANCH   1  11
TORSDOF 14
ENDMDL
MODEL 9
REMARK VINA RESULT:    -3.566      4.258      6.588
REMARK INTER + INTRA:          -8.844
REMARK INTER:                  -6.407
REMARK INTRA:                  -2.437
REMARK UNBOUND:                -2.360
REMARK SMILES CCCCCCCCCCCCCCCC(=O)[O-]
REMARK SMILES IDX 9 1 10 2 11 3 12 4 13 5 14 6 15 7 16 8 17 9 18 10 8 11 7 12
REMARK SMILES IDX 6 13 5 14 4 15 3 16 2 17 1 18
REMARK H PARENT
REMARK Flexibility Score: inf
ROOT
ATOM      1  C   UNL     1      33.597  77.726   8.996  1.00  0.00     0.000 C 
ENDROOT
BRANCH   1   2
ATOM      2  C   UNL     1      32.062  77.827   9.045  1.00  0.00     0.000 C 
BRANCH   2   3
ATOM      3  C   UNL     1      31.369  76.613   8.404  1.00  0.00     0.000 C 
BRANCH   3   4
ATOM      4  C   UNL     1      32.258  75.897   7.376  1.00  0.00     0.000 C 
BRANCH   4   5
ATOM      5  C   UNL     1      32.508  74.438   7.788  1.00  0.00     0.000 C 
BRANCH   5   6
ATOM      6  C   UNL     1      33.884  73.913   7.341  1.00  0.00     0.006 C 
BRANCH   6   7
ATOM      7  C   UNL     1      34.848  75.012   6.860  1.00  0.00     0.053 C 
BRANCH   7   8
ATOM      8  C   UNL     1      36.289  74.637   7.033  1.00  0.00     0.041 C 
ATOM      9  O   UNL     1      36.975  75.157   7.951  1.00  0.00    -0.550 OA
ATOM     10  O   UNL     1      36.866  73.689   6.197  1.00  0.00    -0.550 OA
ENDBRANCH   7   8
ENDBRANCH   6   7
ENDBRANCH   5   6
ENDBRANCH   4   5
ENDBRANCH   3   4
ENDBRANCH   2   3
ENDBRANCH   1   2
BRANCH   1  11
ATOM     11  C   UNL     1      34.258  78.129  10.324  1.00  0.00     0.000 C 
BRANCH  11  12
ATOM     12  C   UNL     1      35.169  77.026  10.891  1.00  0.00    -0.000 C 
BRANCH  12  13
ATOM     13  C   UNL     1      34.657  75.616  10.551  1.00  0.00    -0.000 C 
BRANCH  13  14
ATOM     14  C   UNL     1      33.929  74.951  11.733  1.00  0.00    -0.000 C 
BRANCH  14  15
ATOM     15  C   UNL     1      32.425  75.297  11.755  1.00  0.00    -0.000 C 
BRANCH  15  16
ATOM     16  C   UNL     1      32.003  76.131  12.978  1.00  0.00    -0.000 C 
BRANCH  16  17
ATOM     17  C   UNL     1      31.505  77.532  12.603  1.00  0.00    -0.003 C 
ATOM     18  C   UNL     1      31.211  78.364  13.847  1.00  0.00     0.004 C 
ENDBRANCH  16  17
ENDBRANCH  15  16
ENDBRANCH  14  15
ENDBRANCH  13  14
ENDBRANCH  12  13
ENDBRANCH  11  12
ENDBRANCH   1  11
TORSDOF 14
ENDMDL
