MODEL 1
REMARK VINA RESULT:    -6.289      0.000      0.000
REMARK INTER + INTRA:          -7.898
REMARK INTER:                  -7.576
REMARK INTRA:                  -0.322
REMARK UNBOUND:                -0.322
REMARK SMILES O=c1c(O)c(-c2ccc(O)c(O)c2)oc2cc(O)cc(O)c12
REMARK SMILES IDX 5 1 3 2 2 3 1 4 22 5 20 6 19 7 17 8 16 9 15 10 14 11 6 12
REMARK SMILES IDX 7 13 8 14 9 15 13 16 11 17 10 18 12 20 4 22 21 24 18 26
REMARK H PARENT 10 19 12 21 4 23 21 25 18 27
REMARK Flexibility Score: inf
ROOT
ATOM      1  C   UNL     1     103.162 115.572  89.318  1.00  0.00     0.180 A 
ATOM      2  C   UNL     1     104.212 114.801  89.843  1.00  0.00     0.208 A 
ATOM      3  C   UNL     1     105.110 114.179  88.962  1.00  0.00     0.238 A 
ATOM      4  O   UNL     1     106.079 113.535  89.440  1.00  0.00    -0.285 OA
ATOM      5  C   UNL     1     104.936 114.322  87.563  1.00  0.00     0.111 A 
ATOM      6  C   UNL     1     105.762 113.704  86.577  1.00  0.00     0.134 A 
ATOM      7  C   UNL     1     105.578 114.021  85.225  1.00  0.00     0.093 A 
ATOM      8  C   UNL     1     104.559 114.882  84.820  1.00  0.00     0.123 A 
ATOM      9  C   UNL     1     103.708 115.445  85.771  1.00  0.00     0.094 A 
ATOM     10  C   UNL     1     103.889 115.176  87.130  1.00  0.00     0.146 A 
ATOM     11  O   UNL     1     103.065 115.741  88.004  1.00  0.00    -0.452 OA
ENDROOT
BRANCH   1  12
ATOM     12  C   UNL     1     102.162 116.237  90.183  1.00  0.00     0.025 A 
ATOM     13  C   UNL     1     102.381 117.526  90.700  1.00  0.00     0.016 A 
ATOM     14  C   UNL     1     101.434 118.123  91.535  1.00  0.00     0.051 A 
ATOM     15  C   UNL     1     100.261 117.438  91.876  1.00  0.00     0.157 A 
ATOM     16  C   UNL     1     100.993 115.547  90.545  1.00  0.00     0.062 A 
ATOM     17  C   UNL     1     100.041 116.146  91.383  1.00  0.00     0.158 A 
BRANCH  15  18
ATOM     18  O   UNL     1      99.312 118.032  92.706  1.00  0.00    -0.504 OA
ATOM     19  H   UNL     1      98.468 117.544  92.981  1.00  0.00     0.293 HD
ENDBRANCH  15  18
BRANCH  17  20
ATOM     20  O   UNL     1      98.876 115.464  91.729  1.00  0.00    -0.504 OA
ATOM     21  H   UNL     1      98.104 115.933  92.190  1.00  0.00     0.293 HD
ENDBRANCH  17  20
ENDBRANCH   1  12
BRANCH   2  22
ATOM     22  O   UNL     1     104.378 114.690  91.227  1.00  0.00    -0.502 OA
ATOM     23  H   UNL     1     105.259 114.422  91.650  1.00  0.00     0.293 HD
ENDBRANCH   2  22
BRANCH   6  24
ATOM     24  O   UNL     1     106.750 112.758  86.867  1.00  0.00    -0.507 OA
ATOM     25  H   UNL     1     107.001 112.457  87.796  1.00  0.00     0.293 HD
ENDBRANCH   6  24
BRANCH   8  26
ATOM     26  O   UNL     1     104.396 115.163  83.465  1.00  0.00    -0.508 OA
ATOM     27  H   UNL     1     105.139 115.580  82.916  1.00  0.00     0.293 HD
ENDBRANCH   8  26
TORSDOF 6
ENDMDL
MODEL 2
REMARK VINA RESULT:    -5.920      1.648      2.352
REMARK INTER + INTRA:          -7.454
REMARK INTER:                  -7.133
REMARK INTRA:                  -0.321
REMARK UNBOUND:                -0.322
REMARK SMILES O=c1c(O)c(-c2ccc(O)c(O)c2)oc2cc(O)cc(O)c12
REMARK SMILES IDX 5 1 3 2 2 3 1 4 22 5 20 6 19 7 17 8 16 9 15 10 14 11 6 12
REMARK SMILES IDX 7 13 8 14 9 15 13 16 11 17 10 18 12 20 4 22 21 24 18 26
REMARK H PARENT 10 19 12 21 4 23 21 25 18 27
REMARK Flexibility Score: inf
ROOT
ATOM      1  C   UNL     1     103.742 115.600  87.425  1.00  0.00     0.180 A 
ATOM      2  C   UNL     1     105.034 115.050  87.474  1.00  0.00     0.208 A 
ATOM      3  C   UNL     1     105.569 114.460  86.319  1.00  0.00     0.238 A 
ATOM      4  O   UNL     1     106.746 114.018  86.354  1.00  0.00    -0.285 OA
ATOM      5  C   UNL     1     104.798 114.411  85.131  1.00  0.00     0.111 A 
ATOM      6  C   UNL     1     105.224 113.802  83.913  1.00  0.00     0.134 A 
ATOM      7  C   UNL     1     104.433 113.929  82.765  1.00  0.00     0.093 A 
ATOM      8  C   UNL     1     103.203 114.585  82.806  1.00  0.00     0.123 A 
ATOM      9  C   UNL     1     102.749 115.132  84.006  1.00  0.00     0.094 A 
ATOM     10  C   UNL     1     103.533 115.054  85.161  1.00  0.00     0.146 A 
ATOM     11  O   UNL     1     103.070 115.597  86.279  1.00  0.00    -0.452 OA
ENDROOT
BRANCH   1  12
ATOM     12  C   UNL     1     103.101 116.216  88.609  1.00  0.00     0.025 A 
ATOM     13  C   UNL     1     103.298 117.572  88.926  1.00  0.00     0.016 A 
ATOM     14  C   UNL     1     102.703 118.125  90.062  1.00  0.00     0.051 A 
ATOM     15  C   UNL     1     101.914 117.331  90.904  1.00  0.00     0.157 A 
ATOM     16  C   UNL     1     102.326 115.420  89.469  1.00  0.00     0.062 A 
ATOM     17  C   UNL     1     101.728 115.975  90.609  1.00  0.00     0.158 A 
BRANCH  15  18
ATOM     18  O   UNL     1     101.317 117.881  92.037  1.00  0.00    -0.504 OA
ATOM     19  H   UNL     1     101.818 117.963  92.914  1.00  0.00     0.293 HD
ENDBRANCH  15  18
BRANCH  17  20
ATOM     20  O   UNL     1     100.948 115.186  91.452  1.00  0.00    -0.504 OA
ATOM     21  H   UNL     1     101.354 114.677  92.229  1.00  0.00     0.293 HD
ENDBRANCH  17  20
ENDBRANCH   1  12
BRANCH   2  22
ATOM     22  O   UNL     1     105.785 115.128  88.650  1.00  0.00    -0.502 OA
ATOM     23  H   UNL     1     105.358 115.147  89.569  1.00  0.00     0.293 HD
ENDBRANCH   2  22
BRANCH   6  24
ATOM     24  O   UNL     1     106.392 113.044  83.786  1.00  0.00    -0.507 OA
ATOM     25  H   UNL     1     106.513 112.111  84.146  1.00  0.00     0.293 HD
ENDBRANCH   6  24
BRANCH   8  26
ATOM     26  O   UNL     1     102.435 114.678  81.647  1.00  0.00    -0.508 OA
ATOM     27  H   UNL     1     102.246 115.571  81.206  1.00  0.00     0.293 HD
ENDBRANCH   8  26
TORSDOF 6
ENDMDL
MODEL 3
REMARK VINA RESULT:    -5.814      1.676      2.416
REMARK INTER + INTRA:          -7.326
REMARK INTER:                  -6.991
REMARK INTRA:                  -0.335
REMARK UNBOUND:                -0.322
REMARK SMILES O=c1c(O)c(-c2ccc(O)c(O)c2)oc2cc(O)cc(O)c12
REMARK SMILES IDX 5 1 3 2 2 3 1 4 22 5 20 6 19 7 17 8 16 9 15 10 14 11 6 12
REMARK SMILES IDX 7 13 8 14 9 15 13 16 11 17 10 18 12 20 4 22 21 24 18 26
REMARK H PARENT 10 19 12 21 4 23 21 25 18 27
REMARK Flexibility Score: inf
ROOT
ATOM      1  C   UNL     1     103.923 114.247  89.350  1.00  0.00     0.180 A 
ATOM      2  C   UNL     1     104.762 113.577  90.256  1.00  0.00     0.208 A 
ATOM      3  C   UNL     1     105.963 113.020  89.790  1.00  0.00     0.238 A 
ATOM      4  O   UNL     1     106.735 112.469  90.616  1.00  0.00    -0.285 OA
ATOM      5  C   UNL     1     106.302 113.125  88.418  1.00  0.00     0.111 A 
ATOM      6  C   UNL     1     107.474 112.563  87.829  1.00  0.00     0.134 A 
ATOM      7  C   UNL     1     107.774 112.842  86.489  1.00  0.00     0.093 A 
ATOM      8  C   UNL     1     106.913 113.605  85.702  1.00  0.00     0.123 A 
ATOM      9  C   UNL     1     105.734 114.109  86.252  1.00  0.00     0.094 A 
ATOM     10  C   UNL     1     105.425 113.879  87.596  1.00  0.00     0.146 A 
ATOM     11  O   UNL     1     104.300 114.386  88.084  1.00  0.00    -0.452 OA
ENDROOT
BRANCH   1  12
ATOM     12  C   UNL     1     102.629 114.838  89.762  1.00  0.00     0.025 A 
ATOM     13  C   UNL     1     101.442 114.086  89.745  1.00  0.00     0.016 A 
ATOM     14  C   UNL     1     100.229 114.672  90.115  1.00  0.00     0.051 A 
ATOM     15  C   UNL     1     100.182 116.019  90.495  1.00  0.00     0.157 A 
ATOM     16  C   UNL     1     102.573 116.195  90.125  1.00  0.00     0.062 A 
ATOM     17  C   UNL     1     101.355 116.783  90.497  1.00  0.00     0.158 A 
BRANCH  15  18
ATOM     18  O   UNL     1      98.974 116.606  90.867  1.00  0.00    -0.504 OA
ATOM     19  H   UNL     1      98.094 116.308  90.464  1.00  0.00     0.293 HD
ENDBRANCH  15  18
BRANCH  17  20
ATOM     20  O   UNL     1     101.305 118.125  90.869  1.00  0.00    -0.504 OA
ATOM     21  H   UNL     1     101.034 118.848  90.212  1.00  0.00     0.293 HD
ENDBRANCH  17  20
ENDBRANCH   1  12
BRANCH   2  22
ATOM     22  O   UNL     1     104.419 113.504  91.609  1.00  0.00    -0.502 OA
ATOM     23  H   UNL     1     103.709 112.869  91.957  1.00  0.00     0.293 HD
ENDBRANCH   2  22
BRANCH   6  24
ATOM     24  O   UNL     1     108.354 111.710  88.501  1.00  0.00    -0.507 OA
ATOM     25  H   UNL     1     108.149 110.757  88.754  1.00  0.00     0.293 HD
ENDBRANCH   6  24
BRANCH   8  26
ATOM     26  O   UNL     1     107.235 113.849  84.369  1.00  0.00    -0.508 OA
ATOM     27  H   UNL     1     106.530 113.831  83.641  1.00  0.00     0.293 HD
ENDBRANCH   8  26
TORSDOF 6
ENDMDL
MODEL 4
REMARK VINA RESULT:    -5.803      1.644      3.514
REMARK INTER + INTRA:          -7.312
REMARK INTER:                  -6.978
REMARK INTRA:                  -0.335
REMARK UNBOUND:                -0.322
REMARK SMILES O=c1c(O)c(-c2ccc(O)c(O)c2)oc2cc(O)cc(O)c12
REMARK SMILES IDX 5 1 3 2 2 3 1 4 22 5 20 6 19 7 17 8 16 9 15 10 14 11 6 12
REMARK SMILES IDX 7 13 8 14 9 15 13 16 11 17 10 18 12 20 4 22 21 24 18 26
REMARK H PARENT 10 19 12 21 4 23 21 25 18 27
REMARK Flexibility Score: inf
ROOT
ATOM      1  C   UNL     1     103.578 115.147  89.612  1.00  0.00     0.180 A 
ATOM      2  C   UNL     1     103.887 115.133  88.241  1.00  0.00     0.208 A 
ATOM      3  C   UNL     1     104.980 114.373  87.796  1.00  0.00     0.238 A 
ATOM      4  O   UNL     1     105.218 114.321  86.562  1.00  0.00    -0.285 OA
ATOM      5  C   UNL     1     105.761 113.650  88.730  1.00  0.00     0.111 A 
ATOM      6  C   UNL     1     106.915 112.879  88.396  1.00  0.00     0.134 A 
ATOM      7  C   UNL     1     107.533 112.099  89.381  1.00  0.00     0.093 A 
ATOM      8  C   UNL     1     107.080 112.112  90.700  1.00  0.00     0.123 A 
ATOM      9  C   UNL     1     105.990 112.909  91.050  1.00  0.00     0.094 A 
ATOM     10  C   UNL     1     105.329 113.670  90.081  1.00  0.00     0.146 A 
ATOM     11  O   UNL     1     104.289 114.406  90.454  1.00  0.00    -0.452 OA
ENDROOT
BRANCH   1  12
ATOM     12  C   UNL     1     102.456 115.944  90.159  1.00  0.00     0.025 A 
ATOM     13  C   UNL     1     102.634 117.282  90.556  1.00  0.00     0.016 A 
ATOM     14  C   UNL     1     101.567 118.006  91.093  1.00  0.00     0.051 A 
ATOM     15  C   UNL     1     100.313 117.404  91.253  1.00  0.00     0.157 A 
ATOM     16  C   UNL     1     101.202 115.339  90.341  1.00  0.00     0.062 A 
ATOM     17  C   UNL     1     100.130 116.067  90.880  1.00  0.00     0.158 A 
BRANCH  15  18
ATOM     18  O   UNL     1      99.246 118.125  91.785  1.00  0.00    -0.504 OA
ATOM     19  H   UNL     1      98.661 117.742  92.518  1.00  0.00     0.293 HD
ENDBRANCH  15  18
BRANCH  17  20
ATOM     20  O   UNL     1      98.883 115.468  91.045  1.00  0.00    -0.504 OA
ATOM     21  H   UNL     1      98.208 115.429  90.290  1.00  0.00     0.293 HD
ENDBRANCH  17  20
ENDBRANCH   1  12
BRANCH   2  22
ATOM     22  O   UNL     1     103.090 115.837  87.335  1.00  0.00    -0.502 OA
ATOM     23  H   UNL     1     102.377 116.494  87.632  1.00  0.00     0.293 HD
ENDBRANCH   2  22
BRANCH   6  24
ATOM     24  O   UNL     1     107.505 112.866  87.128  1.00  0.00    -0.507 OA
ATOM     25  H   UNL     1     108.441 112.547  86.934  1.00  0.00     0.293 HD
ENDBRANCH   6  24
BRANCH   8  26
ATOM     26  O   UNL     1     107.729 111.336  91.658  1.00  0.00    -0.508 OA
ATOM     27  H   UNL     1     107.666 110.324  91.652  1.00  0.00     0.293 HD
ENDBRANCH   8  26
TORSDOF 6
ENDMDL
MODEL 5
REMARK VINA RESULT:    -5.771      1.421      2.048
REMARK INTER + INTRA:          -7.274
REMARK INTER:                  -6.941
REMARK INTRA:                  -0.333
REMARK UNBOUND:                -0.322
REMARK SMILES O=c1c(O)c(-c2ccc(O)c(O)c2)oc2cc(O)cc(O)c12
REMARK SMILES IDX 5 1 3 2 2 3 1 4 22 5 20 6 19 7 17 8 16 9 15 10 14 11 6 12
REMARK SMILES IDX 7 13 8 14 9 15 13 16 11 17 10 18 12 20 4 22 21 24 18 26
REMARK H PARENT 10 19 12 21 4 23 21 25 18 27
REMARK Flexibility Score: inf
ROOT
ATOM      1  C   UNL     1     102.667 115.046  88.544  1.00  0.00     0.180 A 
ATOM      2  C   UNL     1     104.047 114.822  88.678  1.00  0.00     0.208 A 
ATOM      3  C   UNL     1     104.823 114.633  87.523  1.00  0.00     0.238 A 
ATOM      4  O   UNL     1     106.066 114.488  87.647  1.00  0.00    -0.285 OA
ATOM      5  C   UNL     1     104.205 114.654  86.249  1.00  0.00     0.111 A 
ATOM      6  C   UNL     1     104.887 114.434  85.015  1.00  0.00     0.134 A 
ATOM      7  C   UNL     1     104.200 114.608  83.806  1.00  0.00     0.093 A 
ATOM      8  C   UNL     1     102.843 114.929  83.789  1.00  0.00     0.123 A 
ATOM      9  C   UNL     1     102.153 115.087  84.990  1.00  0.00     0.094 A 
ATOM     10  C   UNL     1     102.819 114.956  86.212  1.00  0.00     0.146 A 
ATOM     11  O   UNL     1     102.128 115.126  87.333  1.00  0.00    -0.452 OA
ENDROOT
BRANCH   1  12
ATOM     12  C   UNL     1     101.780 115.228  89.716  1.00  0.00     0.025 A 
ATOM     13  C   UNL     1     101.200 114.129  90.374  1.00  0.00     0.016 A 
ATOM     14  C   UNL     1     100.347 114.328  91.462  1.00  0.00     0.051 A 
ATOM     15  C   UNL     1     100.052 115.624  91.902  1.00  0.00     0.157 A 
ATOM     16  C   UNL     1     101.464 116.528  90.149  1.00  0.00     0.062 A 
ATOM     17  C   UNL     1     100.608 116.726  91.242  1.00  0.00     0.158 A 
BRANCH  15  18
ATOM     18  O   UNL     1      99.203 115.824  92.989  1.00  0.00    -0.504 OA
ATOM     19  H   UNL     1      99.559 115.873  93.936  1.00  0.00     0.293 HD
ENDBRANCH  15  18
BRANCH  17  20
ATOM     20  O   UNL     1     100.308 118.015  91.677  1.00  0.00    -0.504 OA
ATOM     21  H   UNL     1     100.995 118.760  91.644  1.00  0.00     0.293 HD
ENDBRANCH  17  20
ENDBRANCH   1  12
BRANCH   2  22
ATOM     22  O   UNL     1     104.640 114.827  89.944  1.00  0.00    -0.502 OA
ATOM     23  H   UNL     1     105.201 114.055  90.286  1.00  0.00     0.293 HD
ENDBRANCH   2  22
BRANCH   6  24
ATOM     24  O   UNL     1     106.219 114.021  84.922  1.00  0.00    -0.507 OA
ATOM     25  H   UNL     1     106.762 114.021  84.073  1.00  0.00     0.293 HD
ENDBRANCH   6  24
BRANCH   8  26
ATOM     26  O   UNL     1     102.188 115.079  82.568  1.00  0.00    -0.508 OA
ATOM     27  H   UNL     1     101.255 114.713  82.419  1.00  0.00     0.293 HD
ENDBRANCH   8  26
TORSDOF 6
ENDMDL
MODEL 6
REMARK VINA RESULT:    -5.604      1.761      3.599
REMARK INTER + INTRA:          -7.072
REMARK INTER:                  -6.892
REMARK INTRA:                  -0.180
REMARK UNBOUND:                -0.322
REMARK SMILES O=c1c(O)c(-c2ccc(O)c(O)c2)oc2cc(O)cc(O)c12
REMARK SMILES IDX 5 1 3 2 2 3 1 4 22 5 20 6 19 7 17 8 16 9 15 10 14 11 6 12
REMARK SMILES IDX 7 13 8 14 9 15 13 16 11 17 10 18 12 20 4 22 21 24 18 26
REMARK H PARENT 10 19 12 21 4 23 21 25 18 27
REMARK Flexibility Score: inf
ROOT
ATOM      1  C   UNL     1     103.582 114.684  88.018  1.00  0.00     0.180 A 
ATOM      2  C   UNL     1     103.705 114.964  86.646  1.00  0.00     0.208 A 
ATOM      3  C   UNL     1     104.847 114.524  85.960  1.00  0.00     0.238 A 
ATOM      4  O   UNL     1     104.926 114.731  84.721  1.00  0.00    -0.285 OA
ATOM      5  C   UNL     1     105.861 113.823  86.657  1.00  0.00     0.111 A 
ATOM      6  C   UNL     1     107.079 113.365  86.070  1.00  0.00     0.134 A 
ATOM      7  C   UNL     1     107.951 112.568  86.823  1.00  0.00     0.093 A 
ATOM      8  C   UNL     1     107.681 112.267  88.157  1.00  0.00     0.123 A 
ATOM      9  C   UNL     1     106.522 112.760  88.758  1.00  0.00     0.094 A 
ATOM     10  C   UNL     1     105.615 113.527  88.022  1.00  0.00     0.146 A 
ATOM     11  O   UNL     1     104.519 113.967  88.628  1.00  0.00    -0.452 OA
ENDROOT
BRANCH   1  12
ATOM     12  C   UNL     1     102.419 115.137  88.814  1.00  0.00     0.025 A 
ATOM     13  C   UNL     1     101.129 114.631  88.579  1.00  0.00     0.016 A 
ATOM     14  C   UNL     1     100.042 115.093  89.327  1.00  0.00     0.051 A 
ATOM     15  C   UNL     1     100.227 116.072  90.310  1.00  0.00     0.157 A 
ATOM     16  C   UNL     1     102.595 116.135  89.788  1.00  0.00     0.062 A 
ATOM     17  C   UNL     1     101.504 116.597  90.539  1.00  0.00     0.158 A 
BRANCH  15  18
ATOM     18  O   UNL     1      99.146 116.532  91.060  1.00  0.00    -0.504 OA
ATOM     19  H   UNL     1      98.894 117.513  91.080  1.00  0.00     0.293 HD
ENDBRANCH  15  18
BRANCH  17  20
ATOM     20  O   UNL     1     101.684 117.577  91.514  1.00  0.00    -0.504 OA
ATOM     21  H   UNL     1     101.761 117.339  92.496  1.00  0.00     0.293 HD
ENDBRANCH  17  20
ENDBRANCH   1  12
BRANCH   2  22
ATOM     22  O   UNL     1     102.683 115.639  85.973  1.00  0.00    -0.502 OA
ATOM     23  H   UNL     1     102.750 116.619  85.722  1.00  0.00     0.293 HD
ENDBRANCH   2  22
BRANCH   6  24
ATOM     24  O   UNL     1     107.490 113.685  84.773  1.00  0.00    -0.507 OA
ATOM     25  H   UNL     1     108.290 113.286  84.309  1.00  0.00     0.293 HD
ENDBRANCH   6  24
BRANCH   8  26
ATOM     26  O   UNL     1     108.578 111.484  88.880  1.00  0.00    -0.508 OA
ATOM     27  H   UNL     1     108.821 110.545  88.585  1.00  0.00     0.293 HD
ENDBRANCH   8  26
TORSDOF 6
ENDMDL
MODEL 7
REMARK VINA RESULT:    -5.529      1.951      3.427
REMARK INTER + INTRA:          -6.982
REMARK INTER:                  -7.108
REMARK INTRA:                   0.126
REMARK UNBOUND:                -0.322
REMARK SMILES O=c1c(O)c(-c2ccc(O)c(O)c2)oc2cc(O)cc(O)c12
REMARK SMILES IDX 5 1 3 2 2 3 1 4 22 5 20 6 19 7 17 8 16 9 15 10 14 11 6 12
REMARK SMILES IDX 7 13 8 14 9 15 13 16 11 17 10 18 12 20 4 22 21 24 18 26
REMARK H PARENT 10 19 12 21 4 23 21 25 18 27
REMARK Flexibility Score: inf
ROOT
ATOM      1  C   UNL     1     101.615 114.746  88.121  1.00  0.00     0.180 A 
ATOM      2  C   UNL     1     100.852 114.370  87.002  1.00  0.00     0.208 A 
ATOM      3  C   UNL     1     101.508 114.073  85.797  1.00  0.00     0.238 A 
ATOM      4  O   UNL     1     100.824 113.685  84.816  1.00  0.00    -0.285 OA
ATOM      5  C   UNL     1     102.919 114.173  85.721  1.00  0.00     0.111 A 
ATOM      6  C   UNL     1     103.685 113.934  84.540  1.00  0.00     0.134 A 
ATOM      7  C   UNL     1     105.083 113.933  84.613  1.00  0.00     0.093 A 
ATOM      8  C   UNL     1     105.742 114.226  85.807  1.00  0.00     0.123 A 
ATOM      9  C   UNL     1     105.003 114.519  86.953  1.00  0.00     0.094 A 
ATOM     10  C   UNL     1     103.606 114.492  86.920  1.00  0.00     0.146 A 
ATOM     11  O   UNL     1     102.941 114.765  88.035  1.00  0.00    -0.452 OA
ENDROOT
BRANCH   1  12
ATOM     12  C   UNL     1     100.993 115.098  89.418  1.00  0.00     0.025 A 
ATOM     13  C   UNL     1      99.923 114.353  89.942  1.00  0.00     0.016 A 
ATOM     14  C   UNL     1      99.335 114.719  91.156  1.00  0.00     0.051 A 
ATOM     15  C   UNL     1      99.800 115.839  91.856  1.00  0.00     0.157 A 
ATOM     16  C   UNL     1     101.441 116.233  90.114  1.00  0.00     0.062 A 
ATOM     17  C   UNL     1     100.853 116.600  91.333  1.00  0.00     0.158 A 
BRANCH  15  18
ATOM     18  O   UNL     1      99.219 116.205  93.068  1.00  0.00    -0.504 OA
ATOM     19  H   UNL     1      99.087 117.178  93.321  1.00  0.00     0.293 HD
ENDBRANCH  15  18
BRANCH  17  20
ATOM     20  O   UNL     1     101.309 117.718  92.028  1.00  0.00    -0.504 OA
ATOM     21  H   UNL     1     100.687 118.481  92.271  1.00  0.00     0.293 HD
ENDBRANCH  17  20
ENDBRANCH   1  12
BRANCH   2  22
ATOM     22  O   UNL     1      99.463 114.257  87.106  1.00  0.00    -0.502 OA
ATOM     23  H   UNL     1      98.838 114.504  86.347  1.00  0.00     0.293 HD
ENDBRANCH   2  22
BRANCH   6  24
ATOM     24  O   UNL     1     103.126 113.723  83.276  1.00  0.00    -0.507 OA
ATOM     25  H   UNL     1     102.192 113.993  83.009  1.00  0.00     0.293 HD
ENDBRANCH   6  24
BRANCH   8  26
ATOM     26  O   UNL     1     107.135 114.231  85.839  1.00  0.00    -0.508 OA
ATOM     27  H   UNL     1     107.666 115.078  85.670  1.00  0.00     0.293 HD
ENDBRANCH   8  26
TORSDOF 6
ENDMDL
MODEL 8
REMARK VINA RESULT:    -5.439      1.935      7.258
REMARK INTER + INTRA:          -6.874
REMARK INTER:                  -6.595
REMARK INTRA:                  -0.279
REMARK UNBOUND:                -0.322
REMARK SMILES O=c1c(O)c(-c2ccc(O)c(O)c2)oc2cc(O)cc(O)c12
REMARK SMILES IDX 5 1 3 2 2 3 1 4 22 5 20 6 19 7 17 8 16 9 15 10 14 11 6 12
REMARK SMILES IDX 7 13 8 14 9 15 13 16 11 17 10 18 12 20 4 22 21 24 18 26
REMARK H PARENT 10 19 12 21 4 23 21 25 18 27
REMARK Flexibility Score: inf
ROOT
ATOM      1  C   UNL     1     102.574 114.805  86.922  1.00  0.00     0.180 A 
ATOM      2  C   UNL     1     101.330 114.153  86.943  1.00  0.00     0.208 A 
ATOM      3  C   UNL     1     100.468 114.361  88.031  1.00  0.00     0.238 A 
ATOM      4  O   UNL     1      99.334 113.817  88.018  1.00  0.00    -0.285 OA
ATOM      5  C   UNL     1     100.870 115.206  89.095  1.00  0.00     0.111 A 
ATOM      6  C   UNL     1     100.094 115.456  90.267  1.00  0.00     0.134 A 
ATOM      7  C   UNL     1     100.532 116.412  91.193  1.00  0.00     0.093 A 
ATOM      8  C   UNL     1     101.746 117.077  91.022  1.00  0.00     0.123 A 
ATOM      9  C   UNL     1     102.540 116.795  89.911  1.00  0.00     0.094 A 
ATOM     10  C   UNL     1     102.113 115.873  88.951  1.00  0.00     0.146 A 
ATOM     11  O   UNL     1     102.893 115.643  87.902  1.00  0.00    -0.452 OA
ENDROOT
BRANCH   1  12
ATOM     12  C   UNL     1     103.545 114.616  85.820  1.00  0.00     0.025 A 
ATOM     13  C   UNL     1     103.379 115.255  84.579  1.00  0.00     0.016 A 
ATOM     14  C   UNL     1     104.295 115.041  83.547  1.00  0.00     0.051 A 
ATOM     15  C   UNL     1     105.383 114.179  83.734  1.00  0.00     0.157 A 
ATOM     16  C   UNL     1     104.626 113.735  85.996  1.00  0.00     0.062 A 
ATOM     17  C   UNL     1     105.547 113.522  84.960  1.00  0.00     0.158 A 
BRANCH  15  18
ATOM     18  O   UNL     1     106.300 113.966  82.707  1.00  0.00    -0.504 OA
ATOM     19  H   UNL     1     107.281 114.194  82.816  1.00  0.00     0.293 HD
ENDBRANCH  15  18
BRANCH  17  20
ATOM     20  O   UNL     1     106.626 112.659  85.141  1.00  0.00    -0.504 OA
ATOM     21  H   UNL     1     106.865 112.295  86.057  1.00  0.00     0.293 HD
ENDBRANCH  17  20
ENDBRANCH   1  12
BRANCH   2  22
ATOM     22  O   UNL     1     100.945 113.341  85.872  1.00  0.00    -0.502 OA
ATOM     23  H   UNL     1     101.575 113.103  85.115  1.00  0.00     0.293 HD
ENDBRANCH   2  22
BRANCH   6  24
ATOM     24  O   UNL     1      98.911 114.780  90.580  1.00  0.00    -0.507 OA
ATOM     25  H   UNL     1      98.238 115.088  91.264  1.00  0.00     0.293 HD
ENDBRANCH   6  24
BRANCH   8  26
ATOM     26  O   UNL     1     102.158 118.010  91.972  1.00  0.00    -0.508 OA
ATOM     27  H   UNL     1     101.576 118.800  92.226  1.00  0.00     0.293 HD
ENDBRANCH   8  26
TORSDOF 6
ENDMDL
MODEL 9
REMARK VINA RESULT:    -5.328      1.964      7.015
REMARK INTER + INTRA:          -6.740
REMARK INTER:                  -6.413
REMARK INTRA:                  -0.327
REMARK UNBOUND:                -0.322
REMARK SMILES O=c1c(O)c(-c2ccc(O)c(O)c2)oc2cc(O)cc(O)c12
REMARK SMILES IDX 5 1 3 2 2 3 1 4 22 5 20 6 19 7 17 8 16 9 15 10 14 11 6 12
REMARK SMILES IDX 7 13 8 14 9 15 13 16 11 17 10 18 12 20 4 22 21 24 18 26
REMARK H PARENT 10 19 12 21 4 23 21 25 18 27
REMARK Flexibility Score: inf
ROOT
ATOM      1  C   UNL     1     102.954 115.122  87.529  1.00  0.00     0.180 A 
ATOM      2  C   UNL     1     103.156 116.248  88.345  1.00  0.00     0.208 A 
ATOM      3  C   UNL     1     102.401 116.384  89.520  1.00  0.00     0.238 A 
ATOM      4  O   UNL     1     102.625 117.366  90.273  1.00  0.00    -0.285 OA
ATOM      5  C   UNL     1     101.439 115.400  89.856  1.00  0.00     0.111 A 
ATOM      6  C   UNL     1     100.589 115.456  91.001  1.00  0.00     0.134 A 
ATOM      7  C   UNL     1      99.767 114.364  91.305  1.00  0.00     0.093 A 
ATOM      8  C   UNL     1      99.716 113.247  90.471  1.00  0.00     0.123 A 
ATOM      9  C   UNL     1     100.498 113.207  89.317  1.00  0.00     0.094 A 
ATOM     10  C   UNL     1     101.356 114.266  89.006  1.00  0.00     0.146 A 
ATOM     11  O   UNL     1     102.092 114.184  87.905  1.00  0.00    -0.452 OA
ENDROOT
BRANCH   1  12
ATOM     12  C   UNL     1     103.695 114.922  86.262  1.00  0.00     0.025 A 
ATOM     13  C   UNL     1     103.175 115.363  85.033  1.00  0.00     0.016 A 
ATOM     14  C   UNL     1     103.881 115.141  83.847  1.00  0.00     0.051 A 
ATOM     15  C   UNL     1     105.108 114.467  83.871  1.00  0.00     0.157 A 
ATOM     16  C   UNL     1     104.916 114.228  86.278  1.00  0.00     0.062 A 
ATOM     17  C   UNL     1     105.625 114.006  85.088  1.00  0.00     0.158 A 
BRANCH  15  18
ATOM     18  O   UNL     1     105.816 114.247  82.691  1.00  0.00    -0.504 OA
ATOM     19  H   UNL     1     106.672 114.748  82.485  1.00  0.00     0.293 HD
ENDBRANCH  15  18
BRANCH  17  20
ATOM     20  O   UNL     1     106.844 113.330  85.109  1.00  0.00    -0.504 OA
ATOM     21  H   UNL     1     107.567 113.561  85.781  1.00  0.00     0.293 HD
ENDBRANCH  17  20
ENDBRANCH   1  12
BRANCH   2  22
ATOM     22  O   UNL     1     104.126 117.195  88.005  1.00  0.00    -0.502 OA
ATOM     23  H   UNL     1     105.033 117.232  88.457  1.00  0.00     0.293 HD
ENDBRANCH   2  22
BRANCH   6  24
ATOM     24  O   UNL     1     100.494 116.563  91.849  1.00  0.00    -0.507 OA
ATOM     25  H   UNL     1     100.129 117.463  91.581  1.00  0.00     0.293 HD
ENDBRANCH   6  24
BRANCH   8  26
ATOM     26  O   UNL     1      98.875 112.184  90.796  1.00  0.00    -0.508 OA
ATOM     27  H   UNL     1      99.132 111.501  91.499  1.00  0.00     0.293 HD
ENDBRANCH   8  26
TORSDOF 6
ENDMDL
