MODEL 1
REMARK VINA RESULT:    -3.459      0.000      0.000
REMARK INTER + INTRA:          -7.303
REMARK INTER:                  -6.290
REMARK INTRA:                  -1.013
REMARK UNBOUND:                -1.013
REMARK SMILES CCCCCCCCCCCCCCCC(=O)[O-]
REMARK SMILES IDX 9 1 10 2 11 3 12 4 13 5 14 6 15 7 16 8 17 9 18 10 8 11 7 12
REMARK SMILES IDX 6 13 5 14 4 15 3 16 2 17 1 18
REMARK H PARENT
REMARK Flexibility Score: inf
ROOT
ATOM      1  C   UNL     1      15.974  15.510   7.169  1.00  0.00     0.000 C 
ENDROOT
BRANCH   1   2
ATOM      2  C   UNL     1      16.787  16.431   8.098  1.00  0.00     0.000 C 
BRANCH   2   3
ATOM      3  C   UNL     1      16.811  15.930   9.551  1.00  0.00     0.000 C 
BRANCH   3   4
ATOM      4  C   UNL     1      16.257  16.966  10.541  1.00  0.00     0.000 C 
BRANCH   4   5
ATOM      5  C   UNL     1      15.536  18.100   9.802  1.00  0.00     0.000 C 
BRANCH   5   6
ATOM      6  C   UNL     1      15.730  19.440  10.528  1.00  0.00     0.006 C 
BRANCH   6   7
ATOM      7  C   UNL     1      14.656  19.679  11.598  1.00  0.00     0.053 C 
BRANCH   7   8
ATOM      8  C   UNL     1      14.275  21.125  11.691  1.00  0.00     0.041 C 
ATOM      9  O   UNL     1      13.063  21.458  11.770  1.00  0.00    -0.550 OA
ATOM     10  O   UNL     1      15.258  22.107  11.657  1.00  0.00    -0.550 OA
ENDBRANCH   7   8
ENDBRANCH   6   7
ENDBRANCH   5   6
ENDBRANCH   4   5
ENDBRANCH   3   4
ENDBRANCH   2   3
ENDBRANCH   1   2
BRANCH   1  11
ATOM     11  C   UNL     1      16.058  14.031   7.577  1.00  0.00     0.000 C 
BRANCH  11  12
ATOM     12  C   UNL     1      14.915  13.189   6.985  1.00  0.00    -0.000 C 
BRANCH  12  13
ATOM     13  C   UNL     1      13.869  12.790   8.039  1.00  0.00    -0.000 C 
BRANCH  13  14
ATOM     14  C   UNL     1      14.279  13.190   9.464  1.00  0.00    -0.000 C 
BRANCH  14  15
ATOM     15  C   UNL     1      14.004  12.051  10.454  1.00  0.00    -0.000 C 
BRANCH  15  16
ATOM     16  C   UNL     1      13.562  12.602  11.818  1.00  0.00    -0.000 C 
BRANCH  16  17
ATOM     17  C   UNL     1      14.664  12.498  12.883  1.00  0.00    -0.003 C 
ATOM     18  C   UNL     1      15.599  11.312  12.653  1.00  0.00     0.004 C 
ENDBRANCH  16  17
ENDBRANCH  15  16
ENDBRANCH  14  15
ENDBRANCH  13  14
ENDBRANCH  12  13
ENDBRANCH  11  12
ENDBRANCH   1  11
TORSDOF 14
ENDMDL
MODEL 2
REMARK VINA RESULT:    -3.377      2.938      6.756
REMARK INTER + INTRA:          -7.154
REMARK INTER:                  -6.380
REMARK INTRA:                  -0.774
REMARK UNBOUND:                -1.013
REMARK SMILES CCCCCCCCCCCCCCCC(=O)[O-]
REMARK SMILES IDX 9 1 10 2 11 3 12 4 13 5 14 6 15 7 16 8 17 9 18 10 8 11 7 12
REMARK SMILES IDX 6 13 5 14 4 15 3 16 2 17 1 18
REMARK H PARENT
REMARK Flexibility Score: inf
ROOT
ATOM      1  C   UNL     1      15.953  15.530   7.461  1.00  0.00     0.000 C 
ENDROOT
BRANCH   1   2
ATOM      2  C   UNL     1      16.076  14.005   7.642  1.00  0.00     0.000 C 
BRANCH   2   3
ATOM      3  C   UNL     1      14.878  13.242   7.057  1.00  0.00     0.000 C 
BRANCH   3   4
ATOM      4  C   UNL     1      13.900  12.760   8.140  1.00  0.00     0.000 C 
BRANCH   4   5
ATOM      5  C   UNL     1      14.426  13.094   9.542  1.00  0.00     0.000 C 
BRANCH   5   6
ATOM      6  C   UNL     1      13.898  12.093  10.580  1.00  0.00     0.006 C 
BRANCH   6   7
ATOM      7  C   UNL     1      13.765  12.720  11.974  1.00  0.00     0.053 C 
BRANCH   7   8
ATOM      8  C   UNL     1      15.084  13.201  12.497  1.00  0.00     0.041 C 
ATOM      9  O   UNL     1      16.077  12.428  12.518  1.00  0.00    -0.550 OA
ATOM     10  O   UNL     1      15.207  14.494  12.992  1.00  0.00    -0.550 OA
ENDBRANCH   7   8
ENDBRANCH   6   7
ENDBRANCH   5   6
ENDBRANCH   4   5
ENDBRANCH   3   4
ENDBRANCH   2   3
ENDBRANCH   1   2
BRANCH   1  11
ATOM     11  C   UNL     1      16.673  16.319   8.566  1.00  0.00     0.000 C 
BRANCH  11  12
ATOM     12  C   UNL     1      15.962  17.640   8.907  1.00  0.00    -0.000 C 
BRANCH  12  13
ATOM     13  C   UNL     1      16.411  18.220  10.258  1.00  0.00    -0.000 C 
BRANCH  13  14
ATOM     14  C   UNL     1      16.253  19.746  10.332  1.00  0.00    -0.000 C 
BRANCH  14  15
ATOM     15  C   UNL     1      15.749  20.180  11.713  1.00  0.00    -0.000 C 
BRANCH  15  16
ATOM     16  C   UNL     1      14.818  21.397  11.603  1.00  0.00    -0.000 C 
BRANCH  16  17
ATOM     17  C   UNL     1      13.372  21.073  12.004  1.00  0.00    -0.003 C 
ATOM     18  C   UNL     1      13.207  19.644  12.520  1.00  0.00     0.004 C 
ENDBRANCH  16  17
ENDBRANCH  15  16
ENDBRANCH  14  15
ENDBRANCH  13  14
ENDBRANCH  12  13
ENDBRANCH  11  12
ENDBRANCH   1  11
TORSDOF 14
ENDMDL
MODEL 3
REMARK VINA RESULT:    -3.210      3.272      6.331
REMARK INTER + INTRA:          -6.850
REMARK INTER:                  -5.274
REMARK INTRA:                  -1.576
REMARK UNBOUND:                -1.013
REMARK SMILES CCCCCCCCCCCCCCCC(=O)[O-]
REMARK SMILES IDX 9 1 10 2 11 3 12 4 13 5 14 6 15 7 16 8 17 9 18 10 8 11 7 12
REMARK SMILES IDX 6 13 5 14 4 15 3 16 2 17 1 18
REMARK H PARENT
REMARK Flexibility Score: inf
ROOT
ATOM      1  C   UNL     1      15.614  14.847   7.341  1.00  0.00     0.000 C 
ENDROOT
BRANCH   1   2
ATOM      2  C   UNL     1      15.596  13.552   8.174  1.00  0.00     0.000 C 
BRANCH   2   3
ATOM      3  C   UNL     1      16.993  13.153   8.675  1.00  0.00     0.000 C 
BRANCH   3   4
ATOM      4  C   UNL     1      17.047  12.988  10.201  1.00  0.00     0.000 C 
BRANCH   4   5
ATOM      5  C   UNL     1      16.892  14.342  10.905  1.00  0.00     0.000 C 
BRANCH   5   6
ATOM      6  C   UNL     1      15.941  14.232  12.107  1.00  0.00     0.006 C 
BRANCH   6   7
ATOM      7  C   UNL     1      15.437  12.798  12.317  1.00  0.00     0.053 C 
BRANCH   7   8
ATOM      8  C   UNL     1      13.966  12.681  12.058  1.00  0.00     0.041 C 
ATOM      9  O   UNL     1      13.527  12.707  10.878  1.00  0.00    -0.550 OA
ATOM     10  O   UNL     1      13.077  12.577  13.121  1.00  0.00    -0.550 OA
ENDBRANCH   7   8
ENDBRANCH   6   7
ENDBRANCH   5   6
ENDBRANCH   4   5
ENDBRANCH   3   4
ENDBRANCH   2   3
ENDBRANCH   1   2
BRANCH   1  11
ATOM     11  C   UNL     1      17.000  15.510   7.304  1.00  0.00     0.000 C 
BRANCH  11  12
ATOM     12  C   UNL     1      17.042  16.834   8.085  1.00  0.00    -0.000 C 
BRANCH  12  13
ATOM     13  C   UNL     1      15.684  17.195   8.708  1.00  0.00    -0.000 C 
BRANCH  13  14
ATOM     14  C   UNL     1      15.813  17.748  10.136  1.00  0.00    -0.000 C 
BRANCH  14  15
ATOM     15  C   UNL     1      15.621  19.269  10.155  1.00  0.00    -0.000 C 
BRANCH  15  16
ATOM     16  C   UNL     1      15.228  19.757  11.558  1.00  0.00    -0.000 C 
BRANCH  16  17
ATOM     17  C   UNL     1      13.714  19.972  11.706  1.00  0.00    -0.003 C 
ATOM     18  C   UNL     1      13.346  21.434  11.957  1.00  0.00     0.004 C 
ENDBRANCH  16  17
ENDBRANCH  15  16
ENDBRANCH  14  15
ENDBRANCH  13  14
ENDBRANCH  12  13
ENDBRANCH  11  12
ENDBRANCH   1  11
TORSDOF 14
ENDMDL
MODEL 4
REMARK VINA RESULT:    -3.174      1.306      2.190
REMARK INTER + INTRA:          -6.784
REMARK INTER:                  -5.227
REMARK INTRA:                  -1.557
REMARK UNBOUND:                -1.013
REMARK SMILES CCCCCCCCCCCCCCCC(=O)[O-]
REMARK SMILES IDX 9 1 10 2 11 3 12 4 13 5 14 6 15 7 16 8 17 9 18 10 8 11 7 12
REMARK SMILES IDX 6 13 5 14 4 15 3 16 2 17 1 18
REMARK H PARENT
REMARK Flexibility Score: inf
ROOT
ATOM      1  C   UNL     1      15.626  14.625   8.223  1.00  0.00     0.000 C 
ENDROOT
BRANCH   1   2
ATOM      2  C   UNL     1      16.068  15.755   7.275  1.00  0.00     0.000 C 
BRANCH   2   3
ATOM      3  C   UNL     1      16.950  16.802   7.974  1.00  0.00     0.000 C 
BRANCH   3   4
ATOM      4  C   UNL     1      16.136  17.770   8.846  1.00  0.00     0.000 C 
BRANCH   4   5
ATOM      5  C   UNL     1      16.900  19.082   9.067  1.00  0.00     0.000 C 
BRANCH   5   6
ATOM      6  C   UNL     1      16.388  19.812  10.317  1.00  0.00     0.006 C 
BRANCH   6   7
ATOM      7  C   UNL     1      15.168  19.116  10.936  1.00  0.00     0.053 C 
BRANCH   7   8
ATOM      8  C   UNL     1      14.243  20.094  11.593  1.00  0.00     0.041 C 
ATOM      9  O   UNL     1      13.143  19.706  12.068  1.00  0.00    -0.550 OA
ATOM     10  O   UNL     1      14.580  21.441  11.651  1.00  0.00    -0.550 OA
ENDBRANCH   7   8
ENDBRANCH   6   7
ENDBRANCH   5   6
ENDBRANCH   4   5
ENDBRANCH   3   4
ENDBRANCH   2   3
ENDBRANCH   1   2
BRANCH   1  11
ATOM     11  C   UNL     1      16.675  13.508   8.345  1.00  0.00     0.000 C 
BRANCH  11  12
ATOM     12  C   UNL     1      17.125  13.277   9.797  1.00  0.00    -0.000 C 
BRANCH  12  13
ATOM     13  C   UNL     1      16.802  14.469  10.712  1.00  0.00    -0.000 C 
BRANCH  13  14
ATOM     14  C   UNL     1      16.108  14.047  12.016  1.00  0.00    -0.000 C 
BRANCH  14  15
ATOM     15  C   UNL     1      16.072  12.520  12.149  1.00  0.00    -0.000 C 
BRANCH  15  16
ATOM     16  C   UNL     1      14.664  12.033  12.523  1.00  0.00    -0.000 C 
BRANCH  16  17
ATOM     17  C   UNL     1      13.587  12.534  11.550  1.00  0.00    -0.003 C 
ATOM     18  C   UNL     1      13.762  11.977  10.137  1.00  0.00     0.004 C 
ENDBRANCH  16  17
ENDBRANCH  15  16
ENDBRANCH  14  15
ENDBRANCH  13  14
ENDBRANCH  12  13
ENDBRANCH  11  12
ENDBRANCH   1  11
TORSDOF 14
ENDMDL
MODEL 5
REMARK VINA RESULT:    -3.139      3.039      6.835
REMARK INTER + INTRA:          -6.721
REMARK INTER:                  -5.470
REMARK INTRA:                  -1.251
REMARK UNBOUND:                -1.013
REMARK SMILES CCCCCCCCCCCCCCCC(=O)[O-]
REMARK SMILES IDX 9 1 10 2 11 3 12 4 13 5 14 6 15 7 16 8 17 9 18 10 8 11 7 12
REMARK SMILES IDX 6 13 5 14 4 15 3 16 2 17 1 18
REMARK H PARENT
REMARK Flexibility Score: inf
ROOT
ATOM      1  C   UNL     1      15.632  17.286   8.714  1.00  0.00     0.000 C 
ENDROOT
BRANCH   1   2
ATOM      2  C   UNL     1      16.578  16.137   8.317  1.00  0.00     0.000 C 
BRANCH   2   3
ATOM      3  C   UNL     1      16.341  14.864   9.145  1.00  0.00     0.000 C 
BRANCH   3   4
ATOM      4  C   UNL     1      14.851  14.511   9.271  1.00  0.00     0.000 C 
BRANCH   4   5
ATOM      5  C   UNL     1      14.568  13.117   8.695  1.00  0.00     0.000 C 
BRANCH   5   6
ATOM      6  C   UNL     1      13.796  12.252   9.703  1.00  0.00     0.006 C 
BRANCH   6   7
ATOM      7  C   UNL     1      14.580  12.040  11.005  1.00  0.00     0.053 C 
BRANCH   7   8
ATOM      8  C   UNL     1      13.968  12.785  12.151  1.00  0.00     0.041 C 
ATOM      9  O   UNL     1      12.753  12.619  12.439  1.00  0.00    -0.550 OA
ATOM     10  O   UNL     1      14.731  13.688  12.882  1.00  0.00    -0.550 OA
ENDBRANCH   7   8
ENDBRANCH   6   7
ENDBRANCH   5   6
ENDBRANCH   4   5
ENDBRANCH   3   4
ENDBRANCH   2   3
ENDBRANCH   1   2
BRANCH   1  11
ATOM     11  C   UNL     1      16.374  18.473   9.348  1.00  0.00     0.000 C 
BRANCH  11  12
ATOM     12  C   UNL     1      17.124  18.083  10.633  1.00  0.00    -0.000 C 
BRANCH  12  13
ATOM     13  C   UNL     1      16.675  18.906  11.852  1.00  0.00    -0.000 C 
BRANCH  13  14
ATOM     14  C   UNL     1      15.570  18.212  12.662  1.00  0.00    -0.000 C 
BRANCH  14  15
ATOM     15  C   UNL     1      14.452  19.198  13.022  1.00  0.00    -0.000 C 
BRANCH  15  16
ATOM     16  C   UNL     1      13.653  19.604  11.775  1.00  0.00    -0.000 C 
BRANCH  16  17
ATOM     17  C   UNL     1      13.364  21.111  11.723  1.00  0.00    -0.003 C 
ATOM     18  C   UNL     1      14.571  21.959  12.122  1.00  0.00     0.004 C 
ENDBRANCH  16  17
ENDBRANCH  15  16
ENDBRANCH  14  15
ENDBRANCH  13  14
ENDBRANCH  12  13
ENDBRANCH  11  12
ENDBRANCH   1  11
TORSDOF 14
ENDMDL
MODEL 6
REMARK VINA RESULT:    -3.078      3.707      7.036
REMARK INTER + INTRA:          -6.610
REMARK INTER:                  -5.095
REMARK INTRA:                  -1.515
REMARK UNBOUND:                -1.013
REMARK SMILES CCCCCCCCCCCCCCCC(=O)[O-]
REMARK SMILES IDX 9 1 10 2 11 3 12 4 13 5 14 6 15 7 16 8 17 9 18 10 8 11 7 12
REMARK SMILES IDX 6 13 5 14 4 15 3 16 2 17 1 18
REMARK H PARENT
REMARK Flexibility Score: inf
ROOT
ATOM      1  C   UNL     1      15.417  15.973   8.957  1.00  0.00     0.000 C 
ENDROOT
BRANCH   1   2
ATOM      2  C   UNL     1      16.003  14.551   9.043  1.00  0.00     0.000 C 
BRANCH   2   3
ATOM      3  C   UNL     1      16.833  14.330  10.316  1.00  0.00     0.000 C 
BRANCH   3   4
ATOM      4  C   UNL     1      16.231  15.033  11.543  1.00  0.00     0.000 C 
BRANCH   4   5
ATOM      5  C   UNL     1      16.009  14.039  12.690  1.00  0.00     0.000 C 
BRANCH   5   6
ATOM      6  C   UNL     1      14.561  13.527  12.702  1.00  0.00     0.006 C 
BRANCH   6   7
ATOM      7  C   UNL     1      14.486  11.997  12.615  1.00  0.00     0.053 C 
BRANCH   7   8
ATOM      8  C   UNL     1      14.821  11.501  11.241  1.00  0.00     0.041 C 
ATOM      9  O   UNL     1      15.861  10.817  11.051  1.00  0.00    -0.550 OA
ATOM     10  O   UNL     1      14.001  11.821  10.166  1.00  0.00    -0.550 OA
ENDBRANCH   7   8
ENDBRANCH   6   7
ENDBRANCH   5   6
ENDBRANCH   4   5
ENDBRANCH   3   4
ENDBRANCH   2   3
ENDBRANCH   1   2
BRANCH   1  11
ATOM     11  C   UNL     1      16.344  16.954   8.222  1.00  0.00     0.000 C 
BRANCH  11  12
ATOM     12  C   UNL     1      16.741  18.157   9.094  1.00  0.00    -0.000 C 
BRANCH  12  13
ATOM     13  C   UNL     1      15.631  18.566  10.076  1.00  0.00    -0.000 C 
BRANCH  13  14
ATOM     14  C   UNL     1      16.140  18.714  11.518  1.00  0.00    -0.000 C 
BRANCH  14  15
ATOM     15  C   UNL     1      14.971  18.850  12.501  1.00  0.00    -0.000 C 
BRANCH  15  16
ATOM     16  C   UNL     1      13.854  19.723  11.912  1.00  0.00    -0.000 C 
BRANCH  16  17
ATOM     17  C   UNL     1      14.216  21.216  11.898  1.00  0.00    -0.003 C 
ATOM     18  C   UNL     1      12.986  22.123  11.914  1.00  0.00     0.004 C 
ENDBRANCH  16  17
ENDBRANCH  15  16
ENDBRANCH  14  15
ENDBRANCH  13  14
ENDBRANCH  12  13
ENDBRANCH  11  12
ENDBRANCH   1  11
TORSDOF 14
ENDMDL
MODEL 7
REMARK VINA RESULT:    -2.983      1.450      2.608
REMARK INTER + INTRA:          -6.438
REMARK INTER:                  -4.954
REMARK INTRA:                  -1.484
REMARK UNBOUND:                -1.013
REMARK SMILES CCCCCCCCCCCCCCCC(=O)[O-]
REMARK SMILES IDX 9 1 10 2 11 3 12 4 13 5 14 6 15 7 16 8 17 9 18 10 8 11 7 12
REMARK SMILES IDX 6 13 5 14 4 15 3 16 2 17 1 18
REMARK H PARENT
REMARK Flexibility Score: inf
ROOT
ATOM      1  C   UNL     1      14.863  13.678   7.398  1.00  0.00     0.000 C 
ENDROOT
BRANCH   1   2
ATOM      2  C   UNL     1      15.567  14.783   8.208  1.00  0.00     0.000 C 
BRANCH   2   3
ATOM      3  C   UNL     1      16.556  15.598   7.361  1.00  0.00     0.000 C 
BRANCH   3   4
ATOM      4  C   UNL     1      17.071  16.846   8.093  1.00  0.00     0.000 C 
BRANCH   4   5
ATOM      5  C   UNL     1      15.983  17.439   8.997  1.00  0.00     0.000 C 
BRANCH   5   6
ATOM      6  C   UNL     1      16.586  18.425  10.010  1.00  0.00     0.006 C 
BRANCH   6   7
ATOM      7  C   UNL     1      15.571  19.481  10.465  1.00  0.00     0.053 C 
BRANCH   7   8
ATOM      8  C   UNL     1      15.399  19.483  11.954  1.00  0.00     0.041 C 
ATOM      9  O   UNL     1      16.071  20.272  12.668  1.00  0.00    -0.550 OA
ATOM     10  O   UNL     1      14.520  18.589  12.554  1.00  0.00    -0.550 OA
ENDBRANCH   7   8
ENDBRANCH   6   7
ENDBRANCH   5   6
ENDBRANCH   4   5
ENDBRANCH   3   4
ENDBRANCH   2   3
ENDBRANCH   1   2
BRANCH   1  11
ATOM     11  C   UNL     1      14.009  12.750   8.276  1.00  0.00     0.000 C 
BRANCH  11  12
ATOM     12  C   UNL     1      14.153  13.059   9.776  1.00  0.00    -0.000 C 
BRANCH  12  13
ATOM     13  C   UNL     1      14.125  11.792  10.646  1.00  0.00    -0.000 C 
BRANCH  13  14
ATOM     14  C   UNL     1      15.512  11.413  11.187  1.00  0.00    -0.000 C 
BRANCH  14  15
ATOM     15  C   UNL     1      15.565  11.559  12.713  1.00  0.00    -0.000 C 
BRANCH  15  16
ATOM     16  C   UNL     1      15.794  13.022  13.118  1.00  0.00    -0.000 C 
BRANCH  16  17
ATOM     17  C   UNL     1      16.936  13.682  12.331  1.00  0.00    -0.003 C 
ATOM     18  C   UNL     1      16.556  15.054  11.775  1.00  0.00     0.004 C 
ENDBRANCH  16  17
ENDBRANCH  15  16
ENDBRANCH  14  15
ENDBRANCH  13  14
ENDBRANCH  12  13
ENDBRANCH  11  12
ENDBRANCH   1  11
TORSDOF 14
ENDMDL
MODEL 8
REMARK VINA RESULT:    -2.954      1.125      2.758
REMARK INTER + INTRA:          -6.384
REMARK INTER:                  -5.221
REMARK INTRA:                  -1.164
REMARK UNBOUND:                -1.013
REMARK SMILES CCCCCCCCCCCCCCCC(=O)[O-]
REMARK SMILES IDX 9 1 10 2 11 3 12 4 13 5 14 6 15 7 16 8 17 9 18 10 8 11 7 12
REMARK SMILES IDX 6 13 5 14 4 15 3 16 2 17 1 18
REMARK H PARENT
REMARK Flexibility Score: inf
ROOT
ATOM      1  C   UNL     1      16.240  15.589   8.671  1.00  0.00     0.000 C 
ENDROOT
BRANCH   1   2
ATOM      2  C   UNL     1      15.920  17.077   8.434  1.00  0.00     0.000 C 
BRANCH   2   3
ATOM      3  C   UNL     1      17.035  18.007   8.937  1.00  0.00     0.000 C 
BRANCH   3   4
ATOM      4  C   UNL     1      16.488  19.230   9.690  1.00  0.00     0.000 C 
BRANCH   4   5
ATOM      5  C   UNL     1      15.258  18.854  10.526  1.00  0.00     0.000 C 
BRANCH   5   6
ATOM      6  C   UNL     1      15.454  19.245  11.998  1.00  0.00     0.006 C 
BRANCH   6   7
ATOM      7  C   UNL     1      14.271  20.056  12.545  1.00  0.00     0.053 C 
BRANCH   7   8
ATOM      8  C   UNL     1      14.245  21.446  11.986  1.00  0.00     0.041 C 
ATOM      9  O   UNL     1      15.312  22.105  11.876  1.00  0.00    -0.550 OA
ATOM     10  O   UNL     1      13.037  22.027  11.620  1.00  0.00    -0.550 OA
ENDBRANCH   7   8
ENDBRANCH   6   7
ENDBRANCH   5   6
ENDBRANCH   4   5
ENDBRANCH   3   4
ENDBRANCH   2   3
ENDBRANCH   1   2
BRANCH   1  11
ATOM     11  C   UNL     1      17.124  15.361   9.908  1.00  0.00     0.000 C 
BRANCH  11  12
ATOM     12  C   UNL     1      16.324  15.395  11.221  1.00  0.00    -0.000 C 
BRANCH  12  13
ATOM     13  C   UNL     1      16.310  14.036  11.939  1.00  0.00    -0.000 C 
BRANCH  13  14
ATOM     14  C   UNL     1      14.889  13.500  12.168  1.00  0.00    -0.000 C 
BRANCH  14  15
ATOM     15  C   UNL     1      14.780  12.032  11.740  1.00  0.00    -0.000 C 
BRANCH  15  16
ATOM     16  C   UNL     1      13.981  11.896  10.435  1.00  0.00    -0.000 C 
BRANCH  16  17
ATOM     17  C   UNL     1      14.250  13.047   9.455  1.00  0.00    -0.003 C 
ATOM     18  C   UNL     1      13.750  12.750   8.042  1.00  0.00     0.004 C 
ENDBRANCH  16  17
ENDBRANCH  15  16
ENDBRANCH  14  15
ENDBRANCH  13  14
ENDBRANCH  12  13
ENDBRANCH  11  12
ENDBRANCH   1  11
TORSDOF 14
ENDMDL
