MODEL 1
REMARK VINA RESULT:    -4.165      0.000      0.000
REMARK INTER + INTRA:         -11.143
REMARK INTER:                  -9.521
REMARK INTRA:                  -1.622
REMARK UNBOUND:                -1.622
REMARK SMILES CCCCCCCCCCCCCCCCCCCCCCCC(=O)[O-]
REMARK SMILES IDX 13 1 14 2 15 3 16 4 17 5 18 6 19 7 20 8 21 9 22 10 23 11
REMARK SMILES IDX 24 12 25 13 26 14 12 15 11 16 10 17 9 18 8 19 7 20 6 21 5 22
REMARK SMILES IDX 4 23 3 24 2 25 1 26
REMARK H PARENT
REMARK Flexibility Score: inf
ROOT
ATOM      1  C   UNL     1       1.634  16.011  21.807  1.00  0.00     0.000 C 
ENDROOT
BRANCH   1   2
ATOM      2  C   UNL     1       0.128  16.224  22.025  1.00  0.00     0.000 C 
BRANCH   2   3
ATOM      3  C   UNL     1      -0.731  15.255  21.200  1.00  0.00     0.000 C 
BRANCH   3   4
ATOM      4  C   UNL     1      -2.225  15.623  21.211  1.00  0.00     0.000 C 
BRANCH   4   5
ATOM      5  C   UNL     1      -2.547  16.877  22.054  1.00  0.00     0.000 C 
BRANCH   5   6
ATOM      6  C   UNL     1      -4.051  17.003  22.354  1.00  0.00     0.000 C 
BRANCH   6   7
ATOM      7  C   UNL     1      -4.776  15.649  22.345  1.00  0.00     0.000 C 
BRANCH   7   8
ATOM      8  C   UNL     1      -5.803  15.532  21.208  1.00  0.00     0.000 C 
BRANCH   8   9
ATOM      9  C   UNL     1      -7.130  14.962  21.724  1.00  0.00     0.000 C 
BRANCH   9  10
ATOM     10  C   UNL     1      -8.306  15.873  21.349  1.00  0.00     0.006 C 
BRANCH  10  11
ATOM     11  C   UNL     1      -8.046  17.315  21.794  1.00  0.00     0.053 C 
BRANCH  11  12
ATOM     12  C   UNL     1      -8.386  18.276  20.698  1.00  0.00     0.041 C 
ATOM     13  O   UNL     1      -8.300  17.920  19.493  1.00  0.00    -0.550 OA
ATOM     14  O   UNL     1      -8.800  19.567  21.007  1.00  0.00    -0.550 OA
ENDBRANCH  11  12
ENDBRANCH  10  11
ENDBRANCH   9  10
ENDBRANCH   8   9
ENDBRANCH   7   8
ENDBRANCH   6   7
ENDBRANCH   5   6
ENDBRANCH   4   5
ENDBRANCH   3   4
ENDBRANCH   2   3
ENDBRANCH   1   2
BRANCH   1  15
ATOM     15  C   UNL     1       2.435  16.078  23.120  1.00  0.00     0.000 C 
BRANCH  15  16
ATOM     16  C   UNL     1       3.856  15.513  22.971  1.00  0.00     0.000 C 
BRANCH  16  17
ATOM     17  C   UNL     1       4.659  16.217  21.863  1.00  0.00     0.000 C 
BRANCH  17  18
ATOM     18  C   UNL     1       6.180  15.989  22.003  1.00  0.00    -0.000 C 
BRANCH  18  19
ATOM     19  C   UNL     1       6.617  14.534  21.736  1.00  0.00    -0.000 C 
BRANCH  19  20
ATOM     20  C   UNL     1       7.551  13.926  22.800  1.00  0.00    -0.000 C 
BRANCH  20  21
ATOM     21  C   UNL     1       8.910  13.429  22.273  1.00  0.00    -0.000 C 
BRANCH  21  22
ATOM     22  C   UNL     1      10.035  14.463  22.448  1.00  0.00    -0.000 C 
BRANCH  22  23
ATOM     23  C   UNL     1      10.954  14.568  21.216  1.00  0.00    -0.000 C 
BRANCH  23  24
ATOM     24  C   UNL     1      11.007  15.957  20.552  1.00  0.00    -0.000 C 
BRANCH  24  25
ATOM     25  C   UNL     1       9.635  16.441  20.061  1.00  0.00    -0.003 C 
ATOM     26  C   UNL     1       9.232  17.742  20.749  1.00  0.00     0.004 C 
ENDBRANCH  24  25
ENDBRANCH  23  24
ENDBRANCH  22  23
ENDBRANCH  21  22
ENDBRANCH  20  21
ENDBRANCH  19  20
ENDBRANCH  18  19
ENDBRANCH  17  18
ENDBRANCH  16  17
ENDBRANCH  15  16
ENDBRANCH   1  15
TORSDOF 22
ENDMDL
MODEL 2
REMARK VINA RESULT:    -4.080      5.749     14.356
REMARK INTER + INTRA:         -10.949
REMARK INTER:                 -10.006
REMARK INTRA:                  -0.943
REMARK UNBOUND:                -1.622
REMARK SMILES CCCCCCCCCCCCCCCCCCCCCCCC(=O)[O-]
REMARK SMILES IDX 13 1 14 2 15 3 16 4 17 5 18 6 19 7 20 8 21 9 22 10 23 11
REMARK SMILES IDX 24 12 25 13 26 14 12 15 11 16 10 17 9 18 8 19 7 20 6 21 5 22
REMARK SMILES IDX 4 23 3 24 2 25 1 26
REMARK H PARENT
REMARK Flexibility Score: inf
ROOT
ATOM      1  C   UNL     1       1.748  15.995  21.744  1.00  0.00     0.000 C 
ENDROOT
BRANCH   1   2
ATOM      2  C   UNL     1       3.045  16.454  22.429  1.00  0.00     0.000 C 
BRANCH   2   3
ATOM      3  C   UNL     1       4.056  15.310  22.604  1.00  0.00     0.000 C 
BRANCH   3   4
ATOM      4  C   UNL     1       5.436  15.638  22.009  1.00  0.00     0.000 C 
BRANCH   4   5
ATOM      5  C   UNL     1       6.445  16.178  23.046  1.00  0.00     0.000 C 
BRANCH   5   6
ATOM      6  C   UNL     1       7.876  16.247  22.482  1.00  0.00     0.000 C 
BRANCH   6   7
ATOM      7  C   UNL     1       7.918  16.732  21.025  1.00  0.00     0.000 C 
BRANCH   7   8
ATOM      8  C   UNL     1       9.112  17.658  20.742  1.00  0.00     0.000 C 
BRANCH   8   9
ATOM      9  C   UNL     1      10.349  16.849  20.332  1.00  0.00     0.000 C 
BRANCH   9  10
ATOM     10  C   UNL     1       9.978  15.393  20.021  1.00  0.00     0.006 C 
BRANCH  10  11
ATOM     11  C   UNL     1      10.988  14.764  19.056  1.00  0.00     0.053 C 
BRANCH  11  12
ATOM     12  C   UNL     1      10.843  13.275  19.036  1.00  0.00     0.041 C 
ATOM     13  O   UNL     1      10.662  12.641  20.110  1.00  0.00    -0.550 OA
ATOM     14  O   UNL     1      10.908  12.585  17.830  1.00  0.00    -0.550 OA
ENDBRANCH  11  12
ENDBRANCH  10  11
ENDBRANCH   9  10
ENDBRANCH   8   9
ENDBRANCH   7   8
ENDBRANCH   6   7
ENDBRANCH   5   6
ENDBRANCH   4   5
ENDBRANCH   3   4
ENDBRANCH   2   3
ENDBRANCH   1   2
BRANCH   1  15
ATOM     15  C   UNL     1       0.528  16.074  22.680  1.00  0.00     0.000 C 
BRANCH  15  16
ATOM     16  C   UNL     1      -0.714  16.645  21.978  1.00  0.00     0.000 C 
BRANCH  16  17
ATOM     17  C   UNL     1      -1.927  16.753  22.917  1.00  0.00     0.000 C 
BRANCH  17  18
ATOM     18  C   UNL     1      -3.232  17.079  22.159  1.00  0.00    -0.000 C 
BRANCH  18  19
ATOM     19  C   UNL     1      -3.970  15.833  21.629  1.00  0.00    -0.000 C 
BRANCH  19  20
ATOM     20  C   UNL     1      -5.411  15.658  22.144  1.00  0.00    -0.000 C 
BRANCH  20  21
ATOM     21  C   UNL     1      -6.173  14.452  21.563  1.00  0.00    -0.000 C 
BRANCH  21  22
ATOM     22  C   UNL     1      -7.686  14.701  21.442  1.00  0.00    -0.000 C 
BRANCH  22  23
ATOM     23  C   UNL     1      -8.207  15.746  22.446  1.00  0.00    -0.000 C 
BRANCH  23  24
ATOM     24  C   UNL     1      -9.009  16.908  21.828  1.00  0.00    -0.000 C 
BRANCH  24  25
ATOM     25  C   UNL     1      -8.117  17.991  21.207  1.00  0.00    -0.003 C 
ATOM     26  C   UNL     1      -8.330  18.082  19.698  1.00  0.00     0.004 C 
ENDBRANCH  24  25
ENDBRANCH  23  24
ENDBRANCH  22  23
ENDBRANCH  21  22
ENDBRANCH  20  21
ENDBRANCH  19  20
ENDBRANCH  18  19
ENDBRANCH  17  18
ENDBRANCH  16  17
ENDBRANCH  15  16
ENDBRANCH   1  15
TORSDOF 22
ENDMDL
MODEL 3
REMARK VINA RESULT:    -4.068      1.229      2.094
REMARK INTER + INTRA:         -10.923
REMARK INTER:                  -9.821
REMARK INTRA:                  -1.103
REMARK UNBOUND:                -1.622
REMARK SMILES CCCCCCCCCCCCCCCCCCCCCCCC(=O)[O-]
REMARK SMILES IDX 13 1 14 2 15 3 16 4 17 5 18 6 19 7 20 8 21 9 22 10 23 11
REMARK SMILES IDX 24 12 25 13 26 14 12 15 11 16 10 17 9 18 8 19 7 20 6 21 5 22
REMARK SMILES IDX 4 23 3 24 2 25 1 26
REMARK H PARENT
REMARK Flexibility Score: inf
ROOT
ATOM      1  C   UNL     1       1.382  16.028  21.657  1.00  0.00     0.000 C 
ENDROOT
BRANCH   1   2
ATOM      2  C   UNL     1      -0.017  16.155  22.280  1.00  0.00     0.000 C 
BRANCH   2   3
ATOM      3  C   UNL     1      -0.995  16.929  21.383  1.00  0.00     0.000 C 
BRANCH   3   4
ATOM      4  C   UNL     1      -2.241  17.418  22.141  1.00  0.00     0.000 C 
BRANCH   4   5
ATOM      5  C   UNL     1      -3.264  16.299  22.438  1.00  0.00     0.000 C 
BRANCH   5   6
ATOM      6  C   UNL     1      -4.690  16.688  22.006  1.00  0.00     0.000 C 
BRANCH   6   7
ATOM      7  C   UNL     1      -5.739  15.638  22.401  1.00  0.00     0.000 C 
BRANCH   7   8
ATOM      8  C   UNL     1      -6.587  15.169  21.208  1.00  0.00     0.000 C 
BRANCH   8   9
ATOM      9  C   UNL     1      -8.079  15.162  21.565  1.00  0.00     0.000 C 
BRANCH   9  10
ATOM     10  C   UNL     1      -8.653  16.584  21.564  1.00  0.00     0.006 C 
BRANCH  10  11
ATOM     11  C   UNL     1      -8.667  17.170  20.148  1.00  0.00     0.053 C 
BRANCH  11  12
ATOM     12  C   UNL     1      -8.433  18.647  20.185  1.00  0.00     0.041 C 
ATOM     13  O   UNL     1      -8.335  19.247  21.288  1.00  0.00    -0.550 OA
ATOM     14  O   UNL     1      -8.323  19.364  18.998  1.00  0.00    -0.550 OA
ENDBRANCH  11  12
ENDBRANCH  10  11
ENDBRANCH   9  10
ENDBRANCH   8   9
ENDBRANCH   7   8
ENDBRANCH   6   7
ENDBRANCH   5   6
ENDBRANCH   4   5
ENDBRANCH   3   4
ENDBRANCH   2   3
ENDBRANCH   1   2
BRANCH   1  15
ATOM     15  C   UNL     1       2.506  16.232  22.688  1.00  0.00     0.000 C 
BRANCH  15  16
ATOM     16  C   UNL     1       3.886  16.382  22.030  1.00  0.00     0.000 C 
BRANCH  16  17
ATOM     17  C   UNL     1       4.784  15.152  22.250  1.00  0.00     0.000 C 
BRANCH  17  18
ATOM     18  C   UNL     1       6.122  15.514  22.930  1.00  0.00    -0.000 C 
BRANCH  18  19
ATOM     19  C   UNL     1       7.361  15.218  22.061  1.00  0.00    -0.000 C 
BRANCH  19  20
ATOM     20  C   UNL     1       8.477  16.277  22.130  1.00  0.00    -0.000 C 
BRANCH  20  21
ATOM     21  C   UNL     1       8.509  17.273  20.956  1.00  0.00    -0.000 C 
BRANCH  21  22
ATOM     22  C   UNL     1       9.843  17.255  20.190  1.00  0.00    -0.000 C 
BRANCH  22  23
ATOM     23  C   UNL     1      10.696  16.009  20.496  1.00  0.00    -0.000 C 
BRANCH  23  24
ATOM     24  C   UNL     1      10.840  15.009  19.333  1.00  0.00    -0.000 C 
BRANCH  24  25
ATOM     25  C   UNL     1      10.359  13.596  19.692  1.00  0.00    -0.003 C 
ATOM     26  C   UNL     1      10.761  12.588  18.618  1.00  0.00     0.004 C 
ENDBRANCH  24  25
ENDBRANCH  23  24
ENDBRANCH  22  23
ENDBRANCH  21  22
ENDBRANCH  20  21
ENDBRANCH  19  20
ENDBRANCH  18  19
ENDBRANCH  17  18
ENDBRANCH  16  17
ENDBRANCH  15  16
ENDBRANCH   1  15
TORSDOF 22
ENDMDL
MODEL 4
REMARK VINA RESULT:    -3.978      1.731      2.853
REMARK INTER + INTRA:         -10.716
REMARK INTER:                  -9.629
REMARK INTRA:                  -1.088
REMARK UNBOUND:                -1.622
REMARK SMILES CCCCCCCCCCCCCCCCCCCCCCCC(=O)[O-]
REMARK SMILES IDX 13 1 14 2 15 3 16 4 17 5 18 6 19 7 20 8 21 9 22 10 23 11
REMARK SMILES IDX 24 12 25 13 26 14 12 15 11 16 10 17 9 18 8 19 7 20 6 21 5 22
REMARK SMILES IDX 4 23 3 24 2 25 1 26
REMARK H PARENT
REMARK Flexibility Score: inf
ROOT
ATOM      1  C   UNL     1       3.858  15.998  22.084  1.00  0.00     0.000 C 
ENDROOT
BRANCH   1   2
ATOM      2  C   UNL     1       2.547  16.283  22.834  1.00  0.00     0.000 C 
BRANCH   2   3
ATOM      3  C   UNL     1       1.315  16.208  21.920  1.00  0.00     0.000 C 
BRANCH   3   4
ATOM      4  C   UNL     1       0.001  16.038  22.702  1.00  0.00     0.000 C 
BRANCH   4   5
ATOM      5  C   UNL     1      -1.254  16.451  21.901  1.00  0.00     0.000 C 
BRANCH   5   6
ATOM      6  C   UNL     1      -2.534  16.381  22.753  1.00  0.00     0.000 C 
BRANCH   6   7
ATOM      7  C   UNL     1      -3.778  16.880  22.001  1.00  0.00     0.000 C 
BRANCH   7   8
ATOM      8  C   UNL     1      -5.055  16.125  22.401  1.00  0.00     0.000 C 
BRANCH   8   9
ATOM      9  C   UNL     1      -5.562  15.255  21.245  1.00  0.00     0.000 C 
BRANCH   9  10
ATOM     10  C   UNL     1      -7.073  15.013  21.356  1.00  0.00     0.006 C 
BRANCH  10  11
ATOM     11  C   UNL     1      -7.763  16.178  22.073  1.00  0.00     0.053 C 
BRANCH  11  12
ATOM     12  C   UNL     1      -8.000  17.314  21.128  1.00  0.00     0.041 C 
ATOM     13  O   UNL     1      -8.662  17.134  20.072  1.00  0.00    -0.550 OA
ATOM     14  O   UNL     1      -7.488  18.575  21.415  1.00  0.00    -0.550 OA
ENDBRANCH  11  12
ENDBRANCH  10  11
ENDBRANCH   9  10
ENDBRANCH   8   9
ENDBRANCH   7   8
ENDBRANCH   6   7
ENDBRANCH   5   6
ENDBRANCH   4   5
ENDBRANCH   3   4
ENDBRANCH   2   3
ENDBRANCH   1   2
BRANCH   1  15
ATOM     15  C   UNL     1       4.656  14.841  22.712  1.00  0.00     0.000 C 
BRANCH  15  16
ATOM     16  C   UNL     1       6.149  14.895  22.352  1.00  0.00     0.000 C 
BRANCH  16  17
ATOM     17  C   UNL     1       6.526  16.173  21.583  1.00  0.00     0.000 C 
BRANCH  17  18
ATOM     18  C   UNL     1       7.911  16.719  21.992  1.00  0.00    -0.000 C 
BRANCH  18  19
ATOM     19  C   UNL     1       8.742  17.255  20.808  1.00  0.00    -0.000 C 
BRANCH  19  20
ATOM     20  C   UNL     1       9.751  16.256  20.212  1.00  0.00    -0.000 C 
BRANCH  20  21
ATOM     21  C   UNL     1      10.287  15.198  21.195  1.00  0.00    -0.000 C 
BRANCH  21  22
ATOM     22  C   UNL     1       9.815  13.774  20.860  1.00  0.00    -0.000 C 
BRANCH  22  23
ATOM     23  C   UNL     1      10.534  13.174  19.636  1.00  0.00    -0.000 C 
BRANCH  23  24
ATOM     24  C   UNL     1      11.106  11.757  19.839  1.00  0.00    -0.000 C 
BRANCH  24  25
ATOM     25  C   UNL     1      10.840  10.826  18.648  1.00  0.00    -0.003 C 
ATOM     26  C   UNL     1       9.979  11.514  17.593  1.00  0.00     0.004 C 
ENDBRANCH  24  25
ENDBRANCH  23  24
ENDBRANCH  22  23
ENDBRANCH  21  22
ENDBRANCH  20  21
ENDBRANCH  19  20
ENDBRANCH  18  19
ENDBRANCH  17  18
ENDBRANCH  16  17
ENDBRANCH  15  16
ENDBRANCH   1  15
TORSDOF 22
ENDMDL
MODEL 5
REMARK VINA RESULT:    -3.791      5.700     14.203
REMARK INTER + INTRA:         -10.289
REMARK INTER:                  -9.099
REMARK INTRA:                  -1.191
REMARK UNBOUND:                -1.622
REMARK SMILES CCCCCCCCCCCCCCCCCCCCCCCC(=O)[O-]
REMARK SMILES IDX 13 1 14 2 15 3 16 4 17 5 18 6 19 7 20 8 21 9 22 10 23 11
REMARK SMILES IDX 24 12 25 13 26 14 12 15 11 16 10 17 9 18 8 19 7 20 6 21 5 22
REMARK SMILES IDX 4 23 3 24 2 25 1 26
REMARK H PARENT
REMARK Flexibility Score: inf
ROOT
ATOM      1  C   UNL     1       2.863  15.996  22.989  1.00  0.00     0.000 C 
ENDROOT
BRANCH   1   2
ATOM      2  C   UNL     1       4.192  15.671  22.287  1.00  0.00     0.000 C 
BRANCH   2   3
ATOM      3  C   UNL     1       4.575  16.722  21.234  1.00  0.00     0.000 C 
BRANCH   3   4
ATOM      4  C   UNL     1       6.082  16.729  20.920  1.00  0.00     0.000 C 
BRANCH   4   5
ATOM      5  C   UNL     1       6.938  15.996  21.976  1.00  0.00     0.000 C 
BRANCH   5   6
ATOM      6  C   UNL     1       8.437  16.311  21.827  1.00  0.00     0.000 C 
BRANCH   6   7
ATOM      7  C   UNL     1       9.328  15.075  22.022  1.00  0.00     0.000 C 
BRANCH   7   8
ATOM      8  C   UNL     1       8.834  13.856  21.226  1.00  0.00     0.000 C 
BRANCH   8   9
ATOM      9  C   UNL     1       9.604  12.592  21.625  1.00  0.00     0.000 C 
BRANCH   9  10
ATOM     10  C   UNL     1      10.960  12.523  20.913  1.00  0.00     0.006 C 
BRANCH  10  11
ATOM     11  C   UNL     1      10.945  11.465  19.804  1.00  0.00     0.053 C 
BRANCH  11  12
ATOM     12  C   UNL     1      10.532  12.072  18.500  1.00  0.00     0.041 C 
ATOM     13  O   UNL     1       9.934  11.377  17.637  1.00  0.00    -0.550 OA
ATOM     14  O   UNL     1      10.808  13.410  18.237  1.00  0.00    -0.550 OA
ENDBRANCH  11  12
ENDBRANCH  10  11
ENDBRANCH   9  10
ENDBRANCH   8   9
ENDBRANCH   7   8
ENDBRANCH   6   7
ENDBRANCH   5   6
ENDBRANCH   4   5
ENDBRANCH   3   4
ENDBRANCH   2   3
ENDBRANCH   1   2
BRANCH   1  15
ATOM     15  C   UNL     1       1.710  16.215  21.993  1.00  0.00     0.000 C 
BRANCH  15  16
ATOM     16  C   UNL     1       0.331  16.013  22.638  1.00  0.00     0.000 C 
BRANCH  16  17
ATOM     17  C   UNL     1      -0.811  16.014  21.608  1.00  0.00     0.000 C 
BRANCH  17  18
ATOM     18  C   UNL     1      -1.725  17.251  21.742  1.00  0.00    -0.000 C 
BRANCH  18  19
ATOM     19  C   UNL     1      -2.933  17.033  22.674  1.00  0.00    -0.000 C 
BRANCH  19  20
ATOM     20  C   UNL     1      -4.305  17.014  21.974  1.00  0.00    -0.000 C 
BRANCH  20  21
ATOM     21  C   UNL     1      -5.217  15.830  22.348  1.00  0.00    -0.000 C 
BRANCH  21  22
ATOM     22  C   UNL     1      -5.926  15.212  21.131  1.00  0.00    -0.000 C 
BRANCH  22  23
ATOM     23  C   UNL     1      -7.285  14.578  21.484  1.00  0.00    -0.000 C 
BRANCH  23  24
ATOM     24  C   UNL     1      -8.351  15.559  22.008  1.00  0.00    -0.000 C 
BRANCH  24  25
ATOM     25  C   UNL     1      -8.524  16.794  21.112  1.00  0.00    -0.003 C 
ATOM     26  C   UNL     1      -8.696  18.060  21.947  1.00  0.00     0.004 C 
ENDBRANCH  24  25
ENDBRANCH  23  24
ENDBRANCH  22  23
ENDBRANCH  21  22
ENDBRANCH  20  21
ENDBRANCH  19  20
ENDBRANCH  18  19
ENDBRANCH  17  18
ENDBRANCH  16  17
ENDBRANCH  15  16
ENDBRANCH   1  15
TORSDOF 22
ENDMDL
MODEL 6
REMARK VINA RESULT:    -3.764      1.017      2.899
REMARK INTER + INTRA:         -10.226
REMARK INTER:                  -8.968
REMARK INTRA:                  -1.258
REMARK UNBOUND:                -1.622
REMARK SMILES CCCCCCCCCCCCCCCCCCCCCCCC(=O)[O-]
REMARK SMILES IDX 13 1 14 2 15 3 16 4 17 5 18 6 19 7 20 8 21 9 22 10 23 11
REMARK SMILES IDX 24 12 25 13 26 14 12 15 11 16 10 17 9 18 8 19 7 20 6 21 5 22
REMARK SMILES IDX 4 23 3 24 2 25 1 26
REMARK H PARENT
REMARK Flexibility Score: inf
ROOT
ATOM      1  C   UNL     1      -1.943  15.922  21.243  1.00  0.00     0.000 C 
ENDROOT
BRANCH   1   2
ATOM      2  C   UNL     1      -2.310  17.026  22.246  1.00  0.00     0.000 C 
BRANCH   2   3
ATOM      3  C   UNL     1      -3.826  17.255  22.343  1.00  0.00     0.000 C 
BRANCH   3   4
ATOM      4  C   UNL     1      -4.619  15.944  22.487  1.00  0.00     0.000 C 
BRANCH   4   5
ATOM      5  C   UNL     1      -5.560  15.656  21.297  1.00  0.00     0.000 C 
BRANCH   5   6
ATOM      6  C   UNL     1      -6.537  14.504  21.595  1.00  0.00     0.000 C 
BRANCH   6   7
ATOM      7  C   UNL     1      -8.000  14.970  21.676  1.00  0.00     0.000 C 
BRANCH   7   8
ATOM      8  C   UNL     1      -8.291  15.794  22.940  1.00  0.00     0.000 C 
BRANCH   8   9
ATOM      9  C   UNL     1      -9.104  17.049  22.601  1.00  0.00     0.000 C 
BRANCH   9  10
ATOM     10  C   UNL     1      -8.184  18.226  22.254  1.00  0.00     0.006 C 
BRANCH  10  11
ATOM     11  C   UNL     1      -8.896  19.228  21.339  1.00  0.00     0.053 C 
BRANCH  11  12
ATOM     12  C   UNL     1      -8.630  18.912  19.901  1.00  0.00     0.041 C 
ATOM     13  O   UNL     1      -8.639  19.828  19.037  1.00  0.00    -0.550 OA
ATOM     14  O   UNL     1      -8.370  17.601  19.513  1.00  0.00    -0.550 OA
ENDBRANCH  11  12
ENDBRANCH  10  11
ENDBRANCH   9  10
ENDBRANCH   8   9
ENDBRANCH   7   8
ENDBRANCH   6   7
ENDBRANCH   5   6
ENDBRANCH   4   5
ENDBRANCH   3   4
ENDBRANCH   2   3
ENDBRANCH   1   2
BRANCH   1  15
ATOM     15  C   UNL     1      -0.570  15.291  21.538  1.00  0.00     0.000 C 
BRANCH  15  16
ATOM     16  C   UNL     1       0.541  16.343  21.677  1.00  0.00     0.000 C 
BRANCH  16  17
ATOM     17  C   UNL     1       1.881  15.733  22.121  1.00  0.00     0.000 C 
BRANCH  17  18
ATOM     18  C   UNL     1       3.053  16.731  21.996  1.00  0.00    -0.000 C 
BRANCH  18  19
ATOM     19  C   UNL     1       4.435  16.056  21.882  1.00  0.00    -0.000 C 
BRANCH  19  20
ATOM     20  C   UNL     1       4.756  15.034  22.989  1.00  0.00    -0.000 C 
BRANCH  20  21
ATOM     21  C   UNL     1       6.029  14.197  22.759  1.00  0.00    -0.000 C 
BRANCH  21  22
ATOM     22  C   UNL     1       6.885  14.717  21.592  1.00  0.00    -0.000 C 
BRANCH  22  23
ATOM     23  C   UNL     1       8.397  14.655  21.880  1.00  0.00    -0.000 C 
BRANCH  23  24
ATOM     24  C   UNL     1       9.241  13.934  20.811  1.00  0.00    -0.000 C 
BRANCH  24  25
ATOM     25  C   UNL     1      10.372  14.808  20.248  1.00  0.00    -0.003 C 
ATOM     26  C   UNL     1       9.963  16.277  20.206  1.00  0.00     0.004 C 
ENDBRANCH  24  25
ENDBRANCH  23  24
ENDBRANCH  22  23
ENDBRANCH  21  22
ENDBRANCH  20  21
ENDBRANCH  19  20
ENDBRANCH  18  19
ENDBRANCH  17  18
ENDBRANCH  16  17
ENDBRANCH  15  16
ENDBRANCH   1  15
TORSDOF 22
ENDMDL
MODEL 7
REMARK VINA RESULT:    -3.763      5.500     14.199
REMARK INTER + INTRA:         -10.225
REMARK INTER:                  -8.677
REMARK INTRA:                  -1.548
REMARK UNBOUND:                -1.622
REMARK SMILES CCCCCCCCCCCCCCCCCCCCCCCC(=O)[O-]
REMARK SMILES IDX 13 1 14 2 15 3 16 4 17 5 18 6 19 7 20 8 21 9 22 10 23 11
REMARK SMILES IDX 24 12 25 13 26 14 12 15 11 16 10 17 9 18 8 19 7 20 6 21 5 22
REMARK SMILES IDX 4 23 3 24 2 25 1 26
REMARK H PARENT
REMARK Flexibility Score: inf
ROOT
ATOM      1  C   UNL     1       0.821  16.360  21.734  1.00  0.00     0.000 C 
ENDROOT
BRANCH   1   2
ATOM      2  C   UNL     1       1.471  16.283  23.125  1.00  0.00     0.000 C 
BRANCH   2   3
ATOM      3  C   UNL     1       2.969  15.951  23.059  1.00  0.00     0.000 C 
BRANCH   3   4
ATOM      4  C   UNL     1       3.502  15.884  21.617  1.00  0.00     0.000 C 
BRANCH   4   5
ATOM      5  C   UNL     1       4.904  16.510  21.446  1.00  0.00     0.000 C 
BRANCH   5   6
ATOM      6  C   UNL     1       5.916  15.954  22.465  1.00  0.00     0.000 C 
BRANCH   6   7
ATOM      7  C   UNL     1       7.364  16.003  21.953  1.00  0.00     0.000 C 
BRANCH   7   8
ATOM      8  C   UNL     1       7.632  17.216  21.048  1.00  0.00     0.000 C 
BRANCH   8   9
ATOM      9  C   UNL     1       9.137  17.429  20.848  1.00  0.00     0.000 C 
BRANCH   9  10
ATOM     10  C   UNL     1       9.753  16.286  20.030  1.00  0.00     0.006 C 
BRANCH  10  11
ATOM     11  C   UNL     1      10.905  15.624  20.793  1.00  0.00     0.053 C 
BRANCH  11  12
ATOM     12  C   UNL     1      10.599  14.185  21.068  1.00  0.00     0.041 C 
ATOM     13  O   UNL     1      10.760  13.319  20.168  1.00  0.00    -0.550 OA
ATOM     14  O   UNL     1      10.136  13.799  22.321  1.00  0.00    -0.550 OA
ENDBRANCH  11  12
ENDBRANCH  10  11
ENDBRANCH   9  10
ENDBRANCH   8   9
ENDBRANCH   7   8
ENDBRANCH   6   7
ENDBRANCH   5   6
ENDBRANCH   4   5
ENDBRANCH   3   4
ENDBRANCH   2   3
ENDBRANCH   1   2
BRANCH   1  15
ATOM     15  C   UNL     1      -0.660  15.942  21.752  1.00  0.00     0.000 C 
BRANCH  15  16
ATOM     16  C   UNL     1      -1.552  16.973  22.460  1.00  0.00     0.000 C 
BRANCH  16  17
ATOM     17  C   UNL     1      -2.869  16.364  22.972  1.00  0.00     0.000 C 
BRANCH  17  18
ATOM     18  C   UNL     1      -4.011  16.476  21.938  1.00  0.00    -0.000 C 
BRANCH  18  19
ATOM     19  C   UNL     1      -5.283  15.700  22.331  1.00  0.00    -0.000 C 
BRANCH  19  20
ATOM     20  C   UNL     1      -6.220  15.343  21.161  1.00  0.00    -0.000 C 
BRANCH  20  21
ATOM     21  C   UNL     1      -7.518  14.616  21.558  1.00  0.00    -0.000 C 
BRANCH  21  22
ATOM     22  C   UNL     1      -8.387  15.429  22.532  1.00  0.00    -0.000 C 
BRANCH  22  23
ATOM     23  C   UNL     1      -9.073  16.635  21.864  1.00  0.00    -0.000 C 
BRANCH  23  24
ATOM     24  C   UNL     1      -8.627  18.016  22.382  1.00  0.00    -0.000 C 
BRANCH  24  25
ATOM     25  C   UNL     1      -7.983  18.886  21.294  1.00  0.00    -0.003 C 
ATOM     26  C   UNL     1      -8.347  18.384  19.900  1.00  0.00     0.004 C 
ENDBRANCH  24  25
ENDBRANCH  23  24
ENDBRANCH  22  23
ENDBRANCH  21  22
ENDBRANCH  20  21
ENDBRANCH  19  20
ENDBRANCH  18  19
ENDBRANCH  17  18
ENDBRANCH  16  17
ENDBRANCH  15  16
ENDBRANCH   1  15
TORSDOF 22
ENDMDL
MODEL 8
REMARK VINA RESULT:    -3.531      5.142     13.859
REMARK INTER + INTRA:          -9.695
REMARK INTER:                  -8.762
REMARK INTRA:                  -0.934
REMARK UNBOUND:                -1.622
REMARK SMILES CCCCCCCCCCCCCCCCCCCCCCCC(=O)[O-]
REMARK SMILES IDX 13 1 14 2 15 3 16 4 17 5 18 6 19 7 20 8 21 9 22 10 23 11
REMARK SMILES IDX 24 12 25 13 26 14 12 15 11 16 10 17 9 18 8 19 7 20 6 21 5 22
REMARK SMILES IDX 4 23 3 24 2 25 1 26
REMARK H PARENT
REMARK Flexibility Score: inf
ROOT
ATOM      1  C   UNL     1      -2.573  17.907  23.083  1.00  0.00     0.000 C 
ENDROOT
BRANCH   1   2
ATOM      2  C   UNL     1      -1.322  17.014  23.064  1.00  0.00     0.000 C 
BRANCH   2   3
ATOM      3  C   UNL     1      -0.867  16.666  21.638  1.00  0.00     0.000 C 
BRANCH   3   4
ATOM      4  C   UNL     1       0.449  15.870  21.610  1.00  0.00     0.000 C 
BRANCH   4   5
ATOM      5  C   UNL     1       1.412  16.223  22.766  1.00  0.00     0.000 C 
BRANCH   5   6
ATOM      6  C   UNL     1       2.861  16.400  22.279  1.00  0.00     0.000 C 
BRANCH   6   7
ATOM      7  C   UNL     1       3.804  15.307  22.805  1.00  0.00     0.000 C 
BRANCH   7   8
ATOM      8  C   UNL     1       5.284  15.619  22.532  1.00  0.00     0.000 C 
BRANCH   8   9
ATOM      9  C   UNL     1       6.155  14.376  22.749  1.00  0.00     0.000 C 
BRANCH   9  10
ATOM     10  C   UNL     1       7.498  14.508  22.021  1.00  0.00     0.006 C 
BRANCH  10  11
ATOM     11  C   UNL     1       8.182  15.835  22.367  1.00  0.00     0.053 C 
BRANCH  11  12
ATOM     12  C   UNL     1       8.907  16.382  21.178  1.00  0.00     0.041 C 
ATOM     13  O   UNL     1       9.607  15.623  20.457  1.00  0.00    -0.550 OA
ATOM     14  O   UNL     1       8.809  17.733  20.864  1.00  0.00    -0.550 OA
ENDBRANCH  11  12
ENDBRANCH  10  11
ENDBRANCH   9  10
ENDBRANCH   8   9
ENDBRANCH   7   8
ENDBRANCH   6   7
ENDBRANCH   5   6
ENDBRANCH   4   5
ENDBRANCH   3   4
ENDBRANCH   2   3
ENDBRANCH   1   2
BRANCH   1  15
ATOM     15  C   UNL     1      -3.632  17.459  22.059  1.00  0.00     0.000 C 
BRANCH  15  16
ATOM     16  C   UNL     1      -4.050  15.993  22.251  1.00  0.00     0.000 C 
BRANCH  16  17
ATOM     17  C   UNL     1      -5.562  15.834  22.482  1.00  0.00     0.000 C 
BRANCH  17  18
ATOM     18  C   UNL     1      -6.156  14.643  21.699  1.00  0.00    -0.000 C 
BRANCH  18  19
ATOM     19  C   UNL     1      -7.617  14.856  21.257  1.00  0.00    -0.000 C 
BRANCH  19  20
ATOM     20  C   UNL     1      -8.447  15.781  22.168  1.00  0.00    -0.000 C 
BRANCH  20  21
ATOM     21  C   UNL     1      -9.103  16.982  21.461  1.00  0.00    -0.000 C 
BRANCH  21  22
ATOM     22  C   UNL     1      -9.099  18.258  22.319  1.00  0.00    -0.000 C 
BRANCH  22  23
ATOM     23  C   UNL     1      -8.032  19.277  21.879  1.00  0.00    -0.000 C 
BRANCH  23  24
ATOM     24  C   UNL     1      -8.442  20.757  22.009  1.00  0.00    -0.000 C 
BRANCH  24  25
ATOM     25  C   UNL     1      -9.124  21.304  20.746  1.00  0.00    -0.003 C 
ATOM     26  C   UNL     1      -8.776  22.774  20.527  1.00  0.00     0.004 C 
ENDBRANCH  24  25
ENDBRANCH  23  24
ENDBRANCH  22  23
ENDBRANCH  21  22
ENDBRANCH  20  21
ENDBRANCH  19  20
ENDBRANCH  18  19
ENDBRANCH  17  18
ENDBRANCH  16  17
ENDBRANCH  15  16
ENDBRANCH   1  15
TORSDOF 22
ENDMDL
MODEL 9
REMARK VINA RESULT:    -3.508      1.667      2.388
REMARK INTER + INTRA:          -9.643
REMARK INTER:                  -8.504
REMARK INTRA:                  -1.139
REMARK UNBOUND:                -1.622
REMARK SMILES CCCCCCCCCCCCCCCCCCCCCCCC(=O)[O-]
REMARK SMILES IDX 13 1 14 2 15 3 16 4 17 5 18 6 19 7 20 8 21 9 22 10 23 11
REMARK SMILES IDX 24 12 25 13 26 14 12 15 11 16 10 17 9 18 8 19 7 20 6 21 5 22
REMARK SMILES IDX 4 23 3 24 2 25 1 26
REMARK H PARENT
REMARK Flexibility Score: inf
ROOT
ATOM      1  C   UNL     1       2.660  16.015  21.995  1.00  0.00     0.000 C 
ENDROOT
BRANCH   1   2
ATOM      2  C   UNL     1       1.380  16.022  22.845  1.00  0.00     0.000 C 
BRANCH   2   3
ATOM      3  C   UNL     1       0.106  16.111  21.992  1.00  0.00     0.000 C 
BRANCH   3   4
ATOM      4  C   UNL     1      -1.129  16.539  22.805  1.00  0.00     0.000 C 
BRANCH   4   5
ATOM      5  C   UNL     1      -2.012  17.583  22.087  1.00  0.00     0.000 C 
BRANCH   5   6
ATOM      6  C   UNL     1      -3.427  17.656  22.688  1.00  0.00     0.000 C 
BRANCH   6   7
ATOM      7  C   UNL     1      -4.469  16.896  21.852  1.00  0.00     0.000 C 
BRANCH   7   8
ATOM      8  C   UNL     1      -5.305  15.918  22.693  1.00  0.00     0.000 C 
BRANCH   8   9
ATOM      9  C   UNL     1      -5.879  14.797  21.819  1.00  0.00     0.000 C 
BRANCH   9  10
ATOM     10  C   UNL     1      -6.865  15.353  20.783  1.00  0.00     0.006 C 
BRANCH  10  11
ATOM     11  C   UNL     1      -7.989  16.141  21.464  1.00  0.00     0.053 C 
BRANCH  11  12
ATOM     12  C   UNL     1      -8.184  17.466  20.797  1.00  0.00     0.041 C 
ATOM     13  O   UNL     1      -8.743  17.534  19.670  1.00  0.00    -0.550 OA
ATOM     14  O   UNL     1      -7.748  18.630  21.421  1.00  0.00    -0.550 OA
ENDBRANCH  11  12
ENDBRANCH  10  11
ENDBRANCH   9  10
ENDBRANCH   8   9
ENDBRANCH   7   8
ENDBRANCH   6   7
ENDBRANCH   5   6
ENDBRANCH   4   5
ENDBRANCH   3   4
ENDBRANCH   2   3
ENDBRANCH   1   2
BRANCH   1  15
ATOM     15  C   UNL     1       3.904  15.613  22.808  1.00  0.00     0.000 C 
BRANCH  15  16
ATOM     16  C   UNL     1       5.214  15.905  22.060  1.00  0.00     0.000 C 
BRANCH  16  17
ATOM     17  C   UNL     1       6.247  14.775  22.211  1.00  0.00     0.000 C 
BRANCH  17  18
ATOM     18  C   UNL     1       7.657  15.200  21.749  1.00  0.00    -0.000 C 
BRANCH  18  19
ATOM     19  C   UNL     1       8.695  15.254  22.888  1.00  0.00    -0.000 C 
BRANCH  19  20
ATOM     20  C   UNL     1      10.099  14.739  22.518  1.00  0.00    -0.000 C 
BRANCH  20  21
ATOM     21  C   UNL     1      10.246  13.206  22.483  1.00  0.00    -0.000 C 
BRANCH  21  22
ATOM     22  C   UNL     1      10.777  12.686  21.136  1.00  0.00    -0.000 C 
BRANCH  22  23
ATOM     23  C   UNL     1      11.014  13.809  20.108  1.00  0.00    -0.000 C 
BRANCH  23  24
ATOM     24  C   UNL     1      10.752  13.421  18.640  1.00  0.00    -0.000 C 
BRANCH  24  25
ATOM     25  C   UNL     1      11.124  11.964  18.328  1.00  0.00    -0.003 C 
ATOM     26  C   UNL     1       9.932  11.203  17.754  1.00  0.00     0.004 C 
ENDBRANCH  24  25
ENDBRANCH  23  24
ENDBRANCH  22  23
ENDBRANCH  21  22
ENDBRANCH  20  21
ENDBRANCH  19  20
ENDBRANCH  18  19
ENDBRANCH  17  18
ENDBRANCH  16  17
ENDBRANCH  15  16
ENDBRANCH   1  15
TORSDOF 22
ENDMDL
