MODEL 1
REMARK VINA RESULT:    -6.956      0.000      0.000
REMARK INTER + INTRA:          -8.533
REMARK INTER:                  -8.379
REMARK INTRA:                  -0.154
REMARK UNBOUND:                -0.154
REMARK SMILES O=c1c(O)c(-c2ccc(O)c(O)c2)oc2cc(O)cc(O)c12
REMARK SMILES IDX 5 1 3 2 2 3 1 4 22 5 20 6 19 7 17 8 16 9 15 10 14 11 6 12
REMARK SMILES IDX 7 13 8 14 9 15 13 16 11 17 10 18 12 20 4 22 21 24 18 26
REMARK H PARENT 10 19 12 21 4 23 21 25 18 27
REMARK Flexibility Score: inf
ROOT
ATOM      1  C   UNL     1       8.194  16.215 -18.738  1.00  0.00     0.180 A 
ATOM      2  C   UNL     1       8.229  15.898 -20.107  1.00  0.00     0.208 A 
ATOM      3  C   UNL     1       8.563  14.592 -20.495  1.00  0.00     0.238 A 
ATOM      4  O   UNL     1       8.539  14.300 -21.719  1.00  0.00    -0.285 OA
ATOM      5  C   UNL     1       8.875  13.622 -19.512  1.00  0.00     0.111 A 
ATOM      6  C   UNL     1       9.266  12.278 -19.793  1.00  0.00     0.134 A 
ATOM      7  C   UNL     1       9.424  11.370 -18.739  1.00  0.00     0.093 A 
ATOM      8  C   UNL     1       9.268  11.771 -17.413  1.00  0.00     0.123 A 
ATOM      9  C   UNL     1       8.944  13.097 -17.124  1.00  0.00     0.094 A 
ATOM     10  C   UNL     1       8.744  14.018 -18.155  1.00  0.00     0.146 A 
ATOM     11  O   UNL     1       8.427  15.267 -17.837  1.00  0.00    -0.452 OA
ENDROOT
BRANCH   1  12
ATOM     12  C   UNL     1       7.876  17.576 -18.252  1.00  0.00     0.025 A 
ATOM     13  C   UNL     1       6.706  17.837 -17.516  1.00  0.00     0.016 A 
ATOM     14  C   UNL     1       6.415  19.135 -17.088  1.00  0.00     0.051 A 
ATOM     15  C   UNL     1       7.279  20.193 -17.398  1.00  0.00     0.157 A 
ATOM     16  C   UNL     1       8.729  18.645 -18.577  1.00  0.00     0.062 A 
ATOM     17  C   UNL     1       8.440  19.945 -18.149  1.00  0.00     0.158 A 
BRANCH  15  18
ATOM     18  O   UNL     1       6.987  21.486 -16.968  1.00  0.00    -0.504 OA
ATOM     19  H   UNL     1       6.741  21.682 -16.004  1.00  0.00     0.293 HD
ENDBRANCH  15  18
BRANCH  17  20
ATOM     20  O   UNL     1       9.318  20.977 -18.480  1.00  0.00    -0.504 OA
ATOM     21  H   UNL     1      10.303  20.812 -18.650  1.00  0.00     0.293 HD
ENDBRANCH  17  20
ENDBRANCH   1  12
BRANCH   2  22
ATOM     22  O   UNL     1       7.897  16.865 -21.060  1.00  0.00    -0.502 OA
ATOM     23  H   UNL     1       8.286  17.799 -21.045  1.00  0.00     0.293 HD
ENDBRANCH   2  22
BRANCH   6  24
ATOM     24  O   UNL     1       9.537  11.797 -21.077  1.00  0.00    -0.507 OA
ATOM     25  H   UNL     1       9.600  12.371 -21.904  1.00  0.00     0.293 HD
ENDBRANCH   6  24
BRANCH   8  26
ATOM     26  O   UNL     1       9.448  10.844 -16.389  1.00  0.00    -0.508 OA
ATOM     27  H   UNL     1       9.015   9.928 -16.421  1.00  0.00     0.293 HD
ENDBRANCH   8  26
TORSDOF 6
ENDMDL
MODEL 2
REMARK VINA RESULT:    -6.881      5.454     10.821
REMARK INTER + INTRA:          -8.442
REMARK INTER:                  -8.312
REMARK INTRA:                  -0.131
REMARK UNBOUND:                -0.154
REMARK SMILES O=c1c(O)c(-c2ccc(O)c(O)c2)oc2cc(O)cc(O)c12
REMARK SMILES IDX 5 1 3 2 2 3 1 4 22 5 20 6 19 7 17 8 16 9 15 10 14 11 6 12
REMARK SMILES IDX 7 13 8 14 9 15 13 16 11 17 10 18 12 20 4 22 21 24 18 26
REMARK H PARENT 10 19 12 21 4 23 21 25 18 27
REMARK Flexibility Score: inf
ROOT
ATOM      1  C   UNL     1       7.308   8.197 -14.924  1.00  0.00     0.180 A 
ATOM      2  C   UNL     1       6.948   8.545 -13.610  1.00  0.00     0.208 A 
ATOM      3  C   UNL     1       7.275   9.823 -13.131  1.00  0.00     0.238 A 
ATOM      4  O   UNL     1       6.903  10.147 -11.973  1.00  0.00    -0.285 OA
ATOM      5  C   UNL     1       7.971  10.731 -13.963  1.00  0.00     0.111 A 
ATOM      6  C   UNL     1       8.389  12.038 -13.568  1.00  0.00     0.134 A 
ATOM      7  C   UNL     1       8.955  12.899 -14.515  1.00  0.00     0.093 A 
ATOM      8  C   UNL     1       9.178  12.481 -15.827  1.00  0.00     0.123 A 
ATOM      9  C   UNL     1       8.829  11.185 -16.209  1.00  0.00     0.094 A 
ATOM     10  C   UNL     1       8.228  10.315 -15.296  1.00  0.00     0.146 A 
ATOM     11  O   UNL     1       7.901   9.094 -15.703  1.00  0.00    -0.452 OA
ENDROOT
BRANCH   1  12
ATOM     12  C   UNL     1       7.021   6.861 -15.493  1.00  0.00     0.025 A 
ATOM     13  C   UNL     1       6.149   6.700 -16.584  1.00  0.00     0.016 A 
ATOM     14  C   UNL     1       5.875   5.426 -17.088  1.00  0.00     0.051 A 
ATOM     15  C   UNL     1       6.456   4.294 -16.503  1.00  0.00     0.157 A 
ATOM     16  C   UNL     1       7.585   5.720 -14.897  1.00  0.00     0.062 A 
ATOM     17  C   UNL     1       7.313   4.443 -15.400  1.00  0.00     0.158 A 
BRANCH  15  18
ATOM     18  O   UNL     1       6.182   3.025 -17.010  1.00  0.00    -0.504 OA
ATOM     19  H   UNL     1       5.243   2.750 -17.277  1.00  0.00     0.293 HD
ENDBRANCH  15  18
BRANCH  17  20
ATOM     20  O   UNL     1       7.902   3.335 -14.791  1.00  0.00    -0.504 OA
ATOM     21  H   UNL     1       7.514   2.404 -14.878  1.00  0.00     0.293 HD
ENDBRANCH  17  20
ENDBRANCH   1  12
BRANCH   2  22
ATOM     22  O   UNL     1       6.242   7.640 -12.813  1.00  0.00    -0.502 OA
ATOM     23  H   UNL     1       6.654   7.195 -12.002  1.00  0.00     0.293 HD
ENDBRANCH   2  22
BRANCH   6  24
ATOM     24  O   UNL     1       8.296  12.524 -12.260  1.00  0.00    -0.507 OA
ATOM     25  H   UNL     1       8.248  13.500 -12.011  1.00  0.00     0.293 HD
ENDBRANCH   6  24
BRANCH   8  26
ATOM     26  O   UNL     1       9.758  13.359 -16.739  1.00  0.00    -0.508 OA
ATOM     27  H   UNL     1       9.765  14.360 -16.580  1.00  0.00     0.293 HD
ENDBRANCH   8  26
TORSDOF 6
ENDMDL
MODEL 3
REMARK VINA RESULT:    -6.771      3.410      6.318
REMARK INTER + INTRA:          -8.311
REMARK INTER:                  -8.007
REMARK INTRA:                  -0.303
REMARK UNBOUND:                -0.154
REMARK SMILES O=c1c(O)c(-c2ccc(O)c(O)c2)oc2cc(O)cc(O)c12
REMARK SMILES IDX 5 1 3 2 2 3 1 4 22 5 20 6 19 7 17 8 16 9 15 10 14 11 6 12
REMARK SMILES IDX 7 13 8 14 9 15 13 16 11 17 10 18 12 20 4 22 21 24 18 26
REMARK H PARENT 10 19 12 21 4 23 21 25 18 27
REMARK Flexibility Score: inf
ROOT
ATOM      1  C   UNL     1       9.661  11.692 -16.057  1.00  0.00     0.180 A 
ATOM      2  C   UNL     1      10.259  10.492 -16.478  1.00  0.00     0.208 A 
ATOM      3  C   UNL     1       9.931   9.299 -15.815  1.00  0.00     0.238 A 
ATOM      4  O   UNL     1      10.428   8.220 -16.232  1.00  0.00    -0.285 OA
ATOM      5  C   UNL     1       9.023   9.322 -14.730  1.00  0.00     0.111 A 
ATOM      6  C   UNL     1       8.649   8.179 -13.960  1.00  0.00     0.134 A 
ATOM      7  C   UNL     1       7.643   8.297 -12.994  1.00  0.00     0.093 A 
ATOM      8  C   UNL     1       7.043   9.526 -12.723  1.00  0.00     0.123 A 
ATOM      9  C   UNL     1       7.444  10.662 -13.428  1.00  0.00     0.094 A 
ATOM     10  C   UNL     1       8.419  10.570 -14.425  1.00  0.00     0.146 A 
ATOM     11  O   UNL     1       8.763  11.672 -15.079  1.00  0.00    -0.452 OA
ENDROOT
BRANCH   1  12
ATOM     12  C   UNL     1       9.976  12.993 -16.689  1.00  0.00     0.025 A 
ATOM     13  C   UNL     1      10.895  13.886 -16.110  1.00  0.00     0.016 A 
ATOM     14  C   UNL     1      11.158  15.119 -16.713  1.00  0.00     0.051 A 
ATOM     15  C   UNL     1      10.499  15.484 -17.894  1.00  0.00     0.157 A 
ATOM     16  C   UNL     1       9.303  13.374 -17.863  1.00  0.00     0.062 A 
ATOM     17  C   UNL     1       9.564  14.607 -18.469  1.00  0.00     0.158 A 
BRANCH  15  18
ATOM     18  O   UNL     1      10.765  16.714 -18.493  1.00  0.00    -0.504 OA
ATOM     19  H   UNL     1      10.088  17.170 -19.095  1.00  0.00     0.293 HD
ENDBRANCH  15  18
BRANCH  17  20
ATOM     20  O   UNL     1       8.887  14.943 -19.641  1.00  0.00    -0.504 OA
ATOM     21  H   UNL     1       9.199  15.693 -20.246  1.00  0.00     0.293 HD
ENDBRANCH  17  20
ENDBRANCH   1  12
BRANCH   2  22
ATOM     22  O   UNL     1      11.137  10.488 -17.566  1.00  0.00    -0.502 OA
ATOM     23  H   UNL     1      11.370  11.329 -18.079  1.00  0.00     0.293 HD
ENDBRANCH   2  22
BRANCH   6  24
ATOM     24  O   UNL     1       9.250   6.923 -14.087  1.00  0.00    -0.507 OA
ATOM     25  H   UNL     1       9.118   6.300 -14.868  1.00  0.00     0.293 HD
ENDBRANCH   6  24
BRANCH   8  26
ATOM     26  O   UNL     1       6.057   9.609 -11.744  1.00  0.00    -0.508 OA
ATOM     27  H   UNL     1       6.108  10.291 -10.996  1.00  0.00     0.293 HD
ENDBRANCH   8  26
TORSDOF 6
ENDMDL
MODEL 4
REMARK VINA RESULT:    -6.710      2.997      7.640
REMARK INTER + INTRA:          -8.236
REMARK INTER:                  -7.918
REMARK INTRA:                  -0.318
REMARK UNBOUND:                -0.154
REMARK SMILES O=c1c(O)c(-c2ccc(O)c(O)c2)oc2cc(O)cc(O)c12
REMARK SMILES IDX 5 1 3 2 2 3 1 4 22 5 20 6 19 7 17 8 16 9 15 10 14 11 6 12
REMARK SMILES IDX 7 13 8 14 9 15 13 16 11 17 10 18 12 20 4 22 21 24 18 26
REMARK H PARENT 10 19 12 21 4 23 21 25 18 27
REMARK Flexibility Score: inf
ROOT
ATOM      1  C   UNL     1       9.780  12.343 -17.065  1.00  0.00     0.180 A 
ATOM      2  C   UNL     1      10.298  13.512 -16.480  1.00  0.00     0.208 A 
ATOM      3  C   UNL     1      10.251  14.713 -17.204  1.00  0.00     0.238 A 
ATOM      4  O   UNL     1      10.666  15.767 -16.653  1.00  0.00    -0.285 OA
ATOM      5  C   UNL     1       9.703  14.730 -18.508  1.00  0.00     0.111 A 
ATOM      6  C   UNL     1       9.640  15.883 -19.349  1.00  0.00     0.134 A 
ATOM      7  C   UNL     1       8.959  15.812 -20.569  1.00  0.00     0.093 A 
ATOM      8  C   UNL     1       8.393  14.616 -21.010  1.00  0.00     0.123 A 
ATOM      9  C   UNL     1       8.500  13.468 -20.225  1.00  0.00     0.094 A 
ATOM     10  C   UNL     1       9.142  13.516 -18.985  1.00  0.00     0.146 A 
ATOM     11  O   UNL     1       9.212  12.403 -18.264  1.00  0.00    -0.452 OA
ENDROOT
BRANCH   1  12
ATOM     12  C   UNL     1       9.817  11.034 -16.375  1.00  0.00     0.025 A 
ATOM     13  C   UNL     1      10.849  10.109 -16.612  1.00  0.00     0.016 A 
ATOM     14  C   UNL     1      10.849   8.870 -15.967  1.00  0.00     0.051 A 
ATOM     15  C   UNL     1       9.814   8.530 -15.086  1.00  0.00     0.157 A 
ATOM     16  C   UNL     1       8.771  10.680 -15.506  1.00  0.00     0.062 A 
ATOM     17  C   UNL     1       8.769   9.440 -14.858  1.00  0.00     0.158 A 
BRANCH  15  18
ATOM     18  O   UNL     1       9.820   7.294 -14.443  1.00  0.00    -0.504 OA
ATOM     19  H   UNL     1      10.550   6.611 -14.609  1.00  0.00     0.293 HD
ENDBRANCH  15  18
BRANCH  17  20
ATOM     20  O   UNL     1       7.720   9.130 -13.992  1.00  0.00    -0.504 OA
ATOM     21  H   UNL     1       6.959   8.521 -14.266  1.00  0.00     0.293 HD
ENDBRANCH  17  20
ENDBRANCH   1  12
BRANCH   2  22
ATOM     22  O   UNL     1      10.815  13.479 -15.182  1.00  0.00    -0.502 OA
ATOM     23  H   UNL     1      11.615  14.032 -14.901  1.00  0.00     0.293 HD
ENDBRANCH   2  22
BRANCH   6  24
ATOM     24  O   UNL     1      10.251  17.103 -19.044  1.00  0.00    -0.507 OA
ATOM     25  H   UNL     1      10.312  17.888 -19.674  1.00  0.00     0.293 HD
ENDBRANCH   6  24
BRANCH   8  26
ATOM     26  O   UNL     1       7.735  14.579 -22.237  1.00  0.00    -0.508 OA
ATOM     27  H   UNL     1       7.527  13.703 -22.701  1.00  0.00     0.293 HD
ENDBRANCH   8  26
TORSDOF 6
ENDMDL
MODEL 5
REMARK VINA RESULT:    -6.498      4.074      8.527
REMARK INTER + INTRA:          -7.981
REMARK INTER:                  -8.443
REMARK INTRA:                   0.462
REMARK UNBOUND:                -0.154
REMARK SMILES O=c1c(O)c(-c2ccc(O)c(O)c2)oc2cc(O)cc(O)c12
REMARK SMILES IDX 5 1 3 2 2 3 1 4 22 5 20 6 19 7 17 8 16 9 15 10 14 11 6 12
REMARK SMILES IDX 7 13 8 14 9 15 13 16 11 17 10 18 12 20 4 22 21 24 18 26
REMARK H PARENT 10 19 12 21 4 23 21 25 18 27
REMARK Flexibility Score: inf
ROOT
ATOM      1  C   UNL     1       8.117  11.127 -14.608  1.00  0.00     0.180 A 
ATOM      2  C   UNL     1       8.609  12.347 -14.113  1.00  0.00     0.208 A 
ATOM      3  C   UNL     1       9.164  13.271 -15.012  1.00  0.00     0.238 A 
ATOM      4  O   UNL     1       9.553  14.384 -14.571  1.00  0.00    -0.285 OA
ATOM      5  C   UNL     1       9.236  12.958 -16.391  1.00  0.00     0.111 A 
ATOM      6  C   UNL     1       9.815  13.802 -17.386  1.00  0.00     0.134 A 
ATOM      7  C   UNL     1       9.713  13.448 -18.736  1.00  0.00     0.093 A 
ATOM      8  C   UNL     1       9.113  12.251 -19.124  1.00  0.00     0.123 A 
ATOM      9  C   UNL     1       8.597  11.389 -18.156  1.00  0.00     0.094 A 
ATOM     10  C   UNL     1       8.650  11.732 -16.802  1.00  0.00     0.146 A 
ATOM     11  O   UNL     1       8.139  10.889 -15.914  1.00  0.00    -0.452 OA
ENDROOT
BRANCH   1  12
ATOM     12  C   UNL     1       7.541  10.092 -13.719  1.00  0.00     0.025 A 
ATOM     13  C   UNL     1       7.320  10.339 -12.353  1.00  0.00     0.016 A 
ATOM     14  C   UNL     1       6.797   9.338 -11.530  1.00  0.00     0.051 A 
ATOM     15  C   UNL     1       6.500   8.074 -12.054  1.00  0.00     0.157 A 
ATOM     16  C   UNL     1       7.261   8.815 -14.236  1.00  0.00     0.062 A 
ATOM     17  C   UNL     1       6.737   7.812 -13.414  1.00  0.00     0.158 A 
BRANCH  15  18
ATOM     18  O   UNL     1       5.977   7.079 -11.230  1.00  0.00    -0.504 OA
ATOM     19  H   UNL     1       5.196   6.502 -11.524  1.00  0.00     0.293 HD
ENDBRANCH  15  18
BRANCH  17  20
ATOM     20  O   UNL     1       6.458   6.561 -13.965  1.00  0.00    -0.504 OA
ATOM     21  H   UNL     1       6.132   5.785 -13.401  1.00  0.00     0.293 HD
ENDBRANCH  17  20
ENDBRANCH   1  12
BRANCH   2  22
ATOM     22  O   UNL     1       8.509  12.646 -12.752  1.00  0.00    -0.502 OA
ATOM     23  H   UNL     1       8.900  12.048 -12.034  1.00  0.00     0.293 HD
ENDBRANCH   2  22
BRANCH   6  24
ATOM     24  O   UNL     1      10.518  14.976 -17.099  1.00  0.00    -0.507 OA
ATOM     25  H   UNL     1      11.079  15.487 -17.763  1.00  0.00     0.293 HD
ENDBRANCH   6  24
BRANCH   8  26
ATOM     26  O   UNL     1       9.044  11.924 -20.476  1.00  0.00    -0.508 OA
ATOM     27  H   UNL     1       8.192  12.053 -21.010  1.00  0.00     0.293 HD
ENDBRANCH   8  26
TORSDOF 6
ENDMDL
MODEL 6
REMARK VINA RESULT:    -6.459      2.506      4.598
REMARK INTER + INTRA:          -7.935
REMARK INTER:                  -8.344
REMARK INTRA:                   0.409
REMARK UNBOUND:                -0.154
REMARK SMILES O=c1c(O)c(-c2ccc(O)c(O)c2)oc2cc(O)cc(O)c12
REMARK SMILES IDX 5 1 3 2 2 3 1 4 22 5 20 6 19 7 17 8 16 9 15 10 14 11 6 12
REMARK SMILES IDX 7 13 8 14 9 15 13 16 11 17 10 18 12 20 4 22 21 24 18 26
REMARK H PARENT 10 19 12 21 4 23 21 25 18 27
REMARK Flexibility Score: inf
ROOT
ATOM      1  C   UNL     1       8.700  13.243 -18.587  1.00  0.00     0.180 A 
ATOM      2  C   UNL     1       9.253  11.982 -18.873  1.00  0.00     0.208 A 
ATOM      3  C   UNL     1       9.392  11.049 -17.834  1.00  0.00     0.238 A 
ATOM      4  O   UNL     1       9.838   9.903 -18.107  1.00  0.00    -0.285 OA
ATOM      5  C   UNL     1       8.993  11.391 -16.520  1.00  0.00     0.111 A 
ATOM      6  C   UNL     1       9.125  10.538 -15.383  1.00  0.00     0.134 A 
ATOM      7  C   UNL     1       8.577  10.931 -14.157  1.00  0.00     0.093 A 
ATOM      8  C   UNL     1       7.958  12.172 -14.009  1.00  0.00     0.123 A 
ATOM      9  C   UNL     1       7.876  13.039 -15.098  1.00  0.00     0.094 A 
ATOM     10  C   UNL     1       8.382  12.661 -16.345  1.00  0.00     0.146 A 
ATOM     11  O   UNL     1       8.274  13.511 -17.358  1.00  0.00    -0.452 OA
ENDROOT
BRANCH   1  12
ATOM     12  C   UNL     1       8.545  14.289 -19.623  1.00  0.00     0.025 A 
ATOM     13  C   UNL     1       8.594  13.976 -20.993  1.00  0.00     0.016 A 
ATOM     14  C   UNL     1       8.468  14.984 -21.953  1.00  0.00     0.051 A 
ATOM     15  C   UNL     1       8.306  16.319 -21.560  1.00  0.00     0.157 A 
ATOM     16  C   UNL     1       8.402  15.632 -19.235  1.00  0.00     0.062 A 
ATOM     17  C   UNL     1       8.275  16.643 -20.193  1.00  0.00     0.158 A 
BRANCH  15  18
ATOM     18  O   UNL     1       8.179  17.321 -22.520  1.00  0.00    -0.504 OA
ATOM     19  H   UNL     1       7.540  18.099 -22.395  1.00  0.00     0.293 HD
ENDBRANCH  15  18
BRANCH  17  20
ATOM     20  O   UNL     1       8.121  17.963 -19.769  1.00  0.00    -0.504 OA
ATOM     21  H   UNL     1       7.253  18.470 -19.894  1.00  0.00     0.293 HD
ENDBRANCH  17  20
ENDBRANCH   1  12
BRANCH   2  22
ATOM     22  O   UNL     1       9.621  11.657 -20.181  1.00  0.00    -0.502 OA
ATOM     23  H   UNL     1       9.588  12.329 -20.938  1.00  0.00     0.293 HD
ENDBRANCH   2  22
BRANCH   6  24
ATOM     24  O   UNL     1       9.805   9.317 -15.400  1.00  0.00    -0.507 OA
ATOM     25  H   UNL     1      10.021   8.791 -16.233  1.00  0.00     0.293 HD
ENDBRANCH   6  24
BRANCH   8  26
ATOM     26  O   UNL     1       7.437  12.536 -12.769  1.00  0.00    -0.508 OA
ATOM     27  H   UNL     1       6.461  12.391 -12.541  1.00  0.00     0.293 HD
ENDBRANCH   8  26
TORSDOF 6
ENDMDL
MODEL 7
REMARK VINA RESULT:    -6.439      3.946      7.063
REMARK INTER + INTRA:          -7.910
REMARK INTER:                  -7.593
REMARK INTRA:                  -0.317
REMARK UNBOUND:                -0.154
REMARK SMILES O=c1c(O)c(-c2ccc(O)c(O)c2)oc2cc(O)cc(O)c12
REMARK SMILES IDX 5 1 3 2 2 3 1 4 22 5 20 6 19 7 17 8 16 9 15 10 14 11 6 12
REMARK SMILES IDX 7 13 8 14 9 15 13 16 11 17 10 18 12 20 4 22 21 24 18 26
REMARK H PARENT 10 19 12 21 4 23 21 25 18 27
REMARK Flexibility Score: inf
ROOT
ATOM      1  C   UNL     1       8.606  11.404 -15.100  1.00  0.00     0.180 A 
ATOM      2  C   UNL     1       8.239  11.486 -13.746  1.00  0.00     0.208 A 
ATOM      3  C   UNL     1       7.668  10.364 -13.127  1.00  0.00     0.238 A 
ATOM      4  O   UNL     1       7.391  10.426 -11.900  1.00  0.00    -0.285 OA
ATOM      5  C   UNL     1       7.455   9.180 -13.872  1.00  0.00     0.111 A 
ATOM      6  C   UNL     1       6.847   7.995 -13.357  1.00  0.00     0.134 A 
ATOM      7  C   UNL     1       6.806   6.840 -14.147  1.00  0.00     0.093 A 
ATOM      8  C   UNL     1       7.292   6.843 -15.454  1.00  0.00     0.123 A 
ATOM      9  C   UNL     1       7.835   8.012 -15.988  1.00  0.00     0.094 A 
ATOM     10  C   UNL     1       7.923   9.171 -15.212  1.00  0.00     0.146 A 
ATOM     11  O   UNL     1       8.455  10.259 -15.755  1.00  0.00    -0.452 OA
ENDROOT
BRANCH   1  12
ATOM     12  C   UNL     1       9.191  12.553 -15.830  1.00  0.00     0.025 A 
ATOM     13  C   UNL     1      10.582  12.724 -15.933  1.00  0.00     0.016 A 
ATOM     14  C   UNL     1      11.110  13.829 -16.606  1.00  0.00     0.051 A 
ATOM     15  C   UNL     1      10.258  14.785 -17.174  1.00  0.00     0.157 A 
ATOM     16  C   UNL     1       8.341  13.525 -16.383  1.00  0.00     0.062 A 
ATOM     17  C   UNL     1       8.866  14.632 -17.059  1.00  0.00     0.158 A 
BRANCH  15  18
ATOM     18  O   UNL     1      10.788  15.884 -17.847  1.00  0.00    -0.504 OA
ATOM     19  H   UNL     1      11.789  16.019 -17.939  1.00  0.00     0.293 HD
ENDBRANCH  15  18
BRANCH  17  20
ATOM     20  O   UNL     1       7.991  15.570 -17.607  1.00  0.00    -0.504 OA
ATOM     21  H   UNL     1       7.341  15.330 -18.346  1.00  0.00     0.293 HD
ENDBRANCH  17  20
ENDBRANCH   1  12
BRANCH   2  22
ATOM     22  O   UNL     1       8.478  12.658 -13.023  1.00  0.00    -0.502 OA
ATOM     23  H   UNL     1       9.335  13.188 -13.115  1.00  0.00     0.293 HD
ENDBRANCH   2  22
BRANCH   6  24
ATOM     24  O   UNL     1       6.248   7.911 -12.097  1.00  0.00    -0.507 OA
ATOM     25  H   UNL     1       5.835   7.075 -11.711  1.00  0.00     0.293 HD
ENDBRANCH   6  24
BRANCH   8  26
ATOM     26  O   UNL     1       7.222   5.680 -16.216  1.00  0.00    -0.508 OA
ATOM     27  H   UNL     1       6.561   5.585 -16.979  1.00  0.00     0.293 HD
ENDBRANCH   8  26
TORSDOF 6
ENDMDL
MODEL 8
REMARK VINA RESULT:    -6.382      2.300      6.436
REMARK INTER + INTRA:          -7.842
REMARK INTER:                  -7.957
REMARK INTRA:                   0.115
REMARK UNBOUND:                -0.154
REMARK SMILES O=c1c(O)c(-c2ccc(O)c(O)c2)oc2cc(O)cc(O)c12
REMARK SMILES IDX 5 1 3 2 2 3 1 4 22 5 20 6 19 7 17 8 16 9 15 10 14 11 6 12
REMARK SMILES IDX 7 13 8 14 9 15 13 16 11 17 10 18 12 20 4 22 21 24 18 26
REMARK H PARENT 10 19 12 21 4 23 21 25 18 27
REMARK Flexibility Score: inf
ROOT
ATOM      1  C   UNL     1       8.230  12.880 -17.448  1.00  0.00     0.180 A 
ATOM      2  C   UNL     1       8.651  12.247 -18.630  1.00  0.00     0.208 A 
ATOM      3  C   UNL     1       8.808  13.016 -19.794  1.00  0.00     0.238 A 
ATOM      4  O   UNL     1       9.237  12.454 -20.836  1.00  0.00    -0.285 OA
ATOM      5  C   UNL     1       8.527  14.403 -19.767  1.00  0.00     0.111 A 
ATOM      6  C   UNL     1       8.613  15.271 -20.897  1.00  0.00     0.134 A 
ATOM      7  C   UNL     1       8.439  16.649 -20.724  1.00  0.00     0.093 A 
ATOM      8  C   UNL     1       8.118  17.184 -19.477  1.00  0.00     0.123 A 
ATOM      9  C   UNL     1       7.972  16.338 -18.377  1.00  0.00     0.094 A 
ATOM     10  C   UNL     1       8.176  14.962 -18.510  1.00  0.00     0.146 A 
ATOM     11  O   UNL     1       8.038  14.194 -17.437  1.00  0.00    -0.452 OA
ENDROOT
BRANCH   1  12
ATOM     12  C   UNL     1       8.017  12.133 -16.187  1.00  0.00     0.025 A 
ATOM     13  C   UNL     1       7.430  10.855 -16.183  1.00  0.00     0.016 A 
ATOM     14  C   UNL     1       7.217  10.180 -14.979  1.00  0.00     0.051 A 
ATOM     15  C   UNL     1       7.574  10.773 -13.761  1.00  0.00     0.157 A 
ATOM     16  C   UNL     1       8.354  12.732 -14.962  1.00  0.00     0.062 A 
ATOM     17  C   UNL     1       8.143  12.058 -13.755  1.00  0.00     0.158 A 
BRANCH  15  18
ATOM     18  O   UNL     1       7.363  10.096 -12.562  1.00  0.00    -0.504 OA
ATOM     19  H   UNL     1       7.946   9.314 -12.283  1.00  0.00     0.293 HD
ENDBRANCH  15  18
BRANCH  17  20
ATOM     20  O   UNL     1       8.504  12.680 -12.559  1.00  0.00    -0.504 OA
ATOM     21  H   UNL     1       7.923  13.386 -12.124  1.00  0.00     0.293 HD
ENDBRANCH  17  20
ENDBRANCH   1  12
BRANCH   2  22
ATOM     22  O   UNL     1       8.944  10.881 -18.631  1.00  0.00    -0.502 OA
ATOM     23  H   UNL     1       8.288  10.185 -18.965  1.00  0.00     0.293 HD
ENDBRANCH   2  22
BRANCH   6  24
ATOM     24  O   UNL     1       8.839  14.829 -22.204  1.00  0.00    -0.507 OA
ATOM     25  H   UNL     1       9.159  13.905 -22.451  1.00  0.00     0.293 HD
ENDBRANCH   6  24
BRANCH   8  26
ATOM     26  O   UNL     1       7.936  18.559 -19.345  1.00  0.00    -0.508 OA
ATOM     27  H   UNL     1       7.034  18.992 -19.504  1.00  0.00     0.293 HD
ENDBRANCH   8  26
TORSDOF 6
ENDMDL
MODEL 9
REMARK VINA RESULT:    -6.379      3.259      5.988
REMARK INTER + INTRA:          -7.838
REMARK INTER:                  -7.517
REMARK INTRA:                  -0.321
REMARK UNBOUND:                -0.154
REMARK SMILES O=c1c(O)c(-c2ccc(O)c(O)c2)oc2cc(O)cc(O)c12
REMARK SMILES IDX 5 1 3 2 2 3 1 4 22 5 20 6 19 7 17 8 16 9 15 10 14 11 6 12
REMARK SMILES IDX 7 13 8 14 9 15 13 16 11 17 10 18 12 20 4 22 21 24 18 26
REMARK H PARENT 10 19 12 21 4 23 21 25 18 27
REMARK Flexibility Score: inf
ROOT
ATOM      1  C   UNL     1       8.402  12.698 -16.002  1.00  0.00     0.180 A 
ATOM      2  C   UNL     1       7.504  13.047 -14.979  1.00  0.00     0.208 A 
ATOM      3  C   UNL     1       7.117  12.068 -14.050  1.00  0.00     0.238 A 
ATOM      4  O   UNL     1       6.355  12.401 -13.104  1.00  0.00    -0.285 OA
ATOM      5  C   UNL     1       7.619  10.750 -14.165  1.00  0.00     0.111 A 
ATOM      6  C   UNL     1       7.264   9.668 -13.303  1.00  0.00     0.134 A 
ATOM      7  C   UNL     1       7.922   8.440 -13.429  1.00  0.00     0.093 A 
ATOM      8  C   UNL     1       8.876   8.232 -14.425  1.00  0.00     0.123 A 
ATOM      9  C   UNL     1       9.187   9.264 -15.312  1.00  0.00     0.094 A 
ATOM     10  C   UNL     1       8.574  10.513 -15.188  1.00  0.00     0.146 A 
ATOM     11  O   UNL     1       8.907  11.471 -16.044  1.00  0.00    -0.452 OA
ENDROOT
BRANCH   1  12
ATOM     12  C   UNL     1       8.837  13.668 -17.034  1.00  0.00     0.025 A 
ATOM     13  C   UNL     1       9.996  14.445 -16.867  1.00  0.00     0.016 A 
ATOM     14  C   UNL     1      10.373  15.370 -17.844  1.00  0.00     0.051 A 
ATOM     15  C   UNL     1       9.593  15.542 -18.994  1.00  0.00     0.157 A 
ATOM     16  C   UNL     1       8.047  13.858 -18.180  1.00  0.00     0.062 A 
ATOM     17  C   UNL     1       8.422  14.783 -19.161  1.00  0.00     0.158 A 
BRANCH  15  18
ATOM     18  O   UNL     1       9.973  16.464 -19.967  1.00  0.00    -0.504 OA
ATOM     19  H   UNL     1      10.423  17.340 -19.723  1.00  0.00     0.293 HD
ENDBRANCH  15  18
BRANCH  17  20
ATOM     20  O   UNL     1       7.620  14.935 -20.292  1.00  0.00    -0.504 OA
ATOM     21  H   UNL     1       7.317  15.845 -20.618  1.00  0.00     0.293 HD
ENDBRANCH  17  20
ENDBRANCH   1  12
BRANCH   2  22
ATOM     22  O   UNL     1       7.036  14.360 -14.871  1.00  0.00    -0.502 OA
ATOM     23  H   UNL     1       6.803  14.782 -13.981  1.00  0.00     0.293 HD
ENDBRANCH   2  22
BRANCH   6  24
ATOM     24  O   UNL     1       6.260   9.742 -12.333  1.00  0.00    -0.507 OA
ATOM     25  H   UNL     1       6.156  10.494 -11.669  1.00  0.00     0.293 HD
ENDBRANCH   6  24
BRANCH   8  26
ATOM     26  O   UNL     1       9.499   6.992 -14.532  1.00  0.00    -0.508 OA
ATOM     27  H   UNL     1      10.015   6.589 -13.758  1.00  0.00     0.293 HD
ENDBRANCH   8  26
TORSDOF 6
ENDMDL
