MODEL 1
REMARK VINA RESULT:    -5.239      0.000      0.000
REMARK INTER + INTRA:         -11.969
REMARK INTER:                 -10.139
REMARK INTRA:                  -1.831
REMARK UNBOUND:                -1.831
REMARK SMILES CCCCCCCCCCCCCCCCCC(=O)[O-]
REMARK SMILES IDX 10 1 11 2 12 3 13 4 14 5 15 6 16 7 17 8 18 9 19 10 20 11
REMARK SMILES IDX 9 12 8 13 7 14 6 15 5 16 4 17 3 18 2 19 1 20
REMARK H PARENT
REMARK Flexibility Score: inf
ROOT
ATOM      1  C   UNL     1     166.984 151.159 147.165  1.00  0.00     0.000 C 
ENDROOT
BRANCH   1   2
ATOM      2  C   UNL     1     166.337 151.142 148.560  1.00  0.00     0.000 C 
BRANCH   2   3
ATOM      3  C   UNL     1     166.395 152.510 149.262  1.00  0.00     0.000 C 
BRANCH   3   4
ATOM      4  C   UNL     1     167.249 153.531 148.491  1.00  0.00     0.000 C 
BRANCH   4   5
ATOM      5  C   UNL     1     168.425 154.064 149.326  1.00  0.00     0.000 C 
BRANCH   5   6
ATOM      6  C   UNL     1     168.926 153.045 150.362  1.00  0.00     0.000 C 
BRANCH   6   7
ATOM      7  C   UNL     1     170.311 152.473 150.011  1.00  0.00     0.006 C 
BRANCH   7   8
ATOM      8  C   UNL     1     170.216 151.262 149.073  1.00  0.00     0.053 C 
BRANCH   8   9
ATOM      9  C   UNL     1     170.777 151.564 147.717  1.00  0.00     0.041 C 
ATOM     10  O   UNL     1     171.136 150.626 146.956  1.00  0.00    -0.550 OA
ATOM     11  O   UNL     1     170.930 152.881 147.305  1.00  0.00    -0.550 OA
ENDBRANCH   8   9
ENDBRANCH   7   8
ENDBRANCH   6   7
ENDBRANCH   5   6
ENDBRANCH   4   5
ENDBRANCH   3   4
ENDBRANCH   2   3
ENDBRANCH   1   2
BRANCH   1  12
ATOM     12  C   UNL     1     167.655 149.824 146.777  1.00  0.00     0.000 C 
BRANCH  12  13
ATOM     13  C   UNL     1     167.082 148.636 147.563  1.00  0.00    -0.000 C 
BRANCH  13  14
ATOM     14  C   UNL     1     168.193 147.866 148.287  1.00  0.00    -0.000 C 
BRANCH  14  15
ATOM     15  C   UNL     1     167.827 147.618 149.757  1.00  0.00    -0.000 C 
BRANCH  15  16
ATOM     16  C   UNL     1     167.039 146.305 149.962  1.00  0.00    -0.000 C 
BRANCH  16  17
ATOM     17  C   UNL     1     165.517 146.510 150.070  1.00  0.00    -0.000 C 
BRANCH  17  18
ATOM     18  C   UNL     1     164.800 145.508 150.992  1.00  0.00    -0.000 C 
BRANCH  18  19
ATOM     19  C   UNL     1     164.766 144.068 150.434  1.00  0.00    -0.003 C 
ATOM     20  C   UNL     1     164.410 143.026 151.494  1.00  0.00     0.004 C 
ENDBRANCH  18  19
ENDBRANCH  17  18
ENDBRANCH  16  17
ENDBRANCH  15  16
ENDBRANCH  14  15
ENDBRANCH  13  14
ENDBRANCH  12  13
ENDBRANCH   1  12
TORSDOF 16
ENDMDL
MODEL 2
REMARK VINA RESULT:    -5.213      1.040      2.055
REMARK INTER + INTRA:         -11.920
REMARK INTER:                 -10.472
REMARK INTRA:                  -1.449
REMARK UNBOUND:                -1.831
REMARK SMILES CCCCCCCCCCCCCCCCCC(=O)[O-]
REMARK SMILES IDX 10 1 11 2 12 3 13 4 14 5 15 6 16 7 17 8 18 9 19 10 20 11
REMARK SMILES IDX 9 12 8 13 7 14 6 15 5 16 4 17 3 18 2 19 1 20
REMARK H PARENT
REMARK Flexibility Score: inf
ROOT
ATOM      1  C   UNL     1     168.075 149.139 148.896  1.00  0.00     0.000 C 
ENDROOT
BRANCH   1   2
ATOM      2  C   UNL     1     167.392 149.928 147.766  1.00  0.00     0.000 C 
BRANCH   2   3
ATOM      3  C   UNL     1     166.527 151.088 148.287  1.00  0.00     0.000 C 
BRANCH   3   4
ATOM      4  C   UNL     1     166.825 152.414 147.567  1.00  0.00     0.000 C 
BRANCH   4   5
ATOM      5  C   UNL     1     167.380 153.488 148.519  1.00  0.00     0.000 C 
BRANCH   5   6
ATOM      6  C   UNL     1     168.016 152.887 149.783  1.00  0.00     0.000 C 
BRANCH   6   7
ATOM      7  C   UNL     1     169.473 153.339 149.987  1.00  0.00     0.006 C 
BRANCH   7   8
ATOM      8  C   UNL     1     170.461 152.171 149.874  1.00  0.00     0.053 C 
BRANCH   8   9
ATOM      9  C   UNL     1     170.735 151.810 148.446  1.00  0.00     0.041 C 
ATOM     10  O   UNL     1     171.067 150.634 148.141  1.00  0.00    -0.550 OA
ATOM     11  O   UNL     1     170.650 152.779 147.455  1.00  0.00    -0.550 OA
ENDBRANCH   8   9
ENDBRANCH   7   8
ENDBRANCH   6   7
ENDBRANCH   5   6
ENDBRANCH   4   5
ENDBRANCH   3   4
ENDBRANCH   2   3
ENDBRANCH   1   2
BRANCH   1  12
ATOM     12  C   UNL     1     167.320 147.855 149.299  1.00  0.00     0.000 C 
BRANCH  12  13
ATOM     13  C   UNL     1     166.260 147.455 148.263  1.00  0.00    -0.000 C 
BRANCH  13  14
ATOM     14  C   UNL     1     165.502 146.199 148.707  1.00  0.00    -0.000 C 
BRANCH  14  15
ATOM     15  C   UNL     1     165.925 145.768 150.119  1.00  0.00    -0.000 C 
BRANCH  15  16
ATOM     16  C   UNL     1     164.750 145.777 151.122  1.00  0.00    -0.000 C 
BRANCH  16  17
ATOM     17  C   UNL     1     164.242 144.370 151.489  1.00  0.00    -0.000 C 
BRANCH  17  18
ATOM     18  C   UNL     1     164.940 143.222 150.739  1.00  0.00    -0.000 C 
BRANCH  18  19
ATOM     19  C   UNL     1     164.445 141.819 151.155  1.00  0.00    -0.003 C 
ATOM     20  C   UNL     1     163.360 141.865 152.230  1.00  0.00     0.004 C 
ENDBRANCH  18  19
ENDBRANCH  17  18
ENDBRANCH  16  17
ENDBRANCH  15  16
ENDBRANCH  14  15
ENDBRANCH  13  14
ENDBRANCH  12  13
ENDBRANCH   1  12
TORSDOF 16
ENDMDL
MODEL 3
REMARK VINA RESULT:    -5.208      3.444      7.138
REMARK INTER + INTRA:         -11.910
REMARK INTER:                  -9.927
REMARK INTRA:                  -1.983
REMARK UNBOUND:                -1.831
REMARK SMILES CCCCCCCCCCCCCCCCCC(=O)[O-]
REMARK SMILES IDX 10 1 11 2 12 3 13 4 14 5 15 6 16 7 17 8 18 9 19 10 20 11
REMARK SMILES IDX 9 12 8 13 7 14 6 15 5 16 4 17 3 18 2 19 1 20
REMARK H PARENT
REMARK Flexibility Score: inf
ROOT
ATOM      1  C   UNL     1     168.953 150.487 146.513  1.00  0.00     0.000 C 
ENDROOT
BRANCH   1   2
ATOM      2  C   UNL     1     168.195 149.221 146.080  1.00  0.00     0.000 C 
BRANCH   2   3
ATOM      3  C   UNL     1     168.276 148.092 147.121  1.00  0.00     0.000 C 
BRANCH   3   4
ATOM      4  C   UNL     1     167.319 148.313 148.305  1.00  0.00     0.000 C 
BRANCH   4   5
ATOM      5  C   UNL     1     167.911 147.825 149.639  1.00  0.00     0.000 C 
BRANCH   5   6
ATOM      6  C   UNL     1     167.415 146.423 150.029  1.00  0.00     0.000 C 
BRANCH   6   7
ATOM      7  C   UNL     1     165.967 146.159 149.578  1.00  0.00     0.006 C 
BRANCH   7   8
ATOM      8  C   UNL     1     165.058 145.770 150.751  1.00  0.00     0.053 C 
BRANCH   8   9
ATOM      9  C   UNL     1     164.711 144.313 150.726  1.00  0.00     0.041 C 
ATOM     10  O   UNL     1     164.205 143.764 151.741  1.00  0.00    -0.550 OA
ATOM     11  O   UNL     1     164.972 143.555 149.592  1.00  0.00    -0.550 OA
ENDBRANCH   8   9
ENDBRANCH   7   8
ENDBRANCH   6   7
ENDBRANCH   5   6
ENDBRANCH   4   5
ENDBRANCH   3   4
ENDBRANCH   2   3
ENDBRANCH   1   2
BRANCH   1  12
ATOM     12  C   UNL     1     170.468 150.268 146.707  1.00  0.00     0.000 C 
BRANCH  12  13
ATOM     13  C   UNL     1     170.940 150.680 148.110  1.00  0.00    -0.000 C 
BRANCH  13  14
ATOM     14  C   UNL     1     169.751 151.054 149.002  1.00  0.00    -0.000 C 
BRANCH  14  15
ATOM     15  C   UNL     1     170.121 152.187 149.970  1.00  0.00    -0.000 C 
BRANCH  15  16
ATOM     16  C   UNL     1     169.290 153.469 149.732  1.00  0.00    -0.000 C 
BRANCH  16  17
ATOM     17  C   UNL     1     168.328 153.367 148.535  1.00  0.00    -0.000 C 
BRANCH  17  18
ATOM     18  C   UNL     1     166.839 153.289 148.916  1.00  0.00    -0.000 C 
BRANCH  18  19
ATOM     19  C   UNL     1     166.166 151.957 148.516  1.00  0.00    -0.003 C 
ATOM     20  C   UNL     1     164.861 151.700 149.268  1.00  0.00     0.004 C 
ENDBRANCH  18  19
ENDBRANCH  17  18
ENDBRANCH  16  17
ENDBRANCH  15  16
ENDBRANCH  14  15
ENDBRANCH  13  14
ENDBRANCH  12  13
ENDBRANCH   1  12
TORSDOF 16
ENDMDL
MODEL 4
REMARK VINA RESULT:    -5.131      4.266      8.335
REMARK INTER + INTRA:         -11.761
REMARK INTER:                 -10.222
REMARK INTRA:                  -1.539
REMARK UNBOUND:                -1.831
REMARK SMILES CCCCCCCCCCCCCCCCCC(=O)[O-]
REMARK SMILES IDX 10 1 11 2 12 3 13 4 14 5 15 6 16 7 17 8 18 9 19 10 20 11
REMARK SMILES IDX 9 12 8 13 7 14 6 15 5 16 4 17 3 18 2 19 1 20
REMARK H PARENT
REMARK Flexibility Score: inf
ROOT
ATOM      1  C   UNL     1     166.481 149.286 148.369  1.00  0.00     0.000 C 
ENDROOT
BRANCH   1   2
ATOM      2  C   UNL     1     167.655 148.661 149.142  1.00  0.00     0.000 C 
BRANCH   2   3
ATOM      3  C   UNL     1     167.835 147.163 148.846  1.00  0.00     0.000 C 
BRANCH   3   4
ATOM      4  C   UNL     1     167.441 146.275 150.038  1.00  0.00     0.000 C 
BRANCH   4   5
ATOM      5  C   UNL     1     166.057 145.629 149.860  1.00  0.00     0.000 C 
BRANCH   5   6
ATOM      6  C   UNL     1     165.062 146.048 150.954  1.00  0.00     0.000 C 
BRANCH   6   7
ATOM      7  C   UNL     1     164.253 144.862 151.508  1.00  0.00     0.006 C 
BRANCH   7   8
ATOM      8  C   UNL     1     164.761 143.516 150.973  1.00  0.00     0.053 C 
BRANCH   8   9
ATOM      9  C   UNL     1     164.010 142.363 151.566  1.00  0.00     0.041 C 
ATOM     10  O   UNL     1     164.397 141.182 151.363  1.00  0.00    -0.550 OA
ATOM     11  O   UNL     1     162.866 142.592 152.319  1.00  0.00    -0.550 OA
ENDBRANCH   8   9
ENDBRANCH   7   8
ENDBRANCH   6   7
ENDBRANCH   5   6
ENDBRANCH   4   5
ENDBRANCH   3   4
ENDBRANCH   2   3
ENDBRANCH   1   2
BRANCH   1  12
ATOM     12  C   UNL     1     166.686 150.777 148.029  1.00  0.00     0.000 C 
BRANCH  12  13
ATOM     13  C   UNL     1     165.785 151.694 148.869  1.00  0.00    -0.000 C 
BRANCH  13  14
ATOM     14  C   UNL     1     166.519 152.983 149.255  1.00  0.00    -0.000 C 
BRANCH  14  15
ATOM     15  C   UNL     1     167.960 152.979 148.726  1.00  0.00    -0.000 C 
BRANCH  15  16
ATOM     16  C   UNL     1     168.971 153.549 149.747  1.00  0.00    -0.000 C 
BRANCH  16  17
ATOM     17  C   UNL     1     170.145 152.599 150.047  1.00  0.00    -0.000 C 
BRANCH  17  18
ATOM     18  C   UNL     1     170.118 151.278 149.259  1.00  0.00    -0.000 C 
BRANCH  18  19
ATOM     19  C   UNL     1     170.908 151.331 147.933  1.00  0.00    -0.003 C 
ATOM     20  C   UNL     1     170.312 150.436 146.848  1.00  0.00     0.004 C 
ENDBRANCH  18  19
ENDBRANCH  17  18
ENDBRANCH  16  17
ENDBRANCH  15  16
ENDBRANCH  14  15
ENDBRANCH  13  14
ENDBRANCH  12  13
ENDBRANCH   1  12
TORSDOF 16
ENDMDL
MODEL 5
REMARK VINA RESULT:    -5.095      4.354      8.600
REMARK INTER + INTRA:         -11.691
REMARK INTER:                 -10.115
REMARK INTRA:                  -1.576
REMARK UNBOUND:                -1.831
REMARK SMILES CCCCCCCCCCCCCCCCCC(=O)[O-]
REMARK SMILES IDX 10 1 11 2 12 3 13 4 14 5 15 6 16 7 17 8 18 9 19 10 20 11
REMARK SMILES IDX 9 12 8 13 7 14 6 15 5 16 4 17 3 18 2 19 1 20
REMARK H PARENT
REMARK Flexibility Score: inf
ROOT
ATOM      1  C   UNL     1     168.103 149.115 149.007  1.00  0.00     0.000 C 
ENDROOT
BRANCH   1   2
ATOM      2  C   UNL     1     167.637 147.673 148.747  1.00  0.00     0.000 C 
BRANCH   2   3
ATOM      3  C   UNL     1     167.593 146.819 150.025  1.00  0.00     0.000 C 
BRANCH   3   4
ATOM      4  C   UNL     1     166.181 146.295 150.336  1.00  0.00     0.000 C 
BRANCH   4   5
ATOM      5  C   UNL     1     165.826 145.041 149.518  1.00  0.00     0.000 C 
BRANCH   5   6
ATOM      6  C   UNL     1     166.678 143.822 149.904  1.00  0.00     0.000 C 
BRANCH   6   7
ATOM      7  C   UNL     1     165.827 142.611 150.324  1.00  0.00     0.006 C 
BRANCH   7   8
ATOM      8  C   UNL     1     164.377 143.004 150.637  1.00  0.00     0.053 C 
BRANCH   8   9
ATOM      9  C   UNL     1     163.808 142.184 151.755  1.00  0.00     0.041 C 
ATOM     10  O   UNL     1     164.120 140.970 151.874  1.00  0.00    -0.550 OA
ATOM     11  O   UNL     1     162.911 142.755 152.648  1.00  0.00    -0.550 OA
ENDBRANCH   8   9
ENDBRANCH   7   8
ENDBRANCH   6   7
ENDBRANCH   5   6
ENDBRANCH   4   5
ENDBRANCH   3   4
ENDBRANCH   2   3
ENDBRANCH   1   2
BRANCH   1  12
ATOM     12  C   UNL     1     169.002 149.687 147.891  1.00  0.00     0.000 C 
BRANCH  12  13
ATOM     13  C   UNL     1     170.374 150.130 148.421  1.00  0.00    -0.000 C 
BRANCH  13  14
ATOM     14  C   UNL     1     170.929 151.301 147.601  1.00  0.00    -0.000 C 
BRANCH  14  15
ATOM     15  C   UNL     1     170.510 152.648 148.207  1.00  0.00    -0.000 C 
BRANCH  15  16
ATOM     16  C   UNL     1     170.455 152.616 149.751  1.00  0.00    -0.000 C 
BRANCH  16  17
ATOM     17  C   UNL     1     169.161 153.213 150.334  1.00  0.00    -0.000 C 
BRANCH  17  18
ATOM     18  C   UNL     1     168.125 153.648 149.281  1.00  0.00    -0.000 C 
BRANCH  18  19
ATOM     19  C   UNL     1     166.928 152.679 149.154  1.00  0.00    -0.003 C 
ATOM     20  C   UNL     1     166.501 152.449 147.705  1.00  0.00     0.004 C 
ENDBRANCH  18  19
ENDBRANCH  17  18
ENDBRANCH  16  17
ENDBRANCH  15  16
ENDBRANCH  14  15
ENDBRANCH  13  14
ENDBRANCH  12  13
ENDBRANCH   1  12
TORSDOF 16
ENDMDL
MODEL 6
REMARK VINA RESULT:    -5.075      3.133      7.026
REMARK INTER + INTRA:         -11.652
REMARK INTER:                  -9.309
REMARK INTRA:                  -2.343
REMARK UNBOUND:                -1.831
REMARK SMILES CCCCCCCCCCCCCCCCCC(=O)[O-]
REMARK SMILES IDX 10 1 11 2 12 3 13 4 14 5 15 6 16 7 17 8 18 9 19 10 20 11
REMARK SMILES IDX 9 12 8 13 7 14 6 15 5 16 4 17 3 18 2 19 1 20
REMARK H PARENT
REMARK Flexibility Score: inf
ROOT
ATOM      1  C   UNL     1     168.700 148.691 146.591  1.00  0.00     0.000 C 
ENDROOT
BRANCH   1   2
ATOM      2  C   UNL     1     167.593 149.441 147.351  1.00  0.00     0.000 C 
BRANCH   2   3
ATOM      3  C   UNL     1     167.548 149.085 148.847  1.00  0.00     0.000 C 
BRANCH   3   4
ATOM      4  C   UNL     1     168.552 147.981 149.220  1.00  0.00     0.000 C 
BRANCH   4   5
ATOM      5  C   UNL     1     168.050 147.095 150.373  1.00  0.00     0.000 C 
BRANCH   5   6
ATOM      6  C   UNL     1     166.893 146.175 149.951  1.00  0.00     0.000 C 
BRANCH   6   7
ATOM      7  C   UNL     1     167.365 144.973 149.113  1.00  0.00     0.006 C 
BRANCH   7   8
ATOM      8  C   UNL     1     166.941 145.092 147.643  1.00  0.00     0.053 C 
BRANCH   8   9
ATOM      9  C   UNL     1     165.451 145.048 147.489  1.00  0.00     0.041 C 
ATOM     10  O   UNL     1     164.836 146.028 146.989  1.00  0.00    -0.550 OA
ATOM     11  O   UNL     1     164.739 143.938 147.922  1.00  0.00    -0.550 OA
ENDBRANCH   8   9
ENDBRANCH   7   8
ENDBRANCH   6   7
ENDBRANCH   5   6
ENDBRANCH   4   5
ENDBRANCH   3   4
ENDBRANCH   2   3
ENDBRANCH   1   2
BRANCH   1  12
ATOM     12  C   UNL     1     169.818 149.612 146.057  1.00  0.00     0.000 C 
BRANCH  12  13
ATOM     13  C   UNL     1     169.908 150.930 146.840  1.00  0.00    -0.000 C 
BRANCH  13  14
ATOM     14  C   UNL     1     171.092 150.912 147.814  1.00  0.00    -0.000 C 
BRANCH  14  15
ATOM     15  C   UNL     1     170.672 151.411 149.204  1.00  0.00    -0.000 C 
BRANCH  15  16
ATOM     16  C   UNL     1     170.306 152.913 149.212  1.00  0.00    -0.000 C 
BRANCH  16  17
ATOM     17  C   UNL     1     169.102 153.248 150.111  1.00  0.00    -0.000 C 
BRANCH  17  18
ATOM     18  C   UNL     1     167.735 152.851 149.526  1.00  0.00    -0.000 C 
BRANCH  18  19
ATOM     19  C   UNL     1     167.374 153.608 148.228  1.00  0.00    -0.003 C 
ATOM     20  C   UNL     1     166.533 152.771 147.266  1.00  0.00     0.004 C 
ENDBRANCH  18  19
ENDBRANCH  17  18
ENDBRANCH  16  17
ENDBRANCH  15  16
ENDBRANCH  14  15
ENDBRANCH  13  14
ENDBRANCH  12  13
ENDBRANCH   1  12
TORSDOF 16
ENDMDL
MODEL 7
REMARK VINA RESULT:    -5.054      2.062      3.340
REMARK INTER + INTRA:         -11.611
REMARK INTER:                  -9.894
REMARK INTRA:                  -1.717
REMARK UNBOUND:                -1.831
REMARK SMILES CCCCCCCCCCCCCCCCCC(=O)[O-]
REMARK SMILES IDX 10 1 11 2 12 3 13 4 14 5 15 6 16 7 17 8 18 9 19 10 20 11
REMARK SMILES IDX 9 12 8 13 7 14 6 15 5 16 4 17 3 18 2 19 1 20
REMARK H PARENT
REMARK Flexibility Score: inf
ROOT
ATOM      1  C   UNL     1     168.317 149.527 148.855  1.00  0.00     0.000 C 
ENDROOT
BRANCH   1   2
ATOM      2  C   UNL     1     168.649 149.967 147.419  1.00  0.00     0.000 C 
BRANCH   2   3
ATOM      3  C   UNL     1     170.146 150.254 147.213  1.00  0.00     0.000 C 
BRANCH   3   4
ATOM      4  C   UNL     1     170.766 151.023 148.392  1.00  0.00     0.000 C 
BRANCH   4   5
ATOM      5  C   UNL     1     170.483 152.533 148.323  1.00  0.00     0.000 C 
BRANCH   5   6
ATOM      6  C   UNL     1     170.101 153.126 149.688  1.00  0.00     0.000 C 
BRANCH   6   7
ATOM      7  C   UNL     1     168.580 153.143 149.924  1.00  0.00     0.006 C 
BRANCH   7   8
ATOM      8  C   UNL     1     167.807 153.605 148.682  1.00  0.00     0.053 C 
BRANCH   8   9
ATOM      9  C   UNL     1     166.543 152.824 148.490  1.00  0.00     0.041 C 
ATOM     10  O   UNL     1     166.168 152.497 147.333  1.00  0.00    -0.550 OA
ATOM     11  O   UNL     1     165.765 152.481 149.588  1.00  0.00    -0.550 OA
ENDBRANCH   8   9
ENDBRANCH   7   8
ENDBRANCH   6   7
ENDBRANCH   5   6
ENDBRANCH   4   5
ENDBRANCH   3   4
ENDBRANCH   2   3
ENDBRANCH   1   2
BRANCH   1  12
ATOM     12  C   UNL     1     167.358 148.320 148.928  1.00  0.00     0.000 C 
BRANCH  12  13
ATOM     13  C   UNL     1     167.796 147.293 149.983  1.00  0.00    -0.000 C 
BRANCH  13  14
ATOM     14  C   UNL     1     166.828 146.106 150.030  1.00  0.00    -0.000 C 
BRANCH  14  15
ATOM     15  C   UNL     1     165.805 146.181 148.888  1.00  0.00    -0.000 C 
BRANCH  15  16
ATOM     16  C   UNL     1     165.769 144.894 148.034  1.00  0.00    -0.000 C 
BRANCH  16  17
ATOM     17  C   UNL     1     164.668 143.904 148.455  1.00  0.00    -0.000 C 
BRANCH  17  18
ATOM     18  C   UNL     1     165.166 142.703 149.279  1.00  0.00    -0.000 C 
BRANCH  18  19
ATOM     19  C   UNL     1     165.091 142.926 150.805  1.00  0.00    -0.003 C 
ATOM     20  C   UNL     1     163.934 143.835 151.218  1.00  0.00     0.004 C 
ENDBRANCH  18  19
ENDBRANCH  17  18
ENDBRANCH  16  17
ENDBRANCH  15  16
ENDBRANCH  14  15
ENDBRANCH  13  14
ENDBRANCH  12  13
ENDBRANCH   1  12
TORSDOF 16
ENDMDL
MODEL 8
REMARK VINA RESULT:    -5.021      2.584      4.948
REMARK INTER + INTRA:         -11.548
REMARK INTER:                  -8.872
REMARK INTRA:                  -2.676
REMARK UNBOUND:                -1.831
REMARK SMILES CCCCCCCCCCCCCCCCCC(=O)[O-]
REMARK SMILES IDX 10 1 11 2 12 3 13 4 14 5 15 6 16 7 17 8 18 9 19 10 20 11
REMARK SMILES IDX 9 12 8 13 7 14 6 15 5 16 4 17 3 18 2 19 1 20
REMARK H PARENT
REMARK Flexibility Score: inf
ROOT
ATOM      1  C   UNL     1     169.232 153.025 150.380  1.00  0.00     0.000 C 
ENDROOT
BRANCH   1   2
ATOM      2  C   UNL     1     170.372 152.113 149.896  1.00  0.00     0.000 C 
BRANCH   2   3
ATOM      3  C   UNL     1     170.451 152.018 148.363  1.00  0.00     0.000 C 
BRANCH   3   4
ATOM      4  C   UNL     1     171.024 150.673 147.886  1.00  0.00     0.000 C 
BRANCH   4   5
ATOM      5  C   UNL     1     170.489 150.263 146.503  1.00  0.00     0.000 C 
BRANCH   5   6
ATOM      6  C   UNL     1     169.754 148.914 146.530  1.00  0.00     0.000 C 
BRANCH   6   7
ATOM      7  C   UNL     1     170.027 148.114 147.817  1.00  0.00     0.006 C 
BRANCH   7   8
ATOM      8  C   UNL     1     169.953 146.599 147.583  1.00  0.00     0.053 C 
BRANCH   8   9
ATOM      9  C   UNL     1     170.333 145.828 148.810  1.00  0.00     0.041 C 
ATOM     10  O   UNL     1     170.385 146.402 149.930  1.00  0.00    -0.550 OA
ATOM     11  O   UNL     1     170.658 144.482 148.711  1.00  0.00    -0.550 OA
ENDBRANCH   8   9
ENDBRANCH   7   8
ENDBRANCH   6   7
ENDBRANCH   5   6
ENDBRANCH   4   5
ENDBRANCH   3   4
ENDBRANCH   2   3
ENDBRANCH   1   2
BRANCH   1  12
ATOM     12  C   UNL     1     168.443 153.692 149.234  1.00  0.00     0.000 C 
BRANCH  12  13
ATOM     13  C   UNL     1     167.092 153.005 148.982  1.00  0.00    -0.000 C 
BRANCH  13  14
ATOM     14  C   UNL     1     166.893 152.714 147.490  1.00  0.00    -0.000 C 
BRANCH  14  15
ATOM     15  C   UNL     1     166.887 151.203 147.218  1.00  0.00    -0.000 C 
BRANCH  15  16
ATOM     16  C   UNL     1     167.065 150.364 148.504  1.00  0.00    -0.000 C 
BRANCH  16  17
ATOM     17  C   UNL     1     166.032 149.233 148.650  1.00  0.00    -0.000 C 
BRANCH  17  18
ATOM     18  C   UNL     1     166.317 147.990 147.789  1.00  0.00    -0.000 C 
BRANCH  18  19
ATOM     19  C   UNL     1     166.215 146.660 148.568  1.00  0.00    -0.003 C 
ATOM     20  C   UNL     1     166.905 146.713 149.930  1.00  0.00     0.004 C 
ENDBRANCH  18  19
ENDBRANCH  17  18
ENDBRANCH  16  17
ENDBRANCH  15  16
ENDBRANCH  14  15
ENDBRANCH  13  14
ENDBRANCH  12  13
ENDBRANCH   1  12
TORSDOF 16
ENDMDL
MODEL 9
REMARK VINA RESULT:    -5.019      2.174      4.230
REMARK INTER + INTRA:         -11.545
REMARK INTER:                  -9.490
REMARK INTRA:                  -2.055
REMARK UNBOUND:                -1.831
REMARK SMILES CCCCCCCCCCCCCCCCCC(=O)[O-]
REMARK SMILES IDX 10 1 11 2 12 3 13 4 14 5 15 6 16 7 17 8 18 9 19 10 20 11
REMARK SMILES IDX 9 12 8 13 7 14 6 15 5 16 4 17 3 18 2 19 1 20
REMARK H PARENT
REMARK Flexibility Score: inf
ROOT
ATOM      1  C   UNL     1     168.172 145.574 149.651  1.00  0.00     0.000 C 
ENDROOT
BRANCH   1   2
ATOM      2  C   UNL     1     167.449 146.880 150.023  1.00  0.00     0.000 C 
BRANCH   2   3
ATOM      3  C   UNL     1     165.948 146.847 149.690  1.00  0.00     0.000 C 
BRANCH   3   4
ATOM      4  C   UNL     1     165.510 148.040 148.823  1.00  0.00     0.000 C 
BRANCH   4   5
ATOM      5  C   UNL     1     166.696 148.721 148.118  1.00  0.00     0.000 C 
BRANCH   5   6
ATOM      6  C   UNL     1     166.867 150.190 148.534  1.00  0.00     0.000 C 
BRANCH   6   7
ATOM      7  C   UNL     1     168.330 150.554 148.843  1.00  0.00     0.006 C 
BRANCH   7   8
ATOM      8  C   UNL     1     168.573 152.068 148.791  1.00  0.00     0.053 C 
BRANCH   8   9
ATOM      9  C   UNL     1     169.562 152.509 149.827  1.00  0.00     0.041 C 
ATOM     10  O   UNL     1     170.672 151.923 149.934  1.00  0.00    -0.550 OA
ATOM     11  O   UNL     1     169.246 153.547 150.692  1.00  0.00    -0.550 OA
ENDBRANCH   8   9
ENDBRANCH   7   8
ENDBRANCH   6   7
ENDBRANCH   5   6
ENDBRANCH   4   5
ENDBRANCH   3   4
ENDBRANCH   2   3
ENDBRANCH   1   2
BRANCH   1  12
ATOM     12  C   UNL     1     168.027 145.188 148.164  1.00  0.00     0.000 C 
BRANCH  12  13
ATOM     13  C   UNL     1     168.252 143.686 147.929  1.00  0.00    -0.000 C 
BRANCH  13  14
ATOM     14  C   UNL     1     166.970 143.009 147.431  1.00  0.00    -0.000 C 
BRANCH  14  15
ATOM     15  C   UNL     1     165.806 144.008 147.368  1.00  0.00    -0.000 C 
BRANCH  15  16
ATOM     16  C   UNL     1     164.596 143.569 148.223  1.00  0.00    -0.000 C 
BRANCH  16  17
ATOM     17  C   UNL     1     164.977 142.670 149.413  1.00  0.00    -0.000 C 
BRANCH  17  18
ATOM     18  C   UNL     1     165.244 143.425 150.727  1.00  0.00    -0.000 C 
BRANCH  18  19
ATOM     19  C   UNL     1     163.961 143.937 151.419  1.00  0.00    -0.003 C 
ATOM     20  C   UNL     1     163.165 142.823 152.098  1.00  0.00     0.004 C 
ENDBRANCH  18  19
ENDBRANCH  17  18
ENDBRANCH  16  17
ENDBRANCH  15  16
ENDBRANCH  14  15
ENDBRANCH  13  14
ENDBRANCH  12  13
ENDBRANCH   1  12
TORSDOF 16
ENDMDL
