MODEL 1
REMARK VINA RESULT:    -1.786      0.000      0.000
REMARK INTER + INTRA:          -3.922
REMARK INTER:                  -3.457
REMARK INTRA:                  -0.464
REMARK UNBOUND:                -0.464
REMARK SMILES CCCCCCCCCCCCCCCCCC(=O)[O-]
REMARK SMILES IDX 10 1 11 2 12 3 13 4 14 5 15 6 16 7 17 8 18 9 19 10 20 11
REMARK SMILES IDX 9 12 8 13 7 14 6 15 5 16 4 17 3 18 2 19 1 20
REMARK H PARENT
REMARK Flexibility Score: inf
ROOT
ATOM      1  C   UNL     1      33.833  37.582   0.730  1.00  0.00     0.000 C 
ENDROOT
BRANCH   1   2
ATOM      2  C   UNL     1      34.358  38.865   1.400  1.00  0.00     0.000 C 
BRANCH   2   3
ATOM      3  C   UNL     1      33.831  39.125   2.826  1.00  0.00     0.000 C 
BRANCH   3   4
ATOM      4  C   UNL     1      34.773  38.677   3.961  1.00  0.00     0.000 C 
BRANCH   4   5
ATOM      5  C   UNL     1      34.075  38.327   5.289  1.00  0.00     0.000 C 
BRANCH   5   6
ATOM      6  C   UNL     1      34.949  37.563   6.301  1.00  0.00     0.000 C 
BRANCH   6   7
ATOM      7  C   UNL     1      35.043  38.272   7.664  1.00  0.00     0.006 C 
BRANCH   7   8
ATOM      8  C   UNL     1      33.798  39.117   7.961  1.00  0.00     0.053 C 
BRANCH   8   9
ATOM      9  C   UNL     1      33.146  38.710   9.247  1.00  0.00     0.041 C 
ATOM     10  O   UNL     1      31.953  38.310   9.256  1.00  0.00    -0.550 OA
ATOM     11  O   UNL     1      33.869  38.741  10.434  1.00  0.00    -0.550 OA
ENDBRANCH   8   9
ENDBRANCH   7   8
ENDBRANCH   6   7
ENDBRANCH   5   6
ENDBRANCH   4   5
ENDBRANCH   3   4
ENDBRANCH   2   3
ENDBRANCH   1   2
BRANCH   1  12
ATOM     12  C   UNL     1      34.112  36.317   1.559  1.00  0.00     0.000 C 
BRANCH  12  13
ATOM     13  C   UNL     1      33.226  35.126   1.153  1.00  0.00    -0.000 C 
BRANCH  13  14
ATOM     14  C   UNL     1      32.253  35.395  -0.011  1.00  0.00    -0.000 C 
BRANCH  14  15
ATOM     15  C   UNL     1      32.960  35.521  -1.368  1.00  0.00    -0.000 C 
BRANCH  15  16
ATOM     16  C   UNL     1      32.098  36.303  -2.368  1.00  0.00    -0.000 C 
BRANCH  16  17
ATOM     17  C   UNL     1      32.469  37.793  -2.363  1.00  0.00    -0.000 C 
BRANCH  17  18
ATOM     18  C   UNL     1      33.976  38.030  -2.554  1.00  0.00    -0.000 C 
BRANCH  18  19
ATOM     19  C   UNL     1      34.282  38.980  -3.721  1.00  0.00    -0.003 C 
ATOM     20  C   UNL     1      33.723  38.434  -5.032  1.00  0.00     0.004 C 
ENDBRANCH  18  19
ENDBRANCH  17  18
ENDBRANCH  16  17
ENDBRANCH  15  16
ENDBRANCH  14  15
ENDBRANCH  13  14
ENDBRANCH  12  13
ENDBRANCH   1  12
TORSDOF 16
ENDMDL
MODEL 2
REMARK VINA RESULT:    -1.784      1.383      2.746
REMARK INTER + INTRA:          -3.917
REMARK INTER:                  -2.823
REMARK INTRA:                  -1.093
REMARK UNBOUND:                -0.464
REMARK SMILES CCCCCCCCCCCCCCCCCC(=O)[O-]
REMARK SMILES IDX 10 1 11 2 12 3 13 4 14 5 15 6 16 7 17 8 18 9 19 10 20 11
REMARK SMILES IDX 9 12 8 13 7 14 6 15 5 16 4 17 3 18 2 19 1 20
REMARK H PARENT
REMARK Flexibility Score: inf
ROOT
ATOM      1  C   UNL     1      32.808  34.533   1.266  1.00  0.00     0.000 C 
ENDROOT
BRANCH   1   2
ATOM      2  C   UNL     1      34.056  34.373   2.155  1.00  0.00     0.000 C 
BRANCH   2   3
ATOM      3  C   UNL     1      34.976  35.609   2.225  1.00  0.00     0.000 C 
BRANCH   3   4
ATOM      4  C   UNL     1      34.564  36.669   3.265  1.00  0.00     0.000 C 
BRANCH   4   5
ATOM      5  C   UNL     1      34.925  38.121   2.895  1.00  0.00     0.000 C 
BRANCH   5   6
ATOM      6  C   UNL     1      34.869  39.122   4.063  1.00  0.00     0.000 C 
BRANCH   6   7
ATOM      7  C   UNL     1      34.649  38.440   5.424  1.00  0.00     0.006 C 
BRANCH   7   8
ATOM      8  C   UNL     1      33.388  38.954   6.130  1.00  0.00     0.053 C 
BRANCH   8   9
ATOM      9  C   UNL     1      33.463  38.755   7.613  1.00  0.00     0.041 C 
ATOM     10  O   UNL     1      34.580  38.638   8.182  1.00  0.00    -0.550 OA
ATOM     11  O   UNL     1      32.299  38.733   8.373  1.00  0.00    -0.550 OA
ENDBRANCH   8   9
ENDBRANCH   7   8
ENDBRANCH   6   7
ENDBRANCH   5   6
ENDBRANCH   4   5
ENDBRANCH   3   4
ENDBRANCH   2   3
ENDBRANCH   1   2
BRANCH   1  12
ATOM     12  C   UNL     1      32.594  35.980   0.791  1.00  0.00     0.000 C 
BRANCH  12  13
ATOM     13  C   UNL     1      32.789  36.148  -0.727  1.00  0.00    -0.000 C 
BRANCH  13  14
ATOM     14  C   UNL     1      34.075  36.884  -1.148  1.00  0.00    -0.000 C 
BRANCH  14  15
ATOM     15  C   UNL     1      33.913  38.411  -1.174  1.00  0.00    -0.000 C 
BRANCH  15  16
ATOM     16  C   UNL     1      35.081  39.076  -1.914  1.00  0.00    -0.000 C 
BRANCH  16  17
ATOM     17  C   UNL     1      34.815  39.125  -3.426  1.00  0.00    -0.000 C 
BRANCH  17  18
ATOM     18  C   UNL     1      33.330  38.929  -3.773  1.00  0.00    -0.000 C 
BRANCH  18  19
ATOM     19  C   UNL     1      33.128  38.150  -5.081  1.00  0.00    -0.003 C 
ATOM     20  C   UNL     1      31.922  37.220  -4.983  1.00  0.00     0.004 C 
ENDBRANCH  18  19
ENDBRANCH  17  18
ENDBRANCH  16  17
ENDBRANCH  15  16
ENDBRANCH  14  15
ENDBRANCH  13  14
ENDBRANCH  12  13
ENDBRANCH   1  12
TORSDOF 16
ENDMDL
MODEL 3
REMARK VINA RESULT:    -1.727      4.005      8.626
REMARK INTER + INTRA:          -3.807
REMARK INTER:                  -3.554
REMARK INTRA:                  -0.253
REMARK UNBOUND:                -0.464
REMARK SMILES CCCCCCCCCCCCCCCCCC(=O)[O-]
REMARK SMILES IDX 10 1 11 2 12 3 13 4 14 5 15 6 16 7 17 8 18 9 19 10 20 11
REMARK SMILES IDX 9 12 8 13 7 14 6 15 5 16 4 17 3 18 2 19 1 20
REMARK H PARENT
REMARK Flexibility Score: inf
ROOT
ATOM      1  C   UNL     1      32.867  35.194   1.692  1.00  0.00     0.000 C 
ENDROOT
BRANCH   1   2
ATOM      2  C   UNL     1      34.350  35.199   2.107  1.00  0.00     0.000 C 
BRANCH   2   3
ATOM      3  C   UNL     1      35.124  36.487   1.760  1.00  0.00     0.000 C 
BRANCH   3   4
ATOM      4  C   UNL     1      34.965  36.971   0.305  1.00  0.00     0.000 C 
BRANCH   4   5
ATOM      5  C   UNL     1      35.104  38.493   0.105  1.00  0.00     0.000 C 
BRANCH   5   6
ATOM      6  C   UNL     1      34.075  39.118  -0.854  1.00  0.00     0.000 C 
BRANCH   6   7
ATOM      7  C   UNL     1      33.948  38.347  -2.179  1.00  0.00     0.006 C 
BRANCH   7   8
ATOM      8  C   UNL     1      32.516  37.857  -2.427  1.00  0.00     0.053 C 
BRANCH   8   9
ATOM      9  C   UNL     1      32.441  36.361  -2.465  1.00  0.00     0.041 C 
ATOM     10  O   UNL     1      33.143  35.671  -1.680  1.00  0.00    -0.550 OA
ATOM     11  O   UNL     1      31.570  35.729  -3.344  1.00  0.00    -0.550 OA
ENDBRANCH   8   9
ENDBRANCH   7   8
ENDBRANCH   6   7
ENDBRANCH   5   6
ENDBRANCH   4   5
ENDBRANCH   3   4
ENDBRANCH   2   3
ENDBRANCH   1   2
BRANCH   1  12
ATOM     12  C   UNL     1      32.308  36.606   1.450  1.00  0.00     0.000 C 
BRANCH  12  13
ATOM     13  C   UNL     1      32.171  37.428   2.744  1.00  0.00    -0.000 C 
BRANCH  13  14
ATOM     14  C   UNL     1      33.099  38.654   2.846  1.00  0.00    -0.000 C 
BRANCH  14  15
ATOM     15  C   UNL     1      33.404  39.058   4.296  1.00  0.00    -0.000 C 
BRANCH  15  16
ATOM     16  C   UNL     1      34.776  38.531   4.737  1.00  0.00    -0.000 C 
BRANCH  16  17
ATOM     17  C   UNL     1      34.755  38.119   6.216  1.00  0.00    -0.000 C 
BRANCH  17  18
ATOM     18  C   UNL     1      33.980  39.113   7.097  1.00  0.00    -0.000 C 
BRANCH  18  19
ATOM     19  C   UNL     1      33.430  38.464   8.375  1.00  0.00    -0.003 C 
ATOM     20  C   UNL     1      34.302  38.803   9.581  1.00  0.00     0.004 C 
ENDBRANCH  18  19
ENDBRANCH  17  18
ENDBRANCH  16  17
ENDBRANCH  15  16
ENDBRANCH  14  15
ENDBRANCH  13  14
ENDBRANCH  12  13
ENDBRANCH   1  12
TORSDOF 16
ENDMDL
MODEL 4
REMARK VINA RESULT:     0.326      3.647      4.506
REMARK INTER + INTRA:           0.166
REMARK INTER:                   0.940
REMARK INTRA:                  -0.774
REMARK UNBOUND:                -0.464
REMARK SMILES CCCCCCCCCCCCCCCCCC(=O)[O-]
REMARK SMILES IDX 10 1 11 2 12 3 13 4 14 5 15 6 16 7 17 8 18 9 19 10 20 11
REMARK SMILES IDX 9 12 8 13 7 14 6 15 5 16 4 17 3 18 2 19 1 20
REMARK H PARENT
REMARK Flexibility Score: inf
ROOT
ATOM      1  C   UNL     1      32.812  34.514   1.263  1.00  0.00     0.000 C 
ENDROOT
BRANCH   1   2
ATOM      2  C   UNL     1      34.024  34.376   2.203  1.00  0.00     0.000 C 
BRANCH   2   3
ATOM      3  C   UNL     1      34.978  35.588   2.229  1.00  0.00     0.000 C 
BRANCH   3   4
ATOM      4  C   UNL     1      34.570  36.717   3.195  1.00  0.00     0.000 C 
BRANCH   4   5
ATOM      5  C   UNL     1      34.966  38.137   2.744  1.00  0.00     0.000 C 
BRANCH   5   6
ATOM      6  C   UNL     1      33.787  39.103   2.531  1.00  0.00     0.000 C 
BRANCH   6   7
ATOM      7  C   UNL     1      32.444  38.520   3.006  1.00  0.00     0.006 C 
BRANCH   7   8
ATOM      8  C   UNL     1      31.539  38.127   1.832  1.00  0.00     0.053 C 
BRANCH   8   9
ATOM      9  C   UNL     1      30.129  37.883   2.277  1.00  0.00     0.041 C 
ATOM     10  O   UNL     1      29.323  38.844   2.387  1.00  0.00    -0.550 OA
ATOM     11  O   UNL     1      29.695  36.589   2.539  1.00  0.00    -0.550 OA
ENDBRANCH   8   9
ENDBRANCH   7   8
ENDBRANCH   6   7
ENDBRANCH   5   6
ENDBRANCH   4   5
ENDBRANCH   3   4
ENDBRANCH   2   3
ENDBRANCH   1   2
BRANCH   1  12
ATOM     12  C   UNL     1      32.587  35.959   0.785  1.00  0.00     0.000 C 
BRANCH  12  13
ATOM     13  C   UNL     1      32.852  36.142  -0.720  1.00  0.00    -0.000 C 
BRANCH  13  14
ATOM     14  C   UNL     1      34.138  36.913  -1.073  1.00  0.00    -0.000 C 
BRANCH  14  15
ATOM     15  C   UNL     1      33.929  38.433  -1.140  1.00  0.00    -0.000 C 
BRANCH  15  16
ATOM     16  C   UNL     1      35.124  39.124  -1.809  1.00  0.00    -0.000 C 
BRANCH  16  17
ATOM     17  C   UNL     1      34.990  39.091  -3.338  1.00  0.00    -0.000 C 
BRANCH  17  18
ATOM     18  C   UNL     1      33.525  39.088  -3.805  1.00  0.00    -0.000 C 
BRANCH  18  19
ATOM     19  C   UNL     1      33.271  38.092  -4.946  1.00  0.00    -0.003 C 
ATOM     20  C   UNL     1      32.032  37.245  -4.669  1.00  0.00     0.004 C 
ENDBRANCH  18  19
ENDBRANCH  17  18
ENDBRANCH  16  17
ENDBRANCH  15  16
ENDBRANCH  14  15
ENDBRANCH  13  14
ENDBRANCH  12  13
ENDBRANCH   1  12
TORSDOF 16
ENDMDL
