MODEL 1
REMARK VINA RESULT:    -4.655      0.000      0.000
REMARK INTER + INTRA:          -8.051
REMARK INTER:                  -7.377
REMARK INTRA:                  -0.674
REMARK UNBOUND:                -0.674
REMARK SMILES CCCCCCCCCCCC(=O)[O-]
REMARK SMILES IDX 7 1 8 2 9 3 10 4 11 5 12 6 13 7 14 8 6 9 5 10 4 11 3 12 2 13
REMARK SMILES IDX 1 14
REMARK H PARENT
REMARK Flexibility Score: inf
ROOT
ATOM      1  C   UNL     1      -0.397  -1.487   8.808  1.00  0.00     0.000 C 
ENDROOT
BRANCH   1   2
ATOM      2  C   UNL     1      -0.749  -0.012   8.558  1.00  0.00     0.000 C 
BRANCH   2   3
ATOM      3  C   UNL     1      -1.183   0.207   7.101  1.00  0.00     0.000 C 
BRANCH   3   4
ATOM      4  C   UNL     1      -1.374  -1.112   6.335  1.00  0.00     0.006 C 
BRANCH   4   5
ATOM      5  C   UNL     1      -1.519  -0.900   4.822  1.00  0.00     0.053 C 
BRANCH   5   6
ATOM      6  C   UNL     1      -1.506  -2.215   4.108  1.00  0.00     0.041 C 
ATOM      7  O   UNL     1      -1.339  -2.258   2.862  1.00  0.00    -0.550 OA
ATOM      8  O   UNL     1      -1.728  -3.391   4.814  1.00  0.00    -0.550 OA
ENDBRANCH   5   6
ENDBRANCH   4   5
ENDBRANCH   3   4
ENDBRANCH   2   3
ENDBRANCH   1   2
BRANCH   1   9
ATOM      9  C   UNL     1       0.771  -1.662   9.793  1.00  0.00     0.000 C 
BRANCH   9  10
ATOM     10  C   UNL     1       1.205  -3.131   9.938  1.00  0.00    -0.000 C 
BRANCH  10  11
ATOM     11  C   UNL     1       0.038  -4.113   9.740  1.00  0.00    -0.000 C 
BRANCH  11  12
ATOM     12  C   UNL     1       0.503  -5.504   9.283  1.00  0.00    -0.000 C 
BRANCH  12  13
ATOM     13  C   UNL     1       1.074  -5.451   7.861  1.00  0.00    -0.003 C 
ATOM     14  C   UNL     1      -0.012  -5.712   6.820  1.00  0.00     0.004 C 
ENDBRANCH  12  13
ENDBRANCH  11  12
ENDBRANCH  10  11
ENDBRANCH   9  10
ENDBRANCH   1   9
TORSDOF 10
ENDMDL
MODEL 2
REMARK VINA RESULT:    -4.633      3.333      6.446
REMARK INTER + INTRA:          -8.015
REMARK INTER:                  -7.441
REMARK INTRA:                  -0.574
REMARK UNBOUND:                -0.674
REMARK SMILES CCCCCCCCCCCC(=O)[O-]
REMARK SMILES IDX 7 1 8 2 9 3 10 4 11 5 12 6 13 7 14 8 6 9 5 10 4 11 3 12 2 13
REMARK SMILES IDX 1 14
REMARK H PARENT
REMARK Flexibility Score: inf
ROOT
ATOM      1  C   UNL     1      -0.404  -4.641   7.415  1.00  0.00     0.000 C 
ENDROOT
BRANCH   1   2
ATOM      2  C   UNL     1      -0.541  -5.970   8.175  1.00  0.00     0.000 C 
BRANCH   2   3
ATOM      3  C   UNL     1      -0.981  -7.098   7.230  1.00  0.00     0.000 C 
BRANCH   3   4
ATOM      4  C   UNL     1      -1.774  -8.200   7.950  1.00  0.00     0.006 C 
BRANCH   4   5
ATOM      5  C   UNL     1      -2.940  -7.644   8.777  1.00  0.00     0.053 C 
BRANCH   5   6
ATOM      6  C   UNL     1      -4.247  -8.016   8.152  1.00  0.00     0.041 C 
ATOM      7  O   UNL     1      -4.903  -7.163   7.498  1.00  0.00    -0.550 OA
ATOM      8  O   UNL     1      -4.765  -9.293   8.331  1.00  0.00    -0.550 OA
ENDBRANCH   5   6
ENDBRANCH   4   5
ENDBRANCH   3   4
ENDBRANCH   2   3
ENDBRANCH   1   2
BRANCH   1   9
ATOM      9  C   UNL     1      -0.670  -4.787   5.908  1.00  0.00     0.000 C 
BRANCH   9  10
ATOM     10  C   UNL     1      -1.511  -3.629   5.342  1.00  0.00    -0.000 C 
BRANCH  10  11
ATOM     11  C   UNL     1      -1.187  -2.284   6.012  1.00  0.00    -0.000 C 
BRANCH  11  12
ATOM     12  C   UNL     1      -1.486  -1.081   5.104  1.00  0.00    -0.000 C 
BRANCH  12  13
ATOM     13  C   UNL     1      -1.226   0.239   5.840  1.00  0.00    -0.003 C 
ATOM     14  C   UNL     1      -1.309   0.053   7.353  1.00  0.00     0.004 C 
ENDBRANCH  12  13
ENDBRANCH  11  12
ENDBRANCH  10  11
ENDBRANCH   9  10
ENDBRANCH   1   9
TORSDOF 10
ENDMDL
MODEL 3
REMARK VINA RESULT:    -4.189      3.972      6.703
REMARK INTER + INTRA:          -7.313
REMARK INTER:                  -6.775
REMARK INTRA:                  -0.538
REMARK UNBOUND:                -0.674
REMARK SMILES CCCCCCCCCCCC(=O)[O-]
REMARK SMILES IDX 7 1 8 2 9 3 10 4 11 5 12 6 13 7 14 8 6 9 5 10 4 11 3 12 2 13
REMARK SMILES IDX 1 14
REMARK H PARENT
REMARK Flexibility Score: inf
ROOT
ATOM      1  C   UNL     1      -0.585  -7.086   7.093  1.00  0.00     0.000 C 
ENDROOT
BRANCH   1   2
ATOM      2  C   UNL     1      -1.710  -8.010   7.586  1.00  0.00     0.000 C 
BRANCH   2   3
ATOM      3  C   UNL     1      -2.283  -7.509   8.920  1.00  0.00     0.000 C 
BRANCH   3   4
ATOM      4  C   UNL     1      -3.494  -8.330   9.391  1.00  0.00     0.006 C 
BRANCH   4   5
ATOM      5  C   UNL     1      -4.146  -9.127   8.253  1.00  0.00     0.053 C 
BRANCH   5   6
ATOM      6  C   UNL     1      -5.329  -8.390   7.711  1.00  0.00     0.041 C 
ATOM      7  O   UNL     1      -5.251  -7.157   7.467  1.00  0.00    -0.550 OA
ATOM      8  O   UNL     1      -6.534  -9.054   7.520  1.00  0.00    -0.550 OA
ENDBRANCH   5   6
ENDBRANCH   4   5
ENDBRANCH   3   4
ENDBRANCH   2   3
ENDBRANCH   1   2
BRANCH   1   9
ATOM      9  C   UNL     1      -0.230  -5.986   8.108  1.00  0.00     0.000 C 
BRANCH   9  10
ATOM     10  C   UNL     1      -0.103  -4.599   7.453  1.00  0.00    -0.000 C 
BRANCH  10  11
ATOM     11  C   UNL     1      -0.858  -4.506   6.117  1.00  0.00    -0.000 C 
BRANCH  11  12
ATOM     12  C   UNL     1      -1.258  -3.067   5.759  1.00  0.00    -0.000 C 
BRANCH  12  13
ATOM     13  C   UNL     1      -1.647  -2.959   4.280  1.00  0.00    -0.003 C 
ATOM     14  C   UNL     1      -1.600  -1.510   3.801  1.00  0.00     0.004 C 
ENDBRANCH  12  13
ENDBRANCH  11  12
ENDBRANCH  10  11
ENDBRANCH   9  10
ENDBRANCH   1   9
TORSDOF 10
ENDMDL
MODEL 4
REMARK VINA RESULT:    -4.087      3.744      6.493
REMARK INTER + INTRA:          -7.150
REMARK INTER:                  -6.450
REMARK INTRA:                  -0.701
REMARK UNBOUND:                -0.674
REMARK SMILES CCCCCCCCCCCC(=O)[O-]
REMARK SMILES IDX 7 1 8 2 9 3 10 4 11 5 12 6 13 7 14 8 6 9 5 10 4 11 3 12 2 13
REMARK SMILES IDX 1 14
REMARK H PARENT
REMARK Flexibility Score: inf
ROOT
ATOM      1  C   UNL     1      -0.502  -5.154   6.407  1.00  0.00     0.000 C 
ENDROOT
BRANCH   1   2
ATOM      2  C   UNL     1      -0.429  -6.451   7.229  1.00  0.00     0.000 C 
BRANCH   2   3
ATOM      3  C   UNL     1      -0.775  -6.185   8.701  1.00  0.00     0.000 C 
BRANCH   3   4
ATOM      4  C   UNL     1      -1.839  -7.152   9.244  1.00  0.00     0.006 C 
BRANCH   4   5
ATOM      5  C   UNL     1      -2.769  -7.684   8.146  1.00  0.00     0.053 C 
BRANCH   5   6
ATOM      6  C   UNL     1      -2.777  -9.180   8.149  1.00  0.00     0.041 C 
ATOM      7  O   UNL     1      -3.720  -9.808   8.696  1.00  0.00    -0.550 OA
ATOM      8  O   UNL     1      -1.716  -9.882   7.590  1.00  0.00    -0.550 OA
ENDBRANCH   5   6
ENDBRANCH   4   5
ENDBRANCH   3   4
ENDBRANCH   2   3
ENDBRANCH   1   2
BRANCH   1   9
ATOM      9  C   UNL     1      -0.421  -3.890   7.280  1.00  0.00     0.000 C 
BRANCH   9  10
ATOM     10  C   UNL     1      -1.020  -2.655   6.586  1.00  0.00    -0.000 C 
BRANCH  10  11
ATOM     11  C   UNL     1      -1.434  -2.938   5.133  1.00  0.00    -0.000 C 
BRANCH  11  12
ATOM     12  C   UNL     1      -1.379  -1.686   4.244  1.00  0.00    -0.000 C 
BRANCH  12  13
ATOM     13  C   UNL     1      -1.600  -2.050   2.771  1.00  0.00    -0.003 C 
ATOM     14  C   UNL     1      -1.052  -3.440   2.458  1.00  0.00     0.004 C 
ENDBRANCH  12  13
ENDBRANCH  11  12
ENDBRANCH  10  11
ENDBRANCH   9  10
ENDBRANCH   1   9
TORSDOF 10
ENDMDL
MODEL 5
REMARK VINA RESULT:    -4.065      4.450      7.006
REMARK INTER + INTRA:          -7.115
REMARK INTER:                  -6.405
REMARK INTRA:                  -0.710
REMARK UNBOUND:                -0.674
REMARK SMILES CCCCCCCCCCCC(=O)[O-]
REMARK SMILES IDX 7 1 8 2 9 3 10 4 11 5 12 6 13 7 14 8 6 9 5 10 4 11 3 12 2 13
REMARK SMILES IDX 1 14
REMARK H PARENT
REMARK Flexibility Score: inf
ROOT
ATOM      1  C   UNL     1      -1.515  -8.486   7.498  1.00  0.00     0.000 C 
ENDROOT
BRANCH   1   2
ATOM      2  C   UNL     1      -2.186  -9.304   8.613  1.00  0.00     0.000 C 
BRANCH   2   3
ATOM      3  C   UNL     1      -3.360 -10.125   8.059  1.00  0.00     0.000 C 
BRANCH   3   4
ATOM      4  C   UNL     1      -4.649  -9.941   8.876  1.00  0.00     0.006 C 
BRANCH   4   5
ATOM      5  C   UNL     1      -5.666  -9.029   8.177  1.00  0.00     0.053 C 
BRANCH   5   6
ATOM      6  C   UNL     1      -5.314  -7.592   8.396  1.00  0.00     0.041 C 
ATOM      7  O   UNL     1      -5.258  -6.797   7.422  1.00  0.00    -0.550 OA
ATOM      8  O   UNL     1      -4.998  -7.141   9.672  1.00  0.00    -0.550 OA
ENDBRANCH   5   6
ENDBRANCH   4   5
ENDBRANCH   3   4
ENDBRANCH   2   3
ENDBRANCH   1   2
BRANCH   1   9
ATOM      9  C   UNL     1      -1.515  -6.976   7.786  1.00  0.00     0.000 C 
BRANCH   9  10
ATOM     10  C   UNL     1      -0.365  -6.240   7.076  1.00  0.00    -0.000 C 
BRANCH  10  11
ATOM     11  C   UNL     1       0.238  -5.119   7.938  1.00  0.00    -0.000 C 
BRANCH  11  12
ATOM     12  C   UNL     1       0.475  -5.549   9.394  1.00  0.00    -0.000 C 
BRANCH  12  13
ATOM     13  C   UNL     1       1.957  -5.429   9.767  1.00  0.00    -0.003 C 
ATOM     14  C   UNL     1       2.814  -5.149   8.535  1.00  0.00     0.004 C 
ENDBRANCH  12  13
ENDBRANCH  11  12
ENDBRANCH  10  11
ENDBRANCH   9  10
ENDBRANCH   1   9
TORSDOF 10
ENDMDL
MODEL 6
REMARK VINA RESULT:    -4.005      3.681      5.258
REMARK INTER + INTRA:          -7.021
REMARK INTER:                  -6.540
REMARK INTRA:                  -0.481
REMARK UNBOUND:                -0.674
REMARK SMILES CCCCCCCCCCCC(=O)[O-]
REMARK SMILES IDX 7 1 8 2 9 3 10 4 11 5 12 6 13 7 14 8 6 9 5 10 4 11 3 12 2 13
REMARK SMILES IDX 1 14
REMARK H PARENT
REMARK Flexibility Score: inf
ROOT
ATOM      1  C   UNL     1      -0.842  -6.628   8.115  1.00  0.00     0.000 C 
ENDROOT
BRANCH   1   2
ATOM      2  C   UNL     1      -0.019  -5.968   6.998  1.00  0.00     0.000 C 
BRANCH   2   3
ATOM      3  C   UNL     1      -0.360  -4.475   6.877  1.00  0.00     0.000 C 
BRANCH   3   4
ATOM      4  C   UNL     1      -1.125  -4.144   5.585  1.00  0.00     0.006 C 
BRANCH   4   5
ATOM      5  C   UNL     1      -1.445  -2.649   5.455  1.00  0.00     0.053 C 
BRANCH   5   6
ATOM      6  C   UNL     1      -1.498  -2.251   4.014  1.00  0.00     0.041 C 
ATOM      7  O   UNL     1      -1.612  -1.038   3.695  1.00  0.00    -0.550 OA
ATOM      8  O   UNL     1      -1.471  -3.224   3.023  1.00  0.00    -0.550 OA
ENDBRANCH   5   6
ENDBRANCH   4   5
ENDBRANCH   3   4
ENDBRANCH   2   3
ENDBRANCH   1   2
BRANCH   1   9
ATOM      9  C   UNL     1      -2.018  -7.460   7.577  1.00  0.00     0.000 C 
BRANCH   9  10
ATOM     10  C   UNL     1      -1.908  -8.948   7.953  1.00  0.00    -0.000 C 
BRANCH  10  11
ATOM     11  C   UNL     1      -3.278  -9.642   8.021  1.00  0.00    -0.000 C 
BRANCH  11  12
ATOM     12  C   UNL     1      -4.385  -8.720   8.554  1.00  0.00    -0.000 C 
BRANCH  12  13
ATOM     13  C   UNL     1      -5.605  -8.736   7.626  1.00  0.00    -0.003 C 
ATOM     14  C   UNL     1      -5.714 -10.064   6.881  1.00  0.00     0.004 C 
ENDBRANCH  12  13
ENDBRANCH  11  12
ENDBRANCH  10  11
ENDBRANCH   9  10
ENDBRANCH   1   9
TORSDOF 10
ENDMDL
MODEL 7
REMARK VINA RESULT:    -3.831     15.109     17.415
REMARK INTER + INTRA:          -6.745
REMARK INTER:                  -5.370
REMARK INTRA:                  -1.375
REMARK UNBOUND:                -0.674
REMARK SMILES CCCCCCCCCCCC(=O)[O-]
REMARK SMILES IDX 7 1 8 2 9 3 10 4 11 5 12 6 13 7 14 8 6 9 5 10 4 11 3 12 2 13
REMARK SMILES IDX 1 14
REMARK H PARENT
REMARK Flexibility Score: inf
ROOT
ATOM      1  C   UNL     1       4.437   3.707  -5.357  1.00  0.00     0.000 C 
ENDROOT
BRANCH   1   2
ATOM      2  C   UNL     1       5.306   3.398  -6.586  1.00  0.00     0.000 C 
BRANCH   2   3
ATOM      3  C   UNL     1       5.198   4.521  -7.628  1.00  0.00     0.000 C 
BRANCH   3   4
ATOM      4  C   UNL     1       3.847   5.252  -7.574  1.00  0.00     0.006 C 
BRANCH   4   5
ATOM      5  C   UNL     1       3.995   6.775  -7.687  1.00  0.00     0.053 C 
BRANCH   5   6
ATOM      6  C   UNL     1       2.661   7.413  -7.916  1.00  0.00     0.041 C 
ATOM      7  O   UNL     1       1.609   6.834  -7.540  1.00  0.00    -0.550 OA
ATOM      8  O   UNL     1       2.577   8.625  -8.590  1.00  0.00    -0.550 OA
ENDBRANCH   5   6
ENDBRANCH   4   5
ENDBRANCH   3   4
ENDBRANCH   2   3
ENDBRANCH   1   2
BRANCH   1   9
ATOM      9  C   UNL     1       5.259   4.201  -4.154  1.00  0.00     0.000 C 
BRANCH   9  10
ATOM     10  C   UNL     1       5.438   5.730  -4.151  1.00  0.00    -0.000 C 
BRANCH  10  11
ATOM     11  C   UNL     1       6.915   6.150  -4.059  1.00  0.00    -0.000 C 
BRANCH  11  12
ATOM     12  C   UNL     1       7.618   6.153  -5.425  1.00  0.00    -0.000 C 
BRANCH  12  13
ATOM     13  C   UNL     1       7.289   7.430  -6.207  1.00  0.00    -0.003 C 
ATOM     14  C   UNL     1       8.046   7.477  -7.532  1.00  0.00     0.004 C 
ENDBRANCH  12  13
ENDBRANCH  11  12
ENDBRANCH  10  11
ENDBRANCH   9  10
ENDBRANCH   1   9
TORSDOF 10
ENDMDL
MODEL 8
REMARK VINA RESULT:    -3.825     13.358     15.404
REMARK INTER + INTRA:          -6.736
REMARK INTER:                  -5.663
REMARK INTRA:                  -1.073
REMARK UNBOUND:                -0.674
REMARK SMILES CCCCCCCCCCCC(=O)[O-]
REMARK SMILES IDX 7 1 8 2 9 3 10 4 11 5 12 6 13 7 14 8 6 9 5 10 4 11 3 12 2 13
REMARK SMILES IDX 1 14
REMARK H PARENT
REMARK Flexibility Score: inf
ROOT
ATOM      1  C   UNL     1       4.166  -7.735  -4.316  1.00  0.00     0.000 C 
ENDROOT
BRANCH   1   2
ATOM      2  C   UNL     1       5.470  -7.094  -3.814  1.00  0.00     0.000 C 
BRANCH   2   3
ATOM      3  C   UNL     1       6.560  -8.158  -3.616  1.00  0.00     0.000 C 
BRANCH   3   4
ATOM      4  C   UNL     1       7.915  -7.551  -3.217  1.00  0.00     0.006 C 
BRANCH   4   5
ATOM      5  C   UNL     1       7.777  -6.420  -2.190  1.00  0.00     0.053 C 
BRANCH   5   6
ATOM      6  C   UNL     1       8.333  -5.145  -2.740  1.00  0.00     0.041 C 
ATOM      7  O   UNL     1       7.561  -4.211  -3.080  1.00  0.00    -0.550 OA
ATOM      8  O   UNL     1       9.703  -5.007  -2.923  1.00  0.00    -0.550 OA
ENDBRANCH   5   6
ENDBRANCH   4   5
ENDBRANCH   3   4
ENDBRANCH   2   3
ENDBRANCH   1   2
BRANCH   1   9
ATOM      9  C   UNL     1       4.205  -9.272  -4.279  1.00  0.00     0.000 C 
BRANCH   9  10
ATOM     10  C   UNL     1       4.147  -9.897  -5.684  1.00  0.00    -0.000 C 
BRANCH  10  11
ATOM     11  C   UNL     1       4.508  -8.892  -6.791  1.00  0.00    -0.000 C 
BRANCH  11  12
ATOM     12  C   UNL     1       5.907  -9.132  -7.377  1.00  0.00    -0.000 C 
BRANCH  12  13
ATOM     13  C   UNL     1       6.777  -7.876  -7.249  1.00  0.00    -0.003 C 
ATOM     14  C   UNL     1       8.199  -8.137  -7.739  1.00  0.00     0.004 C 
ENDBRANCH  12  13
ENDBRANCH  11  12
ENDBRANCH  10  11
ENDBRANCH   9  10
ENDBRANCH   1   9
TORSDOF 10
ENDMDL
MODEL 9
REMARK VINA RESULT:    -3.783     13.143     15.409
REMARK INTER + INTRA:          -6.669
REMARK INTER:                  -5.420
REMARK INTRA:                  -1.249
REMARK UNBOUND:                -0.674
REMARK SMILES CCCCCCCCCCCC(=O)[O-]
REMARK SMILES IDX 7 1 8 2 9 3 10 4 11 5 12 6 13 7 14 8 6 9 5 10 4 11 3 12 2 13
REMARK SMILES IDX 1 14
REMARK H PARENT
REMARK Flexibility Score: inf
ROOT
ATOM      1  C   UNL     1       4.626  -7.950  -3.967  1.00  0.00     0.000 C 
ENDROOT
BRANCH   1   2
ATOM      2  C   UNL     1       6.026  -7.346  -3.771  1.00  0.00     0.000 C 
BRANCH   2   3
ATOM      3  C   UNL     1       7.107  -8.434  -3.848  1.00  0.00     0.000 C 
BRANCH   3   4
ATOM      4  C   UNL     1       8.161  -8.303  -2.737  1.00  0.00     0.006 C 
BRANCH   4   5
ATOM      5  C   UNL     1       7.573  -7.766  -1.426  1.00  0.00     0.053 C 
BRANCH   5   6
ATOM      6  C   UNL     1       7.749  -8.766  -0.327  1.00  0.00     0.041 C 
ATOM      7  O   UNL     1       7.465  -8.460   0.860  1.00  0.00    -0.550 OA
ATOM      8  O   UNL     1       8.275 -10.021  -0.608  1.00  0.00    -0.550 OA
ENDBRANCH   5   6
ENDBRANCH   4   5
ENDBRANCH   3   4
ENDBRANCH   2   3
ENDBRANCH   1   2
BRANCH   1   9
ATOM      9  C   UNL     1       4.656  -9.478  -4.135  1.00  0.00     0.000 C 
BRANCH   9  10
ATOM     10  C   UNL     1       4.031  -9.936  -5.465  1.00  0.00    -0.000 C 
BRANCH  10  11
ATOM     11  C   UNL     1       5.045  -9.945  -6.621  1.00  0.00    -0.000 C 
BRANCH  11  12
ATOM     12  C   UNL     1       4.952  -8.691  -7.503  1.00  0.00    -0.000 C 
BRANCH  12  13
ATOM     13  C   UNL     1       6.311  -7.989  -7.602  1.00  0.00    -0.003 C 
ATOM     14  C   UNL     1       7.459  -8.985  -7.455  1.00  0.00     0.004 C 
ENDBRANCH  12  13
ENDBRANCH  11  12
ENDBRANCH  10  11
ENDBRANCH   9  10
ENDBRANCH   1   9
TORSDOF 10
ENDMDL
