MODEL 1
REMARK VINA RESULT:    -5.124      0.000      0.000
REMARK INTER + INTRA:         -16.823
REMARK INTER:                 -13.511
REMARK INTRA:                  -3.312
REMARK UNBOUND:                -3.312
REMARK SMILES CCCCCCCCCCCCCCCCCCCCCCCCCCCCCC(=O)[O-]
REMARK SMILES IDX 16 1 17 2 18 3 19 4 20 5 21 6 22 7 23 8 24 9 25 10 26 11
REMARK SMILES IDX 27 12 28 13 29 14 30 15 31 16 32 17 15 18 14 19 13 20 12 21
REMARK SMILES IDX 11 22 10 23 9 24 8 25 7 26 6 27 5 28 4 29 3 30 2 31 1 32
REMARK H PARENT
REMARK Flexibility Score: inf
ROOT
ATOM      1  C   UNL     1     -16.803 -12.371  19.288  1.00  0.00     0.000 C 
ENDROOT
BRANCH   1   2
ATOM      2  C   UNL     1     -15.372 -12.444  18.722  1.00  0.00     0.000 C 
BRANCH   2   3
ATOM      3  C   UNL     1     -15.288 -12.648  17.198  1.00  0.00     0.000 C 
BRANCH   3   4
ATOM      4  C   UNL     1     -16.102 -13.840  16.653  1.00  0.00     0.000 C 
BRANCH   4   5
ATOM      5  C   UNL     1     -16.474 -13.750  15.162  1.00  0.00     0.000 C 
BRANCH   5   6
ATOM      6  C   UNL     1     -16.096 -12.402  14.528  1.00  0.00     0.000 C 
BRANCH   6   7
ATOM      7  C   UNL     1     -15.085 -12.598  13.388  1.00  0.00     0.000 C 
BRANCH   7   8
ATOM      8  C   UNL     1     -13.642 -12.270  13.805  1.00  0.00     0.000 C 
BRANCH   8   9
ATOM      9  C   UNL     1     -12.754 -13.520  13.906  1.00  0.00     0.000 C 
BRANCH   9  10
ATOM     10  C   UNL     1     -12.293 -13.809  15.344  1.00  0.00     0.000 C 
BRANCH  10  11
ATOM     11  C   UNL     1     -11.306 -12.763  15.906  1.00  0.00     0.000 C 
BRANCH  11  12
ATOM     12  C   UNL     1      -9.845 -13.079  15.537  1.00  0.00     0.000 C 
BRANCH  12  13
ATOM     13  C   UNL     1      -9.429 -12.486  14.177  1.00  0.00     0.006 C 
BRANCH  13  14
ATOM     14  C   UNL     1      -8.734 -11.117  14.268  1.00  0.00     0.053 C 
BRANCH  14  15
ATOM     15  C   UNL     1      -7.259 -11.218  14.025  1.00  0.00     0.041 C 
ATOM     16  O   UNL     1      -6.733 -12.335  13.774  1.00  0.00    -0.550 OA
ATOM     17  O   UNL     1      -6.460 -10.085  14.108  1.00  0.00    -0.550 OA
ENDBRANCH  14  15
ENDBRANCH  13  14
ENDBRANCH  12  13
ENDBRANCH  11  12
ENDBRANCH  10  11
ENDBRANCH   9  10
ENDBRANCH   8   9
ENDBRANCH   7   8
ENDBRANCH   6   7
ENDBRANCH   5   6
ENDBRANCH   4   5
ENDBRANCH   3   4
ENDBRANCH   2   3
ENDBRANCH   1   2
BRANCH   1  18
ATOM     18  C   UNL     1     -16.857 -12.049  20.799  1.00  0.00     0.000 C 
BRANCH  18  19
ATOM     19  C   UNL     1     -17.780 -10.862  21.112  1.00  0.00     0.000 C 
BRANCH  19  20
ATOM     20  C   UNL     1     -19.172 -11.068  20.500  1.00  0.00     0.000 C 
BRANCH  20  21
ATOM     21  C   UNL     1     -20.220 -10.205  21.217  1.00  0.00     0.000 C 
BRANCH  21  22
ATOM     22  C   UNL     1     -20.636 -10.799  22.580  1.00  0.00     0.000 C 
BRANCH  22  23
ATOM     23  C   UNL     1     -20.614  -9.775  23.727  1.00  0.00     0.000 C 
BRANCH  23  24
ATOM     24  C   UNL     1     -19.637 -10.162  24.850  1.00  0.00    -0.000 C 
BRANCH  24  25
ATOM     25  C   UNL     1     -18.398  -9.243  24.888  1.00  0.00    -0.000 C 
BRANCH  25  26
ATOM     26  C   UNL     1     -17.078  -9.968  24.569  1.00  0.00    -0.000 C 
BRANCH  26  27
ATOM     27  C   UNL     1     -16.105  -9.104  23.750  1.00  0.00    -0.000 C 
BRANCH  27  28
ATOM     28  C   UNL     1     -14.798  -9.838  23.409  1.00  0.00    -0.000 C 
BRANCH  28  29
ATOM     29  C   UNL     1     -14.394  -9.672  21.934  1.00  0.00    -0.000 C 
BRANCH  29  30
ATOM     30  C   UNL     1     -13.187 -10.546  21.543  1.00  0.00    -0.000 C 
BRANCH  30  31
ATOM     31  C   UNL     1     -13.351 -12.049  21.836  1.00  0.00    -0.003 C 
ATOM     32  C   UNL     1     -12.169 -12.640  22.600  1.00  0.00     0.004 C 
ENDBRANCH  30  31
ENDBRANCH  29  30
ENDBRANCH  28  29
ENDBRANCH  27  28
ENDBRANCH  26  27
ENDBRANCH  25  26
ENDBRANCH  24  25
ENDBRANCH  23  24
ENDBRANCH  22  23
ENDBRANCH  21  22
ENDBRANCH  20  21
ENDBRANCH  19  20
ENDBRANCH  18  19
ENDBRANCH   1  18
TORSDOF 28
ENDMDL
MODEL 2
REMARK VINA RESULT:    -5.116      0.887      1.978
REMARK INTER + INTRA:         -16.803
REMARK INTER:                 -13.295
REMARK INTRA:                  -3.509
REMARK UNBOUND:                -3.312
REMARK SMILES CCCCCCCCCCCCCCCCCCCCCCCCCCCCCC(=O)[O-]
REMARK SMILES IDX 16 1 17 2 18 3 19 4 20 5 21 6 22 7 23 8 24 9 25 10 26 11
REMARK SMILES IDX 27 12 28 13 29 14 30 15 31 16 32 17 15 18 14 19 13 20 12 21
REMARK SMILES IDX 11 22 10 23 9 24 8 25 7 26 6 27 5 28 4 29 3 30 2 31 1 32
REMARK H PARENT
REMARK Flexibility Score: inf
ROOT
ATOM      1  C   UNL     1     -17.880 -10.791  21.149  1.00  0.00     0.000 C 
ENDROOT
BRANCH   1   2
ATOM      2  C   UNL     1     -16.896 -11.946  20.883  1.00  0.00     0.000 C 
BRANCH   2   3
ATOM      3  C   UNL     1     -16.791 -12.383  19.411  1.00  0.00     0.000 C 
BRANCH   3   4
ATOM      4  C   UNL     1     -15.485 -11.974  18.699  1.00  0.00     0.000 C 
BRANCH   4   5
ATOM      5  C   UNL     1     -14.949 -12.994  17.678  1.00  0.00     0.000 C 
BRANCH   5   6
ATOM      6  C   UNL     1     -16.062 -13.815  17.009  1.00  0.00     0.000 C 
BRANCH   6   7
ATOM      7  C   UNL     1     -16.094 -13.562  15.494  1.00  0.00     0.000 C 
BRANCH   7   8
ATOM      8  C   UNL     1     -15.194 -12.391  15.064  1.00  0.00     0.000 C 
BRANCH   8   9
ATOM      9  C   UNL     1     -14.065 -12.828  14.117  1.00  0.00     0.000 C 
BRANCH   9  10
ATOM     10  C   UNL     1     -12.690 -12.285  14.540  1.00  0.00     0.000 C 
BRANCH  10  11
ATOM     11  C   UNL     1     -12.027 -13.085  15.683  1.00  0.00     0.000 C 
BRANCH  11  12
ATOM     12  C   UNL     1     -10.539 -12.731  15.858  1.00  0.00     0.000 C 
BRANCH  12  13
ATOM     13  C   UNL     1      -9.825 -12.460  14.520  1.00  0.00     0.006 C 
BRANCH  13  14
ATOM     14  C   UNL     1      -8.304 -12.263  14.640  1.00  0.00     0.053 C 
BRANCH  14  15
ATOM     15  C   UNL     1      -7.907 -10.832  14.446  1.00  0.00     0.041 C 
ATOM     16  O   UNL     1      -6.704 -10.484  14.581  1.00  0.00    -0.550 OA
ATOM     17  O   UNL     1      -8.869  -9.876  14.150  1.00  0.00    -0.550 OA
ENDBRANCH  14  15
ENDBRANCH  13  14
ENDBRANCH  12  13
ENDBRANCH  11  12
ENDBRANCH  10  11
ENDBRANCH   9  10
ENDBRANCH   8   9
ENDBRANCH   7   8
ENDBRANCH   6   7
ENDBRANCH   5   6
ENDBRANCH   4   5
ENDBRANCH   3   4
ENDBRANCH   2   3
ENDBRANCH   1   2
BRANCH   1  18
ATOM     18  C   UNL     1     -19.263 -10.988  20.486  1.00  0.00     0.000 C 
BRANCH  18  19
ATOM     19  C   UNL     1     -20.381 -10.248  21.234  1.00  0.00     0.000 C 
BRANCH  19  20
ATOM     20  C   UNL     1     -21.261 -11.227  22.023  1.00  0.00     0.000 C 
BRANCH  20  21
ATOM     21  C   UNL     1     -21.384 -10.795  23.490  1.00  0.00     0.000 C 
BRANCH  21  22
ATOM     22  C   UNL     1     -20.208  -9.900  23.939  1.00  0.00     0.000 C 
BRANCH  22  23
ATOM     23  C   UNL     1     -19.470 -10.435  25.178  1.00  0.00     0.000 C 
BRANCH  23  24
ATOM     24  C   UNL     1     -17.990 -10.747  24.901  1.00  0.00    -0.000 C 
BRANCH  24  25
ATOM     25  C   UNL     1     -17.197  -9.489  24.488  1.00  0.00    -0.000 C 
BRANCH  25  26
ATOM     26  C   UNL     1     -15.811  -9.799  23.893  1.00  0.00    -0.000 C 
BRANCH  26  27
ATOM     27  C   UNL     1     -15.374  -8.771  22.836  1.00  0.00    -0.000 C 
BRANCH  27  28
ATOM     28  C   UNL     1     -13.889  -8.901  22.458  1.00  0.00    -0.000 C 
BRANCH  28  29
ATOM     29  C   UNL     1     -13.670  -9.791  21.223  1.00  0.00    -0.000 C 
BRANCH  29  30
ATOM     30  C   UNL     1     -12.750 -10.994  21.510  1.00  0.00    -0.000 C 
BRANCH  30  31
ATOM     31  C   UNL     1     -13.398 -12.126  22.329  1.00  0.00    -0.003 C 
ATOM     32  C   UNL     1     -12.696 -12.373  23.663  1.00  0.00     0.004 C 
ENDBRANCH  30  31
ENDBRANCH  29  30
ENDBRANCH  28  29
ENDBRANCH  27  28
ENDBRANCH  26  27
ENDBRANCH  25  26
ENDBRANCH  24  25
ENDBRANCH  23  24
ENDBRANCH  22  23
ENDBRANCH  21  22
ENDBRANCH  20  21
ENDBRANCH  19  20
ENDBRANCH  18  19
ENDBRANCH   1  18
TORSDOF 28
ENDMDL
MODEL 3
REMARK VINA RESULT:    -5.090      2.766      9.579
REMARK INTER + INTRA:         -16.734
REMARK INTER:                 -13.334
REMARK INTRA:                  -3.400
REMARK UNBOUND:                -3.312
REMARK SMILES CCCCCCCCCCCCCCCCCCCCCCCCCCCCCC(=O)[O-]
REMARK SMILES IDX 16 1 17 2 18 3 19 4 20 5 21 6 22 7 23 8 24 9 25 10 26 11
REMARK SMILES IDX 27 12 28 13 29 14 30 15 31 16 32 17 15 18 14 19 13 20 12 21
REMARK SMILES IDX 11 22 10 23 9 24 8 25 7 26 6 27 5 28 4 29 3 30 2 31 1 32
REMARK H PARENT
REMARK Flexibility Score: inf
ROOT
ATOM      1  C   UNL     1     -16.845 -12.655  19.147  1.00  0.00     0.000 C 
ENDROOT
BRANCH   1   2
ATOM      2  C   UNL     1     -17.127 -12.113  20.562  1.00  0.00     0.000 C 
BRANCH   2   3
ATOM      3  C   UNL     1     -17.175 -10.578  20.670  1.00  0.00     0.000 C 
BRANCH   3   4
ATOM      4  C   UNL     1     -18.495 -10.002  21.225  1.00  0.00     0.000 C 
BRANCH   4   5
ATOM      5  C   UNL     1     -19.736 -10.886  21.007  1.00  0.00     0.000 C 
BRANCH   5   6
ATOM      6  C   UNL     1     -20.551 -11.105  22.291  1.00  0.00     0.000 C 
BRANCH   6   7
ATOM      7  C   UNL     1     -20.532  -9.846  23.172  1.00  0.00     0.000 C 
BRANCH   7   8
ATOM      8  C   UNL     1     -20.318 -10.162  24.661  1.00  0.00     0.000 C 
BRANCH   8   9
ATOM      9  C   UNL     1     -18.901  -9.813  25.144  1.00  0.00     0.000 C 
BRANCH   9  10
ATOM     10  C   UNL     1     -17.881 -10.927  24.851  1.00  0.00     0.000 C 
BRANCH  10  11
ATOM     11  C   UNL     1     -16.510 -10.406  24.367  1.00  0.00     0.000 C 
BRANCH  11  12
ATOM     12  C   UNL     1     -15.579 -11.545  23.911  1.00  0.00     0.000 C 
BRANCH  12  13
ATOM     13  C   UNL     1     -14.450 -11.061  22.982  1.00  0.00     0.006 C 
BRANCH  13  14
ATOM     14  C   UNL     1     -13.547 -12.184  22.442  1.00  0.00     0.053 C 
BRANCH  14  15
ATOM     15  C   UNL     1     -12.144 -12.071  22.955  1.00  0.00     0.041 C 
ATOM     16  O   UNL     1     -11.241 -12.824  22.504  1.00  0.00    -0.550 OA
ATOM     17  O   UNL     1     -11.840 -11.157  23.955  1.00  0.00    -0.550 OA
ENDBRANCH  14  15
ENDBRANCH  13  14
ENDBRANCH  12  13
ENDBRANCH  11  12
ENDBRANCH  10  11
ENDBRANCH   9  10
ENDBRANCH   8   9
ENDBRANCH   7   8
ENDBRANCH   6   7
ENDBRANCH   5   6
ENDBRANCH   4   5
ENDBRANCH   3   4
ENDBRANCH   2   3
ENDBRANCH   1   2
BRANCH   1  18
ATOM     18  C   UNL     1     -15.410 -12.368  18.648  1.00  0.00     0.000 C 
BRANCH  18  19
ATOM     19  C   UNL     1     -15.258 -12.607  17.139  1.00  0.00     0.000 C 
BRANCH  19  20
ATOM     20  C   UNL     1     -16.147 -13.766  16.669  1.00  0.00     0.000 C 
BRANCH  20  21
ATOM     21  C   UNL     1     -16.456 -13.649  15.171  1.00  0.00     0.000 C 
BRANCH  21  22
ATOM     22  C   UNL     1     -15.750 -12.439  14.519  1.00  0.00     0.000 C 
BRANCH  22  23
ATOM     23  C   UNL     1     -14.929 -12.809  13.273  1.00  0.00     0.000 C 
BRANCH  23  24
ATOM     24  C   UNL     1     -14.383 -14.245  13.325  1.00  0.00    -0.000 C 
BRANCH  24  25
ATOM     25  C   UNL     1     -13.110 -14.355  14.190  1.00  0.00    -0.000 C 
BRANCH  25  26
ATOM     26  C   UNL     1     -12.327 -13.035  14.310  1.00  0.00    -0.000 C 
BRANCH  26  27
ATOM     27  C   UNL     1     -11.854 -12.750  15.745  1.00  0.00    -0.000 C 
BRANCH  27  28
ATOM     28  C   UNL     1     -10.330 -12.871  15.906  1.00  0.00    -0.000 C 
BRANCH  28  29
ATOM     29  C   UNL     1      -9.585 -12.775  14.563  1.00  0.00    -0.000 C 
BRANCH  29  30
ATOM     30  C   UNL     1      -8.852 -11.431  14.382  1.00  0.00    -0.000 C 
BRANCH  30  31
ATOM     31  C   UNL     1      -7.345 -11.467  14.697  1.00  0.00    -0.003 C 
ATOM     32  C   UNL     1      -6.501 -11.946  13.518  1.00  0.00     0.004 C 
ENDBRANCH  30  31
ENDBRANCH  29  30
ENDBRANCH  28  29
ENDBRANCH  27  28
ENDBRANCH  26  27
ENDBRANCH  25  26
ENDBRANCH  24  25
ENDBRANCH  23  24
ENDBRANCH  22  23
ENDBRANCH  21  22
ENDBRANCH  20  21
ENDBRANCH  19  20
ENDBRANCH  18  19
ENDBRANCH   1  18
TORSDOF 28
ENDMDL
MODEL 4
REMARK VINA RESULT:    -5.088      0.982      2.211
REMARK INTER + INTRA:         -16.729
REMARK INTER:                 -13.504
REMARK INTRA:                  -3.225
REMARK UNBOUND:                -3.312
REMARK SMILES CCCCCCCCCCCCCCCCCCCCCCCCCCCCCC(=O)[O-]
REMARK SMILES IDX 16 1 17 2 18 3 19 4 20 5 21 6 22 7 23 8 24 9 25 10 26 11
REMARK SMILES IDX 27 12 28 13 29 14 30 15 31 16 32 17 15 18 14 19 13 20 12 21
REMARK SMILES IDX 11 22 10 23 9 24 8 25 7 26 6 27 5 28 4 29 3 30 2 31 1 32
REMARK H PARENT
REMARK Flexibility Score: inf
ROOT
ATOM      1  C   UNL     1     -17.356 -10.258  20.740  1.00  0.00     0.000 C 
ENDROOT
BRANCH   1   2
ATOM      2  C   UNL     1     -16.207 -10.930  19.963  1.00  0.00     0.000 C 
BRANCH   2   3
ATOM      3  C   UNL     1     -16.340 -12.455  19.800  1.00  0.00     0.000 C 
BRANCH   3   4
ATOM      4  C   UNL     1     -16.461 -12.948  18.343  1.00  0.00     0.000 C 
BRANCH   4   5
ATOM      5  C   UNL     1     -15.165 -12.869  17.516  1.00  0.00     0.000 C 
BRANCH   5   6
ATOM      6  C   UNL     1     -15.294 -13.523  16.132  1.00  0.00     0.000 C 
BRANCH   6   7
ATOM      7  C   UNL     1     -14.353 -12.852  15.119  1.00  0.00     0.000 C 
BRANCH   7   8
ATOM      8  C   UNL     1     -13.509 -13.863  14.326  1.00  0.00     0.000 C 
BRANCH   8   9
ATOM      9  C   UNL     1     -12.003 -13.722  14.600  1.00  0.00     0.000 C 
BRANCH   9  10
ATOM     10  C   UNL     1     -11.702 -12.931  15.884  1.00  0.00     0.000 C 
BRANCH  10  11
ATOM     11  C   UNL     1     -10.211 -12.569  16.059  1.00  0.00     0.000 C 
BRANCH  11  12
ATOM     12  C   UNL     1      -9.469 -12.476  14.713  1.00  0.00     0.000 C 
BRANCH  12  13
ATOM     13  C   UNL     1      -8.888 -11.075  14.444  1.00  0.00     0.006 C 
BRANCH  13  14
ATOM     14  C   UNL     1      -7.489 -10.842  15.039  1.00  0.00     0.053 C 
BRANCH  14  15
ATOM     15  C   UNL     1      -6.425 -10.830  13.984  1.00  0.00     0.041 C 
ATOM     16  O   UNL     1      -5.891  -9.744  13.636  1.00  0.00    -0.550 OA
ATOM     17  O   UNL     1      -6.048 -12.012  13.362  1.00  0.00    -0.550 OA
ENDBRANCH  14  15
ENDBRANCH  13  14
ENDBRANCH  12  13
ENDBRANCH  11  12
ENDBRANCH  10  11
ENDBRANCH   9  10
ENDBRANCH   8   9
ENDBRANCH   7   8
ENDBRANCH   6   7
ENDBRANCH   5   6
ENDBRANCH   4   5
ENDBRANCH   3   4
ENDBRANCH   2   3
ENDBRANCH   1   2
BRANCH   1  18
ATOM     18  C   UNL     1     -18.590 -11.168  20.933  1.00  0.00     0.000 C 
BRANCH  18  19
ATOM     19  C   UNL     1     -19.863 -10.369  21.247  1.00  0.00     0.000 C 
BRANCH  19  20
ATOM     20  C   UNL     1     -20.519 -10.860  22.544  1.00  0.00     0.000 C 
BRANCH  20  21
ATOM     21  C   UNL     1     -20.324  -9.844  23.678  1.00  0.00     0.000 C 
BRANCH  21  22
ATOM     22  C   UNL     1     -19.443 -10.399  24.819  1.00  0.00     0.000 C 
BRANCH  22  23
ATOM     23  C   UNL     1     -18.142  -9.607  25.028  1.00  0.00     0.000 C 
BRANCH  23  24
ATOM     24  C   UNL     1     -16.948 -10.213  24.271  1.00  0.00    -0.000 C 
BRANCH  24  25
ATOM     25  C   UNL     1     -15.890  -9.152  23.904  1.00  0.00    -0.000 C 
BRANCH  25  26
ATOM     26  C   UNL     1     -14.442  -9.668  23.981  1.00  0.00    -0.000 C 
BRANCH  26  27
ATOM     27  C   UNL     1     -14.005 -10.409  22.707  1.00  0.00    -0.000 C 
BRANCH  27  28
ATOM     28  C   UNL     1     -14.086 -11.937  22.849  1.00  0.00    -0.000 C 
BRANCH  28  29
ATOM     29  C   UNL     1     -13.236 -12.674  21.800  1.00  0.00    -0.000 C 
BRANCH  29  30
ATOM     30  C   UNL     1     -12.689 -11.734  20.708  1.00  0.00    -0.000 C 
BRANCH  30  31
ATOM     31  C   UNL     1     -11.164 -11.523  20.737  1.00  0.00    -0.003 C 
ATOM     32  C   UNL     1     -10.512 -12.060  22.010  1.00  0.00     0.004 C 
ENDBRANCH  30  31
ENDBRANCH  29  30
ENDBRANCH  28  29
ENDBRANCH  27  28
ENDBRANCH  26  27
ENDBRANCH  25  26
ENDBRANCH  24  25
ENDBRANCH  23  24
ENDBRANCH  22  23
ENDBRANCH  21  22
ENDBRANCH  20  21
ENDBRANCH  19  20
ENDBRANCH  18  19
ENDBRANCH   1  18
TORSDOF 28
ENDMDL
MODEL 5
REMARK VINA RESULT:    -4.982      2.652      9.302
REMARK INTER + INTRA:         -16.450
REMARK INTER:                 -12.901
REMARK INTRA:                  -3.549
REMARK UNBOUND:                -3.312
REMARK SMILES CCCCCCCCCCCCCCCCCCCCCCCCCCCCCC(=O)[O-]
REMARK SMILES IDX 16 1 17 2 18 3 19 4 20 5 21 6 22 7 23 8 24 9 25 10 26 11
REMARK SMILES IDX 27 12 28 13 29 14 30 15 31 16 32 17 15 18 14 19 13 20 12 21
REMARK SMILES IDX 11 22 10 23 9 24 8 25 7 26 6 27 5 28 4 29 3 30 2 31 1 32
REMARK H PARENT
REMARK Flexibility Score: inf
ROOT
ATOM      1  C   UNL     1     -16.904 -11.898  20.880  1.00  0.00     0.000 C 
ENDROOT
BRANCH   1   2
ATOM      2  C   UNL     1     -17.894 -10.723  21.006  1.00  0.00     0.000 C 
BRANCH   2   3
ATOM      3  C   UNL     1     -19.330 -11.034  20.547  1.00  0.00     0.000 C 
BRANCH   3   4
ATOM      4  C   UNL     1     -20.443 -10.470  21.455  1.00  0.00     0.000 C 
BRANCH   4   5
ATOM      5  C   UNL     1     -20.327 -10.848  22.942  1.00  0.00     0.000 C 
BRANCH   5   6
ATOM      6  C   UNL     1     -20.078  -9.636  23.853  1.00  0.00     0.000 C 
BRANCH   6   7
ATOM      7  C   UNL     1     -19.158 -10.012  25.025  1.00  0.00     0.000 C 
BRANCH   7   8
ATOM      8  C   UNL     1     -18.018 -10.957  24.611  1.00  0.00     0.000 C 
BRANCH   8   9
ATOM      9  C   UNL     1     -16.627 -10.357  24.870  1.00  0.00     0.000 C 
BRANCH   9  10
ATOM     10  C   UNL     1     -16.648  -8.822  24.968  1.00  0.00     0.000 C 
BRANCH  10  11
ATOM     11  C   UNL     1     -15.674  -8.121  23.997  1.00  0.00     0.000 C 
BRANCH  11  12
ATOM     12  C   UNL     1     -15.415  -8.952  22.727  1.00  0.00     0.000 C 
BRANCH  12  13
ATOM     13  C   UNL     1     -13.931  -9.325  22.546  1.00  0.00     0.006 C 
BRANCH  13  14
ATOM     14  C   UNL     1     -13.620 -10.081  21.243  1.00  0.00     0.053 C 
BRANCH  14  15
ATOM     15  C   UNL     1     -13.317 -11.526  21.491  1.00  0.00     0.041 C 
ATOM     16  O   UNL     1     -13.548 -12.038  22.619  1.00  0.00    -0.550 OA
ATOM     17  O   UNL     1     -12.747 -12.300  20.489  1.00  0.00    -0.550 OA
ENDBRANCH  14  15
ENDBRANCH  13  14
ENDBRANCH  12  13
ENDBRANCH  11  12
ENDBRANCH  10  11
ENDBRANCH   9  10
ENDBRANCH   8   9
ENDBRANCH   7   8
ENDBRANCH   6   7
ENDBRANCH   5   6
ENDBRANCH   4   5
ENDBRANCH   3   4
ENDBRANCH   2   3
ENDBRANCH   1   2
BRANCH   1  18
ATOM     18  C   UNL     1     -16.809 -12.478  19.451  1.00  0.00     0.000 C 
BRANCH  18  19
ATOM     19  C   UNL     1     -15.735 -11.779  18.606  1.00  0.00     0.000 C 
BRANCH  19  20
ATOM     20  C   UNL     1     -15.106 -12.748  17.596  1.00  0.00     0.000 C 
BRANCH  20  21
ATOM     21  C   UNL     1     -16.105 -13.839  17.186  1.00  0.00     0.000 C 
BRANCH  21  22
ATOM     22  C   UNL     1     -16.518 -13.729  15.702  1.00  0.00     0.000 C 
BRANCH  22  23
ATOM     23  C   UNL     1     -15.633 -12.767  14.891  1.00  0.00     0.000 C 
BRANCH  23  24
ATOM     24  C   UNL     1     -14.512 -13.491  14.128  1.00  0.00    -0.000 C 
BRANCH  24  25
ATOM     25  C   UNL     1     -13.576 -12.507  13.394  1.00  0.00    -0.000 C 
BRANCH  25  26
ATOM     26  C   UNL     1     -12.456 -11.938  14.283  1.00  0.00    -0.000 C 
BRANCH  26  27
ATOM     27  C   UNL     1     -12.151 -12.826  15.501  1.00  0.00    -0.000 C 
BRANCH  27  28
ATOM     28  C   UNL     1     -10.690 -12.717  15.966  1.00  0.00    -0.000 C 
BRANCH  28  29
ATOM     29  C   UNL     1      -9.728 -13.539  15.091  1.00  0.00    -0.000 C 
BRANCH  29  30
ATOM     30  C   UNL     1      -8.880 -12.661  14.150  1.00  0.00    -0.000 C 
BRANCH  30  31
ATOM     31  C   UNL     1      -8.605 -11.236  14.665  1.00  0.00    -0.003 C 
ATOM     32  C   UNL     1      -7.277 -11.117  15.409  1.00  0.00     0.004 C 
ENDBRANCH  30  31
ENDBRANCH  29  30
ENDBRANCH  28  29
ENDBRANCH  27  28
ENDBRANCH  26  27
ENDBRANCH  25  26
ENDBRANCH  24  25
ENDBRANCH  23  24
ENDBRANCH  22  23
ENDBRANCH  21  22
ENDBRANCH  20  21
ENDBRANCH  19  20
ENDBRANCH  18  19
ENDBRANCH   1  18
TORSDOF 28
ENDMDL
MODEL 6
REMARK VINA RESULT:    -4.935      2.766      9.338
REMARK INTER + INTRA:         -16.326
REMARK INTER:                 -12.814
REMARK INTRA:                  -3.513
REMARK UNBOUND:                -3.312
REMARK SMILES CCCCCCCCCCCCCCCCCCCCCCCCCCCCCC(=O)[O-]
REMARK SMILES IDX 16 1 17 2 18 3 19 4 20 5 21 6 22 7 23 8 24 9 25 10 26 11
REMARK SMILES IDX 27 12 28 13 29 14 30 15 31 16 32 17 15 18 14 19 13 20 12 21
REMARK SMILES IDX 11 22 10 23 9 24 8 25 7 26 6 27 5 28 4 29 3 30 2 31 1 32
REMARK H PARENT
REMARK Flexibility Score: inf
ROOT
ATOM      1  C   UNL     1     -18.416 -11.032  21.308  1.00  0.00     0.000 C 
ENDROOT
BRANCH   1   2
ATOM      2  C   UNL     1     -19.693 -10.733  20.500  1.00  0.00     0.000 C 
BRANCH   2   3
ATOM      3  C   UNL     1     -20.885 -10.229  21.335  1.00  0.00     0.000 C 
BRANCH   3   4
ATOM      4  C   UNL     1     -21.387 -11.208  22.416  1.00  0.00     0.000 C 
BRANCH   4   5
ATOM      5  C   UNL     1     -21.441 -10.635  23.844  1.00  0.00     0.000 C 
BRANCH   5   6
ATOM      6  C   UNL     1     -20.444  -9.488  24.069  1.00  0.00     0.000 C 
BRANCH   6   7
ATOM      7  C   UNL     1     -19.395  -9.874  25.124  1.00  0.00     0.000 C 
BRANCH   7   8
ATOM      8  C   UNL     1     -17.957  -9.835  24.580  1.00  0.00     0.000 C 
BRANCH   8   9
ATOM      9  C   UNL     1     -17.224  -8.532  24.935  1.00  0.00     0.000 C 
BRANCH   9  10
ATOM     10  C   UNL     1     -15.707  -8.618  24.699  1.00  0.00     0.000 C 
BRANCH  10  11
ATOM     11  C   UNL     1     -15.270  -8.184  23.283  1.00  0.00     0.000 C 
BRANCH  11  12
ATOM     12  C   UNL     1     -14.268  -9.169  22.652  1.00  0.00     0.000 C 
BRANCH  12  13
ATOM     13  C   UNL     1     -13.932 -10.356  23.575  1.00  0.00     0.006 C 
BRANCH  13  14
ATOM     14  C   UNL     1     -14.395 -11.723  23.045  1.00  0.00     0.053 C 
BRANCH  14  15
ATOM     15  C   UNL     1     -13.287 -12.464  22.360  1.00  0.00     0.041 C 
ATOM     16  O   UNL     1     -13.432 -12.870  21.177  1.00  0.00    -0.550 OA
ATOM     17  O   UNL     1     -12.108 -12.737  23.041  1.00  0.00    -0.550 OA
ENDBRANCH  14  15
ENDBRANCH  13  14
ENDBRANCH  12  13
ENDBRANCH  11  12
ENDBRANCH  10  11
ENDBRANCH   9  10
ENDBRANCH   8   9
ENDBRANCH   7   8
ENDBRANCH   6   7
ENDBRANCH   5   6
ENDBRANCH   4   5
ENDBRANCH   3   4
ENDBRANCH   2   3
ENDBRANCH   1   2
BRANCH   1  18
ATOM     18  C   UNL     1     -17.188 -10.209  20.854  1.00  0.00     0.000 C 
BRANCH  18  19
ATOM     19  C   UNL     1     -16.212 -11.035  20.006  1.00  0.00     0.000 C 
BRANCH  19  20
ATOM     20  C   UNL     1     -16.728 -12.466  19.802  1.00  0.00     0.000 C 
BRANCH  20  21
ATOM     21  C   UNL     1     -16.513 -12.927  18.354  1.00  0.00     0.000 C 
BRANCH  21  22
ATOM     22  C   UNL     1     -15.061 -12.702  17.876  1.00  0.00     0.000 C 
BRANCH  22  23
ATOM     23  C   UNL     1     -14.714 -13.470  16.590  1.00  0.00     0.000 C 
BRANCH  23  24
ATOM     24  C   UNL     1     -15.605 -13.073  15.402  1.00  0.00    -0.000 C 
BRANCH  24  25
ATOM     25  C   UNL     1     -14.780 -12.724  14.145  1.00  0.00    -0.000 C 
BRANCH  25  26
ATOM     26  C   UNL     1     -13.475 -11.967  14.450  1.00  0.00    -0.000 C 
BRANCH  26  27
ATOM     27  C   UNL     1     -12.236 -12.645  13.842  1.00  0.00    -0.000 C 
BRANCH  27  28
ATOM     28  C   UNL     1     -11.894 -13.980  14.521  1.00  0.00    -0.000 C 
BRANCH  28  29
ATOM     29  C   UNL     1     -10.488 -13.981  15.146  1.00  0.00    -0.000 C 
BRANCH  29  30
ATOM     30  C   UNL     1     -10.131 -12.640  15.817  1.00  0.00    -0.000 C 
BRANCH  30  31
ATOM     31  C   UNL     1      -8.821 -11.998  15.327  1.00  0.00    -0.003 C 
ATOM     32  C   UNL     1      -8.454 -12.405  13.901  1.00  0.00     0.004 C 
ENDBRANCH  30  31
ENDBRANCH  29  30
ENDBRANCH  28  29
ENDBRANCH  27  28
ENDBRANCH  26  27
ENDBRANCH  25  26
ENDBRANCH  24  25
ENDBRANCH  23  24
ENDBRANCH  22  23
ENDBRANCH  21  22
ENDBRANCH  20  21
ENDBRANCH  19  20
ENDBRANCH  18  19
ENDBRANCH   1  18
TORSDOF 28
ENDMDL
MODEL 7
REMARK VINA RESULT:    -4.880      1.924      2.951
REMARK INTER + INTRA:         -16.180
REMARK INTER:                 -12.806
REMARK INTRA:                  -3.374
REMARK UNBOUND:                -3.312
REMARK SMILES CCCCCCCCCCCCCCCCCCCCCCCCCCCCCC(=O)[O-]
REMARK SMILES IDX 16 1 17 2 18 3 19 4 20 5 21 6 22 7 23 8 24 9 25 10 26 11
REMARK SMILES IDX 27 12 28 13 29 14 30 15 31 16 32 17 15 18 14 19 13 20 12 21
REMARK SMILES IDX 11 22 10 23 9 24 8 25 7 26 6 27 5 28 4 29 3 30 2 31 1 32
REMARK H PARENT
REMARK Flexibility Score: inf
ROOT
ATOM      1  C   UNL     1     -15.153 -12.384  18.613  1.00  0.00     0.000 C 
ENDROOT
BRANCH   1   2
ATOM      2  C   UNL     1     -14.848 -13.123  17.296  1.00  0.00     0.000 C 
BRANCH   2   3
ATOM      3  C   UNL     1     -16.078 -13.717  16.586  1.00  0.00     0.000 C 
BRANCH   3   4
ATOM      4  C   UNL     1     -16.403 -13.097  15.212  1.00  0.00     0.000 C 
BRANCH   4   5
ATOM      5  C   UNL     1     -16.091 -13.993  14.000  1.00  0.00     0.000 C 
BRANCH   5   6
ATOM      6  C   UNL     1     -14.663 -13.805  13.465  1.00  0.00     0.000 C 
BRANCH   6   7
ATOM      7  C   UNL     1     -14.411 -12.338  13.082  1.00  0.00     0.000 C 
BRANCH   7   8
ATOM      8  C   UNL     1     -13.095 -11.789  13.655  1.00  0.00     0.000 C 
BRANCH   8   9
ATOM      9  C   UNL     1     -12.430 -12.756  14.648  1.00  0.00     0.000 C 
BRANCH   9  10
ATOM     10  C   UNL     1     -11.159 -13.410  14.082  1.00  0.00     0.000 C 
BRANCH  10  11
ATOM     11  C   UNL     1     -10.104 -13.755  15.156  1.00  0.00     0.000 C 
BRANCH  11  12
ATOM     12  C   UNL     1      -9.712 -12.532  16.006  1.00  0.00     0.000 C 
BRANCH  12  13
ATOM     13  C   UNL     1      -8.232 -12.137  15.843  1.00  0.00     0.006 C 
BRANCH  13  14
ATOM     14  C   UNL     1      -7.959 -11.164  14.683  1.00  0.00     0.053 C 
BRANCH  14  15
ATOM     15  C   UNL     1      -7.184 -11.811  13.577  1.00  0.00     0.041 C 
ATOM     16  O   UNL     1      -7.757 -12.598  12.777  1.00  0.00    -0.550 OA
ATOM     17  O   UNL     1      -5.822 -11.574  13.450  1.00  0.00    -0.550 OA
ENDBRANCH  14  15
ENDBRANCH  13  14
ENDBRANCH  12  13
ENDBRANCH  11  12
ENDBRANCH  10  11
ENDBRANCH   9  10
ENDBRANCH   8   9
ENDBRANCH   7   8
ENDBRANCH   6   7
ENDBRANCH   5   6
ENDBRANCH   4   5
ENDBRANCH   3   4
ENDBRANCH   2   3
ENDBRANCH   1   2
BRANCH   1  18
ATOM     18  C   UNL     1     -16.654 -12.365  18.981  1.00  0.00     0.000 C 
BRANCH  18  19
ATOM     19  C   UNL     1     -16.885 -12.404  20.498  1.00  0.00     0.000 C 
BRANCH  19  20
ATOM     20  C   UNL     1     -17.161 -11.000  21.052  1.00  0.00     0.000 C 
BRANCH  20  21
ATOM     21  C   UNL     1     -16.160 -10.639  22.159  1.00  0.00     0.000 C 
BRANCH  21  22
ATOM     22  C   UNL     1     -14.778 -10.242  21.593  1.00  0.00     0.000 C 
BRANCH  22  23
ATOM     23  C   UNL     1     -14.218  -8.945  22.200  1.00  0.00     0.000 C 
BRANCH  23  24
ATOM     24  C   UNL     1     -14.737  -8.683  23.624  1.00  0.00    -0.000 C 
BRANCH  24  25
ATOM     25  C   UNL     1     -13.598  -8.334  24.605  1.00  0.00    -0.000 C 
BRANCH  25  26
ATOM     26  C   UNL     1     -12.485  -9.395  24.665  1.00  0.00    -0.000 C 
BRANCH  26  27
ATOM     27  C   UNL     1     -12.858 -10.603  25.541  1.00  0.00    -0.000 C 
BRANCH  27  28
ATOM     28  C   UNL     1     -12.447 -11.944  24.913  1.00  0.00    -0.000 C 
BRANCH  28  29
ATOM     29  C   UNL     1     -11.687 -11.767  23.587  1.00  0.00    -0.000 C 
BRANCH  29  30
ATOM     30  C   UNL     1     -11.779 -13.007  22.676  1.00  0.00    -0.000 C 
BRANCH  30  31
ATOM     31  C   UNL     1     -12.178 -12.713  21.218  1.00  0.00    -0.003 C 
ATOM     32  C   UNL     1     -11.460 -11.497  20.637  1.00  0.00     0.004 C 
ENDBRANCH  30  31
ENDBRANCH  29  30
ENDBRANCH  28  29
ENDBRANCH  27  28
ENDBRANCH  26  27
ENDBRANCH  25  26
ENDBRANCH  24  25
ENDBRANCH  23  24
ENDBRANCH  22  23
ENDBRANCH  21  22
ENDBRANCH  20  21
ENDBRANCH  19  20
ENDBRANCH  18  19
ENDBRANCH   1  18
TORSDOF 28
ENDMDL
MODEL 8
REMARK VINA RESULT:    -4.863      1.509      3.455
REMARK INTER + INTRA:         -16.134
REMARK INTER:                 -12.427
REMARK INTRA:                  -3.708
REMARK UNBOUND:                -3.312
REMARK SMILES CCCCCCCCCCCCCCCCCCCCCCCCCCCCCC(=O)[O-]
REMARK SMILES IDX 16 1 17 2 18 3 19 4 20 5 21 6 22 7 23 8 24 9 25 10 26 11
REMARK SMILES IDX 27 12 28 13 29 14 30 15 31 16 32 17 15 18 14 19 13 20 12 21
REMARK SMILES IDX 11 22 10 23 9 24 8 25 7 26 6 27 5 28 4 29 3 30 2 31 1 32
REMARK H PARENT
REMARK Flexibility Score: inf
ROOT
ATOM      1  C   UNL     1     -19.102 -10.187  20.975  1.00  0.00     0.000 C 
ENDROOT
BRANCH   1   2
ATOM      2  C   UNL     1     -18.199 -10.798  22.064  1.00  0.00     0.000 C 
BRANCH   2   3
ATOM      3  C   UNL     1     -16.979 -11.573  21.533  1.00  0.00     0.000 C 
BRANCH   3   4
ATOM      4  C   UNL     1     -16.559 -11.222  20.091  1.00  0.00     0.000 C 
BRANCH   4   5
ATOM      5  C   UNL     1     -16.494 -12.416  19.121  1.00  0.00     0.000 C 
BRANCH   5   6
ATOM      6  C   UNL     1     -15.116 -12.581  18.462  1.00  0.00     0.000 C 
BRANCH   6   7
ATOM      7  C   UNL     1     -15.242 -12.614  16.930  1.00  0.00     0.000 C 
BRANCH   7   8
ATOM      8  C   UNL     1     -16.021 -13.837  16.421  1.00  0.00     0.000 C 
BRANCH   8   9
ATOM      9  C   UNL     1     -16.691 -13.589  15.060  1.00  0.00     0.000 C 
BRANCH   9  10
ATOM     10  C   UNL     1     -16.023 -12.456  14.264  1.00  0.00     0.000 C 
BRANCH  10  11
ATOM     11  C   UNL     1     -14.915 -12.938  13.302  1.00  0.00     0.000 C 
BRANCH  11  12
ATOM     12  C   UNL     1     -13.530 -12.381  13.679  1.00  0.00     0.000 C 
BRANCH  12  13
ATOM     13  C   UNL     1     -12.517 -13.484  14.039  1.00  0.00     0.006 C 
BRANCH  13  14
ATOM     14  C   UNL     1     -11.949 -13.384  15.465  1.00  0.00     0.053 C 
BRANCH  14  15
ATOM     15  C   UNL     1     -10.515 -12.954  15.470  1.00  0.00     0.041 C 
ATOM     16  O   UNL     1     -10.038 -12.347  16.465  1.00  0.00    -0.550 OA
ATOM     17  O   UNL     1      -9.713 -13.193  14.362  1.00  0.00    -0.550 OA
ENDBRANCH  14  15
ENDBRANCH  13  14
ENDBRANCH  12  13
ENDBRANCH  11  12
ENDBRANCH  10  11
ENDBRANCH   9  10
ENDBRANCH   8   9
ENDBRANCH   7   8
ENDBRANCH   6   7
ENDBRANCH   5   6
ENDBRANCH   4   5
ENDBRANCH   3   4
ENDBRANCH   2   3
ENDBRANCH   1   2
BRANCH   1  18
ATOM     18  C   UNL     1     -20.608 -10.224  21.325  1.00  0.00     0.000 C 
BRANCH  18  19
ATOM     19  C   UNL     1     -20.938 -11.293  22.376  1.00  0.00     0.000 C 
BRANCH  19  20
ATOM     20  C   UNL     1     -21.672 -10.681  23.577  1.00  0.00     0.000 C 
BRANCH  20  21
ATOM     21  C   UNL     1     -21.018  -9.360  24.005  1.00  0.00     0.000 C 
BRANCH  21  22
ATOM     22  C   UNL     1     -20.473  -9.417  25.450  1.00  0.00     0.000 C 
BRANCH  22  23
ATOM     23  C   UNL     1     -19.057 -10.010  25.546  1.00  0.00     0.000 C 
BRANCH  23  24
ATOM     24  C   UNL     1     -17.965  -8.931  25.634  1.00  0.00    -0.000 C 
BRANCH  24  25
ATOM     25  C   UNL     1     -16.637  -9.392  24.999  1.00  0.00    -0.000 C 
BRANCH  25  26
ATOM     26  C   UNL     1     -15.854  -8.260  24.309  1.00  0.00    -0.000 C 
BRANCH  26  27
ATOM     27  C   UNL     1     -15.485  -8.591  22.853  1.00  0.00    -0.000 C 
BRANCH  27  28
ATOM     28  C   UNL     1     -13.977  -8.477  22.580  1.00  0.00    -0.000 C 
BRANCH  28  29
ATOM     29  C   UNL     1     -13.477  -9.529  21.575  1.00  0.00    -0.000 C 
BRANCH  29  30
ATOM     30  C   UNL     1     -12.855 -10.762  22.261  1.00  0.00    -0.000 C 
BRANCH  30  31
ATOM     31  C   UNL     1     -13.446 -12.115  21.825  1.00  0.00    -0.003 C 
ATOM     32  C   UNL     1     -12.399 -13.064  21.246  1.00  0.00     0.004 C 
ENDBRANCH  30  31
ENDBRANCH  29  30
ENDBRANCH  28  29
ENDBRANCH  27  28
ENDBRANCH  26  27
ENDBRANCH  25  26
ENDBRANCH  24  25
ENDBRANCH  23  24
ENDBRANCH  22  23
ENDBRANCH  21  22
ENDBRANCH  20  21
ENDBRANCH  19  20
ENDBRANCH  18  19
ENDBRANCH   1  18
TORSDOF 28
ENDMDL
MODEL 9
REMARK VINA RESULT:    -4.761      1.289      2.914
REMARK INTER + INTRA:         -15.868
REMARK INTER:                 -12.412
REMARK INTRA:                  -3.456
REMARK UNBOUND:                -3.312
REMARK SMILES CCCCCCCCCCCCCCCCCCCCCCCCCCCCCC(=O)[O-]
REMARK SMILES IDX 16 1 17 2 18 3 19 4 20 5 21 6 22 7 23 8 24 9 25 10 26 11
REMARK SMILES IDX 27 12 28 13 29 14 30 15 31 16 32 17 15 18 14 19 13 20 12 21
REMARK SMILES IDX 11 22 10 23 9 24 8 25 7 26 6 27 5 28 4 29 3 30 2 31 1 32
REMARK H PARENT
REMARK Flexibility Score: inf
ROOT
ATOM      1  C   UNL     1     -18.911 -11.243  20.763  1.00  0.00     0.000 C 
ENDROOT
BRANCH   1   2
ATOM      2  C   UNL     1     -17.540 -10.585  21.010  1.00  0.00     0.000 C 
BRANCH   2   3
ATOM      3  C   UNL     1     -16.466 -11.525  21.587  1.00  0.00     0.000 C 
BRANCH   3   4
ATOM      4  C   UNL     1     -15.553 -12.195  20.540  1.00  0.00     0.000 C 
BRANCH   4   5
ATOM      5  C   UNL     1     -15.745 -11.703  19.094  1.00  0.00     0.000 C 
BRANCH   5   6
ATOM      6  C   UNL     1     -15.945 -12.849  18.090  1.00  0.00     0.000 C 
BRANCH   6   7
ATOM      7  C   UNL     1     -14.647 -13.132  17.318  1.00  0.00     0.000 C 
BRANCH   7   8
ATOM      8  C   UNL     1     -14.635 -12.499  15.917  1.00  0.00     0.000 C 
BRANCH   8   9
ATOM      9  C   UNL     1     -13.237 -12.496  15.279  1.00  0.00     0.000 C 
BRANCH   9  10
ATOM     10  C   UNL     1     -12.584 -13.888  15.267  1.00  0.00     0.000 C 
BRANCH  10  11
ATOM     11  C   UNL     1     -11.060 -13.861  15.019  1.00  0.00     0.000 C 
BRANCH  11  12
ATOM     12  C   UNL     1     -10.477 -12.438  15.111  1.00  0.00     0.000 C 
BRANCH  12  13
ATOM     13  C   UNL     1      -9.249 -12.234  14.204  1.00  0.00     0.006 C 
BRANCH  13  14
ATOM     14  C   UNL     1      -8.457 -10.946  14.488  1.00  0.00     0.053 C 
BRANCH  14  15
ATOM     15  C   UNL     1      -7.059 -11.236  14.943  1.00  0.00     0.041 C 
ATOM     16  O   UNL     1      -6.719 -11.006  16.134  1.00  0.00    -0.550 OA
ATOM     17  O   UNL     1      -6.123 -11.728  14.044  1.00  0.00    -0.550 OA
ENDBRANCH  14  15
ENDBRANCH  13  14
ENDBRANCH  12  13
ENDBRANCH  11  12
ENDBRANCH  10  11
ENDBRANCH   9  10
ENDBRANCH   8   9
ENDBRANCH   7   8
ENDBRANCH   6   7
ENDBRANCH   5   6
ENDBRANCH   4   5
ENDBRANCH   3   4
ENDBRANCH   2   3
ENDBRANCH   1   2
BRANCH   1  18
ATOM     18  C   UNL     1     -20.105 -10.400  21.266  1.00  0.00     0.000 C 
BRANCH  18  19
ATOM     19  C   UNL     1     -21.148 -11.247  22.008  1.00  0.00     0.000 C 
BRANCH  19  20
ATOM     20  C   UNL     1     -21.357 -10.739  23.441  1.00  0.00     0.000 C 
BRANCH  20  21
ATOM     21  C   UNL     1     -20.644  -9.398  23.658  1.00  0.00     0.000 C 
BRANCH  21  22
ATOM     22  C   UNL     1     -19.643  -9.450  24.834  1.00  0.00     0.000 C 
BRANCH  22  23
ATOM     23  C   UNL     1     -18.471 -10.417  24.598  1.00  0.00     0.000 C 
BRANCH  23  24
ATOM     24  C   UNL     1     -17.105  -9.711  24.620  1.00  0.00    -0.000 C 
BRANCH  24  25
ATOM     25  C   UNL     1     -16.149 -10.323  25.665  1.00  0.00    -0.000 C 
BRANCH  25  26
ATOM     26  C   UNL     1     -15.458 -11.615  25.193  1.00  0.00    -0.000 C 
BRANCH  26  27
ATOM     27  C   UNL     1     -13.949 -11.627  25.489  1.00  0.00    -0.000 C 
BRANCH  27  28
ATOM     28  C   UNL     1     -13.102 -11.957  24.250  1.00  0.00    -0.000 C 
BRANCH  28  29
ATOM     29  C   UNL     1     -12.482 -10.705  23.607  1.00  0.00    -0.000 C 
BRANCH  29  30
ATOM     30  C   UNL     1     -12.858 -10.548  22.120  1.00  0.00    -0.000 C 
BRANCH  30  31
ATOM     31  C   UNL     1     -13.528  -9.210  21.758  1.00  0.00    -0.003 C 
ATOM     32  C   UNL     1     -14.031  -8.445  22.980  1.00  0.00     0.004 C 
ENDBRANCH  30  31
ENDBRANCH  29  30
ENDBRANCH  28  29
ENDBRANCH  27  28
ENDBRANCH  26  27
ENDBRANCH  25  26
ENDBRANCH  24  25
ENDBRANCH  23  24
ENDBRANCH  22  23
ENDBRANCH  21  22
ENDBRANCH  20  21
ENDBRANCH  19  20
ENDBRANCH  18  19
ENDBRANCH   1  18
TORSDOF 28
ENDMDL
