MODEL 1
REMARK VINA RESULT:    -4.672      0.000      0.000
REMARK INTER + INTRA:         -12.421
REMARK INTER:                 -10.134
REMARK INTRA:                  -2.287
REMARK UNBOUND:                -2.287
REMARK SMILES CCCCCCCCCCCCCCCCCCCCCC(=O)[O-]
REMARK SMILES IDX 12 1 11 2 10 3 9 4 8 5 7 6 6 7 5 8 4 9 3 10 2 11 1 12 13 13
REMARK SMILES IDX 14 14 15 15 16 16 17 17 18 18 19 19 20 20 21 21 22 22 23 23
REMARK SMILES IDX 24 24
REMARK H PARENT
REMARK Flexibility Score: inf
ROOT
ATOM      1  C   UNL     1       0.824  -6.765   4.324  1.00  0.00     0.000 C 
ENDROOT
BRANCH   1   2
ATOM      2  C   UNL     1      -0.289  -7.234   3.371  1.00  0.00     0.000 C 
BRANCH   2   3
ATOM      3  C   UNL     1      -1.625  -6.518   3.628  1.00  0.00     0.000 C 
BRANCH   3   4
ATOM      4  C   UNL     1      -1.695  -5.135   2.963  1.00  0.00    -0.000 C 
BRANCH   4   5
ATOM      5  C   UNL     1      -3.006  -4.969   2.180  1.00  0.00    -0.000 C 
BRANCH   5   6
ATOM      6  C   UNL     1      -2.783  -4.490   0.734  1.00  0.00    -0.000 C 
BRANCH   6   7
ATOM      7  C   UNL     1      -1.664  -5.224  -0.032  1.00  0.00    -0.000 C 
BRANCH   7   8
ATOM      8  C   UNL     1      -1.414  -4.721  -1.465  1.00  0.00    -0.000 C 
BRANCH   8   9
ATOM      9  C   UNL     1      -2.606  -4.966  -2.400  1.00  0.00    -0.000 C 
BRANCH   9  10
ATOM     10  C   UNL     1      -3.023  -6.442  -2.382  1.00  0.00    -0.000 C 
BRANCH  10  11
ATOM     11  C   UNL     1      -4.503  -6.591  -2.011  1.00  0.00    -0.003 C 
ATOM     12  C   UNL     1      -5.210  -5.239  -2.008  1.00  0.00     0.004 C 
ENDBRANCH  10  11
ENDBRANCH   9  10
ENDBRANCH   8   9
ENDBRANCH   7   8
ENDBRANCH   6   7
ENDBRANCH   5   6
ENDBRANCH   4   5
ENDBRANCH   3   4
ENDBRANCH   2   3
ENDBRANCH   1   2
BRANCH   1  13
ATOM     13  C   UNL     1       1.658  -7.931   4.878  1.00  0.00     0.000 C 
BRANCH  13  14
ATOM     14  C   UNL     1       1.742  -7.926   6.412  1.00  0.00     0.000 C 
BRANCH  14  15
ATOM     15  C   UNL     1       0.586  -8.729   7.027  1.00  0.00     0.000 C 
BRANCH  15  16
ATOM     16  C   UNL     1      -0.322  -7.876   7.933  1.00  0.00     0.000 C 
BRANCH  16  17
ATOM     17  C   UNL     1      -1.534  -7.237   7.224  1.00  0.00     0.000 C 
BRANCH  17  18
ATOM     18  C   UNL     1      -1.596  -5.699   7.297  1.00  0.00     0.000 C 
BRANCH  18  19
ATOM     19  C   UNL     1      -3.020  -5.106   7.305  1.00  0.00     0.000 C 
BRANCH  19  20
ATOM     20  C   UNL     1      -3.252  -3.953   6.307  1.00  0.00     0.006 C 
BRANCH  20  21
ATOM     21  C   UNL     1      -4.632  -3.963   5.633  1.00  0.00     0.053 C 
BRANCH  21  22
ATOM     22  C   UNL     1      -5.715  -3.513   6.565  1.00  0.00     0.041 C 
ATOM     23  O   UNL     1      -6.087  -4.256   7.510  1.00  0.00    -0.550 OA
ATOM     24  O   UNL     1      -6.340  -2.287   6.367  1.00  0.00    -0.550 OA
ENDBRANCH  21  22
ENDBRANCH  20  21
ENDBRANCH  19  20
ENDBRANCH  18  19
ENDBRANCH  17  18
ENDBRANCH  16  17
ENDBRANCH  15  16
ENDBRANCH  14  15
ENDBRANCH  13  14
ENDBRANCH   1  13
TORSDOF 20
ENDMDL
MODEL 2
REMARK VINA RESULT:    -4.575     12.441     15.407
REMARK INTER + INTRA:         -12.211
REMARK INTER:                  -9.752
REMARK INTRA:                  -2.460
REMARK UNBOUND:                -2.287
REMARK SMILES CCCCCCCCCCCCCCCCCCCCCC(=O)[O-]
REMARK SMILES IDX 12 1 11 2 10 3 9 4 8 5 7 6 6 7 5 8 4 9 3 10 2 11 1 12 13 13
REMARK SMILES IDX 14 14 15 15 16 16 17 17 18 18 19 19 20 20 21 21 22 22 23 23
REMARK SMILES IDX 24 24
REMARK H PARENT
REMARK Flexibility Score: inf
ROOT
ATOM      1  C   UNL     1      -0.025   8.164   4.570  1.00  0.00     0.000 C 
ENDROOT
BRANCH   1   2
ATOM      2  C   UNL     1      -0.057   8.988   5.869  1.00  0.00     0.000 C 
BRANCH   2   3
ATOM      3  C   UNL     1      -1.211   8.579   6.799  1.00  0.00     0.000 C 
BRANCH   3   4
ATOM      4  C   UNL     1      -0.725   8.132   8.186  1.00  0.00    -0.000 C 
BRANCH   4   5
ATOM      5  C   UNL     1       0.798   8.283   8.309  1.00  0.00    -0.000 C 
BRANCH   5   6
ATOM      6  C   UNL     1       1.509   6.953   8.615  1.00  0.00    -0.000 C 
BRANCH   6   7
ATOM      7  C   UNL     1       2.203   6.291   7.407  1.00  0.00    -0.000 C 
BRANCH   7   8
ATOM      8  C   UNL     1       1.438   5.113   6.778  1.00  0.00    -0.000 C 
BRANCH   8   9
ATOM      9  C   UNL     1       2.363   4.106   6.080  1.00  0.00    -0.000 C 
BRANCH   9  10
ATOM     10  C   UNL     1       3.837   4.439   6.344  1.00  0.00    -0.000 C 
BRANCH  10  11
ATOM     11  C   UNL     1       4.753   3.706   5.358  1.00  0.00    -0.003 C 
ATOM     12  C   UNL     1       6.027   3.223   6.044  1.00  0.00     0.004 C 
ENDBRANCH  10  11
ENDBRANCH   9  10
ENDBRANCH   8   9
ENDBRANCH   7   8
ENDBRANCH   6   7
ENDBRANCH   5   6
ENDBRANCH   4   5
ENDBRANCH   3   4
ENDBRANCH   2   3
ENDBRANCH   1   2
BRANCH   1  13
ATOM     13  C   UNL     1       1.404   7.808   4.131  1.00  0.00     0.000 C 
BRANCH  13  14
ATOM     14  C   UNL     1       1.459   6.556   3.242  1.00  0.00     0.000 C 
BRANCH  14  15
ATOM     15  C   UNL     1       2.906   6.081   3.052  1.00  0.00     0.000 C 
BRANCH  15  16
ATOM     16  C   UNL     1       3.116   5.305   1.738  1.00  0.00     0.000 C 
BRANCH  16  17
ATOM     17  C   UNL     1       1.891   5.268   0.801  1.00  0.00     0.000 C 
BRANCH  17  18
ATOM     18  C   UNL     1       2.121   4.558  -0.547  1.00  0.00     0.000 C 
BRANCH  18  19
ATOM     19  C   UNL     1       2.092   5.481  -1.782  1.00  0.00     0.000 C 
BRANCH  19  20
ATOM     20  C   UNL     1       3.307   6.421  -1.923  1.00  0.00     0.006 C 
BRANCH  20  21
ATOM     21  C   UNL     1       4.669   5.716  -1.836  1.00  0.00     0.053 C 
BRANCH  21  22
ATOM     22  C   UNL     1       5.638   6.241  -2.851  1.00  0.00     0.041 C 
ATOM     23  O   UNL     1       6.366   7.231  -2.579  1.00  0.00    -0.550 OA
ATOM     24  O   UNL     1       5.710   5.660  -4.111  1.00  0.00    -0.550 OA
ENDBRANCH  21  22
ENDBRANCH  20  21
ENDBRANCH  19  20
ENDBRANCH  18  19
ENDBRANCH  17  18
ENDBRANCH  16  17
ENDBRANCH  15  16
ENDBRANCH  14  15
ENDBRANCH  13  14
ENDBRANCH   1  13
TORSDOF 20
ENDMDL
MODEL 3
REMARK VINA RESULT:    -4.543     11.773     13.494
REMARK INTER + INTRA:         -12.142
REMARK INTER:                  -9.828
REMARK INTRA:                  -2.314
REMARK UNBOUND:                -2.287
REMARK SMILES CCCCCCCCCCCCCCCCCCCCCC(=O)[O-]
REMARK SMILES IDX 12 1 11 2 10 3 9 4 8 5 7 6 6 7 5 8 4 9 3 10 2 11 1 12 13 13
REMARK SMILES IDX 14 14 15 15 16 16 17 17 18 18 19 19 20 20 21 21 22 22 23 23
REMARK SMILES IDX 24 24
REMARK H PARENT
REMARK Flexibility Score: inf
ROOT
ATOM      1  C   UNL     1      -0.292   6.797   3.557  1.00  0.00     0.000 C 
ENDROOT
BRANCH   1   2
ATOM      2  C   UNL     1       0.417   5.870   2.555  1.00  0.00     0.000 C 
BRANCH   2   3
ATOM      3  C   UNL     1       1.887   5.615   2.926  1.00  0.00     0.000 C 
BRANCH   3   4
ATOM      4  C   UNL     1       2.811   5.579   1.699  1.00  0.00    -0.000 C 
BRANCH   4   5
ATOM      5  C   UNL     1       2.942   4.150   1.153  1.00  0.00    -0.000 C 
BRANCH   5   6
ATOM      6  C   UNL     1       2.184   3.943  -0.171  1.00  0.00    -0.000 C 
BRANCH   6   7
ATOM      7  C   UNL     1       1.752   5.240  -0.886  1.00  0.00    -0.000 C 
BRANCH   7   8
ATOM      8  C   UNL     1       2.316   5.424  -2.305  1.00  0.00    -0.000 C 
BRANCH   8   9
ATOM      9  C   UNL     1       3.143   6.709  -2.457  1.00  0.00    -0.000 C 
BRANCH   9  10
ATOM     10  C   UNL     1       4.455   6.613  -1.668  1.00  0.00    -0.000 C 
BRANCH  10  11
ATOM     11  C   UNL     1       5.507   5.812  -2.445  1.00  0.00    -0.003 C 
ATOM     12  C   UNL     1       5.791   4.474  -1.768  1.00  0.00     0.004 C 
ENDBRANCH  10  11
ENDBRANCH   9  10
ENDBRANCH   8   9
ENDBRANCH   7   8
ENDBRANCH   6   7
ENDBRANCH   5   6
ENDBRANCH   4   5
ENDBRANCH   3   4
ENDBRANCH   2   3
ENDBRANCH   1   2
BRANCH   1  13
ATOM     13  C   UNL     1       0.604   7.954   4.028  1.00  0.00     0.000 C 
BRANCH  13  14
ATOM     14  C   UNL     1       0.067   8.647   5.289  1.00  0.00     0.000 C 
BRANCH  14  15
ATOM     15  C   UNL     1       0.839   8.191   6.536  1.00  0.00     0.000 C 
BRANCH  15  16
ATOM     16  C   UNL     1       0.060   7.167   7.383  1.00  0.00     0.000 C 
BRANCH  16  17
ATOM     17  C   UNL     1       0.889   5.963   7.875  1.00  0.00     0.000 C 
BRANCH  17  18
ATOM     18  C   UNL     1       2.346   5.926   7.376  1.00  0.00     0.000 C 
BRANCH  18  19
ATOM     19  C   UNL     1       2.569   5.128   6.075  1.00  0.00     0.000 C 
BRANCH  19  20
ATOM     20  C   UNL     1       3.554   3.947   6.194  1.00  0.00     0.006 C 
BRANCH  20  21
ATOM     21  C   UNL     1       4.665   3.936   5.133  1.00  0.00     0.053 C 
BRANCH  21  22
ATOM     22  C   UNL     1       6.013   3.684   5.735  1.00  0.00     0.041 C 
ATOM     23  O   UNL     1       6.212   3.909   6.958  1.00  0.00    -0.550 OA
ATOM     24  O   UNL     1       7.060   3.238   4.938  1.00  0.00    -0.550 OA
ENDBRANCH  21  22
ENDBRANCH  20  21
ENDBRANCH  19  20
ENDBRANCH  18  19
ENDBRANCH  17  18
ENDBRANCH  16  17
ENDBRANCH  15  16
ENDBRANCH  14  15
ENDBRANCH  13  14
ENDBRANCH   1  13
TORSDOF 20
ENDMDL
MODEL 4
REMARK VINA RESULT:    -4.505      3.061      7.531
REMARK INTER + INTRA:         -12.059
REMARK INTER:                  -8.828
REMARK INTRA:                  -3.232
REMARK UNBOUND:                -2.287
REMARK SMILES CCCCCCCCCCCCCCCCCCCCCC(=O)[O-]
REMARK SMILES IDX 12 1 11 2 10 3 9 4 8 5 7 6 6 7 5 8 4 9 3 10 2 11 1 12 13 13
REMARK SMILES IDX 14 14 15 15 16 16 17 17 18 18 19 19 20 20 21 21 22 22 23 23
REMARK SMILES IDX 24 24
REMARK H PARENT
REMARK Flexibility Score: inf
ROOT
ATOM      1  C   UNL     1      -2.981  -3.690   5.947  1.00  0.00     0.000 C 
ENDROOT
BRANCH   1   2
ATOM      2  C   UNL     1      -3.173  -4.912   6.860  1.00  0.00     0.000 C 
BRANCH   2   3
ATOM      3  C   UNL     1      -2.295  -4.850   8.121  1.00  0.00     0.000 C 
BRANCH   3   4
ATOM      4  C   UNL     1      -1.443  -6.113   8.315  1.00  0.00    -0.000 C 
BRANCH   4   5
ATOM      5  C   UNL     1      -1.500  -7.009   7.069  1.00  0.00    -0.000 C 
BRANCH   5   6
ATOM      6  C   UNL     1      -0.485  -8.165   7.116  1.00  0.00    -0.000 C 
BRANCH   6   7
ATOM      7  C   UNL     1       0.271  -8.424   5.797  1.00  0.00    -0.000 C 
BRANCH   7   8
ATOM      8  C   UNL     1      -0.520  -8.107   4.516  1.00  0.00    -0.000 C 
BRANCH   8   9
ATOM      9  C   UNL     1       0.202  -7.108   3.601  1.00  0.00    -0.000 C 
BRANCH   9  10
ATOM     10  C   UNL     1       1.110  -6.176   4.414  1.00  0.00    -0.000 C 
BRANCH  10  11
ATOM     11  C   UNL     1       0.492  -4.779   4.540  1.00  0.00    -0.003 C 
ATOM     12  C   UNL     1       0.734  -4.192   5.927  1.00  0.00     0.004 C 
ENDBRANCH  10  11
ENDBRANCH   9  10
ENDBRANCH   8   9
ENDBRANCH   7   8
ENDBRANCH   6   7
ENDBRANCH   5   6
ENDBRANCH   4   5
ENDBRANCH   3   4
ENDBRANCH   2   3
ENDBRANCH   1   2
BRANCH   1  13
ATOM     13  C   UNL     1      -3.262  -4.006   4.469  1.00  0.00     0.000 C 
BRANCH  13  14
ATOM     14  C   UNL     1      -3.038  -5.486   4.124  1.00  0.00     0.000 C 
BRANCH  14  15
ATOM     15  C   UNL     1      -3.102  -5.711   2.607  1.00  0.00     0.000 C 
BRANCH  15  16
ATOM     16  C   UNL     1      -2.351  -4.631   1.807  1.00  0.00     0.000 C 
BRANCH  16  17
ATOM     17  C   UNL     1      -1.295  -5.167   0.819  1.00  0.00     0.000 C 
BRANCH  17  18
ATOM     18  C   UNL     1      -1.714  -5.138  -0.664  1.00  0.00     0.000 C 
BRANCH  18  19
ATOM     19  C   UNL     1      -3.220  -5.354  -0.919  1.00  0.00     0.000 C 
BRANCH  19  20
ATOM     20  C   UNL     1      -3.555  -6.231  -2.143  1.00  0.00     0.006 C 
BRANCH  20  21
ATOM     21  C   UNL     1      -4.587  -5.616  -3.102  1.00  0.00     0.053 C 
BRANCH  21  22
ATOM     22  C   UNL     1      -5.992  -5.924  -2.685  1.00  0.00     0.041 C 
ATOM     23  O   UNL     1      -6.471  -7.073  -2.871  1.00  0.00    -0.550 OA
ATOM     24  O   UNL     1      -6.787  -4.930  -2.126  1.00  0.00    -0.550 OA
ENDBRANCH  21  22
ENDBRANCH  20  21
ENDBRANCH  19  20
ENDBRANCH  18  19
ENDBRANCH  17  18
ENDBRANCH  16  17
ENDBRANCH  15  16
ENDBRANCH  14  15
ENDBRANCH  13  14
ENDBRANCH   1  13
TORSDOF 20
ENDMDL
MODEL 5
REMARK VINA RESULT:    -4.492      3.400      8.216
REMARK INTER + INTRA:         -12.030
REMARK INTER:                  -8.999
REMARK INTRA:                  -3.032
REMARK UNBOUND:                -2.287
REMARK SMILES CCCCCCCCCCCCCCCCCCCCCC(=O)[O-]
REMARK SMILES IDX 12 1 11 2 10 3 9 4 8 5 7 6 6 7 5 8 4 9 3 10 2 11 1 12 13 13
REMARK SMILES IDX 14 14 15 15 16 16 17 17 18 18 19 19 20 20 21 21 22 22 23 23
REMARK SMILES IDX 24 24
REMARK H PARENT
REMARK Flexibility Score: inf
ROOT
ATOM      1  C   UNL     1       0.104  -6.563   3.187  1.00  0.00     0.000 C 
ENDROOT
BRANCH   1   2
ATOM      2  C   UNL     1       0.685  -7.483   4.275  1.00  0.00     0.000 C 
BRANCH   2   3
ATOM      3  C   UNL     1      -0.406  -8.229   5.060  1.00  0.00     0.000 C 
BRANCH   3   4
ATOM      4  C   UNL     1       0.031  -8.588   6.488  1.00  0.00    -0.000 C 
BRANCH   4   5
ATOM      5  C   UNL     1      -0.768  -7.784   7.524  1.00  0.00    -0.000 C 
BRANCH   5   6
ATOM      6  C   UNL     1      -1.709  -6.748   6.883  1.00  0.00    -0.000 C 
BRANCH   6   7
ATOM      7  C   UNL     1      -1.293  -5.276   7.081  1.00  0.00    -0.000 C 
BRANCH   7   8
ATOM      8  C   UNL     1       0.193  -5.056   7.416  1.00  0.00    -0.000 C 
BRANCH   8   9
ATOM      9  C   UNL     1       0.981  -4.436   6.254  1.00  0.00    -0.000 C 
BRANCH   9  10
ATOM     10  C   UNL     1       2.397  -5.020   6.178  1.00  0.00    -0.000 C 
BRANCH  10  11
ATOM     11  C   UNL     1       2.618  -6.073   7.269  1.00  0.00    -0.003 C 
ATOM     12  C   UNL     1       3.434  -7.250   6.743  1.00  0.00     0.004 C 
ENDBRANCH  10  11
ENDBRANCH   9  10
ENDBRANCH   8   9
ENDBRANCH   7   8
ENDBRANCH   6   7
ENDBRANCH   5   6
ENDBRANCH   4   5
ENDBRANCH   3   4
ENDBRANCH   2   3
ENDBRANCH   1   2
BRANCH   1  13
ATOM     13  C   UNL     1      -1.433  -6.573   3.163  1.00  0.00     0.000 C 
BRANCH  13  14
ATOM     14  C   UNL     1      -2.038  -5.163   3.234  1.00  0.00     0.000 C 
BRANCH  14  15
ATOM     15  C   UNL     1      -2.966  -4.903   2.039  1.00  0.00     0.000 C 
BRANCH  15  16
ATOM     16  C   UNL     1      -2.237  -4.266   0.841  1.00  0.00     0.000 C 
BRANCH  16  17
ATOM     17  C   UNL     1      -1.464  -5.257  -0.054  1.00  0.00     0.000 C 
BRANCH  17  18
ATOM     18  C   UNL     1      -1.185  -4.761  -1.486  1.00  0.00     0.000 C 
BRANCH  18  19
ATOM     19  C   UNL     1      -2.337  -4.984  -2.488  1.00  0.00     0.000 C 
BRANCH  19  20
ATOM     20  C   UNL     1      -3.033  -6.357  -2.386  1.00  0.00     0.006 C 
BRANCH  20  21
ATOM     21  C   UNL     1      -4.460  -6.305  -1.819  1.00  0.00     0.053 C 
BRANCH  21  22
ATOM     22  C   UNL     1      -5.496  -6.481  -2.887  1.00  0.00     0.041 C 
ATOM     23  O   UNL     1      -5.409  -5.837  -3.965  1.00  0.00    -0.550 OA
ATOM     24  O   UNL     1      -6.577  -7.328  -2.677  1.00  0.00    -0.550 OA
ENDBRANCH  21  22
ENDBRANCH  20  21
ENDBRANCH  19  20
ENDBRANCH  18  19
ENDBRANCH  17  18
ENDBRANCH  16  17
ENDBRANCH  15  16
ENDBRANCH  14  15
ENDBRANCH  13  14
ENDBRANCH   1  13
TORSDOF 20
ENDMDL
MODEL 6
REMARK VINA RESULT:    -4.488     12.631     15.835
REMARK INTER + INTRA:         -12.022
REMARK INTER:                  -9.743
REMARK INTRA:                  -2.280
REMARK UNBOUND:                -2.287
REMARK SMILES CCCCCCCCCCCCCCCCCCCCCC(=O)[O-]
REMARK SMILES IDX 12 1 11 2 10 3 9 4 8 5 7 6 6 7 5 8 4 9 3 10 2 11 1 12 13 13
REMARK SMILES IDX 14 14 15 15 16 16 17 17 18 18 19 19 20 20 21 21 22 22 23 23
REMARK SMILES IDX 24 24
REMARK H PARENT
REMARK Flexibility Score: inf
ROOT
ATOM      1  C   UNL     1       2.459   6.309   3.339  1.00  0.00     0.000 C 
ENDROOT
BRANCH   1   2
ATOM      2  C   UNL     1       1.503   7.445   3.742  1.00  0.00     0.000 C 
BRANCH   2   3
ATOM      3  C   UNL     1       0.037   7.130   3.402  1.00  0.00     0.000 C 
BRANCH   3   4
ATOM      4  C   UNL     1      -0.817   6.858   4.650  1.00  0.00    -0.000 C 
BRANCH   4   5
ATOM      5  C   UNL     1      -1.817   7.998   4.889  1.00  0.00    -0.000 C 
BRANCH   5   6
ATOM      6  C   UNL     1      -1.566   8.749   6.209  1.00  0.00    -0.000 C 
BRANCH   6   7
ATOM      7  C   UNL     1      -0.083   8.881   6.613  1.00  0.00    -0.000 C 
BRANCH   7   8
ATOM      8  C   UNL     1       0.222   8.571   8.089  1.00  0.00    -0.000 C 
BRANCH   8   9
ATOM      9  C   UNL     1       0.677   7.122   8.312  1.00  0.00    -0.000 C 
BRANCH   9  10
ATOM     10  C   UNL     1       1.797   6.742   7.335  1.00  0.00    -0.000 C 
BRANCH  10  11
ATOM     11  C   UNL     1       2.094   5.239   7.396  1.00  0.00    -0.003 C 
ATOM     12  C   UNL     1       1.358   4.486   6.291  1.00  0.00     0.004 C 
ENDBRANCH  10  11
ENDBRANCH   9  10
ENDBRANCH   8   9
ENDBRANCH   7   8
ENDBRANCH   6   7
ENDBRANCH   5   6
ENDBRANCH   4   5
ENDBRANCH   3   4
ENDBRANCH   2   3
ENDBRANCH   1   2
BRANCH   1  13
ATOM     13  C   UNL     1       1.943   5.502   2.136  1.00  0.00     0.000 C 
BRANCH  13  14
ATOM     14  C   UNL     1       3.046   5.189   1.113  1.00  0.00     0.000 C 
BRANCH  14  15
ATOM     15  C   UNL     1       2.495   4.349  -0.048  1.00  0.00     0.000 C 
BRANCH  15  16
ATOM     16  C   UNL     1       1.580   5.153  -0.990  1.00  0.00     0.000 C 
BRANCH  16  17
ATOM     17  C   UNL     1       2.207   5.522  -2.350  1.00  0.00     0.000 C 
BRANCH  17  18
ATOM     18  C   UNL     1       3.270   6.636  -2.298  1.00  0.00     0.000 C 
BRANCH  18  19
ATOM     19  C   UNL     1       4.625   6.274  -2.939  1.00  0.00     0.000 C 
BRANCH  19  20
ATOM     20  C   UNL     1       5.507   5.321  -2.107  1.00  0.00     0.006 C 
BRANCH  20  21
ATOM     21  C   UNL     1       7.013   5.437  -2.391  1.00  0.00     0.053 C 
BRANCH  21  22
ATOM     22  C   UNL     1       7.343   5.096  -3.812  1.00  0.00     0.041 C 
ATOM     23  O   UNL     1       7.777   5.984  -4.591  1.00  0.00    -0.550 OA
ATOM     24  O   UNL     1       7.137   3.806  -4.285  1.00  0.00    -0.550 OA
ENDBRANCH  21  22
ENDBRANCH  20  21
ENDBRANCH  19  20
ENDBRANCH  18  19
ENDBRANCH  17  18
ENDBRANCH  16  17
ENDBRANCH  15  16
ENDBRANCH  14  15
ENDBRANCH  13  14
ENDBRANCH   1  13
TORSDOF 20
ENDMDL
MODEL 7
REMARK VINA RESULT:    -4.486      1.450      3.623
REMARK INTER + INTRA:         -12.018
REMARK INTER:                  -9.653
REMARK INTRA:                  -2.365
REMARK UNBOUND:                -2.287
REMARK SMILES CCCCCCCCCCCCCCCCCCCCCC(=O)[O-]
REMARK SMILES IDX 12 1 11 2 10 3 9 4 8 5 7 6 6 7 5 8 4 9 3 10 2 11 1 12 13 13
REMARK SMILES IDX 14 14 15 15 16 16 17 17 18 18 19 19 20 20 21 21 22 22 23 23
REMARK SMILES IDX 24 24
REMARK H PARENT
REMARK Flexibility Score: inf
ROOT
ATOM      1  C   UNL     1      -2.698  -3.982   2.006  1.00  0.00     0.000 C 
ENDROOT
BRANCH   1   2
ATOM      2  C   UNL     1      -3.398  -4.069   0.639  1.00  0.00     0.000 C 
BRANCH   2   3
ATOM      3  C   UNL     1      -2.661  -3.275  -0.452  1.00  0.00     0.000 C 
BRANCH   3   4
ATOM      4  C   UNL     1      -1.671  -4.139  -1.248  1.00  0.00    -0.000 C 
BRANCH   4   5
ATOM      5  C   UNL     1      -2.094  -5.615  -1.231  1.00  0.00    -0.000 C 
BRANCH   5   6
ATOM      6  C   UNL     1      -2.692  -6.082  -2.570  1.00  0.00    -0.000 C 
BRANCH   6   7
ATOM      7  C   UNL     1      -4.204  -6.386  -2.540  1.00  0.00    -0.000 C 
BRANCH   7   8
ATOM      8  C   UNL     1      -5.037  -5.672  -3.619  1.00  0.00    -0.000 C 
BRANCH   8   9
ATOM      9  C   UNL     1      -5.588  -4.319  -3.148  1.00  0.00    -0.000 C 
BRANCH   9  10
ATOM     10  C   UNL     1      -6.260  -4.448  -1.775  1.00  0.00    -0.000 C 
BRANCH  10  11
ATOM     11  C   UNL     1      -7.786  -4.470  -1.909  1.00  0.00    -0.003 C 
ATOM     12  C   UNL     1      -8.403  -3.167  -1.411  1.00  0.00     0.004 C 
ENDBRANCH  10  11
ENDBRANCH   9  10
ENDBRANCH   8   9
ENDBRANCH   7   8
ENDBRANCH   6   7
ENDBRANCH   5   6
ENDBRANCH   4   5
ENDBRANCH   3   4
ENDBRANCH   2   3
ENDBRANCH   1   2
BRANCH   1  13
ATOM     13  C   UNL     1      -2.221  -5.352   2.515  1.00  0.00     0.000 C 
BRANCH  13  14
ATOM     14  C   UNL     1      -0.743  -5.623   2.195  1.00  0.00     0.000 C 
BRANCH  14  15
ATOM     15  C   UNL     1      -0.166  -6.693   3.133  1.00  0.00     0.000 C 
BRANCH  15  16
ATOM     16  C   UNL     1      -1.252  -7.450   3.919  1.00  0.00     0.000 C 
BRANCH  16  17
ATOM     17  C   UNL     1      -1.106  -7.391   5.454  1.00  0.00     0.000 C 
BRANCH  17  18
ATOM     18  C   UNL     1      -1.195  -5.979   6.064  1.00  0.00     0.000 C 
BRANCH  18  19
ATOM     19  C   UNL     1      -2.574  -5.606   6.645  1.00  0.00     0.000 C 
BRANCH  19  20
ATOM     20  C   UNL     1      -3.048  -4.172   6.331  1.00  0.00     0.006 C 
BRANCH  20  21
ATOM     21  C   UNL     1      -4.493  -4.079   5.815  1.00  0.00     0.053 C 
BRANCH  21  22
ATOM     22  C   UNL     1      -5.469  -3.829   6.924  1.00  0.00     0.041 C 
ATOM     23  O   UNL     1      -5.329  -4.407   8.033  1.00  0.00    -0.550 OA
ATOM     24  O   UNL     1      -6.555  -2.987   6.720  1.00  0.00    -0.550 OA
ENDBRANCH  21  22
ENDBRANCH  20  21
ENDBRANCH  19  20
ENDBRANCH  18  19
ENDBRANCH  17  18
ENDBRANCH  16  17
ENDBRANCH  15  16
ENDBRANCH  14  15
ENDBRANCH  13  14
ENDBRANCH   1  13
TORSDOF 20
ENDMDL
MODEL 8
REMARK VINA RESULT:    -4.424     11.569     14.211
REMARK INTER + INTRA:         -11.884
REMARK INTER:                  -8.560
REMARK INTRA:                  -3.324
REMARK UNBOUND:                -2.287
REMARK SMILES CCCCCCCCCCCCCCCCCCCCCC(=O)[O-]
REMARK SMILES IDX 12 1 11 2 10 3 9 4 8 5 7 6 6 7 5 8 4 9 3 10 2 11 1 12 13 13
REMARK SMILES IDX 14 14 15 15 16 16 17 17 18 18 19 19 20 20 21 21 22 22 23 23
REMARK SMILES IDX 24 24
REMARK H PARENT
REMARK Flexibility Score: inf
ROOT
ATOM      1  C   UNL     1       0.743   8.243   4.213  1.00  0.00     0.000 C 
ENDROOT
BRANCH   1   2
ATOM      2  C   UNL     1       0.016   8.705   5.487  1.00  0.00     0.000 C 
BRANCH   2   3
ATOM      3  C   UNL     1       0.076   7.659   6.612  1.00  0.00     0.000 C 
BRANCH   3   4
ATOM      4  C   UNL     1       1.513   7.349   7.058  1.00  0.00    -0.000 C 
BRANCH   4   5
ATOM      5  C   UNL     1       1.591   5.974   7.738  1.00  0.00    -0.000 C 
BRANCH   5   6
ATOM      6  C   UNL     1       2.893   5.219   7.414  1.00  0.00    -0.000 C 
BRANCH   6   7
ATOM      7  C   UNL     1       2.723   3.709   7.149  1.00  0.00    -0.000 C 
BRANCH   7   8
ATOM      8  C   UNL     1       4.031   2.938   6.900  1.00  0.00    -0.000 C 
BRANCH   8   9
ATOM      9  C   UNL     1       5.247   3.861   6.742  1.00  0.00    -0.000 C 
BRANCH   9  10
ATOM     10  C   UNL     1       6.188   3.348   5.644  1.00  0.00    -0.000 C 
BRANCH  10  11
ATOM     11  C   UNL     1       5.761   1.958   5.160  1.00  0.00    -0.003 C 
ATOM     12  C   UNL     1       6.369   1.638   3.797  1.00  0.00     0.004 C 
ENDBRANCH  10  11
ENDBRANCH   9  10
ENDBRANCH   8   9
ENDBRANCH   7   8
ENDBRANCH   6   7
ENDBRANCH   5   6
ENDBRANCH   4   5
ENDBRANCH   3   4
ENDBRANCH   2   3
ENDBRANCH   1   2
BRANCH   1  13
ATOM     13  C   UNL     1       0.115   6.983   3.596  1.00  0.00     0.000 C 
BRANCH  13  14
ATOM     14  C   UNL     1       1.156   6.048   2.963  1.00  0.00     0.000 C 
BRANCH  14  15
ATOM     15  C   UNL     1       2.578   6.449   3.377  1.00  0.00     0.000 C 
BRANCH  15  16
ATOM     16  C   UNL     1       3.437   5.248   3.814  1.00  0.00     0.000 C 
BRANCH  16  17
ATOM     17  C   UNL     1       2.884   3.868   3.404  1.00  0.00     0.000 C 
BRANCH  17  18
ATOM     18  C   UNL     1       3.528   3.254   2.147  1.00  0.00     0.000 C 
BRANCH  18  19
ATOM     19  C   UNL     1       2.786   3.546   0.826  1.00  0.00     0.000 C 
BRANCH  19  20
ATOM     20  C   UNL     1       3.258   4.810   0.079  1.00  0.00     0.006 C 
BRANCH  20  21
ATOM     21  C   UNL     1       2.148   5.551  -0.682  1.00  0.00     0.053 C 
BRANCH  21  22
ATOM     22  C   UNL     1       2.470   5.704  -2.137  1.00  0.00     0.041 C 
ATOM     23  O   UNL     1       2.883   6.807  -2.581  1.00  0.00    -0.550 OA
ATOM     24  O   UNL     1       2.280   4.639  -3.009  1.00  0.00    -0.550 OA
ENDBRANCH  21  22
ENDBRANCH  20  21
ENDBRANCH  19  20
ENDBRANCH  18  19
ENDBRANCH  17  18
ENDBRANCH  16  17
ENDBRANCH  15  16
ENDBRANCH  14  15
ENDBRANCH  13  14
ENDBRANCH   1  13
TORSDOF 20
ENDMDL
MODEL 9
REMARK VINA RESULT:    -4.418     12.041     14.834
REMARK INTER + INTRA:         -11.870
REMARK INTER:                  -8.939
REMARK INTRA:                  -2.931
REMARK UNBOUND:                -2.287
REMARK SMILES CCCCCCCCCCCCCCCCCCCCCC(=O)[O-]
REMARK SMILES IDX 12 1 11 2 10 3 9 4 8 5 7 6 6 7 5 8 4 9 3 10 2 11 1 12 13 13
REMARK SMILES IDX 14 14 15 15 16 16 17 17 18 18 19 19 20 20 21 21 22 22 23 23
REMARK SMILES IDX 24 24
REMARK H PARENT
REMARK Flexibility Score: inf
ROOT
ATOM      1  C   UNL     1       0.330   7.169   3.101  1.00  0.00     0.000 C 
ENDROOT
BRANCH   1   2
ATOM      2  C   UNL     1       1.149   7.988   4.113  1.00  0.00     0.000 C 
BRANCH   2   3
ATOM      3  C   UNL     1       0.266   8.679   5.165  1.00  0.00     0.000 C 
BRANCH   3   4
ATOM      4  C   UNL     1       0.652   8.304   6.604  1.00  0.00    -0.000 C 
BRANCH   4   5
ATOM      5  C   UNL     1       1.368   6.946   6.643  1.00  0.00    -0.000 C 
BRANCH   5   6
ATOM      6  C   UNL     1       0.442   5.793   7.071  1.00  0.00    -0.000 C 
BRANCH   6   7
ATOM      7  C   UNL     1      -0.141   4.959   5.912  1.00  0.00    -0.000 C 
BRANCH   7   8
ATOM      8  C   UNL     1      -1.670   4.788   5.934  1.00  0.00    -0.000 C 
BRANCH   8   9
ATOM      9  C   UNL     1      -2.395   5.791   5.026  1.00  0.00    -0.000 C 
BRANCH   9  10
ATOM     10  C   UNL     1      -3.534   6.489   5.779  1.00  0.00    -0.000 C 
BRANCH  10  11
ATOM     11  C   UNL     1      -3.041   7.773   6.456  1.00  0.00    -0.003 C 
ATOM     12  C   UNL     1      -3.351   9.000   5.603  1.00  0.00     0.004 C 
ENDBRANCH  10  11
ENDBRANCH   9  10
ENDBRANCH   8   9
ENDBRANCH   7   8
ENDBRANCH   6   7
ENDBRANCH   5   6
ENDBRANCH   4   5
ENDBRANCH   3   4
ENDBRANCH   2   3
ENDBRANCH   1   2
BRANCH   1  13
ATOM     13  C   UNL     1       1.146   6.033   2.462  1.00  0.00     0.000 C 
BRANCH  13  14
ATOM     14  C   UNL     1       2.604   6.004   2.943  1.00  0.00     0.000 C 
BRANCH  14  15
ATOM     15  C   UNL     1       3.127   4.563   3.022  1.00  0.00     0.000 C 
BRANCH  15  16
ATOM     16  C   UNL     1       2.734   3.714   1.799  1.00  0.00     0.000 C 
BRANCH  16  17
ATOM     17  C   UNL     1       3.433   4.106   0.481  1.00  0.00     0.000 C 
BRANCH  17  18
ATOM     18  C   UNL     1       2.504   4.213  -0.744  1.00  0.00     0.000 C 
BRANCH  18  19
ATOM     19  C   UNL     1       2.257   5.649  -1.251  1.00  0.00     0.000 C 
BRANCH  19  20
ATOM     20  C   UNL     1       3.235   6.133  -2.341  1.00  0.00     0.006 C 
BRANCH  20  21
ATOM     21  C   UNL     1       4.548   6.722  -1.801  1.00  0.00     0.053 C 
BRANCH  21  22
ATOM     22  C   UNL     1       5.745   6.167  -2.510  1.00  0.00     0.041 C 
ATOM     23  O   UNL     1       6.542   6.938  -3.106  1.00  0.00    -0.550 OA
ATOM     24  O   UNL     1       5.960   4.795  -2.546  1.00  0.00    -0.550 OA
ENDBRANCH  21  22
ENDBRANCH  20  21
ENDBRANCH  19  20
ENDBRANCH  18  19
ENDBRANCH  17  18
ENDBRANCH  16  17
ENDBRANCH  15  16
ENDBRANCH  14  15
ENDBRANCH  13  14
ENDBRANCH   1  13
TORSDOF 20
ENDMDL
