MODEL 1
REMARK VINA RESULT:    -7.721      0.000      0.000
REMARK INTER + INTRA:         -11.253
REMARK INTER:                 -10.654
REMARK INTRA:                  -0.599
REMARK UNBOUND:                -0.599
REMARK SMILES CC[C@H](CC[C@H](C)[C@H]1CC[C@H]2[C@H]3CC=C4C[C@@H](O)CC[C@]4(C)[C@H]3CC[C@@]12C)C(C)C
REMARK SMILES IDX 5 1 4 2 3 3 2 4 1 5 28 6 29 7 30 8 6 9 7 10 8 11 9 12 26 13
REMARK SMILES IDX 10 14 11 15 25 16 27 17 12 18 24 19 23 20 13 21 21 22 14 23
REMARK SMILES IDX 15 24 20 25 22 26 16 27 19 28 17 29 18 30
REMARK H PARENT 18 31
REMARK Flexibility Score: inf
ROOT
ATOM      1  C   UNL     1      47.387  11.479  19.870  1.00  0.00     0.004 C 
ENDROOT
BRANCH   1   2
ATOM      2  C   UNL     1      47.379  13.014  20.065  1.00  0.00     0.004 C 
BRANCH   2   3
ATOM      3  C   UNL     1      48.546  13.775  19.354  1.00  0.00    -0.009 C 
BRANCH   3   4
ATOM      4  C   UNL     1      48.511  13.524  17.818  1.00  0.00     0.000 C 
ATOM      5  C   UNL     1      49.799  12.878  17.285  1.00  0.00     0.004 C 
ENDBRANCH   3   4
BRANCH   3   6
ATOM      6  C   UNL     1      48.587  15.318  19.639  1.00  0.00    -0.014 C 
ATOM      7  C   UNL     1      49.997  15.918  19.539  1.00  0.00     0.007 C 
ATOM      8  C   UNL     1      47.925  15.746  20.967  1.00  0.00     0.007 C 
ENDBRANCH   3   6
ENDBRANCH   2   3
ENDBRANCH   1   2
BRANCH   1   9
ATOM      9  C   UNL     1      46.528  10.662  20.875  1.00  0.00    -0.011 C 
ATOM     10  C   UNL     1      45.563  11.584  21.637  1.00  0.00     0.008 C 
BRANCH   9  11
ATOM     11  C   UNL     1      47.459   9.754  21.770  1.00  0.00    -0.002 C 
ATOM     12  C   UNL     1      46.938   9.396  23.161  1.00  0.00     0.005 C 
ATOM     13  C   UNL     1      48.086   8.420  21.238  1.00  0.00    -0.026 C 
ATOM     14  C   UNL     1      47.865   8.280  23.657  1.00  0.00     0.005 C 
ATOM     15  C   UNL     1      48.854   7.958  22.504  1.00  0.00    -0.001 C 
ATOM     16  C   UNL     1      47.014   7.324  20.850  1.00  0.00     0.007 C 
ATOM     17  C   UNL     1      49.042   8.732  20.057  1.00  0.00     0.012 C 
ATOM     18  C   UNL     1      49.457   6.500  22.458  1.00  0.00     0.000 C 
ATOM     19  C   UNL     1      47.263   5.888  21.381  1.00  0.00     0.005 C 
ATOM     20  C   UNL     1      48.771   5.560  21.425  1.00  0.00     0.003 C 
ATOM     21  C   UNL     1      49.520   5.870  23.862  1.00  0.00     0.031 C 
ATOM     22  C   UNL     1      49.211   4.022  21.528  1.00  0.00    -0.008 C 
ATOM     23  C   UNL     1      50.090   4.500  23.844  1.00  0.00    -0.027 C 
ATOM     24  C   UNL     1      49.777   3.599  22.889  1.00  0.00    -0.065 C 
ATOM     25  C   UNL     1      50.389   3.801  20.526  1.00  0.00     0.014 C 
ATOM     26  C   UNL     1      48.039   3.078  21.150  1.00  0.00     0.016 C 
ATOM     27  C   UNL     1      50.339   2.196  23.022  1.00  0.00     0.063 C 
ATOM     28  C   UNL     1      50.987   2.381  20.548  1.00  0.00     0.033 C 
ATOM     29  C   UNL     1      51.427   1.947  21.960  1.00  0.00     0.118 C 
BRANCH  29  30
ATOM     30  O   UNL     1      51.754   0.580  21.928  1.00  0.00    -0.393 OA
ATOM     31  H   UNL     1      51.249   0.172  21.174  1.00  0.00     0.210 HD
ENDBRANCH  29  30
ENDBRANCH   9  11
ENDBRANCH   1   9
TORSDOF 7
ENDMDL
MODEL 2
REMARK VINA RESULT:    -7.661      4.064      9.894
REMARK INTER + INTRA:         -11.172
REMARK INTER:                  -9.441
REMARK INTRA:                  -1.731
REMARK UNBOUND:                -0.599
REMARK SMILES CC[C@H](CC[C@H](C)[C@H]1CC[C@H]2[C@H]3CC=C4C[C@@H](O)CC[C@]4(C)[C@H]3CC[C@@]12C)C(C)C
REMARK SMILES IDX 5 1 4 2 3 3 2 4 1 5 28 6 29 7 30 8 6 9 7 10 8 11 9 12 26 13
REMARK SMILES IDX 10 14 11 15 25 16 27 17 12 18 24 19 23 20 13 21 21 22 14 23
REMARK SMILES IDX 15 24 20 25 22 26 16 27 19 28 17 29 18 30
REMARK H PARENT 18 31
REMARK Flexibility Score: inf
ROOT
ATOM      1  C   UNL     1      48.044  -0.360  21.922  1.00  0.00     0.004 C 
ENDROOT
BRANCH   1   2
ATOM      2  C   UNL     1      49.102  -0.113  23.024  1.00  0.00     0.004 C 
BRANCH   2   3
ATOM      3  C   UNL     1      50.587  -0.280  22.561  1.00  0.00    -0.009 C 
BRANCH   3   4
ATOM      4  C   UNL     1      51.411   1.001  22.883  1.00  0.00     0.000 C 
ATOM      5  C   UNL     1      52.171   1.548  21.665  1.00  0.00     0.004 C 
ENDBRANCH   3   4
BRANCH   3   6
ATOM      6  C   UNL     1      51.315  -1.541  23.147  1.00  0.00    -0.014 C 
ATOM      7  C   UNL     1      51.561  -2.642  22.105  1.00  0.00     0.007 C 
ATOM      8  C   UNL     1      50.650  -2.144  24.403  1.00  0.00     0.007 C 
ENDBRANCH   3   6
ENDBRANCH   2   3
ENDBRANCH   1   2
BRANCH   1   9
ATOM      9  C   UNL     1      47.309   0.902  21.391  1.00  0.00    -0.011 C 
ATOM     10  C   UNL     1      46.990   0.753  19.895  1.00  0.00     0.008 C 
BRANCH   9  11
ATOM     11  C   UNL     1      48.108   2.203  21.795  1.00  0.00    -0.002 C 
ATOM     12  C   UNL     1      48.993   2.828  20.719  1.00  0.00     0.005 C 
ATOM     13  C   UNL     1      47.414   3.429  22.482  1.00  0.00    -0.026 C 
ATOM     14  C   UNL     1      49.373   4.208  21.269  1.00  0.00     0.005 C 
ATOM     15  C   UNL     1      48.627   4.385  22.619  1.00  0.00    -0.001 C 
ATOM     16  C   UNL     1      46.306   4.116  21.587  1.00  0.00     0.007 C 
ATOM     17  C   UNL     1      46.852   2.999  23.863  1.00  0.00     0.012 C 
ATOM     18  C   UNL     1      48.302   5.861  23.074  1.00  0.00     0.000 C 
ATOM     19  C   UNL     1      46.357   5.663  21.484  1.00  0.00     0.005 C 
ATOM     20  C   UNL     1      46.832   6.299  22.808  1.00  0.00     0.003 C 
ATOM     21  C   UNL     1      49.318   6.866  22.501  1.00  0.00     0.031 C 
ATOM     22  C   UNL     1      46.547   7.859  23.047  1.00  0.00    -0.008 C 
ATOM     23  C   UNL     1      49.035   8.262  22.920  1.00  0.00    -0.027 C 
ATOM     24  C   UNL     1      47.782   8.763  22.964  1.00  0.00    -0.065 C 
ATOM     25  C   UNL     1      46.036   8.024  24.513  1.00  0.00     0.014 C 
ATOM     26  C   UNL     1      45.465   8.386  22.069  1.00  0.00     0.016 C 
ATOM     27  C   UNL     1      47.616  10.231  23.311  1.00  0.00     0.063 C 
ATOM     28  C   UNL     1      45.781   9.483  24.938  1.00  0.00     0.033 C 
ATOM     29  C   UNL     1      47.009  10.387  24.719  1.00  0.00     0.118 C 
BRANCH  29  30
ATOM     30  O   UNL     1      46.627  11.723  24.925  1.00  0.00    -0.393 OA
ATOM     31  H   UNL     1      46.184  12.037  24.091  1.00  0.00     0.210 HD
ENDBRANCH  29  30
ENDBRANCH   9  11
ENDBRANCH   1   9
TORSDOF 7
ENDMDL
MODEL 3
REMARK VINA RESULT:    -7.620      2.599      5.061
REMARK INTER + INTRA:         -11.114
REMARK INTER:                  -8.864
REMARK INTRA:                  -2.250
REMARK UNBOUND:                -0.599
REMARK SMILES CC[C@H](CC[C@H](C)[C@H]1CC[C@H]2[C@H]3CC=C4C[C@@H](O)CC[C@]4(C)[C@H]3CC[C@@]12C)C(C)C
REMARK SMILES IDX 5 1 4 2 3 3 2 4 1 5 28 6 29 7 30 8 6 9 7 10 8 11 9 12 26 13
REMARK SMILES IDX 10 14 11 15 25 16 27 17 12 18 24 19 23 20 13 21 21 22 14 23
REMARK SMILES IDX 15 24 20 25 22 26 16 27 19 28 17 29 18 30
REMARK H PARENT 18 31
REMARK Flexibility Score: inf
ROOT
ATOM      1  C   UNL     1      47.885   9.738  23.998  1.00  0.00     0.004 C 
ENDROOT
BRANCH   1   2
ATOM      2  C   UNL     1      46.365   9.579  23.752  1.00  0.00     0.004 C 
BRANCH   2   3
ATOM      3  C   UNL     1      45.873  10.045  22.342  1.00  0.00    -0.009 C 
BRANCH   3   4
ATOM      4  C   UNL     1      46.949  10.930  21.649  1.00  0.00     0.000 C 
ATOM      5  C   UNL     1      46.458  12.357  21.363  1.00  0.00     0.004 C 
ENDBRANCH   3   4
BRANCH   3   6
ATOM      6  C   UNL     1      45.447   8.878  21.383  1.00  0.00    -0.014 C 
ATOM      7  C   UNL     1      44.996   7.612  22.126  1.00  0.00     0.007 C 
ATOM      8  C   UNL     1      46.493   8.513  20.308  1.00  0.00     0.007 C 
ENDBRANCH   3   6
ENDBRANCH   2   3
ENDBRANCH   1   2
BRANCH   1   9
ATOM      9  C   UNL     1      48.649   8.441  24.387  1.00  0.00    -0.011 C 
ATOM     10  C   UNL     1      50.138   8.741  24.625  1.00  0.00     0.008 C 
BRANCH   9  11
ATOM     11  C   UNL     1      48.339   7.297  23.346  1.00  0.00    -0.002 C 
ATOM     12  C   UNL     1      49.283   7.179  22.151  1.00  0.00     0.005 C 
ATOM     13  C   UNL     1      48.087   5.814  23.785  1.00  0.00    -0.026 C 
ATOM     14  C   UNL     1      48.946   5.828  21.509  1.00  0.00     0.005 C 
ATOM     15  C   UNL     1      47.867   5.154  22.399  1.00  0.00    -0.001 C 
ATOM     16  C   UNL     1      49.332   5.140  24.491  1.00  0.00     0.007 C 
ATOM     17  C   UNL     1      46.816   5.744  24.672  1.00  0.00     0.012 C 
ATOM     18  C   UNL     1      47.802   3.576  22.381  1.00  0.00     0.000 C 
ATOM     19  C   UNL     1      49.726   3.721  24.002  1.00  0.00     0.005 C 
ATOM     20  C   UNL     1      48.481   2.898  23.607  1.00  0.00     0.003 C 
ATOM     21  C   UNL     1      48.313   3.004  21.046  1.00  0.00     0.031 C 
ATOM     22  C   UNL     1      48.629   1.306  23.490  1.00  0.00    -0.008 C 
ATOM     23  C   UNL     1      48.256   1.522  21.004  1.00  0.00    -0.027 C 
ATOM     24  C   UNL     1      48.603   0.756  22.060  1.00  0.00    -0.065 C 
ATOM     25  C   UNL     1      47.382   0.667  24.181  1.00  0.00     0.014 C 
ATOM     26  C   UNL     1      49.914   0.810  24.202  1.00  0.00     0.016 C 
ATOM     27  C   UNL     1      48.602  -0.751  21.875  1.00  0.00     0.063 C 
ATOM     28  C   UNL     1      47.326  -0.871  24.097  1.00  0.00     0.033 C 
ATOM     29  C   UNL     1      47.431  -1.388  22.649  1.00  0.00     0.118 C 
BRANCH  29  30
ATOM     30  O   UNL     1      47.589  -2.784  22.681  1.00  0.00    -0.393 OA
ATOM     31  H   UNL     1      48.565  -2.973  22.645  1.00  0.00     0.210 HD
ENDBRANCH  29  30
ENDBRANCH   9  11
ENDBRANCH   1   9
TORSDOF 7
ENDMDL
MODEL 4
REMARK VINA RESULT:    -7.420      3.708     10.030
REMARK INTER + INTRA:         -10.838
REMARK INTER:                  -8.349
REMARK INTRA:                  -2.489
REMARK UNBOUND:                -0.599
REMARK SMILES CC[C@H](CC[C@H](C)[C@H]1CC[C@H]2[C@H]3CC=C4C[C@@H](O)CC[C@]4(C)[C@H]3CC[C@@]12C)C(C)C
REMARK SMILES IDX 5 1 4 2 3 3 2 4 1 5 28 6 29 7 30 8 6 9 7 10 8 11 9 12 26 13
REMARK SMILES IDX 10 14 11 15 25 16 27 17 12 18 24 19 23 20 13 21 21 22 14 23
REMARK SMILES IDX 15 24 20 25 22 26 16 27 19 28 17 29 18 30
REMARK H PARENT 18 31
REMARK Flexibility Score: inf
ROOT
ATOM      1  C   UNL     1      48.651  -1.078  22.332  1.00  0.00     0.004 C 
ENDROOT
BRANCH   1   2
ATOM      2  C   UNL     1      47.122  -0.899  22.493  1.00  0.00     0.004 C 
BRANCH   2   3
ATOM      3  C   UNL     1      46.577  -1.160  23.936  1.00  0.00    -0.009 C 
BRANCH   3   4
ATOM      4  C   UNL     1      47.749  -1.372  24.937  1.00  0.00     0.000 C 
ATOM      5  C   UNL     1      47.680  -2.723  25.666  1.00  0.00     0.004 C 
ENDBRANCH   3   4
BRANCH   3   6
ATOM      6  C   UNL     1      45.609  -0.050  24.478  1.00  0.00    -0.014 C 
ATOM      7  C   UNL     1      45.108   0.907  23.387  1.00  0.00     0.007 C 
ATOM      8  C   UNL     1      46.159   0.757  25.674  1.00  0.00     0.007 C 
ENDBRANCH   3   6
ENDBRANCH   2   3
ENDBRANCH   1   2
BRANCH   1   9
ATOM      9  C   UNL     1      49.467   0.225  22.099  1.00  0.00    -0.011 C 
ATOM     10  C   UNL     1      50.928   0.035  22.538  1.00  0.00     0.008 C 
BRANCH   9  11
ATOM     11  C   UNL     1      48.714   1.456  22.738  1.00  0.00    -0.002 C 
ATOM     12  C   UNL     1      49.256   1.979  24.067  1.00  0.00     0.005 C 
ATOM     13  C   UNL     1      48.387   2.752  21.919  1.00  0.00    -0.026 C 
ATOM     14  C   UNL     1      48.561   3.329  24.276  1.00  0.00     0.005 C 
ATOM     15  C   UNL     1      47.692   3.598  23.018  1.00  0.00    -0.001 C 
ATOM     16  C   UNL     1      49.670   3.519  21.404  1.00  0.00     0.007 C 
ATOM     17  C   UNL     1      47.422   2.400  20.756  1.00  0.00     0.012 C 
ATOM     18  C   UNL     1      47.399   5.106  22.653  1.00  0.00     0.000 C 
ATOM     19  C   UNL     1      49.703   5.053  21.633  1.00  0.00     0.005 C 
ATOM     20  C   UNL     1      48.293   5.668  21.509  1.00  0.00     0.003 C 
ATOM     21  C   UNL     1      47.425   6.005  23.903  1.00  0.00     0.031 C 
ATOM     22  C   UNL     1      48.172   7.251  21.286  1.00  0.00    -0.008 C 
ATOM     23  C   UNL     1      47.146   7.428  23.585  1.00  0.00    -0.027 C 
ATOM     24  C   UNL     1      47.664   8.040  22.499  1.00  0.00    -0.065 C 
ATOM     25  C   UNL     1      47.093   7.489  20.182  1.00  0.00     0.014 C 
ATOM     26  C   UNL     1      49.521   7.855  20.817  1.00  0.00     0.016 C 
ATOM     27  C   UNL     1      47.395   9.523  22.323  1.00  0.00     0.063 C 
ATOM     28  C   UNL     1      46.796   8.974  19.891  1.00  0.00     0.033 C 
ATOM     29  C   UNL     1      46.412   9.759  21.160  1.00  0.00     0.118 C 
BRANCH  29  30
ATOM     30  O   UNL     1      46.371  11.128  20.845  1.00  0.00    -0.393 OA
ATOM     31  H   UNL     1      45.752  11.237  20.074  1.00  0.00     0.210 HD
ENDBRANCH  29  30
ENDBRANCH   9  11
ENDBRANCH   1   9
TORSDOF 7
ENDMDL
MODEL 5
REMARK VINA RESULT:    -7.353      3.599      6.083
REMARK INTER + INTRA:         -10.747
REMARK INTER:                  -8.492
REMARK INTRA:                  -2.255
REMARK UNBOUND:                -0.599
REMARK SMILES CC[C@H](CC[C@H](C)[C@H]1CC[C@H]2[C@H]3CC=C4C[C@@H](O)CC[C@]4(C)[C@H]3CC[C@@]12C)C(C)C
REMARK SMILES IDX 5 1 4 2 3 3 2 4 1 5 28 6 29 7 30 8 6 9 7 10 8 11 9 12 26 13
REMARK SMILES IDX 10 14 11 15 25 16 27 17 12 18 24 19 23 20 13 21 21 22 14 23
REMARK SMILES IDX 15 24 20 25 22 26 16 27 19 28 17 29 18 30
REMARK H PARENT 18 31
REMARK Flexibility Score: inf
ROOT
ATOM      1  C   UNL     1      47.068   8.198  26.281  1.00  0.00     0.004 C 
ENDROOT
BRANCH   1   2
ATOM      2  C   UNL     1      46.107   8.057  25.075  1.00  0.00     0.004 C 
BRANCH   2   3
ATOM      3  C   UNL     1      46.386   9.041  23.891  1.00  0.00    -0.009 C 
BRANCH   3   4
ATOM      4  C   UNL     1      47.302  10.211  24.353  1.00  0.00     0.000 C 
ATOM      5  C   UNL     1      46.612  11.582  24.276  1.00  0.00     0.004 C 
ENDBRANCH   3   4
BRANCH   3   6
ATOM      6  C   UNL     1      46.992   8.365  22.611  1.00  0.00    -0.014 C 
ATOM      7  C   UNL     1      46.475   6.939  22.372  1.00  0.00     0.007 C 
ATOM      8  C   UNL     1      48.535   8.384  22.541  1.00  0.00     0.007 C 
ENDBRANCH   3   6
ENDBRANCH   2   3
ENDBRANCH   1   2
BRANCH   1   9
ATOM      9  C   UNL     1      47.798   6.899  26.722  1.00  0.00    -0.011 C 
ATOM     10  C   UNL     1      48.878   7.214  27.770  1.00  0.00     0.008 C 
BRANCH   9  11
ATOM     11  C   UNL     1      48.287   6.095  25.454  1.00  0.00    -0.002 C 
ATOM     12  C   UNL     1      49.774   6.182  25.117  1.00  0.00     0.005 C 
ATOM     13  C   UNL     1      47.930   4.586  25.234  1.00  0.00    -0.026 C 
ATOM     14  C   UNL     1      50.010   5.082  24.075  1.00  0.00     0.005 C 
ATOM     15  C   UNL     1      48.667   4.326  23.894  1.00  0.00    -0.001 C 
ATOM     16  C   UNL     1      48.514   3.625  26.345  1.00  0.00     0.007 C 
ATOM     17  C   UNL     1      46.392   4.432  25.092  1.00  0.00     0.012 C 
ATOM     18  C   UNL     1      48.745   2.821  23.423  1.00  0.00     0.000 C 
ATOM     19  C   UNL     1      49.232   2.342  25.849  1.00  0.00     0.005 C 
ATOM     20  C   UNL     1      48.567   1.785  24.572  1.00  0.00     0.003 C 
ATOM     21  C   UNL     1      50.015   2.553  22.594  1.00  0.00     0.031 C 
ATOM     22  C   UNL     1      48.874   0.268  24.155  1.00  0.00    -0.008 C 
ATOM     23  C   UNL     1      50.108   1.145  22.136  1.00  0.00    -0.027 C 
ATOM     24  C   UNL     1      49.782   0.103  22.930  1.00  0.00    -0.065 C 
ATOM     25  C   UNL     1      47.520  -0.386  23.731  1.00  0.00     0.014 C 
ATOM     26  C   UNL     1      49.474  -0.528  25.342  1.00  0.00     0.016 C 
ATOM     27  C   UNL     1      50.008  -1.298  22.394  1.00  0.00     0.063 C 
ATOM     28  C   UNL     1      47.644  -1.837  23.227  1.00  0.00     0.033 C 
ATOM     29  C   UNL     1      48.662  -1.980  22.080  1.00  0.00     0.118 C 
BRANCH  29  30
ATOM     30  O   UNL     1      48.871  -3.347  21.831  1.00  0.00    -0.393 OA
ATOM     31  H   UNL     1      49.483  -3.416  21.050  1.00  0.00     0.210 HD
ENDBRANCH  29  30
ENDBRANCH   9  11
ENDBRANCH   1   9
TORSDOF 7
ENDMDL
MODEL 6
REMARK VINA RESULT:    -7.334      4.103     10.156
REMARK INTER + INTRA:         -10.720
REMARK INTER:                  -8.742
REMARK INTRA:                  -1.979
REMARK UNBOUND:                -0.599
REMARK SMILES CC[C@H](CC[C@H](C)[C@H]1CC[C@H]2[C@H]3CC=C4C[C@@H](O)CC[C@]4(C)[C@H]3CC[C@@]12C)C(C)C
REMARK SMILES IDX 5 1 4 2 3 3 2 4 1 5 28 6 29 7 30 8 6 9 7 10 8 11 9 12 26 13
REMARK SMILES IDX 10 14 11 15 25 16 27 17 12 18 24 19 23 20 13 21 21 22 14 23
REMARK SMILES IDX 15 24 20 25 22 26 16 27 19 28 17 29 18 30
REMARK H PARENT 18 31
REMARK Flexibility Score: inf
ROOT
ATOM      1  C   UNL     1      44.745  -0.177  23.097  1.00  0.00     0.004 C 
ENDROOT
BRANCH   1   2
ATOM      2  C   UNL     1      46.264  -0.046  23.358  1.00  0.00     0.004 C 
BRANCH   2   3
ATOM      3  C   UNL     1      47.176  -0.801  22.336  1.00  0.00    -0.009 C 
BRANCH   3   4
ATOM      4  C   UNL     1      48.265   0.151  21.761  1.00  0.00     0.000 C 
ATOM      5  C   UNL     1      48.626   1.297  22.718  1.00  0.00     0.004 C 
ENDBRANCH   3   4
BRANCH   3   6
ATOM      6  C   UNL     1      47.852  -2.100  22.901  1.00  0.00    -0.014 C 
ATOM      7  C   UNL     1      47.930  -2.128  24.435  1.00  0.00     0.007 C 
ATOM      8  C   UNL     1      49.236  -2.423  22.297  1.00  0.00     0.007 C 
ENDBRANCH   3   6
ENDBRANCH   2   3
ENDBRANCH   1   2
BRANCH   1   9
ATOM      9  C   UNL     1      44.044   1.084  22.517  1.00  0.00    -0.011 C 
ATOM     10  C   UNL     1      43.075   0.694  21.389  1.00  0.00     0.008 C 
BRANCH   9  11
ATOM     11  C   UNL     1      45.118   2.180  22.150  1.00  0.00    -0.002 C 
ATOM     12  C   UNL     1      45.253   2.544  20.673  1.00  0.00     0.005 C 
ATOM     13  C   UNL     1      45.194   3.557  22.894  1.00  0.00    -0.026 C 
ATOM     14  C   UNL     1      46.104   3.819  20.653  1.00  0.00     0.005 C 
ATOM     15  C   UNL     1      46.374   4.214  22.130  1.00  0.00    -0.001 C 
ATOM     16  C   UNL     1      43.899   4.447  22.718  1.00  0.00     0.007 C 
ATOM     17  C   UNL     1      45.529   3.320  24.391  1.00  0.00     0.012 C 
ATOM     18  C   UNL     1      46.635   5.741  22.432  1.00  0.00     0.000 C 
ATOM     19  C   UNL     1      44.124   5.937  22.344  1.00  0.00     0.005 C 
ATOM     20  C   UNL     1      45.401   6.495  23.008  1.00  0.00     0.003 C 
ATOM     21  C   UNL     1      47.237   6.463  21.213  1.00  0.00     0.031 C 
ATOM     22  C   UNL     1      45.575   8.086  23.101  1.00  0.00    -0.008 C 
ATOM     23  C   UNL     1      47.496   7.901  21.475  1.00  0.00    -0.027 C 
ATOM     24  C   UNL     1      46.630   8.678  22.159  1.00  0.00    -0.065 C 
ATOM     25  C   UNL     1      46.097   8.419  24.535  1.00  0.00     0.014 C 
ATOM     26  C   UNL     1      44.224   8.811  22.870  1.00  0.00     0.016 C 
ATOM     27  C   UNL     1      46.947  10.157  22.283  1.00  0.00     0.063 C 
ATOM     28  C   UNL     1      46.391   9.913  24.775  1.00  0.00     0.033 C 
ATOM     29  C   UNL     1      47.358  10.501  23.728  1.00  0.00     0.118 C 
BRANCH  29  30
ATOM     30  O   UNL     1      47.400  11.896  23.889  1.00  0.00    -0.393 OA
ATOM     31  H   UNL     1      47.972  12.086  24.681  1.00  0.00     0.210 HD
ENDBRANCH  29  30
ENDBRANCH   9  11
ENDBRANCH   1   9
TORSDOF 7
ENDMDL
MODEL 7
REMARK VINA RESULT:    -7.321      4.110      9.835
REMARK INTER + INTRA:         -10.702
REMARK INTER:                  -8.901
REMARK INTRA:                  -1.800
REMARK UNBOUND:                -0.599
REMARK SMILES CC[C@H](CC[C@H](C)[C@H]1CC[C@H]2[C@H]3CC=C4C[C@@H](O)CC[C@]4(C)[C@H]3CC[C@@]12C)C(C)C
REMARK SMILES IDX 5 1 4 2 3 3 2 4 1 5 28 6 29 7 30 8 6 9 7 10 8 11 9 12 26 13
REMARK SMILES IDX 10 14 11 15 25 16 27 17 12 18 24 19 23 20 13 21 21 22 14 23
REMARK SMILES IDX 15 24 20 25 22 26 16 27 19 28 17 29 18 30
REMARK H PARENT 18 31
REMARK Flexibility Score: inf
ROOT
ATOM      1  C   UNL     1      47.197   0.122  22.212  1.00  0.00     0.004 C 
ENDROOT
BRANCH   1   2
ATOM      2  C   UNL     1      46.016  -0.664  22.830  1.00  0.00     0.004 C 
BRANCH   2   3
ATOM      3  C   UNL     1      44.795   0.213  23.265  1.00  0.00    -0.009 C 
BRANCH   3   4
ATOM      4  C   UNL     1      43.548  -0.107  22.390  1.00  0.00     0.000 C 
ATOM      5  C   UNL     1      43.235   0.993  21.365  1.00  0.00     0.004 C 
ENDBRANCH   3   4
BRANCH   3   6
ATOM      6  C   UNL     1      44.421   0.100  24.785  1.00  0.00    -0.014 C 
ATOM      7  C   UNL     1      43.183   0.923  25.170  1.00  0.00     0.007 C 
ATOM      8  C   UNL     1      45.580   0.405  25.758  1.00  0.00     0.007 C 
ENDBRANCH   3   6
ENDBRANCH   2   3
ENDBRANCH   1   2
BRANCH   1   9
ATOM      9  C   UNL     1      46.826   1.447  21.488  1.00  0.00    -0.011 C 
ATOM     10  C   UNL     1      46.987   1.295  19.967  1.00  0.00     0.008 C 
BRANCH   9  11
ATOM     11  C   UNL     1      47.602   2.656  22.142  1.00  0.00    -0.002 C 
ATOM     12  C   UNL     1      48.856   3.141  21.417  1.00  0.00     0.005 C 
ATOM     13  C   UNL     1      46.877   3.975  22.579  1.00  0.00    -0.026 C 
ATOM     14  C   UNL     1      49.201   4.482  22.074  1.00  0.00     0.005 C 
ATOM     15  C   UNL     1      48.087   4.786  23.111  1.00  0.00    -0.001 C 
ATOM     16  C   UNL     1      46.208   4.761  21.381  1.00  0.00     0.007 C 
ATOM     17  C   UNL     1      45.852   3.655  23.699  1.00  0.00     0.012 C 
ATOM     18  C   UNL     1      47.812   6.303  23.451  1.00  0.00     0.000 C 
ATOM     19  C   UNL     1      46.476   6.287  21.314  1.00  0.00     0.005 C 
ATOM     20  C   UNL     1      46.571   6.902  22.727  1.00  0.00     0.003 C 
ATOM     21  C   UNL     1      49.072   7.164  23.248  1.00  0.00     0.031 C 
ATOM     22  C   UNL     1      46.415   8.491  22.876  1.00  0.00    -0.008 C 
ATOM     23  C   UNL     1      48.840   8.595  23.567  1.00  0.00    -0.027 C 
ATOM     24  C   UNL     1      47.710   9.241  23.207  1.00  0.00    -0.065 C 
ATOM     25  C   UNL     1      45.482   8.758  24.100  1.00  0.00     0.014 C 
ATOM     26  C   UNL     1      45.778   9.112  21.606  1.00  0.00     0.016 C 
ATOM     27  C   UNL     1      47.619  10.728  23.496  1.00  0.00     0.063 C 
ATOM     28  C   UNL     1      45.281  10.250  24.434  1.00  0.00     0.033 C 
ATOM     29  C   UNL     1      46.614  10.996  24.633  1.00  0.00     0.118 C 
BRANCH  29  30
ATOM     30  O   UNL     1      46.350  12.373  24.717  1.00  0.00    -0.393 OA
ATOM     31  H   UNL     1      45.926  12.541  25.601  1.00  0.00     0.210 HD
ENDBRANCH  29  30
ENDBRANCH   9  11
ENDBRANCH   1   9
TORSDOF 7
ENDMDL
MODEL 8
REMARK VINA RESULT:    -7.259     11.044     15.026
REMARK INTER + INTRA:         -10.616
REMARK INTER:                  -8.587
REMARK INTRA:                  -2.029
REMARK UNBOUND:                -0.599
REMARK SMILES CC[C@H](CC[C@H](C)[C@H]1CC[C@H]2[C@H]3CC=C4C[C@@H](O)CC[C@]4(C)[C@H]3CC[C@@]12C)C(C)C
REMARK SMILES IDX 5 1 4 2 3 3 2 4 1 5 28 6 29 7 30 8 6 9 7 10 8 11 9 12 26 13
REMARK SMILES IDX 10 14 11 15 25 16 27 17 12 18 24 19 23 20 13 21 21 22 14 23
REMARK SMILES IDX 15 24 20 25 22 26 16 27 19 28 17 29 18 30
REMARK H PARENT 18 31
REMARK Flexibility Score: inf
ROOT
ATOM      1  C   UNL     1      61.733   3.348  14.926  1.00  0.00     0.004 C 
ENDROOT
BRANCH   1   2
ATOM      2  C   UNL     1      62.298   3.059  16.338  1.00  0.00     0.004 C 
BRANCH   2   3
ATOM      3  C   UNL     1      61.221   2.938  17.467  1.00  0.00    -0.009 C 
BRANCH   3   4
ATOM      4  C   UNL     1      61.316   4.142  18.448  1.00  0.00     0.000 C 
ATOM      5  C   UNL     1      62.764   4.520  18.797  1.00  0.00     0.004 C 
ENDBRANCH   3   4
BRANCH   3   6
ATOM      6  C   UNL     1      59.747   2.790  16.949  1.00  0.00    -0.014 C 
ATOM      7  C   UNL     1      58.765   3.762  17.619  1.00  0.00     0.007 C 
ATOM      8  C   UNL     1      59.186   1.353  17.004  1.00  0.00     0.007 C 
ENDBRANCH   3   6
ENDBRANCH   2   3
ENDBRANCH   1   2
BRANCH   1   9
ATOM      9  C   UNL     1      61.761   4.835  14.474  1.00  0.00    -0.011 C 
ATOM     10  C   UNL     1      62.944   5.574  15.118  1.00  0.00     0.008 C 
BRANCH   9  11
ATOM     11  C   UNL     1      60.342   5.493  14.688  1.00  0.00    -0.002 C 
ATOM     12  C   UNL     1      60.301   6.790  15.492  1.00  0.00     0.005 C 
ATOM     13  C   UNL     1      59.350   5.744  13.502  1.00  0.00    -0.026 C 
ATOM     14  C   UNL     1      58.893   7.353  15.268  1.00  0.00     0.005 C 
ATOM     15  C   UNL     1      58.175   6.408  14.266  1.00  0.00    -0.001 C 
ATOM     16  C   UNL     1      59.901   6.752  12.415  1.00  0.00     0.007 C 
ATOM     17  C   UNL     1      58.942   4.386  12.871  1.00  0.00     0.012 C 
ATOM     18  C   UNL     1      57.032   7.034  13.377  1.00  0.00     0.000 C 
ATOM     19  C   UNL     1      58.934   7.873  11.952  1.00  0.00     0.005 C 
ATOM     20  C   UNL     1      57.472   7.377  11.924  1.00  0.00     0.003 C 
ATOM     21  C   UNL     1      56.363   8.232  14.077  1.00  0.00     0.031 C 
ATOM     22  C   UNL     1      56.399   8.222  11.084  1.00  0.00    -0.008 C 
ATOM     23  C   UNL     1      55.280   8.834  13.261  1.00  0.00    -0.027 C 
ATOM     24  C   UNL     1      55.394   9.015  11.928  1.00  0.00    -0.065 C 
ATOM     25  C   UNL     1      55.525   7.207  10.281  1.00  0.00     0.014 C 
ATOM     26  C   UNL     1      57.100   9.186  10.091  1.00  0.00     0.016 C 
ATOM     27  C   UNL     1      54.266   9.731  11.208  1.00  0.00     0.063 C 
ATOM     28  C   UNL     1      54.386   7.851   9.467  1.00  0.00     0.033 C 
ATOM     29  C   UNL     1      53.473   8.742  10.332  1.00  0.00     0.118 C 
BRANCH  29  30
ATOM     30  O   UNL     1      52.605   9.452   9.484  1.00  0.00    -0.393 OA
ATOM     31  H   UNL     1      53.168  10.017   8.889  1.00  0.00     0.210 HD
ENDBRANCH  29  30
ENDBRANCH   9  11
ENDBRANCH   1   9
TORSDOF 7
ENDMDL
MODEL 9
REMARK VINA RESULT:    -7.120      3.774      6.203
REMARK INTER + INTRA:         -10.424
REMARK INTER:                  -8.028
REMARK INTRA:                  -2.397
REMARK UNBOUND:                -0.599
REMARK SMILES CC[C@H](CC[C@H](C)[C@H]1CC[C@H]2[C@H]3CC=C4C[C@@H](O)CC[C@]4(C)[C@H]3CC[C@@]12C)C(C)C
REMARK SMILES IDX 5 1 4 2 3 3 2 4 1 5 28 6 29 7 30 8 6 9 7 10 8 11 9 12 26 13
REMARK SMILES IDX 10 14 11 15 25 16 27 17 12 18 24 19 23 20 13 21 21 22 14 23
REMARK SMILES IDX 15 24 20 25 22 26 16 27 19 28 17 29 18 30
REMARK H PARENT 18 31
REMARK Flexibility Score: inf
ROOT
ATOM      1  C   UNL     1      49.309   8.038  23.504  1.00  0.00     0.004 C 
ENDROOT
BRANCH   1   2
ATOM      2  C   UNL     1      48.124   8.999  23.243  1.00  0.00     0.004 C 
BRANCH   2   3
ATOM      3  C   UNL     1      46.822   8.673  24.046  1.00  0.00    -0.009 C 
BRANCH   3   4
ATOM      4  C   UNL     1      45.710   8.139  23.097  1.00  0.00     0.000 C 
ATOM      5  C   UNL     1      45.873   8.624  21.648  1.00  0.00     0.004 C 
ENDBRANCH   3   4
BRANCH   3   6
ATOM      6  C   UNL     1      47.025   7.675  25.240  1.00  0.00    -0.014 C 
ATOM      7  C   UNL     1      46.064   6.478  25.204  1.00  0.00     0.007 C 
ATOM      8  C   UNL     1      46.998   8.330  26.639  1.00  0.00     0.007 C 
ENDBRANCH   3   6
ENDBRANCH   2   3
ENDBRANCH   1   2
BRANCH   1   9
ATOM      9  C   UNL     1      49.557   6.954  22.419  1.00  0.00    -0.011 C 
ATOM     10  C   UNL     1      49.637   7.593  21.023  1.00  0.00     0.008 C 
BRANCH   9  11
ATOM     11  C   UNL     1      48.512   5.781  22.577  1.00  0.00    -0.002 C 
ATOM     12  C   UNL     1      47.678   5.434  21.346  1.00  0.00     0.005 C 
ATOM     13  C   UNL     1      48.904   4.389  23.181  1.00  0.00    -0.026 C 
ATOM     14  C   UNL     1      47.011   4.095  21.682  1.00  0.00     0.005 C 
ATOM     15  C   UNL     1      47.543   3.654  23.072  1.00  0.00    -0.001 C 
ATOM     16  C   UNL     1      49.987   3.610  22.333  1.00  0.00     0.007 C 
ATOM     17  C   UNL     1      49.352   4.572  24.655  1.00  0.00     0.012 C 
ATOM     18  C   UNL     1      47.562   2.105  23.378  1.00  0.00     0.000 C 
ATOM     19  C   UNL     1      49.697   2.114  22.039  1.00  0.00     0.005 C 
ATOM     20  C   UNL     1      48.962   1.443  23.219  1.00  0.00     0.003 C 
ATOM     21  C   UNL     1      46.475   1.359  22.585  1.00  0.00     0.031 C 
ATOM     22  C   UNL     1      48.955  -0.158  23.298  1.00  0.00    -0.008 C 
ATOM     23  C   UNL     1      46.470  -0.100  22.861  1.00  0.00    -0.027 C 
ATOM     24  C   UNL     1      47.608  -0.817  22.976  1.00  0.00    -0.065 C 
ATOM     25  C   UNL     1      49.244  -0.557  24.780  1.00  0.00     0.014 C 
ATOM     26  C   UNL     1      50.049  -0.768  22.384  1.00  0.00     0.016 C 
ATOM     27  C   UNL     1      47.487  -2.318  23.160  1.00  0.00     0.063 C 
ATOM     28  C   UNL     1      49.201  -2.074  25.051  1.00  0.00     0.033 C 
ATOM     29  C   UNL     1      47.878  -2.719  24.595  1.00  0.00     0.118 C 
BRANCH  29  30
ATOM     30  O   UNL     1      48.008  -4.116  24.678  1.00  0.00    -0.393 OA
ATOM     31  H   UNL     1      47.346  -4.436  25.348  1.00  0.00     0.210 HD
ENDBRANCH  29  30
ENDBRANCH   9  11
ENDBRANCH   1   9
TORSDOF 7
ENDMDL
