MODEL 1
REMARK VINA RESULT:    -7.191      0.000      0.000
REMARK INTER + INTRA:          -9.176
REMARK INTER:                  -8.873
REMARK INTRA:                  -0.303
REMARK UNBOUND:                -0.303
REMARK SMILES Oc1cc(O)c2cc(O)c(-c3cc(O)c(O)c(O)c3)[o+]c2c1.[Cl-]
REMARK SMILES IDX 10 1 20 2 21 3 22 4 2 5 3 6 4 7 6 8 7 9 8 10 11 11 12 12
REMARK SMILES IDX 13 13 19 14 15 15 17 16 14 17 16 19 18 21 9 23 1 25 5 27
REMARK H PARENT 14 18 16 20 18 22 9 24 1 26 5 28
REMARK Flexibility Score: inf
ROOT
ATOM      1  C   UNL     1      -1.718  10.584  26.985  1.00  0.00     0.402 A 
ATOM      2  O   UNL     1      -1.741  11.883  27.285  1.00  0.00    -0.202 OA
ATOM      3  C   UNL     1      -2.475  12.388  28.271  1.00  0.00     0.368 A 
ATOM      4  C   UNL     1      -2.446  13.764  28.518  1.00  0.00     0.162 A 
ATOM      5  C   UNL     1      -3.215  14.311  29.550  1.00  0.00     0.128 A 
ATOM      6  C   UNL     1      -4.018  13.477  30.340  1.00  0.00     0.093 A 
ATOM      7  C   UNL     1      -4.056  12.095  30.105  1.00  0.00     0.136 A 
ATOM      8  C   UNL     1      -3.281  11.545  29.066  1.00  0.00     0.125 A 
ATOM      9  C   UNL     1      -3.274  10.174  28.790  1.00  0.00     0.078 A 
ATOM     10  C   UNL     1      -2.480   9.678  27.751  1.00  0.00     0.223 A 
ENDROOT
BRANCH   1  11
ATOM     11  C   UNL     1      -0.867  10.140  25.858  1.00  0.00     0.091 A 
ATOM     12  C   UNL     1      -1.472   9.709  24.667  1.00  0.00     0.068 A 
ATOM     13  C   UNL     1      -0.690   9.265  23.591  1.00  0.00     0.162 A 
ATOM     14  C   UNL     1       0.532  10.088  25.972  1.00  0.00     0.068 A 
ATOM     15  C   UNL     1       0.706   9.235  23.705  1.00  0.00     0.200 A 
ATOM     16  C   UNL     1       1.319   9.642  24.902  1.00  0.00     0.162 A 
BRANCH  13  17
ATOM     17  O   UNL     1      -1.295   8.852  22.405  1.00  0.00    -0.504 OA
ATOM     18  H   UNL     1      -0.776   8.360  21.688  1.00  0.00     0.293 HD
ENDBRANCH  13  17
BRANCH  15  19
ATOM     19  O   UNL     1       1.467   8.793  22.623  1.00  0.00    -0.502 OA
ATOM     20  H   UNL     1       1.063   8.266  21.858  1.00  0.00     0.293 HD
ENDBRANCH  15  19
BRANCH  16  21
ATOM     21  O   UNL     1       2.707   9.600  25.023  1.00  0.00    -0.504 OA
ATOM     22  H   UNL     1       3.176   9.906  25.868  1.00  0.00     0.293 HD
ENDBRANCH  16  21
ENDBRANCH   1  11
BRANCH  10  23
ATOM     23  O   UNL     1      -2.430   8.306  27.504  1.00  0.00    -0.500 OA
ATOM     24  H   UNL     1      -1.580   7.772  27.641  1.00  0.00     0.294 HD
ENDBRANCH  10  23
BRANCH   5  25
ATOM     25  O   UNL     1      -3.176  15.684  29.781  1.00  0.00    -0.507 OA
ATOM     26  H   UNL     1      -2.524  16.285  29.291  1.00  0.00     0.293 HD
ENDBRANCH   5  25
BRANCH   7  27
ATOM     27  O   UNL     1      -4.858  11.274  30.900  1.00  0.00    -0.507 OA
ATOM     28  H   UNL     1      -4.948  11.425  31.897  1.00  0.00     0.293 HD
ENDBRANCH   7  27
TORSDOF 7
ENDMDL
MODEL 2
REMARK VINA RESULT:    -6.970      1.598      3.529
REMARK INTER + INTRA:          -8.902
REMARK INTER:                  -8.631
REMARK INTRA:                  -0.271
REMARK UNBOUND:                -0.303
REMARK SMILES Oc1cc(O)c2cc(O)c(-c3cc(O)c(O)c(O)c3)[o+]c2c1.[Cl-]
REMARK SMILES IDX 10 1 20 2 21 3 22 4 2 5 3 6 4 7 6 8 7 9 8 10 11 11 12 12
REMARK SMILES IDX 13 13 19 14 15 15 17 16 14 17 16 19 18 21 9 23 1 25 5 27
REMARK H PARENT 14 18 16 20 18 22 9 24 1 26 5 28
REMARK Flexibility Score: inf
ROOT
ATOM      1  C   UNL     1      -2.371  10.957  25.876  1.00  0.00     0.402 A 
ATOM      2  O   UNL     1      -2.902  10.393  26.961  1.00  0.00    -0.202 OA
ATOM      3  C   UNL     1      -3.079  11.044  28.106  1.00  0.00     0.368 A 
ATOM      4  C   UNL     1      -3.640  10.377  29.199  1.00  0.00     0.162 A 
ATOM      5  C   UNL     1      -3.829  11.048  30.412  1.00  0.00     0.128 A 
ATOM      6  C   UNL     1      -3.457  12.394  30.531  1.00  0.00     0.093 A 
ATOM      7  C   UNL     1      -2.895  13.076  29.442  1.00  0.00     0.136 A 
ATOM      8  C   UNL     1      -2.705  12.399  28.222  1.00  0.00     0.125 A 
ATOM      9  C   UNL     1      -2.156  13.031  27.101  1.00  0.00     0.078 A 
ATOM     10  C   UNL     1      -1.994  12.315  25.910  1.00  0.00     0.223 A 
ENDROOT
BRANCH   1  11
ATOM     11  C   UNL     1      -2.215  10.127  24.660  1.00  0.00     0.091 A 
ATOM     12  C   UNL     1      -0.927   9.799  24.211  1.00  0.00     0.068 A 
ATOM     13  C   UNL     1      -0.751   9.032  23.050  1.00  0.00     0.162 A 
ATOM     14  C   UNL     1      -3.328   9.707  23.912  1.00  0.00     0.068 A 
ATOM     15  C   UNL     1      -1.865   8.599  22.321  1.00  0.00     0.200 A 
ATOM     16  C   UNL     1      -3.158   8.942  22.750  1.00  0.00     0.162 A 
BRANCH  13  17
ATOM     17  O   UNL     1       0.531   8.696  22.617  1.00  0.00    -0.504 OA
ATOM     18  H   UNL     1       0.815   8.820  21.652  1.00  0.00     0.293 HD
ENDBRANCH  13  17
BRANCH  15  19
ATOM     19  O   UNL     1      -1.671   7.833  21.171  1.00  0.00    -0.502 OA
ATOM     20  H   UNL     1      -0.798   7.845  20.657  1.00  0.00     0.293 HD
ENDBRANCH  15  19
BRANCH  16  21
ATOM     21  O   UNL     1      -4.269   8.524  22.018  1.00  0.00    -0.504 OA
ATOM     22  H   UNL     1      -4.722   9.133  21.346  1.00  0.00     0.293 HD
ENDBRANCH  16  21
ENDBRANCH   1  11
BRANCH  10  23
ATOM     23  O   UNL     1      -1.495  12.953  24.774  1.00  0.00    -0.500 OA
ATOM     24  H   UNL     1      -2.013  13.684  24.304  1.00  0.00     0.294 HD
ENDBRANCH  10  23
BRANCH   5  25
ATOM     25  O   UNL     1      -4.388  10.368  31.492  1.00  0.00    -0.507 OA
ATOM     26  H   UNL     1      -3.814  10.003  32.242  1.00  0.00     0.293 HD
ENDBRANCH   5  25
BRANCH   7  27
ATOM     27  O   UNL     1      -2.529  14.417  29.573  1.00  0.00    -0.507 OA
ATOM     28  H   UNL     1      -2.560  14.890  30.467  1.00  0.00     0.293 HD
ENDBRANCH   7  27
TORSDOF 7
ENDMDL
MODEL 3
REMARK VINA RESULT:    -6.907      1.576      3.086
REMARK INTER + INTRA:          -8.825
REMARK INTER:                  -8.504
REMARK INTRA:                  -0.320
REMARK UNBOUND:                -0.303
REMARK SMILES Oc1cc(O)c2cc(O)c(-c3cc(O)c(O)c(O)c3)[o+]c2c1.[Cl-]
REMARK SMILES IDX 10 1 20 2 21 3 22 4 2 5 3 6 4 7 6 8 7 9 8 10 11 11 12 12
REMARK SMILES IDX 13 13 19 14 15 15 17 16 14 17 16 19 18 21 9 23 1 25 5 27
REMARK H PARENT 14 18 16 20 18 22 9 24 1 26 5 28
REMARK Flexibility Score: inf
ROOT
ATOM      1  C   UNL     1      -2.268  11.007  25.833  1.00  0.00     0.402 A 
ATOM      2  O   UNL     1      -2.812  10.421  26.900  1.00  0.00    -0.202 OA
ATOM      3  C   UNL     1      -3.019  11.054  28.050  1.00  0.00     0.368 A 
ATOM      4  C   UNL     1      -3.591  10.365  29.124  1.00  0.00     0.162 A 
ATOM      5  C   UNL     1      -3.812  11.017  30.342  1.00  0.00     0.128 A 
ATOM      6  C   UNL     1      -3.460  12.366  30.486  1.00  0.00     0.093 A 
ATOM      7  C   UNL     1      -2.887  13.070  29.417  1.00  0.00     0.136 A 
ATOM      8  C   UNL     1      -2.665  12.413  28.191  1.00  0.00     0.125 A 
ATOM      9  C   UNL     1      -2.104  13.067  27.089  1.00  0.00     0.078 A 
ATOM     10  C   UNL     1      -1.910  12.370  25.892  1.00  0.00     0.223 A 
ENDROOT
BRANCH   1  11
ATOM     11  C   UNL     1      -2.078  10.196  24.609  1.00  0.00     0.091 A 
ATOM     12  C   UNL     1      -3.201   9.770  23.884  1.00  0.00     0.068 A 
ATOM     13  C   UNL     1      -3.049   8.984  22.732  1.00  0.00     0.162 A 
ATOM     14  C   UNL     1      -0.799   9.796  24.187  1.00  0.00     0.068 A 
ATOM     15  C   UNL     1      -1.770   8.606  22.305  1.00  0.00     0.200 A 
ATOM     16  C   UNL     1      -0.641   9.009  23.038  1.00  0.00     0.162 A 
BRANCH  13  17
ATOM     17  O   UNL     1      -4.168   8.576  22.007  1.00  0.00    -0.504 OA
ATOM     18  H   UNL     1      -5.011   9.136  21.972  1.00  0.00     0.293 HD
ENDBRANCH  13  17
BRANCH  15  19
ATOM     19  O   UNL     1      -1.639   7.827  21.156  1.00  0.00    -0.502 OA
ATOM     20  H   UNL     1      -1.528   8.238  20.236  1.00  0.00     0.293 HD
ENDBRANCH  15  19
BRANCH  16  21
ATOM     21  O   UNL     1       0.633   8.622  22.624  1.00  0.00    -0.504 OA
ATOM     22  H   UNL     1       1.428   9.247  22.699  1.00  0.00     0.293 HD
ENDBRANCH  16  21
ENDBRANCH   1  11
BRANCH  10  23
ATOM     23  O   UNL     1      -1.399  13.029  24.775  1.00  0.00    -0.500 OA
ATOM     24  H   UNL     1      -1.980  13.252  23.977  1.00  0.00     0.294 HD
ENDBRANCH  10  23
BRANCH   5  25
ATOM     25  O   UNL     1      -4.381  10.315  31.402  1.00  0.00    -0.507 OA
ATOM     26  H   UNL     1      -5.384  10.198  31.481  1.00  0.00     0.293 HD
ENDBRANCH   5  25
BRANCH   7  27
ATOM     27  O   UNL     1      -2.542  14.414  29.572  1.00  0.00    -0.507 OA
ATOM     28  H   UNL     1      -3.241  15.124  29.748  1.00  0.00     0.293 HD
ENDBRANCH   7  27
TORSDOF 7
ENDMDL
MODEL 4
REMARK VINA RESULT:    -6.861      1.515      2.149
REMARK INTER + INTRA:          -8.768
REMARK INTER:                  -8.495
REMARK INTRA:                  -0.273
REMARK UNBOUND:                -0.303
REMARK SMILES Oc1cc(O)c2cc(O)c(-c3cc(O)c(O)c(O)c3)[o+]c2c1.[Cl-]
REMARK SMILES IDX 10 1 20 2 21 3 22 4 2 5 3 6 4 7 6 8 7 9 8 10 11 11 12 12
REMARK SMILES IDX 13 13 19 14 15 15 17 16 14 17 16 19 18 21 9 23 1 25 5 27
REMARK H PARENT 14 18 16 20 18 22 9 24 1 26 5 28
REMARK Flexibility Score: inf
ROOT
ATOM      1  C   UNL     1      -2.668  10.800  26.818  1.00  0.00     0.402 A 
ATOM      2  O   UNL     1      -2.822  12.098  27.078  1.00  0.00    -0.202 OA
ATOM      3  C   UNL     1      -2.903  12.588  28.312  1.00  0.00     0.368 A 
ATOM      4  C   UNL     1      -3.069  13.963  28.499  1.00  0.00     0.162 A 
ATOM      5  C   UNL     1      -3.158  14.493  29.790  1.00  0.00     0.128 A 
ATOM      6  C   UNL     1      -3.080  13.642  30.901  1.00  0.00     0.093 A 
ATOM      7  C   UNL     1      -2.912  12.260  30.728  1.00  0.00     0.136 A 
ATOM      8  C   UNL     1      -2.822  11.728  29.427  1.00  0.00     0.125 A 
ATOM      9  C   UNL     1      -2.647  10.360  29.195  1.00  0.00     0.078 A 
ATOM     10  C   UNL     1      -2.556   9.884  27.883  1.00  0.00     0.223 A 
ENDROOT
BRANCH   1  11
ATOM     11  C   UNL     1      -2.601  10.373  25.402  1.00  0.00     0.091 A 
ATOM     12  C   UNL     1      -3.765  10.394  24.620  1.00  0.00     0.068 A 
ATOM     13  C   UNL     1      -3.733   9.975  23.282  1.00  0.00     0.162 A 
ATOM     14  C   UNL     1      -1.407   9.892  24.838  1.00  0.00     0.068 A 
ATOM     15  C   UNL     1      -2.535   9.517  22.720  1.00  0.00     0.200 A 
ATOM     16  C   UNL     1      -1.369   9.470  23.502  1.00  0.00     0.162 A 
BRANCH  13  17
ATOM     17  O   UNL     1      -4.890  10.012  22.505  1.00  0.00    -0.504 OA
ATOM     18  H   UNL     1      -5.352   9.164  22.200  1.00  0.00     0.293 HD
ENDBRANCH  13  17
BRANCH  15  19
ATOM     19  O   UNL     1      -2.522   9.107  21.387  1.00  0.00    -0.502 OA
ATOM     20  H   UNL     1      -1.883   9.504  20.707  1.00  0.00     0.293 HD
ENDBRANCH  15  19
BRANCH  16  21
ATOM     21  O   UNL     1      -0.177   9.001  22.950  1.00  0.00    -0.504 OA
ATOM     22  H   UNL     1       0.392   9.581  22.345  1.00  0.00     0.293 HD
ENDBRANCH  16  21
ENDBRANCH   1  11
BRANCH  10  23
ATOM     23  O   UNL     1      -2.331   8.528  27.646  1.00  0.00    -0.500 OA
ATOM     24  H   UNL     1      -3.031   7.940  27.211  1.00  0.00     0.294 HD
ENDBRANCH  10  23
BRANCH   5  25
ATOM     25  O   UNL     1      -3.325  15.865  29.958  1.00  0.00    -0.507 OA
ATOM     26  H   UNL     1      -2.556  16.462  30.240  1.00  0.00     0.293 HD
ENDBRANCH   5  25
BRANCH   7  27
ATOM     27  O   UNL     1      -2.834  11.422  31.842  1.00  0.00    -0.507 OA
ATOM     28  H   UNL     1      -2.147  10.681  31.902  1.00  0.00     0.293 HD
ENDBRANCH   7  27
TORSDOF 7
ENDMDL
MODEL 5
REMARK VINA RESULT:    -6.841      6.487      8.616
REMARK INTER + INTRA:          -8.743
REMARK INTER:                  -8.625
REMARK INTRA:                  -0.119
REMARK UNBOUND:                -0.303
REMARK SMILES Oc1cc(O)c2cc(O)c(-c3cc(O)c(O)c(O)c3)[o+]c2c1.[Cl-]
REMARK SMILES IDX 10 1 20 2 21 3 22 4 2 5 3 6 4 7 6 8 7 9 8 10 11 11 12 12
REMARK SMILES IDX 13 13 19 14 15 15 17 16 14 17 16 19 18 21 9 23 1 25 5 27
REMARK H PARENT 14 18 16 20 18 22 9 24 1 26 5 28
REMARK Flexibility Score: inf
ROOT
ATOM      1  C   UNL     1       2.744  15.704  24.862  1.00  0.00     0.402 A 
ATOM      2  O   UNL     1       1.525  15.343  25.262  1.00  0.00    -0.202 OA
ATOM      3  C   UNL     1       1.188  14.083  25.521  1.00  0.00     0.368 A 
ATOM      4  C   UNL     1      -0.116  13.788  25.932  1.00  0.00     0.162 A 
ATOM      5  C   UNL     1      -0.486  12.467  26.205  1.00  0.00     0.128 A 
ATOM      6  C   UNL     1       0.453  11.436  26.067  1.00  0.00     0.093 A 
ATOM      7  C   UNL     1       1.765  11.717  25.657  1.00  0.00     0.136 A 
ATOM      8  C   UNL     1       2.136  13.047  25.383  1.00  0.00     0.125 A 
ATOM      9  C   UNL     1       3.431  13.388  24.978  1.00  0.00     0.078 A 
ATOM     10  C   UNL     1       3.750  14.726  24.724  1.00  0.00     0.223 A 
ENDROOT
BRANCH   1  11
ATOM     11  C   UNL     1       2.998  17.137  24.595  1.00  0.00     0.091 A 
ATOM     12  C   UNL     1       2.607  18.095  25.543  1.00  0.00     0.068 A 
ATOM     13  C   UNL     1       2.818  19.461  25.305  1.00  0.00     0.162 A 
ATOM     14  C   UNL     1       3.572  17.566  23.386  1.00  0.00     0.068 A 
ATOM     15  C   UNL     1       3.409  19.880  24.107  1.00  0.00     0.200 A 
ATOM     16  C   UNL     1       3.783  18.930  23.141  1.00  0.00     0.162 A 
BRANCH  13  17
ATOM     17  O   UNL     1       2.440  20.407  26.257  1.00  0.00    -0.504 OA
ATOM     18  H   UNL     1       1.489  20.466  26.599  1.00  0.00     0.293 HD
ENDBRANCH  13  17
BRANCH  15  19
ATOM     19  O   UNL     1       3.614  21.243  23.889  1.00  0.00    -0.502 OA
ATOM     20  H   UNL     1       2.890  21.843  23.512  1.00  0.00     0.293 HD
ENDBRANCH  15  19
BRANCH  16  21
ATOM     21  O   UNL     1       4.359  19.345  21.941  1.00  0.00    -0.504 OA
ATOM     22  H   UNL     1       4.024  19.008  21.046  1.00  0.00     0.293 HD
ENDBRANCH  16  21
ENDBRANCH   1  11
BRANCH  10  23
ATOM     23  O   UNL     1       5.053  15.078  24.369  1.00  0.00    -0.500 OA
ATOM     24  H   UNL     1       5.240  15.767  23.652  1.00  0.00     0.294 HD
ENDBRANCH  10  23
BRANCH   5  25
ATOM     25  O   UNL     1      -1.789  12.190  26.612  1.00  0.00    -0.507 OA
ATOM     26  H   UNL     1      -2.514  12.898  26.585  1.00  0.00     0.293 HD
ENDBRANCH   5  25
BRANCH   7  27
ATOM     27  O   UNL     1       2.691  10.682  25.525  1.00  0.00    -0.507 OA
ATOM     28  H   UNL     1       2.712   9.902  26.171  1.00  0.00     0.293 HD
ENDBRANCH   7  27
TORSDOF 7
ENDMDL
MODEL 6
REMARK VINA RESULT:    -6.698      1.707      7.286
REMARK INTER + INTRA:          -8.566
REMARK INTER:                  -8.183
REMARK INTRA:                  -0.384
REMARK UNBOUND:                -0.303
REMARK SMILES Oc1cc(O)c2cc(O)c(-c3cc(O)c(O)c(O)c3)[o+]c2c1.[Cl-]
REMARK SMILES IDX 10 1 20 2 21 3 22 4 2 5 3 6 4 7 6 8 7 9 8 10 11 11 12 12
REMARK SMILES IDX 13 13 19 14 15 15 17 16 14 17 16 19 18 21 9 23 1 25 5 27
REMARK H PARENT 14 18 16 20 18 22 9 24 1 26 5 28
REMARK Flexibility Score: inf
ROOT
ATOM      1  C   UNL     1      -2.303  11.453  27.211  1.00  0.00     0.402 A 
ATOM      2  O   UNL     1      -3.197  10.660  26.620  1.00  0.00    -0.202 OA
ATOM      3  C   UNL     1      -2.912   9.904  25.564  1.00  0.00     0.368 A 
ATOM      4  C   UNL     1      -3.909   9.103  25.000  1.00  0.00     0.162 A 
ATOM      5  C   UNL     1      -3.625   8.304  23.887  1.00  0.00     0.128 A 
ATOM      6  C   UNL     1      -2.337   8.306  23.336  1.00  0.00     0.093 A 
ATOM      7  C   UNL     1      -1.326   9.104  23.893  1.00  0.00     0.136 A 
ATOM      8  C   UNL     1      -1.613   9.908  25.013  1.00  0.00     0.125 A 
ATOM      9  C   UNL     1      -0.643  10.717  25.614  1.00  0.00     0.078 A 
ATOM     10  C   UNL     1      -0.978  11.491  26.730  1.00  0.00     0.223 A 
ENDROOT
BRANCH   1  11
ATOM     11  C   UNL     1      -2.741  12.257  28.375  1.00  0.00     0.091 A 
ATOM     12  C   UNL     1      -2.664  11.704  29.662  1.00  0.00     0.068 A 
ATOM     13  C   UNL     1      -3.091  12.436  30.779  1.00  0.00     0.162 A 
ATOM     14  C   UNL     1      -3.285  13.543  28.214  1.00  0.00     0.068 A 
ATOM     15  C   UNL     1      -3.613  13.725  30.614  1.00  0.00     0.200 A 
ATOM     16  C   UNL     1      -3.715  14.278  29.326  1.00  0.00     0.162 A 
BRANCH  13  17
ATOM     17  O   UNL     1      -2.998  11.887  32.057  1.00  0.00    -0.504 OA
ATOM     18  H   UNL     1      -2.219  11.298  32.327  1.00  0.00     0.293 HD
ENDBRANCH  13  17
BRANCH  15  19
ATOM     19  O   UNL     1      -4.029  14.440  31.737  1.00  0.00    -0.502 OA
ATOM     20  H   UNL     1      -3.740  15.397  31.905  1.00  0.00     0.293 HD
ENDBRANCH  15  19
BRANCH  16  21
ATOM     21  O   UNL     1      -4.248  15.556  29.157  1.00  0.00    -0.504 OA
ATOM     22  H   UNL     1      -4.391  16.180  29.942  1.00  0.00     0.293 HD
ENDBRANCH  16  21
ENDBRANCH   1  11
BRANCH  10  23
ATOM     23  O   UNL     1      -0.003  12.261  27.364  1.00  0.00    -0.500 OA
ATOM     24  H   UNL     1       0.390  11.991  28.257  1.00  0.00     0.294 HD
ENDBRANCH  10  23
BRANCH   5  25
ATOM     25  O   UNL     1      -4.631   7.513  23.337  1.00  0.00    -0.507 OA
ATOM     26  H   UNL     1      -4.903   6.633  23.759  1.00  0.00     0.293 HD
ENDBRANCH   5  25
BRANCH   7  27
ATOM     27  O   UNL     1      -0.046   9.097  23.337  1.00  0.00    -0.507 OA
ATOM     28  H   UNL     1       0.561   9.906  23.390  1.00  0.00     0.293 HD
ENDBRANCH   7  27
TORSDOF 7
ENDMDL
MODEL 7
REMARK VINA RESULT:    -6.648      1.395      7.150
REMARK INTER + INTRA:          -8.505
REMARK INTER:                  -8.124
REMARK INTRA:                  -0.381
REMARK UNBOUND:                -0.303
REMARK SMILES Oc1cc(O)c2cc(O)c(-c3cc(O)c(O)c(O)c3)[o+]c2c1.[Cl-]
REMARK SMILES IDX 10 1 20 2 21 3 22 4 2 5 3 6 4 7 6 8 7 9 8 10 11 11 12 12
REMARK SMILES IDX 13 13 19 14 15 15 17 16 14 17 16 19 18 21 9 23 1 25 5 27
REMARK H PARENT 14 18 16 20 18 22 9 24 1 26 5 28
REMARK Flexibility Score: inf
ROOT
ATOM      1  C   UNL     1      -2.750  11.525  27.257  1.00  0.00     0.402 A 
ATOM      2  O   UNL     1      -1.486  11.188  27.005  1.00  0.00    -0.202 OA
ATOM      3  C   UNL     1      -1.107  10.566  25.893  1.00  0.00     0.368 A 
ATOM      4  C   UNL     1       0.240  10.244  25.707  1.00  0.00     0.162 A 
ATOM      5  C   UNL     1       0.654   9.586  24.544  1.00  0.00     0.128 A 
ATOM      6  C   UNL     1      -0.286   9.250  23.560  1.00  0.00     0.093 A 
ATOM      7  C   UNL     1      -1.642   9.569  23.733  1.00  0.00     0.136 A 
ATOM      8  C   UNL     1      -2.056  10.231  24.904  1.00  0.00     0.125 A 
ATOM      9  C   UNL     1      -3.393  10.580  25.127  1.00  0.00     0.078 A 
ATOM     10  C   UNL     1      -3.751  11.243  26.304  1.00  0.00     0.223 A 
ENDROOT
BRANCH   1  11
ATOM     11  C   UNL     1      -3.052  12.207  28.536  1.00  0.00     0.091 A 
ATOM     12  C   UNL     1      -3.454  11.447  29.644  1.00  0.00     0.068 A 
ATOM     13  C   UNL     1      -3.765  12.070  30.862  1.00  0.00     0.162 A 
ATOM     14  C   UNL     1      -2.999  13.607  28.650  1.00  0.00     0.068 A 
ATOM     15  C   UNL     1      -3.690  13.464  30.974  1.00  0.00     0.200 A 
ATOM     16  C   UNL     1      -3.311  14.236  29.863  1.00  0.00     0.162 A 
BRANCH  13  17
ATOM     17  O   UNL     1      -4.149  11.308  31.964  1.00  0.00    -0.504 OA
ATOM     18  H   UNL     1      -3.488  11.050  32.687  1.00  0.00     0.293 HD
ENDBRANCH  13  17
BRANCH  15  19
ATOM     19  O   UNL     1      -4.000  14.066  32.193  1.00  0.00    -0.502 OA
ATOM     20  H   UNL     1      -4.439  14.978  32.249  1.00  0.00     0.293 HD
ENDBRANCH  15  19
BRANCH  16  21
ATOM     21  O   UNL     1      -3.250  15.625  29.967  1.00  0.00    -0.504 OA
ATOM     22  H   UNL     1      -3.889  16.225  29.458  1.00  0.00     0.293 HD
ENDBRANCH  16  21
ENDBRANCH   1  11
BRANCH  10  23
ATOM     23  O   UNL     1      -5.073  11.638  26.509  1.00  0.00    -0.500 OA
ATOM     24  H   UNL     1      -5.624  12.055  25.769  1.00  0.00     0.294 HD
ENDBRANCH  10  23
BRANCH   5  25
ATOM     25  O   UNL     1       2.000   9.271  24.375  1.00  0.00    -0.507 OA
ATOM     26  H   UNL     1       2.297   8.538  23.742  1.00  0.00     0.293 HD
ENDBRANCH   5  25
BRANCH   7  27
ATOM     27  O   UNL     1      -2.569   9.230  22.745  1.00  0.00    -0.507 OA
ATOM     28  H   UNL     1      -3.475   8.843  22.978  1.00  0.00     0.293 HD
ENDBRANCH   7  27
TORSDOF 7
ENDMDL
MODEL 8
REMARK VINA RESULT:    -6.647      8.438     10.149
REMARK INTER + INTRA:          -8.505
REMARK INTER:                  -8.552
REMARK INTRA:                   0.048
REMARK UNBOUND:                -0.303
REMARK SMILES Oc1cc(O)c2cc(O)c(-c3cc(O)c(O)c(O)c3)[o+]c2c1.[Cl-]
REMARK SMILES IDX 10 1 20 2 21 3 22 4 2 5 3 6 4 7 6 8 7 9 8 10 11 11 12 12
REMARK SMILES IDX 13 13 19 14 15 15 17 16 14 17 16 19 18 21 9 23 1 25 5 27
REMARK H PARENT 14 18 16 20 18 22 9 24 1 26 5 28
REMARK Flexibility Score: inf
ROOT
ATOM      1  C   UNL     1       2.885  17.757  24.352  1.00  0.00     0.402 A 
ATOM      2  O   UNL     1       3.555  18.194  23.286  1.00  0.00    -0.202 OA
ATOM      3  C   UNL     1       3.658  19.482  22.971  1.00  0.00     0.368 A 
ATOM      4  C   UNL     1       4.376  19.858  21.831  1.00  0.00     0.162 A 
ATOM      5  C   UNL     1       4.491  21.208  21.485  1.00  0.00     0.128 A 
ATOM      6  C   UNL     1       3.886  22.188  22.283  1.00  0.00     0.093 A 
ATOM      7  C   UNL     1       3.164  21.825  23.430  1.00  0.00     0.136 A 
ATOM      8  C   UNL     1       3.049  20.466  23.778  1.00  0.00     0.125 A 
ATOM      9  C   UNL     1       2.348  20.046  24.914  1.00  0.00     0.078 A 
ATOM     10  C   UNL     1       2.270  18.684  25.218  1.00  0.00     0.223 A 
ENDROOT
BRANCH   1  11
ATOM     11  C   UNL     1       2.832  16.297  24.595  1.00  0.00     0.091 A 
ATOM     12  C   UNL     1       3.951  15.507  24.294  1.00  0.00     0.068 A 
ATOM     13  C   UNL     1       3.919  14.120  24.496  1.00  0.00     0.162 A 
ATOM     14  C   UNL     1       1.663  15.676  25.069  1.00  0.00     0.068 A 
ATOM     15  C   UNL     1       2.759  13.510  24.988  1.00  0.00     0.200 A 
ATOM     16  C   UNL     1       1.625  14.290  25.271  1.00  0.00     0.162 A 
BRANCH  13  17
ATOM     17  O   UNL     1       5.040  13.341  24.209  1.00  0.00    -0.504 OA
ATOM     18  H   UNL     1       5.826  13.714  23.691  1.00  0.00     0.293 HD
ENDBRANCH  13  17
BRANCH  15  19
ATOM     19  O   UNL     1       2.747  12.129  25.186  1.00  0.00    -0.502 OA
ATOM     20  H   UNL     1       3.514  11.535  24.892  1.00  0.00     0.293 HD
ENDBRANCH  15  19
BRANCH  16  21
ATOM     21  O   UNL     1       0.463  13.684  25.747  1.00  0.00    -0.504 OA
ATOM     22  H   UNL     1       0.198  12.747  25.465  1.00  0.00     0.293 HD
ENDBRANCH  16  21
ENDBRANCH   1  11
BRANCH  10  23
ATOM     23  O   UNL     1       1.616  18.263  26.376  1.00  0.00    -0.500 OA
ATOM     24  H   UNL     1       1.981  18.469  27.297  1.00  0.00     0.294 HD
ENDBRANCH  10  23
BRANCH   5  25
ATOM     25  O   UNL     1       5.208  21.565  20.345  1.00  0.00    -0.507 OA
ATOM     26  H   UNL     1       6.082  22.075  20.407  1.00  0.00     0.293 HD
ENDBRANCH   5  25
BRANCH   7  27
ATOM     27  O   UNL     1       2.567  22.810  24.218  1.00  0.00    -0.507 OA
ATOM     28  H   UNL     1       3.104  23.573  24.613  1.00  0.00     0.293 HD
ENDBRANCH   7  27
TORSDOF 7
ENDMDL
MODEL 9
REMARK VINA RESULT:    -6.589      7.578      9.127
REMARK INTER + INTRA:          -8.432
REMARK INTER:                  -8.258
REMARK INTRA:                  -0.174
REMARK UNBOUND:                -0.303
REMARK SMILES Oc1cc(O)c2cc(O)c(-c3cc(O)c(O)c(O)c3)[o+]c2c1.[Cl-]
REMARK SMILES IDX 10 1 20 2 21 3 22 4 2 5 3 6 4 7 6 8 7 9 8 10 11 11 12 12
REMARK SMILES IDX 13 13 19 14 15 15 17 16 14 17 16 19 18 21 9 23 1 25 5 27
REMARK H PARENT 14 18 16 20 18 22 9 24 1 26 5 28
REMARK Flexibility Score: inf
ROOT
ATOM      1  C   UNL     1       2.369  17.488  25.165  1.00  0.00     0.402 A 
ATOM      2  O   UNL     1       2.551  18.162  24.029  1.00  0.00    -0.202 OA
ATOM      3  C   UNL     1       2.475  19.487  23.950  1.00  0.00     0.368 A 
ATOM      4  C   UNL     1       2.675  20.117  22.718  1.00  0.00     0.162 A 
ATOM      5  C   UNL     1       2.595  21.510  22.617  1.00  0.00     0.128 A 
ATOM      6  C   UNL     1       2.315  22.277  23.756  1.00  0.00     0.093 A 
ATOM      7  C   UNL     1       2.113  21.658  24.999  1.00  0.00     0.136 A 
ATOM      8  C   UNL     1       2.194  20.256  25.099  1.00  0.00     0.125 A 
ATOM      9  C   UNL     1       2.010  19.586  26.313  1.00  0.00     0.078 A 
ATOM     10  C   UNL     1       2.107  18.192  26.359  1.00  0.00     0.223 A 
ENDROOT
BRANCH   1  11
ATOM     11  C   UNL     1       2.469  16.012  25.128  1.00  0.00     0.091 A 
ATOM     12  C   UNL     1       1.372  15.237  25.531  1.00  0.00     0.068 A 
ATOM     13  C   UNL     1       1.447  13.836  25.524  1.00  0.00     0.162 A 
ATOM     14  C   UNL     1       3.660  15.368  24.749  1.00  0.00     0.068 A 
ATOM     15  C   UNL     1       2.630  13.200  25.127  1.00  0.00     0.200 A 
ATOM     16  C   UNL     1       3.742  13.969  24.743  1.00  0.00     0.162 A 
BRANCH  13  17
ATOM     17  O   UNL     1       0.349  13.071  25.913  1.00  0.00    -0.504 OA
ATOM     18  H   UNL     1       0.402  12.419  26.686  1.00  0.00     0.293 HD
ENDBRANCH  13  17
BRANCH  15  19
ATOM     19  O   UNL     1       2.686  11.807  25.123  1.00  0.00    -0.502 OA
ATOM     20  H   UNL     1       2.706  11.266  25.980  1.00  0.00     0.293 HD
ENDBRANCH  15  19
BRANCH  16  21
ATOM     21  O   UNL     1       4.926  13.339  24.360  1.00  0.00    -0.504 OA
ATOM     22  H   UNL     1       5.212  12.455  24.764  1.00  0.00     0.293 HD
ENDBRANCH  16  21
ENDBRANCH   1  11
BRANCH  10  23
ATOM     23  O   UNL     1       1.975  17.522  27.575  1.00  0.00    -0.500 OA
ATOM     24  H   UNL     1       1.067  17.332  27.981  1.00  0.00     0.294 HD
ENDBRANCH  10  23
BRANCH   5  25
ATOM     25  O   UNL     1       2.796  22.121  21.382  1.00  0.00    -0.507 OA
ATOM     26  H   UNL     1       3.003  23.110  21.308  1.00  0.00     0.293 HD
ENDBRANCH   5  25
BRANCH   7  27
ATOM     27  O   UNL     1       1.836  22.433  26.127  1.00  0.00    -0.507 OA
ATOM     28  H   UNL     1       1.897  23.444  26.104  1.00  0.00     0.293 HD
ENDBRANCH   7  27
TORSDOF 7
ENDMDL
