MODEL 1
REMARK VINA RESULT:    -6.518      0.000      0.000
REMARK INTER + INTRA:         -16.820
REMARK INTER:                 -14.901
REMARK INTRA:                  -1.919
REMARK UNBOUND:                -1.919
REMARK SMILES CCCCCCCCCCCCCCCCCCCCCCCC(=O)[O-]
REMARK SMILES IDX 13 1 14 2 15 3 16 4 17 5 18 6 19 7 20 8 21 9 22 10 23 11
REMARK SMILES IDX 24 12 25 13 26 14 12 15 11 16 10 17 9 18 8 19 7 20 6 21 5 22
REMARK SMILES IDX 4 23 3 24 2 25 1 26
REMARK H PARENT
REMARK Flexibility Score: inf
ROOT
ATOM      1  C   UNL     1       8.719  14.517   2.960  1.00  0.00     0.000 C 
ENDROOT
BRANCH   1   2
ATOM      2  C   UNL     1       8.381  13.967   1.562  1.00  0.00     0.000 C 
BRANCH   2   3
ATOM      3  C   UNL     1       9.593  13.950   0.616  1.00  0.00     0.000 C 
BRANCH   3   4
ATOM      4  C   UNL     1      10.933  13.910   1.370  1.00  0.00     0.000 C 
BRANCH   4   5
ATOM      5  C   UNL     1      11.912  15.027   0.951  1.00  0.00     0.000 C 
BRANCH   5   6
ATOM      6  C   UNL     1      11.181  16.276   0.433  1.00  0.00     0.000 C 
BRANCH   6   7
ATOM      7  C   UNL     1      11.622  17.527   1.210  1.00  0.00     0.000 C 
BRANCH   7   8
ATOM      8  C   UNL     1      10.790  17.766   2.483  1.00  0.00     0.000 C 
BRANCH   8   9
ATOM      9  C   UNL     1      11.312  18.886   3.407  1.00  0.00     0.000 C 
BRANCH   9  10
ATOM     10  C   UNL     1      12.833  19.118   3.360  1.00  0.00     0.006 C 
BRANCH  10  11
ATOM     11  C   UNL     1      13.270  20.364   4.143  1.00  0.00     0.053 C 
BRANCH  11  12
ATOM     12  C   UNL     1      13.503  20.029   5.584  1.00  0.00     0.041 C 
ATOM     13  O   UNL     1      12.675  20.391   6.462  1.00  0.00    -0.550 OA
ATOM     14  O   UNL     1      14.612  19.278   5.955  1.00  0.00    -0.550 OA
ENDBRANCH  11  12
ENDBRANCH  10  11
ENDBRANCH   9  10
ENDBRANCH   8   9
ENDBRANCH   7   8
ENDBRANCH   6   7
ENDBRANCH   5   6
ENDBRANCH   4   5
ENDBRANCH   3   4
ENDBRANCH   2   3
ENDBRANCH   1   2
BRANCH   1  15
ATOM     15  C   UNL     1       7.781  15.626   3.480  1.00  0.00     0.000 C 
BRANCH  15  16
ATOM     16  C   UNL     1       6.314  15.206   3.690  1.00  0.00     0.000 C 
BRANCH  16  17
ATOM     17  C   UNL     1       5.472  16.297   4.373  1.00  0.00     0.000 C 
BRANCH  17  18
ATOM     18  C   UNL     1       4.236  15.732   5.098  1.00  0.00    -0.000 C 
BRANCH  18  19
ATOM     19  C   UNL     1       3.458  14.655   4.321  1.00  0.00    -0.000 C 
BRANCH  19  20
ATOM     20  C   UNL     1       2.357  15.242   3.425  1.00  0.00    -0.000 C 
BRANCH  20  21
ATOM     21  C   UNL     1       1.732  14.151   2.542  1.00  0.00    -0.000 C 
BRANCH  21  22
ATOM     22  C   UNL     1       2.515  13.924   1.238  1.00  0.00    -0.000 C 
BRANCH  22  23
ATOM     23  C   UNL     1       3.933  13.378   1.485  1.00  0.00    -0.000 C 
BRANCH  23  24
ATOM     24  C   UNL     1       4.863  13.602   0.273  1.00  0.00    -0.000 C 
BRANCH  24  25
ATOM     25  C   UNL     1       5.577  14.964   0.292  1.00  0.00    -0.003 C 
ATOM     26  C   UNL     1       4.653  16.116   0.684  1.00  0.00     0.004 C 
ENDBRANCH  24  25
ENDBRANCH  23  24
ENDBRANCH  22  23
ENDBRANCH  21  22
ENDBRANCH  20  21
ENDBRANCH  19  20
ENDBRANCH  18  19
ENDBRANCH  17  18
ENDBRANCH  16  17
ENDBRANCH  15  16
ENDBRANCH   1  15
TORSDOF 22
ENDMDL
MODEL 2
REMARK VINA RESULT:    -6.472      1.446      3.129
REMARK INTER + INTRA:         -16.715
REMARK INTER:                 -14.679
REMARK INTRA:                  -2.037
REMARK UNBOUND:                -1.919
REMARK SMILES CCCCCCCCCCCCCCCCCCCCCCCC(=O)[O-]
REMARK SMILES IDX 13 1 14 2 15 3 16 4 17 5 18 6 19 7 20 8 21 9 22 10 23 11
REMARK SMILES IDX 24 12 25 13 26 14 12 15 11 16 10 17 9 18 8 19 7 20 6 21 5 22
REMARK SMILES IDX 4 23 3 24 2 25 1 26
REMARK H PARENT
REMARK Flexibility Score: inf
ROOT
ATOM      1  C   UNL     1      10.714  14.166   1.328  1.00  0.00     0.000 C 
ENDROOT
BRANCH   1   2
ATOM      2  C   UNL     1      11.765  15.127   0.742  1.00  0.00     0.000 C 
BRANCH   2   3
ATOM      3  C   UNL     1      11.197  16.523   0.439  1.00  0.00     0.000 C 
BRANCH   3   4
ATOM      4  C   UNL     1      11.748  17.605   1.384  1.00  0.00     0.000 C 
BRANCH   4   5
ATOM      5  C   UNL     1      10.752  18.030   2.483  1.00  0.00     0.000 C 
BRANCH   5   6
ATOM      6  C   UNL     1      11.415  18.901   3.562  1.00  0.00     0.000 C 
BRANCH   6   7
ATOM      7  C   UNL     1      12.929  19.006   3.324  1.00  0.00     0.000 C 
BRANCH   7   8
ATOM      8  C   UNL     1      13.592  20.119   4.155  1.00  0.00     0.000 C 
BRANCH   8   9
ATOM      9  C   UNL     1      13.793  19.790   5.649  1.00  0.00     0.000 C 
BRANCH   9  10
ATOM     10  C   UNL     1      12.934  20.614   6.624  1.00  0.00     0.006 C 
BRANCH  10  11
ATOM     11  C   UNL     1      13.609  20.821   7.987  1.00  0.00     0.053 C 
BRANCH  11  12
ATOM     12  C   UNL     1      12.640  21.392   8.976  1.00  0.00     0.041 C 
ATOM     13  O   UNL     1      11.784  22.241   8.608  1.00  0.00    -0.550 OA
ATOM     14  O   UNL     1      12.652  20.957  10.296  1.00  0.00    -0.550 OA
ENDBRANCH  11  12
ENDBRANCH  10  11
ENDBRANCH   9  10
ENDBRANCH   8   9
ENDBRANCH   7   8
ENDBRANCH   6   7
ENDBRANCH   5   6
ENDBRANCH   4   5
ENDBRANCH   3   4
ENDBRANCH   2   3
ENDBRANCH   1   2
BRANCH   1  15
ATOM     15  C   UNL     1       9.356  14.807   1.683  1.00  0.00     0.000 C 
BRANCH  15  16
ATOM     16  C   UNL     1       8.734  14.344   3.013  1.00  0.00     0.000 C 
BRANCH  16  17
ATOM     17  C   UNL     1       7.828  15.410   3.652  1.00  0.00     0.000 C 
BRANCH  17  18
ATOM     18  C   UNL     1       6.330  15.146   3.408  1.00  0.00    -0.000 C 
BRANCH  18  19
ATOM     19  C   UNL     1       5.445  16.403   3.356  1.00  0.00    -0.000 C 
BRANCH  19  20
ATOM     20  C   UNL     1       4.245  16.332   4.313  1.00  0.00    -0.000 C 
BRANCH  20  21
ATOM     21  C   UNL     1       3.513  14.989   4.171  1.00  0.00    -0.000 C 
BRANCH  21  22
ATOM     22  C   UNL     1       2.386  15.035   3.126  1.00  0.00    -0.000 C 
BRANCH  22  23
ATOM     23  C   UNL     1       2.507  13.920   2.073  1.00  0.00    -0.000 C 
BRANCH  23  24
ATOM     24  C   UNL     1       3.475  14.300   0.931  1.00  0.00    -0.000 C 
BRANCH  24  25
ATOM     25  C   UNL     1       4.647  13.318   0.768  1.00  0.00    -0.003 C 
ATOM     26  C   UNL     1       5.909  13.982   0.222  1.00  0.00     0.004 C 
ENDBRANCH  24  25
ENDBRANCH  23  24
ENDBRANCH  22  23
ENDBRANCH  21  22
ENDBRANCH  20  21
ENDBRANCH  19  20
ENDBRANCH  18  19
ENDBRANCH  17  18
ENDBRANCH  16  17
ENDBRANCH  15  16
ENDBRANCH   1  15
TORSDOF 22
ENDMDL
MODEL 3
REMARK VINA RESULT:    -6.456      1.478      3.678
REMARK INTER + INTRA:         -16.679
REMARK INTER:                 -14.725
REMARK INTRA:                  -1.954
REMARK UNBOUND:                -1.919
REMARK SMILES CCCCCCCCCCCCCCCCCCCCCCCC(=O)[O-]
REMARK SMILES IDX 13 1 14 2 15 3 16 4 17 5 18 6 19 7 20 8 21 9 22 10 23 11
REMARK SMILES IDX 24 12 25 13 26 14 12 15 11 16 10 17 9 18 8 19 7 20 6 21 5 22
REMARK SMILES IDX 4 23 3 24 2 25 1 26
REMARK H PARENT
REMARK Flexibility Score: inf
ROOT
ATOM      1  C   UNL     1      10.843  14.317   0.107  1.00  0.00     0.000 C 
ENDROOT
BRANCH   1   2
ATOM      2  C   UNL     1      11.000  15.500  -0.866  1.00  0.00     0.000 C 
BRANCH   2   3
ATOM      3  C   UNL     1      11.404  16.806  -0.161  1.00  0.00     0.000 C 
BRANCH   3   4
ATOM      4  C   UNL     1      11.162  16.759   1.357  1.00  0.00     0.000 C 
BRANCH   4   5
ATOM      5  C   UNL     1      11.348  18.122   2.055  1.00  0.00     0.000 C 
BRANCH   5   6
ATOM      6  C   UNL     1      10.506  18.239   3.336  1.00  0.00     0.000 C 
BRANCH   6   7
ATOM      7  C   UNL     1      11.212  19.125   4.374  1.00  0.00     0.000 C 
BRANCH   7   8
ATOM      8  C   UNL     1      12.696  19.367   4.045  1.00  0.00     0.000 C 
BRANCH   8   9
ATOM      9  C   UNL     1      13.549  19.902   5.214  1.00  0.00     0.000 C 
BRANCH   9  10
ATOM     10  C   UNL     1      12.752  20.496   6.389  1.00  0.00     0.006 C 
BRANCH  10  11
ATOM     11  C   UNL     1      13.596  20.664   7.660  1.00  0.00     0.053 C 
BRANCH  11  12
ATOM     12  C   UNL     1      12.778  21.257   8.764  1.00  0.00     0.041 C 
ATOM     13  O   UNL     1      12.799  20.745   9.916  1.00  0.00    -0.550 OA
ATOM     14  O   UNL     1      12.023  22.402   8.536  1.00  0.00    -0.550 OA
ENDBRANCH  11  12
ENDBRANCH  10  11
ENDBRANCH   9  10
ENDBRANCH   8   9
ENDBRANCH   7   8
ENDBRANCH   6   7
ENDBRANCH   5   6
ENDBRANCH   4   5
ENDBRANCH   3   4
ENDBRANCH   2   3
ENDBRANCH   1   2
BRANCH   1  15
ATOM     15  C   UNL     1       9.476  13.603   0.065  1.00  0.00     0.000 C 
BRANCH  15  16
ATOM     16  C   UNL     1       8.317  14.351   0.750  1.00  0.00     0.000 C 
BRANCH  16  17
ATOM     17  C   UNL     1       7.047  13.493   0.882  1.00  0.00     0.000 C 
BRANCH  17  18
ATOM     18  C   UNL     1       5.785  14.213   0.372  1.00  0.00    -0.000 C 
BRANCH  18  19
ATOM     19  C   UNL     1       4.463  13.461   0.608  1.00  0.00    -0.000 C 
BRANCH  19  20
ATOM     20  C   UNL     1       4.017  13.480   2.078  1.00  0.00    -0.000 C 
BRANCH  20  21
ATOM     21  C   UNL     1       2.804  14.402   2.269  1.00  0.00    -0.000 C 
BRANCH  21  22
ATOM     22  C   UNL     1       2.821  15.131   3.623  1.00  0.00    -0.000 C 
BRANCH  22  23
ATOM     23  C   UNL     1       4.085  14.824   4.446  1.00  0.00    -0.000 C 
BRANCH  23  24
ATOM     24  C   UNL     1       5.022  16.047   4.553  1.00  0.00    -0.000 C 
BRANCH  24  25
ATOM     25  C   UNL     1       6.024  16.155   3.390  1.00  0.00    -0.003 C 
ATOM     26  C   UNL     1       7.460  15.850   3.813  1.00  0.00     0.004 C 
ENDBRANCH  24  25
ENDBRANCH  23  24
ENDBRANCH  22  23
ENDBRANCH  21  22
ENDBRANCH  20  21
ENDBRANCH  19  20
ENDBRANCH  18  19
ENDBRANCH  17  18
ENDBRANCH  16  17
ENDBRANCH  15  16
ENDBRANCH   1  15
TORSDOF 22
ENDMDL
MODEL 4
REMARK VINA RESULT:    -6.446      1.402      3.269
REMARK INTER + INTRA:         -16.655
REMARK INTER:                 -14.475
REMARK INTRA:                  -2.180
REMARK UNBOUND:                -1.919
REMARK SMILES CCCCCCCCCCCCCCCCCCCCCCCC(=O)[O-]
REMARK SMILES IDX 13 1 14 2 15 3 16 4 17 5 18 6 19 7 20 8 21 9 22 10 23 11
REMARK SMILES IDX 24 12 25 13 26 14 12 15 11 16 10 17 9 18 8 19 7 20 6 21 5 22
REMARK SMILES IDX 4 23 3 24 2 25 1 26
REMARK H PARENT
REMARK Flexibility Score: inf
ROOT
ATOM      1  C   UNL     1      10.545  13.948   0.168  1.00  0.00     0.000 C 
ENDROOT
BRANCH   1   2
ATOM      2  C   UNL     1      11.068  14.897  -0.927  1.00  0.00     0.000 C 
BRANCH   2   3
ATOM      3  C   UNL     1      11.340  16.318  -0.408  1.00  0.00     0.000 C 
BRANCH   3   4
ATOM      4  C   UNL     1      11.309  16.405   1.128  1.00  0.00     0.000 C 
BRANCH   4   5
ATOM      5  C   UNL     1      11.412  17.846   1.669  1.00  0.00     0.000 C 
BRANCH   5   6
ATOM      6  C   UNL     1      10.589  18.046   2.951  1.00  0.00     0.000 C 
BRANCH   6   7
ATOM      7  C   UNL     1      11.133  19.228   3.769  1.00  0.00     0.000 C 
BRANCH   7   8
ATOM      8  C   UNL     1      12.651  19.422   3.605  1.00  0.00     0.000 C 
BRANCH   8   9
ATOM      9  C   UNL     1      13.342  20.189   4.752  1.00  0.00     0.000 C 
BRANCH   9  10
ATOM     10  C   UNL     1      12.763  19.931   6.155  1.00  0.00     0.006 C 
BRANCH  10  11
ATOM     11  C   UNL     1      13.659  20.472   7.278  1.00  0.00     0.053 C 
BRANCH  11  12
ATOM     12  C   UNL     1      12.888  21.394   8.171  1.00  0.00     0.041 C 
ATOM     13  O   UNL     1      12.430  20.979   9.270  1.00  0.00    -0.550 OA
ATOM     14  O   UNL     1      12.709  22.726   7.812  1.00  0.00    -0.550 OA
ENDBRANCH  11  12
ENDBRANCH  10  11
ENDBRANCH   9  10
ENDBRANCH   8   9
ENDBRANCH   7   8
ENDBRANCH   6   7
ENDBRANCH   5   6
ENDBRANCH   4   5
ENDBRANCH   3   4
ENDBRANCH   2   3
ENDBRANCH   1   2
BRANCH   1  15
ATOM     15  C   UNL     1       9.030  13.659   0.125  1.00  0.00     0.000 C 
BRANCH  15  16
ATOM     16  C   UNL     1       8.188  14.386   1.189  1.00  0.00     0.000 C 
BRANCH  16  17
ATOM     17  C   UNL     1       8.785  14.278   2.602  1.00  0.00     0.000 C 
BRANCH  17  18
ATOM     18  C   UNL     1       8.038  15.142   3.635  1.00  0.00    -0.000 C 
BRANCH  18  19
ATOM     19  C   UNL     1       6.693  15.715   3.157  1.00  0.00    -0.000 C 
BRANCH  19  20
ATOM     20  C   UNL     1       5.742  16.058   4.313  1.00  0.00    -0.000 C 
BRANCH  20  21
ATOM     21  C   UNL     1       4.307  16.252   3.801  1.00  0.00    -0.000 C 
BRANCH  21  22
ATOM     22  C   UNL     1       3.466  14.968   3.893  1.00  0.00    -0.000 C 
BRANCH  22  23
ATOM     23  C   UNL     1       2.471  14.826   2.727  1.00  0.00    -0.000 C 
BRANCH  23  24
ATOM     24  C   UNL     1       2.767  13.584   1.858  1.00  0.00    -0.000 C 
BRANCH  24  25
ATOM     25  C   UNL     1       4.243  13.150   1.891  1.00  0.00    -0.003 C 
ATOM     26  C   UNL     1       4.942  13.316   0.543  1.00  0.00     0.004 C 
ENDBRANCH  24  25
ENDBRANCH  23  24
ENDBRANCH  22  23
ENDBRANCH  21  22
ENDBRANCH  20  21
ENDBRANCH  19  20
ENDBRANCH  18  19
ENDBRANCH  17  18
ENDBRANCH  16  17
ENDBRANCH  15  16
ENDBRANCH   1  15
TORSDOF 22
ENDMDL
MODEL 5
REMARK VINA RESULT:    -6.434      4.679     10.271
REMARK INTER + INTRA:         -16.629
REMARK INTER:                 -14.419
REMARK INTRA:                  -2.210
REMARK UNBOUND:                -1.919
REMARK SMILES CCCCCCCCCCCCCCCCCCCCCCCC(=O)[O-]
REMARK SMILES IDX 13 1 14 2 15 3 16 4 17 5 18 6 19 7 20 8 21 9 22 10 23 11
REMARK SMILES IDX 24 12 25 13 26 14 12 15 11 16 10 17 9 18 8 19 7 20 6 21 5 22
REMARK SMILES IDX 4 23 3 24 2 25 1 26
REMARK H PARENT
REMARK Flexibility Score: inf
ROOT
ATOM      1  C   UNL     1       8.072  14.381   2.994  1.00  0.00     0.000 C 
ENDROOT
BRANCH   1   2
ATOM      2  C   UNL     1       7.717  15.732   3.643  1.00  0.00     0.000 C 
BRANCH   2   3
ATOM      3  C   UNL     1       6.268  16.167   3.365  1.00  0.00     0.000 C 
BRANCH   3   4
ATOM      4  C   UNL     1       5.290  15.704   4.458  1.00  0.00     0.000 C 
BRANCH   4   5
ATOM      5  C   UNL     1       4.079  14.919   3.912  1.00  0.00     0.000 C 
BRANCH   5   6
ATOM      6  C   UNL     1       4.144  14.735   2.387  1.00  0.00     0.000 C 
BRANCH   6   7
ATOM      7  C   UNL     1       3.386  13.469   1.958  1.00  0.00     0.000 C 
BRANCH   7   8
ATOM      8  C   UNL     1       2.187  13.770   1.041  1.00  0.00     0.000 C 
BRANCH   8   9
ATOM      9  C   UNL     1       0.987  14.450   1.732  1.00  0.00     0.000 C 
BRANCH   9  10
ATOM     10  C   UNL     1      -0.065  13.488   2.314  1.00  0.00     0.006 C 
BRANCH  10  11
ATOM     11  C   UNL     1      -1.447  14.139   2.469  1.00  0.00     0.053 C 
BRANCH  11  12
ATOM     12  C   UNL     1      -1.861  14.163   3.908  1.00  0.00     0.041 C 
ATOM     13  O   UNL     1      -0.991  14.189   4.819  1.00  0.00    -0.550 OA
ATOM     14  O   UNL     1      -3.209  14.200   4.245  1.00  0.00    -0.550 OA
ENDBRANCH  11  12
ENDBRANCH  10  11
ENDBRANCH   9  10
ENDBRANCH   8   9
ENDBRANCH   7   8
ENDBRANCH   6   7
ENDBRANCH   5   6
ENDBRANCH   4   5
ENDBRANCH   3   4
ENDBRANCH   2   3
ENDBRANCH   1   2
BRANCH   1  15
ATOM     15  C   UNL     1       7.748  14.262   1.491  1.00  0.00     0.000 C 
BRANCH  15  16
ATOM     16  C   UNL     1       8.884  14.668   0.535  1.00  0.00     0.000 C 
BRANCH  16  17
ATOM     17  C   UNL     1      10.232  14.021   0.899  1.00  0.00     0.000 C 
BRANCH  17  18
ATOM     18  C   UNL     1      11.302  15.054   1.297  1.00  0.00    -0.000 C 
BRANCH  18  19
ATOM     19  C   UNL     1      11.278  16.364   0.489  1.00  0.00    -0.000 C 
BRANCH  19  20
ATOM     20  C   UNL     1      11.626  17.598   1.336  1.00  0.00    -0.000 C 
BRANCH  20  21
ATOM     21  C   UNL     1      10.725  17.679   2.577  1.00  0.00    -0.000 C 
BRANCH  21  22
ATOM     22  C   UNL     1      10.926  18.981   3.371  1.00  0.00    -0.000 C 
BRANCH  22  23
ATOM     23  C   UNL     1      11.287  18.726   4.846  1.00  0.00    -0.000 C 
BRANCH  23  24
ATOM     24  C   UNL     1      12.444  19.628   5.326  1.00  0.00    -0.000 C 
BRANCH  24  25
ATOM     25  C   UNL     1      13.426  20.016   4.207  1.00  0.00    -0.003 C 
ATOM     26  C   UNL     1      14.569  19.015   4.045  1.00  0.00     0.004 C 
ENDBRANCH  24  25
ENDBRANCH  23  24
ENDBRANCH  22  23
ENDBRANCH  21  22
ENDBRANCH  20  21
ENDBRANCH  19  20
ENDBRANCH  18  19
ENDBRANCH  17  18
ENDBRANCH  16  17
ENDBRANCH  15  16
ENDBRANCH   1  15
TORSDOF 22
ENDMDL
MODEL 6
REMARK VINA RESULT:    -6.298      2.864      9.203
REMARK INTER + INTRA:         -16.317
REMARK INTER:                 -14.767
REMARK INTRA:                  -1.549
REMARK UNBOUND:                -1.919
REMARK SMILES CCCCCCCCCCCCCCCCCCCCCCCC(=O)[O-]
REMARK SMILES IDX 13 1 14 2 15 3 16 4 17 5 18 6 19 7 20 8 21 9 22 10 23 11
REMARK SMILES IDX 24 12 25 13 26 14 12 15 11 16 10 17 9 18 8 19 7 20 6 21 5 22
REMARK SMILES IDX 4 23 3 24 2 25 1 26
REMARK H PARENT
REMARK Flexibility Score: inf
ROOT
ATOM      1  C   UNL     1      11.056  13.876   1.118  1.00  0.00     0.000 C 
ENDROOT
BRANCH   1   2
ATOM      2  C   UNL     1       9.534  14.086   1.007  1.00  0.00     0.000 C 
BRANCH   2   3
ATOM      3  C   UNL     1       8.901  14.577   2.319  1.00  0.00     0.000 C 
BRANCH   3   4
ATOM      4  C   UNL     1       7.368  14.449   2.321  1.00  0.00     0.000 C 
BRANCH   4   5
ATOM      5  C   UNL     1       6.818  13.580   1.171  1.00  0.00     0.000 C 
BRANCH   5   6
ATOM      6  C   UNL     1       5.713  14.296   0.379  1.00  0.00     0.000 C 
BRANCH   6   7
ATOM      7  C   UNL     1       4.463  13.410   0.264  1.00  0.00     0.000 C 
BRANCH   7   8
ATOM      8  C   UNL     1       3.530  13.527   1.482  1.00  0.00     0.000 C 
BRANCH   8   9
ATOM      9  C   UNL     1       3.399  14.946   2.073  1.00  0.00     0.000 C 
BRANCH   9  10
ATOM     10  C   UNL     1       2.848  15.010   3.509  1.00  0.00     0.006 C 
BRANCH  10  11
ATOM     11  C   UNL     1       3.912  14.700   4.571  1.00  0.00     0.053 C 
BRANCH  11  12
ATOM     12  C   UNL     1       4.623  15.949   4.989  1.00  0.00     0.041 C 
ATOM     13  O   UNL     1       5.743  16.240   4.490  1.00  0.00    -0.550 OA
ATOM     14  O   UNL     1       4.031  16.818   5.899  1.00  0.00    -0.550 OA
ENDBRANCH  11  12
ENDBRANCH  10  11
ENDBRANCH   9  10
ENDBRANCH   8   9
ENDBRANCH   7   8
ENDBRANCH   6   7
ENDBRANCH   5   6
ENDBRANCH   4   5
ENDBRANCH   3   4
ENDBRANCH   2   3
ENDBRANCH   1   2
BRANCH   1  15
ATOM     15  C   UNL     1      11.923  15.078   0.691  1.00  0.00     0.000 C 
BRANCH  15  16
ATOM     16  C   UNL     1      11.153  16.378   0.393  1.00  0.00     0.000 C 
BRANCH  16  17
ATOM     17  C   UNL     1      11.665  17.577   1.209  1.00  0.00     0.000 C 
BRANCH  17  18
ATOM     18  C   UNL     1      10.957  17.720   2.569  1.00  0.00    -0.000 C 
BRANCH  18  19
ATOM     19  C   UNL     1      11.048  19.117   3.209  1.00  0.00    -0.000 C 
BRANCH  19  20
ATOM     20  C   UNL     1      11.759  19.107   4.571  1.00  0.00    -0.000 C 
BRANCH  20  21
ATOM     21  C   UNL     1      13.199  19.625   4.439  1.00  0.00    -0.000 C 
BRANCH  21  22
ATOM     22  C   UNL     1      13.870  19.863   5.802  1.00  0.00    -0.000 C 
BRANCH  22  23
ATOM     23  C   UNL     1      12.929  20.537   6.817  1.00  0.00    -0.000 C 
BRANCH  23  24
ATOM     24  C   UNL     1      13.491  20.487   8.254  1.00  0.00    -0.000 C 
BRANCH  24  25
ATOM     25  C   UNL     1      12.537  21.078   9.307  1.00  0.00    -0.003 C 
ATOM     26  C   UNL     1      11.885  22.382   8.852  1.00  0.00     0.004 C 
ENDBRANCH  24  25
ENDBRANCH  23  24
ENDBRANCH  22  23
ENDBRANCH  21  22
ENDBRANCH  20  21
ENDBRANCH  19  20
ENDBRANCH  18  19
ENDBRANCH  17  18
ENDBRANCH  16  17
ENDBRANCH  15  16
ENDBRANCH   1  15
TORSDOF 22
ENDMDL
MODEL 7
REMARK VINA RESULT:    -6.171      4.324     10.378
REMARK INTER + INTRA:         -16.026
REMARK INTER:                 -14.898
REMARK INTRA:                  -1.128
REMARK UNBOUND:                -1.919
REMARK SMILES CCCCCCCCCCCCCCCCCCCCCCCC(=O)[O-]
REMARK SMILES IDX 13 1 14 2 15 3 16 4 17 5 18 6 19 7 20 8 21 9 22 10 23 11
REMARK SMILES IDX 24 12 25 13 26 14 12 15 11 16 10 17 9 18 8 19 7 20 6 21 5 22
REMARK SMILES IDX 4 23 3 24 2 25 1 26
REMARK H PARENT
REMARK Flexibility Score: inf
ROOT
ATOM      1  C   UNL     1       7.321  14.264   2.128  1.00  0.00     0.000 C 
ENDROOT
BRANCH   1   2
ATOM      2  C   UNL     1       6.961  13.904   0.675  1.00  0.00     0.000 C 
BRANCH   2   3
ATOM      3  C   UNL     1       5.483  14.165   0.341  1.00  0.00     0.000 C 
BRANCH   3   4
ATOM      4  C   UNL     1       4.534  13.182   1.048  1.00  0.00     0.000 C 
BRANCH   4   5
ATOM      5  C   UNL     1       4.154  13.609   2.481  1.00  0.00     0.000 C 
BRANCH   5   6
ATOM      6  C   UNL     1       2.839  14.403   2.522  1.00  0.00     0.000 C 
BRANCH   6   7
ATOM      7  C   UNL     1       1.875  13.918   1.428  1.00  0.00     0.000 C 
BRANCH   7   8
ATOM      8  C   UNL     1       0.404  13.919   1.881  1.00  0.00     0.000 C 
BRANCH   8   9
ATOM      9  C   UNL     1       0.139  14.585   3.247  1.00  0.00     0.000 C 
BRANCH   9  10
ATOM     10  C   UNL     1      -0.781  13.795   4.195  1.00  0.00     0.006 C 
BRANCH  10  11
ATOM     11  C   UNL     1      -1.521  14.693   5.196  1.00  0.00     0.053 C 
BRANCH  11  12
ATOM     12  C   UNL     1      -0.766  14.780   6.486  1.00  0.00     0.041 C 
ATOM     13  O   UNL     1       0.191  13.994   6.716  1.00  0.00    -0.550 OA
ATOM     14  O   UNL     1      -1.091  15.759   7.419  1.00  0.00    -0.550 OA
ENDBRANCH  11  12
ENDBRANCH  10  11
ENDBRANCH   9  10
ENDBRANCH   8   9
ENDBRANCH   7   8
ENDBRANCH   6   7
ENDBRANCH   5   6
ENDBRANCH   4   5
ENDBRANCH   3   4
ENDBRANCH   2   3
ENDBRANCH   1   2
BRANCH   1  15
ATOM     15  C   UNL     1       8.754  14.793   2.344  1.00  0.00     0.000 C 
BRANCH  15  16
ATOM     16  C   UNL     1       9.877  13.917   1.761  1.00  0.00     0.000 C 
BRANCH  16  17
ATOM     17  C   UNL     1      10.566  14.559   0.544  1.00  0.00     0.000 C 
BRANCH  17  18
ATOM     18  C   UNL     1      11.679  15.547   0.940  1.00  0.00    -0.000 C 
BRANCH  18  19
ATOM     19  C   UNL     1      11.355  17.031   0.689  1.00  0.00    -0.000 C 
BRANCH  19  20
ATOM     20  C   UNL     1      11.963  17.964   1.747  1.00  0.00    -0.000 C 
BRANCH  20  21
ATOM     21  C   UNL     1      10.911  18.365   2.791  1.00  0.00    -0.000 C 
BRANCH  21  22
ATOM     22  C   UNL     1      11.521  19.098   3.997  1.00  0.00    -0.000 C 
BRANCH  22  23
ATOM     23  C   UNL     1      13.041  19.303   3.859  1.00  0.00    -0.000 C 
BRANCH  23  24
ATOM     24  C   UNL     1      13.717  19.579   5.220  1.00  0.00    -0.000 C 
BRANCH  24  25
ATOM     25  C   UNL     1      12.849  20.413   6.178  1.00  0.00    -0.003 C 
ATOM     26  C   UNL     1      13.494  20.607   7.549  1.00  0.00     0.004 C 
ENDBRANCH  24  25
ENDBRANCH  23  24
ENDBRANCH  22  23
ENDBRANCH  21  22
ENDBRANCH  20  21
ENDBRANCH  19  20
ENDBRANCH  18  19
ENDBRANCH  17  18
ENDBRANCH  16  17
ENDBRANCH  15  16
ENDBRANCH   1  15
TORSDOF 22
ENDMDL
MODEL 8
REMARK VINA RESULT:    -6.093      2.257      3.748
REMARK INTER + INTRA:         -15.848
REMARK INTER:                 -14.342
REMARK INTRA:                  -1.506
REMARK UNBOUND:                -1.919
REMARK SMILES CCCCCCCCCCCCCCCCCCCCCCCC(=O)[O-]
REMARK SMILES IDX 13 1 14 2 15 3 16 4 17 5 18 6 19 7 20 8 21 9 22 10 23 11
REMARK SMILES IDX 24 12 25 13 26 14 12 15 11 16 10 17 9 18 8 19 7 20 6 21 5 22
REMARK SMILES IDX 4 23 3 24 2 25 1 26
REMARK H PARENT
REMARK Flexibility Score: inf
ROOT
ATOM      1  C   UNL     1       7.989  15.280   3.643  1.00  0.00     0.000 C 
ENDROOT
BRANCH   1   2
ATOM      2  C   UNL     1       8.794  14.284   2.787  1.00  0.00     0.000 C 
BRANCH   2   3
ATOM      3  C   UNL     1       8.350  14.264   1.315  1.00  0.00     0.000 C 
BRANCH   3   4
ATOM      4  C   UNL     1       9.488  13.871   0.358  1.00  0.00     0.000 C 
BRANCH   4   5
ATOM      5  C   UNL     1      10.875  13.825   1.033  1.00  0.00     0.000 C 
BRANCH   5   6
ATOM      6  C   UNL     1      11.791  14.964   0.557  1.00  0.00     0.000 C 
BRANCH   6   7
ATOM      7  C   UNL     1      11.015  16.288   0.470  1.00  0.00     0.000 C 
BRANCH   7   8
ATOM      8  C   UNL     1      11.622  17.397   1.348  1.00  0.00     0.000 C 
BRANCH   8   9
ATOM      9  C   UNL     1      10.812  17.748   2.614  1.00  0.00     0.000 C 
BRANCH   9  10
ATOM     10  C   UNL     1      11.150  19.107   3.252  1.00  0.00     0.006 C 
BRANCH  10  11
ATOM     11  C   UNL     1      11.265  19.037   4.782  1.00  0.00     0.053 C 
BRANCH  11  12
ATOM     12  C   UNL     1      12.608  19.521   5.234  1.00  0.00     0.041 C 
ATOM     13  O   UNL     1      12.713  20.218   6.278  1.00  0.00    -0.550 OA
ATOM     14  O   UNL     1      13.751  19.167   4.526  1.00  0.00    -0.550 OA
ENDBRANCH  11  12
ENDBRANCH  10  11
ENDBRANCH   9  10
ENDBRANCH   8   9
ENDBRANCH   7   8
ENDBRANCH   6   7
ENDBRANCH   5   6
ENDBRANCH   4   5
ENDBRANCH   3   4
ENDBRANCH   2   3
ENDBRANCH   1   2
BRANCH   1  15
ATOM     15  C   UNL     1       6.549  15.553   3.162  1.00  0.00     0.000 C 
BRANCH  15  16
ATOM     16  C   UNL     1       5.583  16.090   4.234  1.00  0.00     0.000 C 
BRANCH  16  17
ATOM     17  C   UNL     1       4.283  15.273   4.332  1.00  0.00     0.000 C 
BRANCH  17  18
ATOM     18  C   UNL     1       4.110  14.283   3.166  1.00  0.00    -0.000 C 
BRANCH  18  19
ATOM     19  C   UNL     1       3.194  14.768   2.028  1.00  0.00    -0.000 C 
BRANCH  19  20
ATOM     20  C   UNL     1       2.006  13.827   1.773  1.00  0.00    -0.000 C 
BRANCH  20  21
ATOM     21  C   UNL     1       0.681  14.509   2.142  1.00  0.00    -0.000 C 
BRANCH  21  22
ATOM     22  C   UNL     1      -0.478  13.510   2.294  1.00  0.00    -0.000 C 
BRANCH  22  23
ATOM     23  C   UNL     1      -1.482  13.928   3.383  1.00  0.00    -0.000 C 
BRANCH  23  24
ATOM     24  C   UNL     1      -2.921  14.042   2.835  1.00  0.00    -0.000 C 
BRANCH  24  25
ATOM     25  C   UNL     1      -3.789  15.058   3.597  1.00  0.00    -0.003 C 
ATOM     26  C   UNL     1      -5.064  15.434   2.844  1.00  0.00     0.004 C 
ENDBRANCH  24  25
ENDBRANCH  23  24
ENDBRANCH  22  23
ENDBRANCH  21  22
ENDBRANCH  20  21
ENDBRANCH  19  20
ENDBRANCH  18  19
ENDBRANCH  17  18
ENDBRANCH  16  17
ENDBRANCH  15  16
ENDBRANCH   1  15
TORSDOF 22
ENDMDL
MODEL 9
REMARK VINA RESULT:    -6.085      1.735      3.404
REMARK INTER + INTRA:         -15.831
REMARK INTER:                 -13.814
REMARK INTRA:                  -2.017
REMARK UNBOUND:                -1.919
REMARK SMILES CCCCCCCCCCCCCCCCCCCCCCCC(=O)[O-]
REMARK SMILES IDX 13 1 14 2 15 3 16 4 17 5 18 6 19 7 20 8 21 9 22 10 23 11
REMARK SMILES IDX 24 12 25 13 26 14 12 15 11 16 10 17 9 18 8 19 7 20 6 21 5 22
REMARK SMILES IDX 4 23 3 24 2 25 1 26
REMARK H PARENT
REMARK Flexibility Score: inf
ROOT
ATOM      1  C   UNL     1       7.234  14.680   3.256  1.00  0.00     0.000 C 
ENDROOT
BRANCH   1   2
ATOM      2  C   UNL     1       8.528  14.937   2.461  1.00  0.00     0.000 C 
BRANCH   2   3
ATOM      3  C   UNL     1       8.537  14.241   1.090  1.00  0.00     0.000 C 
BRANCH   3   4
ATOM      4  C   UNL     1       9.663  14.750   0.175  1.00  0.00     0.000 C 
BRANCH   4   5
ATOM      5  C   UNL     1      11.062  14.229   0.567  1.00  0.00     0.000 C 
BRANCH   5   6
ATOM      6  C   UNL     1      12.004  15.363   1.002  1.00  0.00     0.000 C 
BRANCH   6   7
ATOM      7  C   UNL     1      11.346  16.734   0.778  1.00  0.00     0.000 C 
BRANCH   7   8
ATOM      8  C   UNL     1      11.712  17.760   1.866  1.00  0.00     0.000 C 
BRANCH   8   9
ATOM      9  C   UNL     1      10.593  18.064   2.884  1.00  0.00     0.000 C 
BRANCH   9  10
ATOM     10  C   UNL     1      10.877  19.236   3.840  1.00  0.00     0.006 C 
BRANCH  10  11
ATOM     11  C   UNL     1      11.860  18.869   4.960  1.00  0.00     0.053 C 
BRANCH  11  12
ATOM     12  C   UNL     1      13.082  19.731   4.896  1.00  0.00     0.041 C 
ATOM     13  O   UNL     1      13.198  20.602   3.992  1.00  0.00    -0.550 OA
ATOM     14  O   UNL     1      14.077  19.606   5.859  1.00  0.00    -0.550 OA
ENDBRANCH  11  12
ENDBRANCH  10  11
ENDBRANCH   9  10
ENDBRANCH   8   9
ENDBRANCH   7   8
ENDBRANCH   6   7
ENDBRANCH   5   6
ENDBRANCH   4   5
ENDBRANCH   3   4
ENDBRANCH   2   3
ENDBRANCH   1   2
BRANCH   1  15
ATOM     15  C   UNL     1       6.395  15.934   3.579  1.00  0.00     0.000 C 
BRANCH  15  16
ATOM     16  C   UNL     1       5.061  16.052   2.820  1.00  0.00     0.000 C 
BRANCH  16  17
ATOM     17  C   UNL     1       5.246  16.149   1.296  1.00  0.00     0.000 C 
BRANCH  17  18
ATOM     18  C   UNL     1       4.520  15.024   0.533  1.00  0.00    -0.000 C 
BRANCH  18  19
ATOM     19  C   UNL     1       4.480  13.666   1.255  1.00  0.00    -0.000 C 
BRANCH  19  20
ATOM     20  C   UNL     1       3.132  13.390   1.939  1.00  0.00    -0.000 C 
BRANCH  20  21
ATOM     21  C   UNL     1       1.989  14.101   1.200  1.00  0.00    -0.000 C 
BRANCH  21  22
ATOM     22  C   UNL     1       0.601  13.670   1.701  1.00  0.00    -0.000 C 
BRANCH  22  23
ATOM     23  C   UNL     1       0.094  14.539   2.865  1.00  0.00    -0.000 C 
BRANCH  23  24
ATOM     24  C   UNL     1      -0.792  13.740   3.846  1.00  0.00    -0.000 C 
BRANCH  24  25
ATOM     25  C   UNL     1      -2.084  14.474   4.243  1.00  0.00    -0.003 C 
ATOM     26  C   UNL     1      -3.211  14.286   3.229  1.00  0.00     0.004 C 
ENDBRANCH  24  25
ENDBRANCH  23  24
ENDBRANCH  22  23
ENDBRANCH  21  22
ENDBRANCH  20  21
ENDBRANCH  19  20
ENDBRANCH  18  19
ENDBRANCH  17  18
ENDBRANCH  16  17
ENDBRANCH  15  16
ENDBRANCH   1  15
TORSDOF 22
ENDMDL
