MODEL 1
REMARK VINA RESULT:    -3.054      0.000      0.000
REMARK INTER + INTRA:          -5.720
REMARK INTER:                  -5.196
REMARK INTRA:                  -0.525
REMARK UNBOUND:                -0.525
REMARK SMILES CCCCCCCCCCCCCC(=O)[O-]
REMARK SMILES IDX 8 1 9 2 10 3 11 4 12 5 13 6 14 7 15 8 16 9 7 10 6 11 5 12
REMARK SMILES IDX 4 13 3 14 2 15 1 16
REMARK H PARENT
REMARK Flexibility Score: inf
ROOT
ATOM      1  C   UNL     1       4.319  14.093  16.518  1.00  0.00     0.000 C 
ENDROOT
BRANCH   1   2
ATOM      2  C   UNL     1       2.798  14.057  16.299  1.00  0.00     0.000 C 
BRANCH   2   3
ATOM      3  C   UNL     1       2.415  13.674  14.862  1.00  0.00     0.000 C 
BRANCH   3   4
ATOM      4  C   UNL     1       3.560  13.989  13.888  1.00  0.00     0.000 C 
BRANCH   4   5
ATOM      5  C   UNL     1       3.655  12.977  12.731  1.00  0.00     0.006 C 
BRANCH   5   6
ATOM      6  C   UNL     1       3.965  13.607  11.364  1.00  0.00     0.053 C 
BRANCH   6   7
ATOM      7  C   UNL     1       3.713  12.654  10.236  1.00  0.00     0.041 C 
ATOM      8  O   UNL     1       4.626  11.880   9.845  1.00  0.00    -0.550 OA
ATOM      9  O   UNL     1       2.481  12.646   9.594  1.00  0.00    -0.550 OA
ENDBRANCH   6   7
ENDBRANCH   5   6
ENDBRANCH   4   5
ENDBRANCH   3   4
ENDBRANCH   2   3
ENDBRANCH   1   2
BRANCH   1  10
ATOM     10  C   UNL     1       4.700  14.431  17.968  1.00  0.00     0.000 C 
BRANCH  10  11
ATOM     11  C   UNL     1       5.835  13.526  18.463  1.00  0.00    -0.000 C 
BRANCH  11  12
ATOM     12  C   UNL     1       5.933  13.548  19.993  1.00  0.00    -0.000 C 
BRANCH  12  13
ATOM     13  C   UNL     1       5.782  14.978  20.533  1.00  0.00    -0.000 C 
BRANCH  13  14
ATOM     14  C   UNL     1       7.132  15.627  20.878  1.00  0.00    -0.000 C 
BRANCH  14  15
ATOM     15  C   UNL     1       6.975  16.916  21.698  1.00  0.00    -0.003 C 
ATOM     16  C   UNL     1       5.506  17.312  21.821  1.00  0.00     0.004 C 
ENDBRANCH  14  15
ENDBRANCH  13  14
ENDBRANCH  12  13
ENDBRANCH  11  12
ENDBRANCH  10  11
ENDBRANCH   1  10
TORSDOF 12
ENDMDL
MODEL 2
REMARK VINA RESULT:    -3.051      0.939      1.297
REMARK INTER + INTRA:          -5.716
REMARK INTER:                  -5.124
REMARK INTRA:                  -0.592
REMARK UNBOUND:                -0.525
REMARK SMILES CCCCCCCCCCCCCC(=O)[O-]
REMARK SMILES IDX 8 1 9 2 10 3 11 4 12 5 13 6 14 7 15 8 16 9 7 10 6 11 5 12
REMARK SMILES IDX 4 13 3 14 2 15 1 16
REMARK H PARENT
REMARK Flexibility Score: inf
ROOT
ATOM      1  C   UNL     1       4.200  14.087  17.558  1.00  0.00     0.000 C 
ENDROOT
BRANCH   1   2
ATOM      2  C   UNL     1       3.941  14.188  16.046  1.00  0.00     0.000 C 
BRANCH   2   3
ATOM      3  C   UNL     1       2.463  13.980  15.683  1.00  0.00     0.000 C 
BRANCH   3   4
ATOM      4  C   UNL     1       2.323  13.043  14.475  1.00  0.00     0.000 C 
BRANCH   4   5
ATOM      5  C   UNL     1       3.423  13.259  13.420  1.00  0.00     0.006 C 
BRANCH   5   6
ATOM      6  C   UNL     1       3.477  12.176  12.331  1.00  0.00     0.053 C 
BRANCH   6   7
ATOM      7  C   UNL     1       3.772  12.752  10.980  1.00  0.00     0.041 C 
ATOM      8  O   UNL     1       4.152  12.003  10.042  1.00  0.00    -0.550 OA
ATOM      9  O   UNL     1       3.660  14.120  10.767  1.00  0.00    -0.550 OA
ENDBRANCH   6   7
ENDBRANCH   5   6
ENDBRANCH   4   5
ENDBRANCH   3   4
ENDBRANCH   2   3
ENDBRANCH   1   2
BRANCH   1  10
ATOM     10  C   UNL     1       5.698  14.039  17.898  1.00  0.00     0.000 C 
BRANCH  10  11
ATOM     11  C   UNL     1       5.932  13.346  19.247  1.00  0.00    -0.000 C 
BRANCH  11  12
ATOM     12  C   UNL     1       5.697  14.313  20.413  1.00  0.00    -0.000 C 
BRANCH  12  13
ATOM     13  C   UNL     1       6.863  15.303  20.549  1.00  0.00    -0.000 C 
BRANCH  13  14
ATOM     14  C   UNL     1       6.485  16.557  21.354  1.00  0.00    -0.000 C 
BRANCH  14  15
ATOM     15  C   UNL     1       4.965  16.734  21.493  1.00  0.00    -0.003 C 
ATOM     16  C   UNL     1       4.613  17.449  22.794  1.00  0.00     0.004 C 
ENDBRANCH  14  15
ENDBRANCH  13  14
ENDBRANCH  12  13
ENDBRANCH  11  12
ENDBRANCH  10  11
ENDBRANCH   1  10
TORSDOF 12
ENDMDL
MODEL 3
REMARK VINA RESULT:    -2.944      4.967      9.243
REMARK INTER + INTRA:          -5.534
REMARK INTER:                  -5.166
REMARK INTRA:                  -0.368
REMARK UNBOUND:                -0.525
REMARK SMILES CCCCCCCCCCCCCC(=O)[O-]
REMARK SMILES IDX 8 1 9 2 10 3 11 4 12 5 13 6 14 7 15 8 16 9 7 10 6 11 5 12
REMARK SMILES IDX 4 13 3 14 2 15 1 16
REMARK H PARENT
REMARK Flexibility Score: inf
ROOT
ATOM      1  C   UNL     1       4.240  14.095  16.402  1.00  0.00     0.000 C 
ENDROOT
BRANCH   1   2
ATOM      2  C   UNL     1       4.471  14.377  17.895  1.00  0.00     0.000 C 
BRANCH   2   3
ATOM      3  C   UNL     1       5.799  13.802  18.409  1.00  0.00     0.000 C 
BRANCH   3   4
ATOM      4  C   UNL     1       5.851  13.830  19.943  1.00  0.00     0.000 C 
BRANCH   4   5
ATOM      5  C   UNL     1       6.289  15.196  20.502  1.00  0.00     0.006 C 
BRANCH   5   6
ATOM      6  C   UNL     1       5.127  16.136  20.859  1.00  0.00     0.053 C 
BRANCH   6   7
ATOM      7  C   UNL     1       5.501  17.111  21.933  1.00  0.00     0.041 C 
ATOM      8  O   UNL     1       4.667  17.426  22.821  1.00  0.00    -0.550 OA
ATOM      9  O   UNL     1       6.761  17.697  21.931  1.00  0.00    -0.550 OA
ENDBRANCH   6   7
ENDBRANCH   5   6
ENDBRANCH   4   5
ENDBRANCH   3   4
ENDBRANCH   2   3
ENDBRANCH   1   2
BRANCH   1  10
ATOM     10  C   UNL     1       2.749  14.041  16.034  1.00  0.00     0.000 C 
BRANCH  10  11
ATOM     11  C   UNL     1       2.555  13.522  14.604  1.00  0.00    -0.000 C 
BRANCH  11  12
ATOM     12  C   UNL     1       3.739  13.909  13.711  1.00  0.00    -0.000 C 
BRANCH  12  13
ATOM     13  C   UNL     1       3.785  13.036  12.448  1.00  0.00    -0.000 C 
BRANCH  13  14
ATOM     14  C   UNL     1       3.839  13.865  11.155  1.00  0.00    -0.000 C 
BRANCH  14  15
ATOM     15  C   UNL     1       4.726  13.222  10.078  1.00  0.00    -0.003 C 
ATOM     16  C   UNL     1       5.881  14.144   9.698  1.00  0.00     0.004 C 
ENDBRANCH  14  15
ENDBRANCH  13  14
ENDBRANCH  12  13
ENDBRANCH  11  12
ENDBRANCH  10  11
ENDBRANCH   1  10
TORSDOF 12
ENDMDL
MODEL 4
REMARK VINA RESULT:    -2.890      4.621      9.009
REMARK INTER + INTRA:          -5.442
REMARK INTER:                  -4.934
REMARK INTRA:                  -0.508
REMARK UNBOUND:                -0.525
REMARK SMILES CCCCCCCCCCCCCC(=O)[O-]
REMARK SMILES IDX 8 1 9 2 10 3 11 4 12 5 13 6 14 7 15 8 16 9 7 10 6 11 5 12
REMARK SMILES IDX 4 13 3 14 2 15 1 16
REMARK H PARENT
REMARK Flexibility Score: inf
ROOT
ATOM      1  C   UNL     1       4.369  14.294  17.723  1.00  0.00     0.000 C 
ENDROOT
BRANCH   1   2
ATOM      2  C   UNL     1       5.767  13.763  18.083  1.00  0.00     0.000 C 
BRANCH   2   3
ATOM      3  C   UNL     1       5.888  13.367  19.562  1.00  0.00     0.000 C 
BRANCH   3   4
ATOM      4  C   UNL     1       5.801  14.602  20.469  1.00  0.00     0.000 C 
BRANCH   4   5
ATOM      5  C   UNL     1       7.133  15.368  20.565  1.00  0.00     0.006 C 
BRANCH   5   6
ATOM      6  C   UNL     1       7.110  16.558  21.537  1.00  0.00     0.053 C 
BRANCH   6   7
ATOM      7  C   UNL     1       5.858  17.369  21.403  1.00  0.00     0.041 C 
ATOM      8  O   UNL     1       5.698  18.129  20.412  1.00  0.00    -0.550 OA
ATOM      9  O   UNL     1       4.883  17.311  22.391  1.00  0.00    -0.550 OA
ENDBRANCH   6   7
ENDBRANCH   5   6
ENDBRANCH   4   5
ENDBRANCH   3   4
ENDBRANCH   2   3
ENDBRANCH   1   2
BRANCH   1  10
ATOM     10  C   UNL     1       4.072  14.204  16.218  1.00  0.00     0.000 C 
BRANCH  10  11
ATOM     11  C   UNL     1       2.581  13.946  15.968  1.00  0.00    -0.000 C 
BRANCH  11  12
ATOM     12  C   UNL     1       2.343  13.405  14.554  1.00  0.00    -0.000 C 
BRANCH  12  13
ATOM     13  C   UNL     1       3.459  13.853  13.599  1.00  0.00    -0.000 C 
BRANCH  13  14
ATOM     14  C   UNL     1       3.619  12.914  12.392  1.00  0.00    -0.000 C 
BRANCH  14  15
ATOM     15  C   UNL     1       3.953  13.669  11.097  1.00  0.00    -0.003 C 
ATOM     16  C   UNL     1       3.135  13.133   9.924  1.00  0.00     0.004 C 
ENDBRANCH  14  15
ENDBRANCH  13  14
ENDBRANCH  12  13
ENDBRANCH  11  12
ENDBRANCH  10  11
ENDBRANCH   1  10
TORSDOF 12
ENDMDL
MODEL 5
REMARK VINA RESULT:    -2.769      1.230      1.726
REMARK INTER + INTRA:          -5.236
REMARK INTER:                  -4.879
REMARK INTRA:                  -0.358
REMARK UNBOUND:                -0.525
REMARK SMILES CCCCCCCCCCCCCC(=O)[O-]
REMARK SMILES IDX 8 1 9 2 10 3 11 4 12 5 13 6 14 7 15 8 16 9 7 10 6 11 5 12
REMARK SMILES IDX 4 13 3 14 2 15 1 16
REMARK H PARENT
REMARK Flexibility Score: inf
ROOT
ATOM      1  C   UNL     1       2.871  14.091  16.103  1.00  0.00     0.000 C 
ENDROOT
BRANCH   1   2
ATOM      2  C   UNL     1       2.609  14.023  14.590  1.00  0.00     0.000 C 
BRANCH   2   3
ATOM      3  C   UNL     1       3.898  13.862  13.771  1.00  0.00     0.000 C 
BRANCH   3   4
ATOM      4  C   UNL     1       3.599  13.899  12.266  1.00  0.00     0.000 C 
BRANCH   4   5
ATOM      5  C   UNL     1       3.858  12.549  11.571  1.00  0.00     0.006 C 
BRANCH   5   6
ATOM      6  C   UNL     1       4.169  12.660  10.070  1.00  0.00     0.053 C 
BRANCH   6   7
ATOM      7  C   UNL     1       4.785  13.979   9.719  1.00  0.00     0.041 C 
ATOM      8  O   UNL     1       5.980  14.223  10.031  1.00  0.00    -0.550 OA
ATOM      9  O   UNL     1       4.028  14.952   9.078  1.00  0.00    -0.550 OA
ENDBRANCH   6   7
ENDBRANCH   5   6
ENDBRANCH   4   5
ENDBRANCH   3   4
ENDBRANCH   2   3
ENDBRANCH   1   2
BRANCH   1  10
ATOM     10  C   UNL     1       4.369  14.077  16.445  1.00  0.00     0.000 C 
BRANCH  10  11
ATOM     11  C   UNL     1       4.603  14.483  17.905  1.00  0.00    -0.000 C 
BRANCH  11  12
ATOM     12  C   UNL     1       5.786  13.717  18.509  1.00  0.00    -0.000 C 
BRANCH  12  13
ATOM     13  C   UNL     1       5.823  13.876  20.035  1.00  0.00    -0.000 C 
BRANCH  13  14
ATOM     14  C   UNL     1       6.440  15.212  20.478  1.00  0.00    -0.000 C 
BRANCH  14  15
ATOM     15  C   UNL     1       5.385  16.217  20.966  1.00  0.00    -0.003 C 
ATOM     16  C   UNL     1       6.036  17.366  21.731  1.00  0.00     0.004 C 
ENDBRANCH  14  15
ENDBRANCH  13  14
ENDBRANCH  12  13
ENDBRANCH  11  12
ENDBRANCH  10  11
ENDBRANCH   1  10
TORSDOF 12
ENDMDL
MODEL 6
REMARK VINA RESULT:    -2.451      1.561      2.645
REMARK INTER + INTRA:          -4.695
REMARK INTER:                  -4.443
REMARK INTRA:                  -0.252
REMARK UNBOUND:                -0.525
REMARK SMILES CCCCCCCCCCCCCC(=O)[O-]
REMARK SMILES IDX 8 1 9 2 10 3 11 4 12 5 13 6 14 7 15 8 16 9 7 10 6 11 5 12
REMARK SMILES IDX 4 13 3 14 2 15 1 16
REMARK H PARENT
REMARK Flexibility Score: inf
ROOT
ATOM      1  C   UNL     1       5.728  13.746  17.937  1.00  0.00     0.000 C 
ENDROOT
BRANCH   1   2
ATOM      2  C   UNL     1       4.322  14.321  17.698  1.00  0.00     0.000 C 
BRANCH   2   3
ATOM      3  C   UNL     1       3.875  14.203  16.233  1.00  0.00     0.000 C 
BRANCH   3   4
ATOM      4  C   UNL     1       2.377  13.881  16.142  1.00  0.00     0.000 C 
BRANCH   4   5
ATOM      5  C   UNL     1       1.979  13.268  14.786  1.00  0.00     0.006 C 
BRANCH   5   6
ATOM      6  C   UNL     1       3.150  13.073  13.811  1.00  0.00     0.053 C 
BRANCH   6   7
ATOM      7  C   UNL     1       3.346  14.262  12.922  1.00  0.00     0.041 C 
ATOM      8  O   UNL     1       3.026  15.412  13.322  1.00  0.00    -0.550 OA
ATOM      9  O   UNL     1       3.849  14.095  11.638  1.00  0.00    -0.550 OA
ENDBRANCH   6   7
ENDBRANCH   5   6
ENDBRANCH   4   5
ENDBRANCH   3   4
ENDBRANCH   2   3
ENDBRANCH   1   2
BRANCH   1  10
ATOM     10  C   UNL     1       6.061  13.600  19.430  1.00  0.00     0.000 C 
BRANCH  10  11
ATOM     11  C   UNL     1       5.951  14.950  20.151  1.00  0.00    -0.000 C 
BRANCH  11  12
ATOM     12  C   UNL     1       7.240  15.274  20.916  1.00  0.00    -0.000 C 
BRANCH  12  13
ATOM     13  C   UNL     1       7.311  16.767  21.267  1.00  0.00    -0.000 C 
BRANCH  13  14
ATOM     14  C   UNL     1       5.964  17.485  21.081  1.00  0.00    -0.000 C 
BRANCH  14  15
ATOM     15  C   UNL     1       5.176  17.612  22.393  1.00  0.00    -0.003 C 
ATOM     16  C   UNL     1       3.849  16.862  22.311  1.00  0.00     0.004 C 
ENDBRANCH  14  15
ENDBRANCH  13  14
ENDBRANCH  12  13
ENDBRANCH  11  12
ENDBRANCH  10  11
ENDBRANCH   1  10
TORSDOF 12
ENDMDL
MODEL 7
REMARK VINA RESULT:    -2.113      5.048      9.031
REMARK INTER + INTRA:          -4.120
REMARK INTER:                  -4.049
REMARK INTRA:                  -0.071
REMARK UNBOUND:                -0.525
REMARK SMILES CCCCCCCCCCCCCC(=O)[O-]
REMARK SMILES IDX 8 1 9 2 10 3 11 4 12 5 13 6 14 7 15 8 16 9 7 10 6 11 5 12
REMARK SMILES IDX 4 13 3 14 2 15 1 16
REMARK H PARENT
REMARK Flexibility Score: inf
ROOT
ATOM      1  C   UNL     1       5.840  13.564  18.184  1.00  0.00     0.000 C 
ENDROOT
BRANCH   1   2
ATOM      2  C   UNL     1       5.947  13.445  19.713  1.00  0.00     0.000 C 
BRANCH   2   3
ATOM      3  C   UNL     1       5.784  14.796  20.426  1.00  0.00     0.000 C 
BRANCH   3   4
ATOM      4  C   UNL     1       7.151  15.434  20.707  1.00  0.00     0.000 C 
BRANCH   4   5
ATOM      5  C   UNL     1       7.058  16.669  21.624  1.00  0.00     0.006 C 
BRANCH   5   6
ATOM      6  C   UNL     1       5.798  17.521  21.410  1.00  0.00     0.053 C 
BRANCH   6   7
ATOM      7  C   UNL     1       4.749  17.244  22.442  1.00  0.00     0.041 C 
ATOM      8  O   UNL     1       3.656  16.717  22.109  1.00  0.00    -0.550 OA
ATOM      9  O   UNL     1       4.967  17.600  23.768  1.00  0.00    -0.550 OA
ENDBRANCH   6   7
ENDBRANCH   5   6
ENDBRANCH   4   5
ENDBRANCH   3   4
ENDBRANCH   2   3
ENDBRANCH   1   2
BRANCH   1  10
ATOM     10  C   UNL     1       4.532  14.233  17.734  1.00  0.00     0.000 C 
BRANCH  10  11
ATOM     11  C   UNL     1       4.340  14.098  16.218  1.00  0.00    -0.000 C 
BRANCH  11  12
ATOM     12  C   UNL     1       2.907  14.457  15.808  1.00  0.00    -0.000 C 
BRANCH  12  13
ATOM     13  C   UNL     1       2.031  13.199  15.709  1.00  0.00    -0.000 C 
BRANCH  13  14
ATOM     14  C   UNL     1       2.153  12.499  14.346  1.00  0.00    -0.000 C 
BRANCH  14  15
ATOM     15  C   UNL     1       3.130  13.212  13.400  1.00  0.00    -0.003 C 
ATOM     16  C   UNL     1       3.517  12.312  12.230  1.00  0.00     0.004 C 
ENDBRANCH  14  15
ENDBRANCH  13  14
ENDBRANCH  12  13
ENDBRANCH  11  12
ENDBRANCH  10  11
ENDBRANCH   1  10
TORSDOF 12
ENDMDL
MODEL 8
REMARK VINA RESULT:    -1.897      4.335      9.107
REMARK INTER + INTRA:          -3.753
REMARK INTER:                  -3.103
REMARK INTRA:                  -0.650
REMARK UNBOUND:                -0.525
REMARK SMILES CCCCCCCCCCCCCC(=O)[O-]
REMARK SMILES IDX 8 1 9 2 10 3 11 4 12 5 13 6 14 7 15 8 16 9 7 10 6 11 5 12
REMARK SMILES IDX 4 13 3 14 2 15 1 16
REMARK H PARENT
REMARK Flexibility Score: inf
ROOT
ATOM      1  C   UNL     1       3.455  13.971  13.672  1.00  0.00     0.000 C 
ENDROOT
BRANCH   1   2
ATOM      2  C   UNL     1       2.471  14.437  14.757  1.00  0.00     0.000 C 
BRANCH   2   3
ATOM      3  C   UNL     1       2.880  13.978  16.165  1.00  0.00     0.000 C 
BRANCH   3   4
ATOM      4  C   UNL     1       4.388  14.165  16.385  1.00  0.00     0.000 C 
BRANCH   4   5
ATOM      5  C   UNL     1       4.746  14.453  17.855  1.00  0.00     0.006 C 
BRANCH   5   6
ATOM      6  C   UNL     1       5.653  13.396  18.504  1.00  0.00     0.053 C 
BRANCH   6   7
ATOM      7  C   UNL     1       5.811  13.619  19.977  1.00  0.00     0.041 C 
ATOM      8  O   UNL     1       5.601  12.678  20.786  1.00  0.00    -0.550 OA
ATOM      9  O   UNL     1       6.159  14.876  20.456  1.00  0.00    -0.550 OA
ENDBRANCH   6   7
ENDBRANCH   5   6
ENDBRANCH   4   5
ENDBRANCH   3   4
ENDBRANCH   2   3
ENDBRANCH   1   2
BRANCH   1  10
ATOM     10  C   UNL     1       3.000  12.678  12.977  1.00  0.00     0.000 C 
BRANCH  10  11
ATOM     11  C   UNL     1       3.897  12.357  11.774  1.00  0.00    -0.000 C 
BRANCH  11  12
ATOM     12  C   UNL     1       4.270  13.632  11.008  1.00  0.00    -0.000 C 
BRANCH  12  13
ATOM     13  C   UNL     1       4.615  13.314   9.546  1.00  0.00    -0.000 C 
BRANCH  13  14
ATOM     14  C   UNL     1       3.573  12.404   8.875  1.00  0.00    -0.000 C 
BRANCH  14  15
ATOM     15  C   UNL     1       2.160  13.005   8.902  1.00  0.00    -0.003 C 
ATOM     16  C   UNL     1       1.117  11.939   9.229  1.00  0.00     0.004 C 
ENDBRANCH  14  15
ENDBRANCH  13  14
ENDBRANCH  12  13
ENDBRANCH  11  12
ENDBRANCH  10  11
ENDBRANCH   1  10
TORSDOF 12
ENDMDL
MODEL 9
REMARK VINA RESULT:    -1.860      1.848      3.663
REMARK INTER + INTRA:          -3.690
REMARK INTER:                  -2.987
REMARK INTRA:                  -0.702
REMARK UNBOUND:                -0.525
REMARK SMILES CCCCCCCCCCCCCC(=O)[O-]
REMARK SMILES IDX 8 1 9 2 10 3 11 4 12 5 13 6 14 7 15 8 16 9 7 10 6 11 5 12
REMARK SMILES IDX 4 13 3 14 2 15 1 16
REMARK H PARENT
REMARK Flexibility Score: inf
ROOT
ATOM      1  C   UNL     1       6.160  13.500  20.138  1.00  0.00     0.000 C 
ENDROOT
BRANCH   1   2
ATOM      2  C   UNL     1       5.630  13.182  18.731  1.00  0.00     0.000 C 
BRANCH   2   3
ATOM      3  C   UNL     1       4.960  14.392  18.062  1.00  0.00     0.000 C 
BRANCH   3   4
ATOM      4  C   UNL     1       4.594  14.078  16.605  1.00  0.00     0.000 C 
BRANCH   4   5
ATOM      5  C   UNL     1       3.081  14.176  16.333  1.00  0.00     0.006 C 
BRANCH   5   6
ATOM      6  C   UNL     1       2.633  13.537  15.010  1.00  0.00     0.053 C 
BRANCH   6   7
ATOM      7  C   UNL     1       3.168  14.273  13.820  1.00  0.00     0.041 C 
ATOM      8  O   UNL     1       2.927  15.500  13.674  1.00  0.00    -0.550 OA
ATOM      9  O   UNL     1       3.903  13.595  12.856  1.00  0.00    -0.550 OA
ENDBRANCH   6   7
ENDBRANCH   5   6
ENDBRANCH   4   5
ENDBRANCH   3   4
ENDBRANCH   2   3
ENDBRANCH   1   2
BRANCH   1  10
ATOM     10  C   UNL     1       6.103  15.000  20.467  1.00  0.00     0.000 C 
BRANCH  10  11
ATOM     11  C   UNL     1       7.482  15.521  20.891  1.00  0.00    -0.000 C 
BRANCH  11  12
ATOM     12  C   UNL     1       7.480  17.049  21.018  1.00  0.00    -0.000 C 
BRANCH  12  13
ATOM     13  C   UNL     1       6.058  17.580  21.249  1.00  0.00    -0.000 C 
BRANCH  13  14
ATOM     14  C   UNL     1       5.735  17.781  22.739  1.00  0.00    -0.000 C 
BRANCH  14  15
ATOM     15  C   UNL     1       4.285  17.409  23.084  1.00  0.00    -0.003 C 
ATOM     16  C   UNL     1       3.638  16.616  21.952  1.00  0.00     0.004 C 
ENDBRANCH  14  15
ENDBRANCH  13  14
ENDBRANCH  12  13
ENDBRANCH  11  12
ENDBRANCH  10  11
ENDBRANCH   1  10
TORSDOF 12
ENDMDL
