MODEL 1
REMARK VINA RESULT:    -3.867      0.000      0.000
REMARK INTER + INTRA:          -9.886
REMARK INTER:                  -7.485
REMARK INTRA:                  -2.401
REMARK UNBOUND:                -2.401
REMARK SMILES CCCCCCCCCCCCCCCCCC(=O)[O-]
REMARK SMILES IDX 10 1 11 2 12 3 13 4 14 5 15 6 16 7 17 8 18 9 19 10 20 11
REMARK SMILES IDX 9 12 8 13 7 14 6 15 5 16 4 17 3 18 2 19 1 20
REMARK H PARENT
REMARK Flexibility Score: inf
ROOT
ATOM      1  C   UNL     1      -6.988  -0.467   3.122  1.00  0.00     0.000 C 
ENDROOT
BRANCH   1   2
ATOM      2  C   UNL     1      -7.388   1.014   3.108  1.00  0.00     0.000 C 
BRANCH   2   3
ATOM      3  C   UNL     1      -7.900   1.459   4.483  1.00  0.00     0.000 C 
BRANCH   3   4
ATOM      4  C   UNL     1      -7.199   0.684   5.608  1.00  0.00     0.000 C 
BRANCH   4   5
ATOM      5  C   UNL     1      -7.135   1.471   6.929  1.00  0.00     0.000 C 
BRANCH   5   6
ATOM      6  C   UNL     1      -5.716   1.698   7.488  1.00  0.00     0.000 C 
BRANCH   6   7
ATOM      7  C   UNL     1      -4.563   1.338   6.531  1.00  0.00     0.006 C 
BRANCH   7   8
ATOM      8  C   UNL     1      -3.228   1.051   7.241  1.00  0.00     0.053 C 
BRANCH   8   9
ATOM      9  C   UNL     1      -3.164   1.657   8.610  1.00  0.00     0.041 C 
ATOM     10  O   UNL     1      -3.343   0.942   9.631  1.00  0.00    -0.550 OA
ATOM     11  O   UNL     1      -2.940   3.021   8.758  1.00  0.00    -0.550 OA
ENDBRANCH   8   9
ENDBRANCH   7   8
ENDBRANCH   6   7
ENDBRANCH   5   6
ENDBRANCH   4   5
ENDBRANCH   3   4
ENDBRANCH   2   3
ENDBRANCH   1   2
BRANCH   1  12
ATOM     12  C   UNL     1      -8.049  -1.329   2.420  1.00  0.00     0.000 C 
BRANCH  12  13
ATOM     13  C   UNL     1      -8.125  -2.754   2.993  1.00  0.00    -0.000 C 
BRANCH  13  14
ATOM     14  C   UNL     1      -7.581  -2.844   4.430  1.00  0.00    -0.000 C 
BRANCH  14  15
ATOM     15  C   UNL     1      -6.742  -4.109   4.663  1.00  0.00    -0.000 C 
BRANCH  15  16
ATOM     16  C   UNL     1      -5.353  -3.797   5.247  1.00  0.00    -0.000 C 
BRANCH  16  17
ATOM     17  C   UNL     1      -5.322  -2.467   6.016  1.00  0.00    -0.000 C 
BRANCH  17  18
ATOM     18  C   UNL     1      -4.236  -2.441   7.106  1.00  0.00    -0.000 C 
BRANCH  18  19
ATOM     19  C   UNL     1      -4.801  -2.097   8.493  1.00  0.00    -0.003 C 
ATOM     20  C   UNL     1      -6.292  -2.410   8.617  1.00  0.00     0.004 C 
ENDBRANCH  18  19
ENDBRANCH  17  18
ENDBRANCH  16  17
ENDBRANCH  15  16
ENDBRANCH  14  15
ENDBRANCH  13  14
ENDBRANCH  12  13
ENDBRANCH   1  12
TORSDOF 16
ENDMDL
MODEL 2
REMARK VINA RESULT:    -3.816      1.275      2.434
REMARK INTER + INTRA:          -9.786
REMARK INTER:                  -7.134
REMARK INTRA:                  -2.652
REMARK UNBOUND:                -2.401
REMARK SMILES CCCCCCCCCCCCCCCCCC(=O)[O-]
REMARK SMILES IDX 10 1 11 2 12 3 13 4 14 5 15 6 16 7 17 8 18 9 19 10 20 11
REMARK SMILES IDX 9 12 8 13 7 14 6 15 5 16 4 17 3 18 2 19 1 20
REMARK H PARENT
REMARK Flexibility Score: inf
ROOT
ATOM      1  C   UNL     1      -7.353  -2.358   4.547  1.00  0.00     0.000 C 
ENDROOT
BRANCH   1   2
ATOM      2  C   UNL     1      -6.976  -1.120   3.723  1.00  0.00     0.000 C 
BRANCH   2   3
ATOM      3  C   UNL     1      -6.928   0.134   4.604  1.00  0.00     0.000 C 
BRANCH   3   4
ATOM      4  C   UNL     1      -7.080  -0.231   6.088  1.00  0.00     0.000 C 
BRANCH   4   5
ATOM      5  C   UNL     1      -5.987   0.392   6.975  1.00  0.00     0.000 C 
BRANCH   5   6
ATOM      6  C   UNL     1      -4.873   1.137   6.213  1.00  0.00     0.000 C 
BRANCH   6   7
ATOM      7  C   UNL     1      -3.963   2.030   7.079  1.00  0.00     0.006 C 
BRANCH   7   8
ATOM      8  C   UNL     1      -2.818   1.270   7.773  1.00  0.00     0.053 C 
BRANCH   8   9
ATOM      9  C   UNL     1      -2.906   1.340   9.267  1.00  0.00     0.041 C 
ATOM     10  O   UNL     1      -3.736   0.626   9.890  1.00  0.00    -0.550 OA
ATOM     11  O   UNL     1      -2.094   2.221   9.972  1.00  0.00    -0.550 OA
ENDBRANCH   8   9
ENDBRANCH   7   8
ENDBRANCH   6   7
ENDBRANCH   5   6
ENDBRANCH   4   5
ENDBRANCH   3   4
ENDBRANCH   2   3
ENDBRANCH   1   2
BRANCH   1  12
ATOM     12  C   UNL     1      -6.221  -3.396   4.528  1.00  0.00     0.000 C 
BRANCH  12  13
ATOM     13  C   UNL     1      -6.201  -4.272   5.791  1.00  0.00    -0.000 C 
BRANCH  13  14
ATOM     14  C   UNL     1      -7.407  -4.009   6.711  1.00  0.00    -0.000 C 
BRANCH  14  15
ATOM     15  C   UNL     1      -7.029  -4.046   8.199  1.00  0.00    -0.000 C 
BRANCH  15  16
ATOM     16  C   UNL     1      -7.296  -2.707   8.909  1.00  0.00    -0.000 C 
BRANCH  16  17
ATOM     17  C   UNL     1      -6.015  -2.074   9.476  1.00  0.00    -0.000 C 
BRANCH  17  18
ATOM     18  C   UNL     1      -4.898  -3.107   9.702  1.00  0.00    -0.000 C 
BRANCH  18  19
ATOM     19  C   UNL     1      -3.578  -2.704   9.026  1.00  0.00    -0.003 C 
ATOM     20  C   UNL     1      -3.759  -2.326   7.556  1.00  0.00     0.004 C 
ENDBRANCH  18  19
ENDBRANCH  17  18
ENDBRANCH  16  17
ENDBRANCH  15  16
ENDBRANCH  14  15
ENDBRANCH  13  14
ENDBRANCH  12  13
ENDBRANCH   1  12
TORSDOF 16
ENDMDL
MODEL 3
REMARK VINA RESULT:    -3.798      1.295      4.205
REMARK INTER + INTRA:          -9.752
REMARK INTER:                  -7.240
REMARK INTRA:                  -2.512
REMARK UNBOUND:                -2.401
REMARK SMILES CCCCCCCCCCCCCCCCCC(=O)[O-]
REMARK SMILES IDX 10 1 11 2 12 3 13 4 14 5 15 6 16 7 17 8 18 9 19 10 20 11
REMARK SMILES IDX 9 12 8 13 7 14 6 15 5 16 4 17 3 18 2 19 1 20
REMARK H PARENT
REMARK Flexibility Score: inf
ROOT
ATOM      1  C   UNL     1      -4.405  -2.541   7.066  1.00  0.00     0.000 C 
ENDROOT
BRANCH   1   2
ATOM      2  C   UNL     1      -3.615  -2.283   8.354  1.00  0.00     0.000 C 
BRANCH   2   3
ATOM      3  C   UNL     1      -4.556  -1.990   9.529  1.00  0.00     0.000 C 
BRANCH   3   4
ATOM      4  C   UNL     1      -4.574  -0.490   9.858  1.00  0.00     0.000 C 
BRANCH   4   5
ATOM      5  C   UNL     1      -5.956   0.154   9.648  1.00  0.00     0.000 C 
BRANCH   5   6
ATOM      6  C   UNL     1      -6.388   0.313   8.177  1.00  0.00     0.000 C 
BRANCH   6   7
ATOM      7  C   UNL     1      -5.825   1.552   7.454  1.00  0.00     0.006 C 
BRANCH   7   8
ATOM      8  C   UNL     1      -4.483   1.304   6.741  1.00  0.00     0.053 C 
BRANCH   8   9
ATOM      9  C   UNL     1      -3.317   1.844   7.511  1.00  0.00     0.041 C 
ATOM     10  O   UNL     1      -2.229   1.211   7.545  1.00  0.00    -0.550 OA
ATOM     11  O   UNL     1      -3.440   3.033   8.222  1.00  0.00    -0.550 OA
ENDBRANCH   8   9
ENDBRANCH   7   8
ENDBRANCH   6   7
ENDBRANCH   5   6
ENDBRANCH   4   5
ENDBRANCH   3   4
ENDBRANCH   2   3
ENDBRANCH   1   2
BRANCH   1  12
ATOM     12  C   UNL     1      -5.753  -3.211   7.373  1.00  0.00     0.000 C 
BRANCH  12  13
ATOM     13  C   UNL     1      -6.202  -4.173   6.260  1.00  0.00    -0.000 C 
BRANCH  13  14
ATOM     14  C   UNL     1      -5.770  -3.700   4.860  1.00  0.00    -0.000 C 
BRANCH  14  15
ATOM     15  C   UNL     1      -6.962  -3.273   3.991  1.00  0.00    -0.000 C 
BRANCH  15  16
ATOM     16  C   UNL     1      -8.012  -2.472   4.782  1.00  0.00    -0.000 C 
BRANCH  16  17
ATOM     17  C   UNL     1      -7.627  -0.993   4.945  1.00  0.00    -0.000 C 
BRANCH  17  18
ATOM     18  C   UNL     1      -6.862  -0.446   3.727  1.00  0.00    -0.000 C 
BRANCH  18  19
ATOM     19  C   UNL     1      -7.313   0.970   3.336  1.00  0.00    -0.003 C 
ATOM     20  C   UNL     1      -7.994   1.711   4.487  1.00  0.00     0.004 C 
ENDBRANCH  18  19
ENDBRANCH  17  18
ENDBRANCH  16  17
ENDBRANCH  15  16
ENDBRANCH  14  15
ENDBRANCH  13  14
ENDBRANCH  12  13
ENDBRANCH   1  12
TORSDOF 16
ENDMDL
MODEL 4
REMARK VINA RESULT:    -3.779      3.731      5.718
REMARK INTER + INTRA:          -9.715
REMARK INTER:                  -8.685
REMARK INTRA:                  -1.029
REMARK UNBOUND:                -2.401
REMARK SMILES CCCCCCCCCCCCCCCCCC(=O)[O-]
REMARK SMILES IDX 10 1 11 2 12 3 13 4 14 5 15 6 16 7 17 8 18 9 19 10 20 11
REMARK SMILES IDX 9 12 8 13 7 14 6 15 5 16 4 17 3 18 2 19 1 20
REMARK H PARENT
REMARK Flexibility Score: inf
ROOT
ATOM      1  C   UNL     1      -7.382  -3.132   3.879  1.00  0.00     0.000 C 
ENDROOT
BRANCH   1   2
ATOM      2  C   UNL     1      -7.745  -1.765   4.470  1.00  0.00     0.000 C 
BRANCH   2   3
ATOM      3  C   UNL     1      -6.613  -0.753   4.254  1.00  0.00     0.000 C 
BRANCH   3   4
ATOM      4  C   UNL     1      -7.173   0.656   4.011  1.00  0.00     0.000 C 
BRANCH   4   5
ATOM      5  C   UNL     1      -7.345   0.984   2.516  1.00  0.00     0.000 C 
BRANCH   5   6
ATOM      6  C   UNL     1      -7.964   2.363   2.216  1.00  0.00     0.000 C 
BRANCH   6   7
ATOM      7  C   UNL     1      -7.313   3.140   1.055  1.00  0.00     0.006 C 
BRANCH   7   8
ATOM      8  C   UNL     1      -7.689   4.632   1.014  1.00  0.00     0.053 C 
BRANCH   8   9
ATOM      9  C   UNL     1      -6.810   5.420   0.090  1.00  0.00     0.041 C 
ATOM     10  O   UNL     1      -6.730   5.111  -1.128  1.00  0.00    -0.550 OA
ATOM     11  O   UNL     1      -6.051   6.476   0.582  1.00  0.00    -0.550 OA
ENDBRANCH   8   9
ENDBRANCH   7   8
ENDBRANCH   6   7
ENDBRANCH   5   6
ENDBRANCH   4   5
ENDBRANCH   3   4
ENDBRANCH   2   3
ENDBRANCH   1   2
BRANCH   1  12
ATOM     12  C   UNL     1      -6.111  -3.695   4.533  1.00  0.00     0.000 C 
BRANCH  12  13
ATOM     13  C   UNL     1      -6.369  -4.249   5.944  1.00  0.00    -0.000 C 
BRANCH  13  14
ATOM     14  C   UNL     1      -5.832  -3.323   7.050  1.00  0.00    -0.000 C 
BRANCH  14  15
ATOM     15  C   UNL     1      -4.419  -2.803   6.747  1.00  0.00    -0.000 C 
BRANCH  15  16
ATOM     16  C   UNL     1      -3.655  -2.392   8.018  1.00  0.00    -0.000 C 
BRANCH  16  17
ATOM     17  C   UNL     1      -3.847  -0.907   8.366  1.00  0.00    -0.000 C 
BRANCH  17  18
ATOM     18  C   UNL     1      -3.547   0.021   7.176  1.00  0.00    -0.000 C 
BRANCH  18  19
ATOM     19  C   UNL     1      -3.333   1.480   7.607  1.00  0.00    -0.003 C 
ATOM     20  C   UNL     1      -2.081   1.665   8.466  1.00  0.00     0.004 C 
ENDBRANCH  18  19
ENDBRANCH  17  18
ENDBRANCH  16  17
ENDBRANCH  15  16
ENDBRANCH  14  15
ENDBRANCH  13  14
ENDBRANCH  12  13
ENDBRANCH   1  12
TORSDOF 16
ENDMDL
MODEL 5
REMARK VINA RESULT:    -3.736      2.877      5.709
REMARK INTER + INTRA:          -9.633
REMARK INTER:                  -6.873
REMARK INTRA:                  -2.759
REMARK UNBOUND:                -2.401
REMARK SMILES CCCCCCCCCCCCCCCCCC(=O)[O-]
REMARK SMILES IDX 10 1 11 2 12 3 13 4 14 5 15 6 16 7 17 8 18 9 19 10 20 11
REMARK SMILES IDX 9 12 8 13 7 14 6 15 5 16 4 17 3 18 2 19 1 20
REMARK H PARENT
REMARK Flexibility Score: inf
ROOT
ATOM      1  C   UNL     1      -8.125  -2.111   7.959  1.00  0.00     0.000 C 
ENDROOT
BRANCH   1   2
ATOM      2  C   UNL     1      -8.016  -3.364   8.836  1.00  0.00     0.000 C 
BRANCH   2   3
ATOM      3  C   UNL     1      -6.962  -4.332   8.285  1.00  0.00     0.000 C 
BRANCH   3   4
ATOM      4  C   UNL     1      -7.121  -4.514   6.769  1.00  0.00     0.000 C 
BRANCH   4   5
ATOM      5  C   UNL     1      -5.821  -4.240   5.991  1.00  0.00     0.000 C 
BRANCH   5   6
ATOM      6  C   UNL     1      -6.012  -3.849   4.513  1.00  0.00     0.000 C 
BRANCH   6   7
ATOM      7  C   UNL     1      -7.161  -2.860   4.234  1.00  0.00     0.006 C 
BRANCH   7   8
ATOM      8  C   UNL     1      -6.759  -1.380   4.367  1.00  0.00     0.053 C 
BRANCH   8   9
ATOM      9  C   UNL     1      -7.081  -0.585   3.139  1.00  0.00     0.041 C 
ATOM     10  O   UNL     1      -7.668  -1.128   2.166  1.00  0.00    -0.550 OA
ATOM     11  O   UNL     1      -6.703   0.750   3.054  1.00  0.00    -0.550 OA
ENDBRANCH   8   9
ENDBRANCH   7   8
ENDBRANCH   6   7
ENDBRANCH   5   6
ENDBRANCH   4   5
ENDBRANCH   3   4
ENDBRANCH   2   3
ENDBRANCH   1   2
BRANCH   1  12
ATOM     12  C   UNL     1      -7.145  -1.025   8.428  1.00  0.00     0.000 C 
BRANCH  12  13
ATOM     13  C   UNL     1      -7.263   0.271   7.609  1.00  0.00    -0.000 C 
BRANCH  13  14
ATOM     14  C   UNL     1      -6.048   1.198   7.790  1.00  0.00    -0.000 C 
BRANCH  14  15
ATOM     15  C   UNL     1      -5.086   1.148   6.594  1.00  0.00    -0.000 C 
BRANCH  15  16
ATOM     16  C   UNL     1      -3.634   0.860   7.015  1.00  0.00    -0.000 C 
BRANCH  16  17
ATOM     17  C   UNL     1      -3.540  -0.219   8.105  1.00  0.00    -0.000 C 
BRANCH  17  18
ATOM     18  C   UNL     1      -3.654  -1.644   7.536  1.00  0.00    -0.000 C 
BRANCH  18  19
ATOM     19  C   UNL     1      -3.666  -2.718   8.634  1.00  0.00    -0.003 C 
ATOM     20  C   UNL     1      -4.009  -2.150  10.011  1.00  0.00     0.004 C 
ENDBRANCH  18  19
ENDBRANCH  17  18
ENDBRANCH  16  17
ENDBRANCH  15  16
ENDBRANCH  14  15
ENDBRANCH  13  14
ENDBRANCH  12  13
ENDBRANCH   1  12
TORSDOF 16
ENDMDL
MODEL 6
REMARK VINA RESULT:    -3.689      1.796      4.522
REMARK INTER + INTRA:          -9.542
REMARK INTER:                  -7.487
REMARK INTRA:                  -2.054
REMARK UNBOUND:                -2.401
REMARK SMILES CCCCCCCCCCCCCCCCCC(=O)[O-]
REMARK SMILES IDX 10 1 11 2 12 3 13 4 14 5 15 6 16 7 17 8 18 9 19 10 20 11
REMARK SMILES IDX 9 12 8 13 7 14 6 15 5 16 4 17 3 18 2 19 1 20
REMARK H PARENT
REMARK Flexibility Score: inf
ROOT
ATOM      1  C   UNL     1      -6.928  -1.077   3.640  1.00  0.00     0.000 C 
ENDROOT
BRANCH   1   2
ATOM      2  C   UNL     1      -7.759  -2.273   3.158  1.00  0.00     0.000 C 
BRANCH   2   3
ATOM      3  C   UNL     1      -7.516  -3.503   4.041  1.00  0.00     0.000 C 
BRANCH   3   4
ATOM      4  C   UNL     1      -7.343  -3.097   5.512  1.00  0.00     0.000 C 
BRANCH   4   5
ATOM      5  C   UNL     1      -6.133  -3.772   6.182  1.00  0.00     0.000 C 
BRANCH   5   6
ATOM      6  C   UNL     1      -4.766  -3.140   5.853  1.00  0.00     0.000 C 
BRANCH   6   7
ATOM      7  C   UNL     1      -4.079  -2.406   7.022  1.00  0.00     0.006 C 
BRANCH   7   8
ATOM      8  C   UNL     1      -5.038  -1.997   8.154  1.00  0.00     0.053 C 
BRANCH   8   9
ATOM      9  C   UNL     1      -4.768  -2.735   9.429  1.00  0.00     0.041 C 
ATOM     10  O   UNL     1      -3.591  -2.838   9.868  1.00  0.00    -0.550 OA
ATOM     11  O   UNL     1      -5.812  -3.341  10.119  1.00  0.00    -0.550 OA
ENDBRANCH   8   9
ENDBRANCH   7   8
ENDBRANCH   6   7
ENDBRANCH   5   6
ENDBRANCH   4   5
ENDBRANCH   3   4
ENDBRANCH   2   3
ENDBRANCH   1   2
BRANCH   1  12
ATOM     12  C   UNL     1      -7.410   0.226   2.984  1.00  0.00     0.000 C 
BRANCH  12  13
ATOM     13  C   UNL     1      -7.391   1.418   3.956  1.00  0.00    -0.000 C 
BRANCH  13  14
ATOM     14  C   UNL     1      -7.699   1.004   5.406  1.00  0.00    -0.000 C 
BRANCH  14  15
ATOM     15  C   UNL     1      -6.720   1.623   6.415  1.00  0.00    -0.000 C 
BRANCH  15  16
ATOM     16  C   UNL     1      -5.264   1.195   6.162  1.00  0.00    -0.000 C 
BRANCH  16  17
ATOM     17  C   UNL     1      -4.258   2.003   6.997  1.00  0.00    -0.000 C 
BRANCH  17  18
ATOM     18  C   UNL     1      -2.988   1.201   7.329  1.00  0.00    -0.000 C 
BRANCH  18  19
ATOM     19  C   UNL     1      -2.800   0.994   8.840  1.00  0.00    -0.003 C 
ATOM     20  C   UNL     1      -2.661   2.312   9.603  1.00  0.00     0.004 C 
ENDBRANCH  18  19
ENDBRANCH  17  18
ENDBRANCH  16  17
ENDBRANCH  15  16
ENDBRANCH  14  15
ENDBRANCH  13  14
ENDBRANCH  12  13
ENDBRANCH   1  12
TORSDOF 16
ENDMDL
MODEL 7
REMARK VINA RESULT:    -3.661      1.665      4.633
REMARK INTER + INTRA:          -9.486
REMARK INTER:                  -6.936
REMARK INTRA:                  -2.550
REMARK UNBOUND:                -2.401
REMARK SMILES CCCCCCCCCCCCCCCCCC(=O)[O-]
REMARK SMILES IDX 10 1 11 2 12 3 13 4 14 5 15 6 16 7 17 8 18 9 19 10 20 11
REMARK SMILES IDX 9 12 8 13 7 14 6 15 5 16 4 17 3 18 2 19 1 20
REMARK H PARENT
REMARK Flexibility Score: inf
ROOT
ATOM      1  C   UNL     1      -7.013  -0.885   3.820  1.00  0.00     0.000 C 
ENDROOT
BRANCH   1   2
ATOM      2  C   UNL     1      -7.561  -2.194   3.237  1.00  0.00     0.000 C 
BRANCH   2   3
ATOM      3  C   UNL     1      -7.349  -3.361   4.210  1.00  0.00     0.000 C 
BRANCH   3   4
ATOM      4  C   UNL     1      -5.854  -3.578   4.490  1.00  0.00     0.000 C 
BRANCH   4   5
ATOM      5  C   UNL     1      -5.561  -3.893   5.968  1.00  0.00     0.000 C 
BRANCH   5   6
ATOM      6  C   UNL     1      -6.804  -4.013   6.871  1.00  0.00     0.000 C 
BRANCH   6   7
ATOM      7  C   UNL     1      -6.921  -2.949   7.980  1.00  0.00     0.006 C 
BRANCH   7   8
ATOM      8  C   UNL     1      -5.690  -2.866   8.900  1.00  0.00     0.053 C 
BRANCH   8   9
ATOM      9  C   UNL     1      -5.508  -1.503   9.493  1.00  0.00     0.041 C 
ATOM     10  O   UNL     1      -6.462  -0.680   9.503  1.00  0.00    -0.550 OA
ATOM     11  O   UNL     1      -4.272  -1.125  10.006  1.00  0.00    -0.550 OA
ENDBRANCH   8   9
ENDBRANCH   7   8
ENDBRANCH   6   7
ENDBRANCH   5   6
ENDBRANCH   4   5
ENDBRANCH   3   4
ENDBRANCH   2   3
ENDBRANCH   1   2
BRANCH   1  12
ATOM     12  C   UNL     1      -7.865  -0.415   5.009  1.00  0.00     0.000 C 
BRANCH  12  13
ATOM     13  C   UNL     1      -7.027   0.268   6.102  1.00  0.00    -0.000 C 
BRANCH  13  14
ATOM     14  C   UNL     1      -5.558  -0.194   6.096  1.00  0.00    -0.000 C 
BRANCH  14  15
ATOM     15  C   UNL     1      -4.602   0.883   6.632  1.00  0.00    -0.000 C 
BRANCH  15  16
ATOM     16  C   UNL     1      -3.263   0.296   7.113  1.00  0.00    -0.000 C 
BRANCH  16  17
ATOM     17  C   UNL     1      -2.424   1.312   7.904  1.00  0.00    -0.000 C 
BRANCH  17  18
ATOM     18  C   UNL     1      -3.204   2.600   8.222  1.00  0.00    -0.000 C 
BRANCH  18  19
ATOM     19  C   UNL     1      -3.573   2.713   9.709  1.00  0.00    -0.003 C 
ATOM     20  C   UNL     1      -5.076   2.592   9.955  1.00  0.00     0.004 C 
ENDBRANCH  18  19
ENDBRANCH  17  18
ENDBRANCH  16  17
ENDBRANCH  15  16
ENDBRANCH  14  15
ENDBRANCH  13  14
ENDBRANCH  12  13
ENDBRANCH   1  12
TORSDOF 16
ENDMDL
MODEL 8
REMARK VINA RESULT:    -3.641     11.668     14.677
REMARK INTER + INTRA:          -9.449
REMARK INTER:                  -6.712
REMARK INTRA:                  -2.737
REMARK UNBOUND:                -2.401
REMARK SMILES CCCCCCCCCCCCCCCCCC(=O)[O-]
REMARK SMILES IDX 10 1 11 2 12 3 13 4 14 5 15 6 16 7 17 8 18 9 19 10 20 11
REMARK SMILES IDX 9 12 8 13 7 14 6 15 5 16 4 17 3 18 2 19 1 20
REMARK H PARENT
REMARK Flexibility Score: inf
ROOT
ATOM      1  C   UNL     1      -5.050  -0.602  -4.728  1.00  0.00     0.000 C 
ENDROOT
BRANCH   1   2
ATOM      2  C   UNL     1      -6.284   0.281  -4.505  1.00  0.00     0.000 C 
BRANCH   2   3
ATOM      3  C   UNL     1      -7.574  -0.544  -4.592  1.00  0.00     0.000 C 
BRANCH   3   4
ATOM      4  C   UNL     1      -8.069  -0.640  -6.043  1.00  0.00     0.000 C 
BRANCH   4   5
ATOM      5  C   UNL     1      -7.885  -2.044  -6.647  1.00  0.00     0.000 C 
BRANCH   5   6
ATOM      6  C   UNL     1      -7.441  -2.068  -8.123  1.00  0.00     0.000 C 
BRANCH   6   7
ATOM      7  C   UNL     1      -6.821  -3.394  -8.605  1.00  0.00     0.006 C 
BRANCH   7   8
ATOM      8  C   UNL     1      -6.484  -4.376  -7.469  1.00  0.00     0.053 C 
BRANCH   8   9
ATOM      9  C   UNL     1      -5.198  -5.108  -7.706  1.00  0.00     0.041 C 
ATOM     10  O   UNL     1      -5.059  -5.836  -8.724  1.00  0.00    -0.550 OA
ATOM     11  O   UNL     1      -4.163  -5.015  -6.783  1.00  0.00    -0.550 OA
ENDBRANCH   8   9
ENDBRANCH   7   8
ENDBRANCH   6   7
ENDBRANCH   5   6
ENDBRANCH   4   5
ENDBRANCH   3   4
ENDBRANCH   2   3
ENDBRANCH   1   2
BRANCH   1  12
ATOM     12  C   UNL     1      -4.365  -0.264  -6.060  1.00  0.00     0.000 C 
BRANCH  12  13
ATOM     13  C   UNL     1      -4.025  -1.516  -6.885  1.00  0.00    -0.000 C 
BRANCH  13  14
ATOM     14  C   UNL     1      -2.858  -1.283  -7.861  1.00  0.00    -0.000 C 
BRANCH  14  15
ATOM     15  C   UNL     1      -2.164   0.068  -7.634  1.00  0.00    -0.000 C 
BRANCH  15  16
ATOM     16  C   UNL     1      -1.990   0.868  -8.937  1.00  0.00    -0.000 C 
BRANCH  16  17
ATOM     17  C   UNL     1      -3.243   0.830  -9.825  1.00  0.00    -0.000 C 
BRANCH  17  18
ATOM     18  C   UNL     1      -4.340   1.793  -9.338  1.00  0.00    -0.000 C 
BRANCH  18  19
ATOM     19  C   UNL     1      -5.681   1.082  -9.092  1.00  0.00    -0.003 C 
ATOM     20  C   UNL     1      -6.614   1.881  -8.182  1.00  0.00     0.004 C 
ENDBRANCH  18  19
ENDBRANCH  17  18
ENDBRANCH  16  17
ENDBRANCH  15  16
ENDBRANCH  14  15
ENDBRANCH  13  14
ENDBRANCH  12  13
ENDBRANCH   1  12
TORSDOF 16
ENDMDL
MODEL 9
REMARK VINA RESULT:    -3.613      2.560      5.093
REMARK INTER + INTRA:          -9.394
REMARK INTER:                  -6.415
REMARK INTRA:                  -2.979
REMARK UNBOUND:                -2.401
REMARK SMILES CCCCCCCCCCCCCCCCCC(=O)[O-]
REMARK SMILES IDX 10 1 11 2 12 3 13 4 14 5 15 6 16 7 17 8 18 9 19 10 20 11
REMARK SMILES IDX 9 12 8 13 7 14 6 15 5 16 4 17 3 18 2 19 1 20
REMARK H PARENT
REMARK Flexibility Score: inf
ROOT
ATOM      1  C   UNL     1      -3.032   0.963   7.123  1.00  0.00     0.000 C 
ENDROOT
BRANCH   1   2
ATOM      2  C   UNL     1      -2.485   1.424   8.479  1.00  0.00     0.000 C 
BRANCH   2   3
ATOM      3  C   UNL     1      -3.036   2.805   8.855  1.00  0.00     0.000 C 
BRANCH   3   4
ATOM      4  C   UNL     1      -4.150   2.685   9.905  1.00  0.00     0.000 C 
BRANCH   4   5
ATOM      5  C   UNL     1      -5.560   2.706   9.288  1.00  0.00     0.000 C 
BRANCH   5   6
ATOM      6  C   UNL     1      -6.342   1.382   9.394  1.00  0.00     0.000 C 
BRANCH   6   7
ATOM      7  C   UNL     1      -7.110   0.964   8.125  1.00  0.00     0.006 C 
BRANCH   7   8
ATOM      8  C   UNL     1      -6.699   1.741   6.861  1.00  0.00     0.053 C 
BRANCH   8   9
ATOM      9  C   UNL     1      -7.077   1.027   5.600  1.00  0.00     0.041 C 
ATOM     10  O   UNL     1      -8.118   0.320   5.557  1.00  0.00    -0.550 OA
ATOM     11  O   UNL     1      -6.260   1.112   4.478  1.00  0.00    -0.550 OA
ENDBRANCH   8   9
ENDBRANCH   7   8
ENDBRANCH   6   7
ENDBRANCH   5   6
ENDBRANCH   4   5
ENDBRANCH   3   4
ENDBRANCH   2   3
ENDBRANCH   1   2
BRANCH   1  12
ATOM     12  C   UNL     1      -3.721  -0.405   7.244  1.00  0.00     0.000 C 
BRANCH  12  13
ATOM     13  C   UNL     1      -3.637  -0.985   8.665  1.00  0.00    -0.000 C 
BRANCH  13  14
ATOM     14  C   UNL     1      -3.628  -2.524   8.676  1.00  0.00    -0.000 C 
BRANCH  14  15
ATOM     15  C   UNL     1      -4.706  -3.111   9.599  1.00  0.00    -0.000 C 
BRANCH  15  16
ATOM     16  C   UNL     1      -6.080  -2.449   9.398  1.00  0.00    -0.000 C 
BRANCH  16  17
ATOM     17  C   UNL     1      -6.976  -3.232   8.425  1.00  0.00    -0.000 C 
BRANCH  17  18
ATOM     18  C   UNL     1      -6.965  -2.640   7.005  1.00  0.00    -0.000 C 
BRANCH  18  19
ATOM     19  C   UNL     1      -6.650  -3.692   5.931  1.00  0.00    -0.003 C 
ATOM     20  C   UNL     1      -5.167  -3.734   5.563  1.00  0.00     0.004 C 
ENDBRANCH  18  19
ENDBRANCH  17  18
ENDBRANCH  16  17
ENDBRANCH  15  16
ENDBRANCH  14  15
ENDBRANCH  13  14
ENDBRANCH  12  13
ENDBRANCH   1  12
TORSDOF 16
ENDMDL
