MODEL 1
REMARK VINA RESULT:    -5.493      0.000      0.000
REMARK INTER + INTRA:         -17.204
REMARK INTER:                 -13.841
REMARK INTRA:                  -3.363
REMARK UNBOUND:                -3.363
REMARK SMILES CCCCCCCCCCCCCCCCCCCCCCCCCCCC(=O)[O-]
REMARK SMILES IDX 15 1 16 2 17 3 18 4 19 5 20 6 21 7 22 8 23 9 24 10 25 11
REMARK SMILES IDX 26 12 27 13 28 14 29 15 30 16 14 17 13 18 12 19 11 20 10 21
REMARK SMILES IDX 9 22 8 23 7 24 6 25 5 26 4 27 3 28 2 29 1 30
REMARK H PARENT
REMARK Flexibility Score: inf
ROOT
ATOM      1  C   UNL     1      42.868  -4.934  27.132  1.00  0.00     0.000 C 
ENDROOT
BRANCH   1   2
ATOM      2  C   UNL     1      43.617  -4.243  28.284  1.00  0.00     0.000 C 
BRANCH   2   3
ATOM      3  C   UNL     1      43.054  -2.850  28.611  1.00  0.00     0.000 C 
BRANCH   3   4
ATOM      4  C   UNL     1      43.676  -2.236  29.876  1.00  0.00     0.000 C 
BRANCH   4   5
ATOM      5  C   UNL     1      42.632  -2.099  30.996  1.00  0.00     0.000 C 
BRANCH   5   6
ATOM      6  C   UNL     1      42.299  -3.443  31.664  1.00  0.00     0.000 C 
BRANCH   6   7
ATOM      7  C   UNL     1      42.995  -3.621  33.022  1.00  0.00     0.000 C 
BRANCH   7   8
ATOM      8  C   UNL     1      43.655  -2.311  33.478  1.00  0.00     0.000 C 
BRANCH   8   9
ATOM      9  C   UNL     1      43.007  -1.731  34.745  1.00  0.00     0.000 C 
BRANCH   9  10
ATOM     10  C   UNL     1      42.794  -0.212  34.661  1.00  0.00     0.000 C 
BRANCH  10  11
ATOM     11  C   UNL     1      43.705   0.412  33.595  1.00  0.00     0.000 C 
BRANCH  11  12
ATOM     12  C   UNL     1      43.017   1.528  32.789  1.00  0.00     0.006 C 
BRANCH  12  13
ATOM     13  C   UNL     1      43.703   1.842  31.447  1.00  0.00     0.053 C 
BRANCH  13  14
ATOM     14  C   UNL     1      43.369   3.212  30.939  1.00  0.00     0.041 C 
ATOM     15  O   UNL     1      43.439   3.465  29.707  1.00  0.00    -0.550 OA
ATOM     16  O   UNL     1      43.014   4.220  31.828  1.00  0.00    -0.550 OA
ENDBRANCH  13  14
ENDBRANCH  12  13
ENDBRANCH  11  12
ENDBRANCH  10  11
ENDBRANCH   9  10
ENDBRANCH   8   9
ENDBRANCH   7   8
ENDBRANCH   6   7
ENDBRANCH   5   6
ENDBRANCH   4   5
ENDBRANCH   3   4
ENDBRANCH   2   3
ENDBRANCH   1   2
BRANCH   1  17
ATOM     17  C   UNL     1      43.776  -5.865  26.309  1.00  0.00     0.000 C 
BRANCH  17  18
ATOM     18  C   UNL     1      44.755  -6.720  27.139  1.00  0.00     0.000 C 
BRANCH  18  19
ATOM     19  C   UNL     1      45.537  -7.782  26.341  1.00  0.00     0.000 C 
BRANCH  19  20
ATOM     20  C   UNL     1      45.305  -7.756  24.816  1.00  0.00     0.000 C 
BRANCH  20  21
ATOM     21  C   UNL     1      46.272  -6.855  24.031  1.00  0.00     0.000 C 
BRANCH  21  22
ATOM     22  C   UNL     1      47.066  -7.623  22.958  1.00  0.00    -0.000 C 
BRANCH  22  23
ATOM     23  C   UNL     1      48.590  -7.512  23.175  1.00  0.00    -0.000 C 
BRANCH  23  24
ATOM     24  C   UNL     1      49.038  -7.822  24.614  1.00  0.00    -0.000 C 
BRANCH  24  25
ATOM     25  C   UNL     1      50.034  -6.790  25.166  1.00  0.00    -0.000 C 
BRANCH  25  26
ATOM     26  C   UNL     1      49.527  -5.340  25.050  1.00  0.00    -0.000 C 
BRANCH  26  27
ATOM     27  C   UNL     1      49.119  -4.678  26.380  1.00  0.00    -0.000 C 
BRANCH  27  28
ATOM     28  C   UNL     1      47.614  -4.785  26.667  1.00  0.00    -0.000 C 
BRANCH  28  29
ATOM     29  C   UNL     1      46.847  -3.620  26.029  1.00  0.00    -0.003 C 
ATOM     30  C   UNL     1      46.570  -2.518  27.048  1.00  0.00     0.004 C 
ENDBRANCH  28  29
ENDBRANCH  27  28
ENDBRANCH  26  27
ENDBRANCH  25  26
ENDBRANCH  24  25
ENDBRANCH  23  24
ENDBRANCH  22  23
ENDBRANCH  21  22
ENDBRANCH  20  21
ENDBRANCH  19  20
ENDBRANCH  18  19
ENDBRANCH  17  18
ENDBRANCH   1  17
TORSDOF 26
ENDMDL
MODEL 2
REMARK VINA RESULT:    -5.314      2.189      3.243
REMARK INTER + INTRA:         -16.754
REMARK INTER:                 -13.156
REMARK INTRA:                  -3.598
REMARK UNBOUND:                -3.363
REMARK SMILES CCCCCCCCCCCCCCCCCCCCCCCCCCCC(=O)[O-]
REMARK SMILES IDX 15 1 16 2 17 3 18 4 19 5 20 6 21 7 22 8 23 9 24 10 25 11
REMARK SMILES IDX 26 12 27 13 28 14 29 15 30 16 14 17 13 18 12 19 11 20 10 21
REMARK SMILES IDX 9 22 8 23 7 24 6 25 5 26 4 27 3 28 2 29 1 30
REMARK H PARENT
REMARK Flexibility Score: inf
ROOT
ATOM      1  C   UNL     1      41.293  -5.418  27.247  1.00  0.00     0.000 C 
ENDROOT
BRANCH   1   2
ATOM      2  C   UNL     1      40.364  -4.425  26.527  1.00  0.00     0.000 C 
BRANCH   2   3
ATOM      3  C   UNL     1      38.897  -4.882  26.515  1.00  0.00     0.000 C 
BRANCH   3   4
ATOM      4  C   UNL     1      38.031  -4.141  27.547  1.00  0.00     0.000 C 
BRANCH   4   5
ATOM      5  C   UNL     1      38.336  -2.633  27.544  1.00  0.00     0.000 C 
BRANCH   5   6
ATOM      6  C   UNL     1      38.766  -2.113  28.925  1.00  0.00     0.000 C 
BRANCH   6   7
ATOM      7  C   UNL     1      39.043  -3.244  29.927  1.00  0.00     0.000 C 
BRANCH   7   8
ATOM      8  C   UNL     1      40.463  -3.133  30.503  1.00  0.00     0.000 C 
BRANCH   8   9
ATOM      9  C   UNL     1      41.441  -2.444  29.539  1.00  0.00     0.000 C 
BRANCH   9  10
ATOM     10  C   UNL     1      42.887  -2.449  30.056  1.00  0.00     0.000 C 
BRANCH  10  11
ATOM     11  C   UNL     1      43.459  -1.025  30.099  1.00  0.00     0.000 C 
BRANCH  11  12
ATOM     12  C   UNL     1      43.145  -0.285  31.411  1.00  0.00     0.006 C 
BRANCH  12  13
ATOM     13  C   UNL     1      42.796   1.202  31.220  1.00  0.00     0.053 C 
BRANCH  13  14
ATOM     14  C   UNL     1      42.870   1.977  32.502  1.00  0.00     0.041 C 
ATOM     15  O   UNL     1      42.065   1.729  33.439  1.00  0.00    -0.550 OA
ATOM     16  O   UNL     1      43.804   2.995  32.650  1.00  0.00    -0.550 OA
ENDBRANCH  13  14
ENDBRANCH  12  13
ENDBRANCH  11  12
ENDBRANCH  10  11
ENDBRANCH   9  10
ENDBRANCH   8   9
ENDBRANCH   7   8
ENDBRANCH   6   7
ENDBRANCH   5   6
ENDBRANCH   4   5
ENDBRANCH   3   4
ENDBRANCH   2   3
ENDBRANCH   1   2
BRANCH   1  17
ATOM     17  C   UNL     1      42.744  -4.912  27.340  1.00  0.00     0.000 C 
BRANCH  17  18
ATOM     18  C   UNL     1      43.739  -5.614  26.394  1.00  0.00     0.000 C 
BRANCH  18  19
ATOM     19  C   UNL     1      44.685  -6.625  27.071  1.00  0.00     0.000 C 
BRANCH  19  20
ATOM     20  C   UNL     1      45.395  -7.602  26.112  1.00  0.00     0.000 C 
BRANCH  20  21
ATOM     21  C   UNL     1      45.237  -7.269  24.619  1.00  0.00     0.000 C 
BRANCH  21  22
ATOM     22  C   UNL     1      46.145  -8.125  23.717  1.00  0.00    -0.000 C 
BRANCH  22  23
ATOM     23  C   UNL     1      46.677  -7.329  22.507  1.00  0.00    -0.000 C 
BRANCH  23  24
ATOM     24  C   UNL     1      48.057  -6.689  22.742  1.00  0.00    -0.000 C 
BRANCH  24  25
ATOM     25  C   UNL     1      48.798  -7.291  23.946  1.00  0.00    -0.000 C 
BRANCH  25  26
ATOM     26  C   UNL     1      49.006  -6.284  25.093  1.00  0.00    -0.000 C 
BRANCH  26  27
ATOM     27  C   UNL     1      48.068  -5.062  25.072  1.00  0.00    -0.000 C 
BRANCH  27  28
ATOM     28  C   UNL     1      47.641  -4.607  26.476  1.00  0.00    -0.000 C 
BRANCH  28  29
ATOM     29  C   UNL     1      46.963  -3.233  26.426  1.00  0.00    -0.003 C 
ATOM     30  C   UNL     1      45.967  -3.068  27.571  1.00  0.00     0.004 C 
ENDBRANCH  28  29
ENDBRANCH  27  28
ENDBRANCH  26  27
ENDBRANCH  25  26
ENDBRANCH  24  25
ENDBRANCH  23  24
ENDBRANCH  22  23
ENDBRANCH  21  22
ENDBRANCH  20  21
ENDBRANCH  19  20
ENDBRANCH  18  19
ENDBRANCH  17  18
ENDBRANCH   1  17
TORSDOF 26
ENDMDL
MODEL 3
REMARK VINA RESULT:    -5.276      1.832      2.506
REMARK INTER + INTRA:         -16.657
REMARK INTER:                 -13.820
REMARK INTRA:                  -2.838
REMARK UNBOUND:                -3.363
REMARK SMILES CCCCCCCCCCCCCCCCCCCCCCCCCCCC(=O)[O-]
REMARK SMILES IDX 15 1 16 2 17 3 18 4 19 5 20 6 21 7 22 8 23 9 24 10 25 11
REMARK SMILES IDX 26 12 27 13 28 14 29 15 30 16 14 17 13 18 12 19 11 20 10 21
REMARK SMILES IDX 9 22 8 23 7 24 6 25 5 26 4 27 3 28 2 29 1 30
REMARK H PARENT
REMARK Flexibility Score: inf
ROOT
ATOM      1  C   UNL     1      42.998  -5.191  26.989  1.00  0.00     0.000 C 
ENDROOT
BRANCH   1   2
ATOM      2  C   UNL     1      43.460  -5.003  28.444  1.00  0.00     0.000 C 
BRANCH   2   3
ATOM      3  C   UNL     1      42.294  -4.743  29.411  1.00  0.00     0.000 C 
BRANCH   3   4
ATOM      4  C   UNL     1      41.484  -3.488  29.047  1.00  0.00     0.000 C 
BRANCH   4   5
ATOM      5  C   UNL     1      41.436  -2.499  30.224  1.00  0.00     0.000 C 
BRANCH   5   6
ATOM      6  C   UNL     1      42.647  -2.633  31.161  1.00  0.00     0.000 C 
BRANCH   6   7
ATOM      7  C   UNL     1      43.198  -1.275  31.620  1.00  0.00     0.000 C 
BRANCH   7   8
ATOM      8  C   UNL     1      42.643  -0.135  30.753  1.00  0.00     0.000 C 
BRANCH   8   9
ATOM      9  C   UNL     1      42.654   1.220  31.476  1.00  0.00     0.000 C 
BRANCH   9  10
ATOM     10  C   UNL     1      44.029   1.903  31.436  1.00  0.00     0.000 C 
BRANCH  10  11
ATOM     11  C   UNL     1      44.534   2.203  32.855  1.00  0.00     0.000 C 
BRANCH  11  12
ATOM     12  C   UNL     1      43.744   3.323  33.554  1.00  0.00     0.006 C 
BRANCH  12  13
ATOM     13  C   UNL     1      44.216   3.617  34.989  1.00  0.00     0.053 C 
BRANCH  13  14
ATOM     14  C   UNL     1      45.445   4.475  35.024  1.00  0.00     0.041 C 
ATOM     15  O   UNL     1      45.468   5.573  34.407  1.00  0.00    -0.550 OA
ATOM     16  O   UNL     1      46.576   4.048  35.709  1.00  0.00    -0.550 OA
ENDBRANCH  13  14
ENDBRANCH  12  13
ENDBRANCH  11  12
ENDBRANCH  10  11
ENDBRANCH   9  10
ENDBRANCH   8   9
ENDBRANCH   7   8
ENDBRANCH   6   7
ENDBRANCH   5   6
ENDBRANCH   4   5
ENDBRANCH   3   4
ENDBRANCH   2   3
ENDBRANCH   1   2
BRANCH   1  17
ATOM     17  C   UNL     1      44.038  -5.928  26.127  1.00  0.00     0.000 C 
BRANCH  17  18
ATOM     18  C   UNL     1      45.052  -6.780  26.917  1.00  0.00     0.000 C 
BRANCH  18  19
ATOM     19  C   UNL     1      45.803  -7.841  26.088  1.00  0.00     0.000 C 
BRANCH  19  20
ATOM     20  C   UNL     1      45.307  -8.010  24.638  1.00  0.00     0.000 C 
BRANCH  20  21
ATOM     21  C   UNL     1      45.956  -7.059  23.618  1.00  0.00     0.000 C 
BRANCH  21  22
ATOM     22  C   UNL     1      47.046  -7.743  22.774  1.00  0.00    -0.000 C 
BRANCH  22  23
ATOM     23  C   UNL     1      48.447  -7.156  23.049  1.00  0.00    -0.000 C 
BRANCH  23  24
ATOM     24  C   UNL     1      49.071  -7.632  24.372  1.00  0.00    -0.000 C 
BRANCH  24  25
ATOM     25  C   UNL     1      49.451  -6.471  25.306  1.00  0.00    -0.000 C 
BRANCH  25  26
ATOM     26  C   UNL     1      48.565  -5.226  25.114  1.00  0.00    -0.000 C 
BRANCH  26  27
ATOM     27  C   UNL     1      47.887  -4.698  26.392  1.00  0.00    -0.000 C 
BRANCH  27  28
ATOM     28  C   UNL     1      46.901  -3.553  26.121  1.00  0.00    -0.000 C 
BRANCH  28  29
ATOM     29  C   UNL     1      46.184  -3.127  27.409  1.00  0.00    -0.003 C 
ATOM     30  C   UNL     1      46.118  -1.607  27.526  1.00  0.00     0.004 C 
ENDBRANCH  28  29
ENDBRANCH  27  28
ENDBRANCH  26  27
ENDBRANCH  25  26
ENDBRANCH  24  25
ENDBRANCH  23  24
ENDBRANCH  22  23
ENDBRANCH  21  22
ENDBRANCH  20  21
ENDBRANCH  19  20
ENDBRANCH  18  19
ENDBRANCH  17  18
ENDBRANCH   1  17
TORSDOF 26
ENDMDL
MODEL 4
REMARK VINA RESULT:    -5.273      6.918     10.843
REMARK INTER + INTRA:         -16.652
REMARK INTER:                 -12.807
REMARK INTRA:                  -3.845
REMARK UNBOUND:                -3.363
REMARK SMILES CCCCCCCCCCCCCCCCCCCCCCCCCCCC(=O)[O-]
REMARK SMILES IDX 15 1 16 2 17 3 18 4 19 5 20 6 21 7 22 8 23 9 24 10 25 11
REMARK SMILES IDX 26 12 27 13 28 14 29 15 30 16 14 17 13 18 12 19 11 20 10 21
REMARK SMILES IDX 9 22 8 23 7 24 6 25 5 26 4 27 3 28 2 29 1 30
REMARK H PARENT
REMARK Flexibility Score: inf
ROOT
ATOM      1  C   UNL     1      36.351  -6.076  28.794  1.00  0.00     0.000 C 
ENDROOT
BRANCH   1   2
ATOM      2  C   UNL     1      36.629  -4.814  27.960  1.00  0.00     0.000 C 
BRANCH   2   3
ATOM      3  C   UNL     1      37.860  -4.035  28.449  1.00  0.00     0.000 C 
BRANCH   3   4
ATOM      4  C   UNL     1      38.578  -3.281  27.317  1.00  0.00     0.000 C 
BRANCH   4   5
ATOM      5  C   UNL     1      39.582  -4.194  26.594  1.00  0.00     0.000 C 
BRANCH   5   6
ATOM      6  C   UNL     1      40.628  -4.797  27.545  1.00  0.00     0.000 C 
BRANCH   6   7
ATOM      7  C   UNL     1      42.062  -4.674  27.008  1.00  0.00     0.000 C 
BRANCH   7   8
ATOM      8  C   UNL     1      43.048  -4.351  28.141  1.00  0.00     0.000 C 
BRANCH   8   9
ATOM      9  C   UNL     1      44.410  -5.038  27.955  1.00  0.00     0.000 C 
BRANCH   9  10
ATOM     10  C   UNL     1      44.319  -6.321  27.116  1.00  0.00     0.000 C 
BRANCH  10  11
ATOM     11  C   UNL     1      45.215  -6.228  25.873  1.00  0.00     0.000 C 
BRANCH  11  12
ATOM     12  C   UNL     1      46.011  -7.516  25.603  1.00  0.00     0.006 C 
BRANCH  12  13
ATOM     13  C   UNL     1      47.524  -7.290  25.433  1.00  0.00     0.053 C 
BRANCH  13  14
ATOM     14  C   UNL     1      47.961  -7.387  24.001  1.00  0.00     0.041 C 
ATOM     15  O   UNL     1      47.112  -7.596  23.094  1.00  0.00    -0.550 OA
ATOM     16  O   UNL     1      49.307  -7.282  23.672  1.00  0.00    -0.550 OA
ENDBRANCH  13  14
ENDBRANCH  12  13
ENDBRANCH  11  12
ENDBRANCH  10  11
ENDBRANCH   9  10
ENDBRANCH   8   9
ENDBRANCH   7   8
ENDBRANCH   6   7
ENDBRANCH   5   6
ENDBRANCH   4   5
ENDBRANCH   3   4
ENDBRANCH   2   3
ENDBRANCH   1   2
BRANCH   1  17
ATOM     17  C   UNL     1      37.608  -6.603  29.509  1.00  0.00     0.000 C 
BRANCH  17  18
ATOM     18  C   UNL     1      37.887  -8.107  29.307  1.00  0.00     0.000 C 
BRANCH  18  19
ATOM     19  C   UNL     1      38.836  -8.445  28.140  1.00  0.00     0.000 C 
BRANCH  19  20
ATOM     20  C   UNL     1      38.188  -8.420  26.740  1.00  0.00     0.000 C 
BRANCH  20  21
ATOM     21  C   UNL     1      38.784  -7.384  25.772  1.00  0.00     0.000 C 
BRANCH  21  22
ATOM     22  C   UNL     1      37.740  -6.810  24.796  1.00  0.00    -0.000 C 
BRANCH  22  23
ATOM     23  C   UNL     1      36.299  -7.181  25.204  1.00  0.00    -0.000 C 
BRANCH  23  24
ATOM     24  C   UNL     1      35.274  -7.040  24.065  1.00  0.00    -0.000 C 
BRANCH  24  25
ATOM     25  C   UNL     1      33.819  -7.132  24.554  1.00  0.00    -0.000 C 
BRANCH  25  26
ATOM     26  C   UNL     1      33.684  -6.972  26.080  1.00  0.00    -0.000 C 
BRANCH  26  27
ATOM     27  C   UNL     1      32.652  -7.900  26.749  1.00  0.00    -0.000 C 
BRANCH  27  28
ATOM     28  C   UNL     1      33.220  -9.288  27.083  1.00  0.00    -0.000 C 
BRANCH  28  29
ATOM     29  C   UNL     1      34.689  -9.193  27.511  1.00  0.00    -0.003 C 
ATOM     30  C   UNL     1      35.105 -10.412  28.330  1.00  0.00     0.004 C 
ENDBRANCH  28  29
ENDBRANCH  27  28
ENDBRANCH  26  27
ENDBRANCH  25  26
ENDBRANCH  24  25
ENDBRANCH  23  24
ENDBRANCH  22  23
ENDBRANCH  21  22
ENDBRANCH  20  21
ENDBRANCH  19  20
ENDBRANCH  18  19
ENDBRANCH  17  18
ENDBRANCH   1  17
TORSDOF 26
ENDMDL
MODEL 5
REMARK VINA RESULT:    -5.225      6.364     10.768
REMARK INTER + INTRA:         -16.530
REMARK INTER:                 -13.953
REMARK INTRA:                  -2.576
REMARK UNBOUND:                -3.363
REMARK SMILES CCCCCCCCCCCCCCCCCCCCCCCCCCCC(=O)[O-]
REMARK SMILES IDX 15 1 16 2 17 3 18 4 19 5 20 6 21 7 22 8 23 9 24 10 25 11
REMARK SMILES IDX 26 12 27 13 28 14 29 15 30 16 14 17 13 18 12 19 11 20 10 21
REMARK SMILES IDX 9 22 8 23 7 24 6 25 5 26 4 27 3 28 2 29 1 30
REMARK H PARENT
REMARK Flexibility Score: inf
ROOT
ATOM      1  C   UNL     1      40.378  -4.040  29.864  1.00  0.00     0.000 C 
ENDROOT
BRANCH   1   2
ATOM      2  C   UNL     1      40.228  -2.576  29.418  1.00  0.00     0.000 C 
BRANCH   2   3
ATOM      3  C   UNL     1      41.414  -1.697  29.848  1.00  0.00     0.000 C 
BRANCH   3   4
ATOM      4  C   UNL     1      42.693  -2.507  30.113  1.00  0.00     0.000 C 
BRANCH   4   5
ATOM      5  C   UNL     1      43.840  -2.047  29.197  1.00  0.00     0.000 C 
BRANCH   5   6
ATOM      6  C   UNL     1      44.526  -3.216  28.473  1.00  0.00     0.000 C 
BRANCH   6   7
ATOM      7  C   UNL     1      43.532  -4.286  27.997  1.00  0.00     0.000 C 
BRANCH   7   8
ATOM      8  C   UNL     1      44.240  -5.631  27.769  1.00  0.00     0.000 C 
BRANCH   8   9
ATOM      9  C   UNL     1      44.465  -5.937  26.280  1.00  0.00     0.000 C 
BRANCH   9  10
ATOM     10  C   UNL     1      45.122  -7.306  26.048  1.00  0.00     0.000 C 
BRANCH  10  11
ATOM     11  C   UNL     1      45.276  -7.593  24.548  1.00  0.00     0.000 C 
BRANCH  11  12
ATOM     12  C   UNL     1      46.718  -7.408  24.042  1.00  0.00     0.006 C 
BRANCH  12  13
ATOM     13  C   UNL     1      47.751  -7.201  25.165  1.00  0.00     0.053 C 
BRANCH  13  14
ATOM     14  C   UNL     1      48.347  -5.826  25.148  1.00  0.00     0.041 C 
ATOM     15  O   UNL     1      47.656  -4.832  25.498  1.00  0.00    -0.550 OA
ATOM     16  O   UNL     1      49.654  -5.636  24.715  1.00  0.00    -0.550 OA
ENDBRANCH  13  14
ENDBRANCH  12  13
ENDBRANCH  11  12
ENDBRANCH  10  11
ENDBRANCH   9  10
ENDBRANCH   8   9
ENDBRANCH   7   8
ENDBRANCH   6   7
ENDBRANCH   5   6
ENDBRANCH   4   5
ENDBRANCH   3   4
ENDBRANCH   2   3
ENDBRANCH   1   2
BRANCH   1  17
ATOM     17  C   UNL     1      40.124  -5.038  28.720  1.00  0.00     0.000 C 
BRANCH  17  18
ATOM     18  C   UNL     1      40.063  -4.411  27.312  1.00  0.00     0.000 C 
BRANCH  18  19
ATOM     19  C   UNL     1      38.905  -4.908  26.425  1.00  0.00     0.000 C 
BRANCH  19  20
ATOM     20  C   UNL     1      39.065  -6.343  25.882  1.00  0.00     0.000 C 
BRANCH  20  21
ATOM     21  C   UNL     1      37.970  -6.786  24.897  1.00  0.00     0.000 C 
BRANCH  21  22
ATOM     22  C   UNL     1      36.894  -7.667  25.557  1.00  0.00    -0.000 C 
BRANCH  22  23
ATOM     23  C   UNL     1      35.518  -6.970  25.597  1.00  0.00    -0.000 C 
BRANCH  23  24
ATOM     24  C   UNL     1      34.743  -7.046  24.269  1.00  0.00    -0.000 C 
BRANCH  24  25
ATOM     25  C   UNL     1      33.274  -6.617  24.408  1.00  0.00    -0.000 C 
BRANCH  25  26
ATOM     26  C   UNL     1      32.849  -6.384  25.870  1.00  0.00    -0.000 C 
BRANCH  26  27
ATOM     27  C   UNL     1      31.833  -7.399  26.429  1.00  0.00    -0.000 C 
BRANCH  27  28
ATOM     28  C   UNL     1      32.395  -8.236  27.588  1.00  0.00    -0.000 C 
BRANCH  28  29
ATOM     29  C   UNL     1      33.116  -9.484  27.066  1.00  0.00    -0.003 C 
ATOM     30  C   UNL     1      34.455  -9.683  27.773  1.00  0.00     0.004 C 
ENDBRANCH  28  29
ENDBRANCH  27  28
ENDBRANCH  26  27
ENDBRANCH  25  26
ENDBRANCH  24  25
ENDBRANCH  23  24
ENDBRANCH  22  23
ENDBRANCH  21  22
ENDBRANCH  20  21
ENDBRANCH  19  20
ENDBRANCH  18  19
ENDBRANCH  17  18
ENDBRANCH   1  17
TORSDOF 26
ENDMDL
MODEL 6
REMARK VINA RESULT:    -5.219      5.635      8.744
REMARK INTER + INTRA:         -16.514
REMARK INTER:                 -13.664
REMARK INTRA:                  -2.850
REMARK UNBOUND:                -3.363
REMARK SMILES CCCCCCCCCCCCCCCCCCCCCCCCCCCC(=O)[O-]
REMARK SMILES IDX 15 1 16 2 17 3 18 4 19 5 20 6 21 7 22 8 23 9 24 10 25 11
REMARK SMILES IDX 26 12 27 13 28 14 29 15 30 16 14 17 13 18 12 19 11 20 10 21
REMARK SMILES IDX 9 22 8 23 7 24 6 25 5 26 4 27 3 28 2 29 1 30
REMARK H PARENT
REMARK Flexibility Score: inf
ROOT
ATOM      1  C   UNL     1      42.472  -3.151  31.858  1.00  0.00     0.000 C 
ENDROOT
BRANCH   1   2
ATOM      2  C   UNL     1      42.501  -4.685  31.761  1.00  0.00     0.000 C 
BRANCH   2   3
ATOM      3  C   UNL     1      41.107  -5.296  31.547  1.00  0.00     0.000 C 
BRANCH   3   4
ATOM      4  C   UNL     1      41.000  -6.099  30.239  1.00  0.00     0.000 C 
BRANCH   4   5
ATOM      5  C   UNL     1      39.763  -5.678  29.430  1.00  0.00     0.000 C 
BRANCH   5   6
ATOM      6  C   UNL     1      39.947  -5.878  27.917  1.00  0.00     0.000 C 
BRANCH   6   7
ATOM      7  C   UNL     1      38.881  -5.149  27.086  1.00  0.00     0.000 C 
BRANCH   7   8
ATOM      8  C   UNL     1      38.964  -5.556  25.607  1.00  0.00     0.000 C 
BRANCH   8   9
ATOM      9  C   UNL     1      38.440  -6.978  25.353  1.00  0.00     0.000 C 
BRANCH   9  10
ATOM     10  C   UNL     1      36.947  -7.006  24.992  1.00  0.00     0.000 C 
BRANCH  10  11
ATOM     11  C   UNL     1      36.153  -7.842  26.006  1.00  0.00     0.000 C 
BRANCH  11  12
ATOM     12  C   UNL     1      34.703  -8.109  25.565  1.00  0.00     0.006 C 
BRANCH  12  13
ATOM     13  C   UNL     1      34.284  -7.339  24.300  1.00  0.00     0.053 C 
BRANCH  13  14
ATOM     14  C   UNL     1      33.127  -6.418  24.547  1.00  0.00     0.041 C 
ATOM     15  O   UNL     1      32.879  -5.482  23.741  1.00  0.00    -0.550 OA
ATOM     16  O   UNL     1      32.342  -6.571  25.683  1.00  0.00    -0.550 OA
ENDBRANCH  13  14
ENDBRANCH  12  13
ENDBRANCH  11  12
ENDBRANCH  10  11
ENDBRANCH   9  10
ENDBRANCH   8   9
ENDBRANCH   7   8
ENDBRANCH   6   7
ENDBRANCH   5   6
ENDBRANCH   4   5
ENDBRANCH   3   4
ENDBRANCH   2   3
ENDBRANCH   1   2
BRANCH   1  17
ATOM     17  C   UNL     1      43.128  -2.467  30.645  1.00  0.00     0.000 C 
BRANCH  17  18
ATOM     18  C   UNL     1      42.204  -2.284  29.424  1.00  0.00     0.000 C 
BRANCH  18  19
ATOM     19  C   UNL     1      42.472  -3.248  28.250  1.00  0.00     0.000 C 
BRANCH  19  20
ATOM     20  C   UNL     1      43.669  -4.201  28.446  1.00  0.00     0.000 C 
BRANCH  20  21
ATOM     21  C   UNL     1      43.790  -5.311  27.388  1.00  0.00     0.000 C 
BRANCH  21  22
ATOM     22  C   UNL     1      45.188  -5.372  26.745  1.00  0.00    -0.000 C 
BRANCH  22  23
ATOM     23  C   UNL     1      45.899  -6.712  27.029  1.00  0.00    -0.000 C 
BRANCH  23  24
ATOM     24  C   UNL     1      45.434  -7.867  26.123  1.00  0.00    -0.000 C 
BRANCH  24  25
ATOM     25  C   UNL     1      45.133  -7.415  24.685  1.00  0.00    -0.000 C 
BRANCH  25  26
ATOM     26  C   UNL     1      46.087  -8.034  23.646  1.00  0.00    -0.000 C 
BRANCH  26  27
ATOM     27  C   UNL     1      46.595  -7.066  22.561  1.00  0.00    -0.000 C 
BRANCH  27  28
ATOM     28  C   UNL     1      48.055  -6.638  22.773  1.00  0.00    -0.000 C 
BRANCH  28  29
ATOM     29  C   UNL     1      48.778  -7.599  23.724  1.00  0.00    -0.003 C 
ATOM     30  C   UNL     1      49.137  -6.909  25.037  1.00  0.00     0.004 C 
ENDBRANCH  28  29
ENDBRANCH  27  28
ENDBRANCH  26  27
ENDBRANCH  25  26
ENDBRANCH  24  25
ENDBRANCH  23  24
ENDBRANCH  22  23
ENDBRANCH  21  22
ENDBRANCH  20  21
ENDBRANCH  19  20
ENDBRANCH  18  19
ENDBRANCH  17  18
ENDBRANCH   1  17
TORSDOF 26
ENDMDL
MODEL 7
REMARK VINA RESULT:    -5.204      3.669      9.341
REMARK INTER + INTRA:         -16.476
REMARK INTER:                 -12.724
REMARK INTRA:                  -3.752
REMARK UNBOUND:                -3.363
REMARK SMILES CCCCCCCCCCCCCCCCCCCCCCCCCCCC(=O)[O-]
REMARK SMILES IDX 15 1 16 2 17 3 18 4 19 5 20 6 21 7 22 8 23 9 24 10 25 11
REMARK SMILES IDX 26 12 27 13 28 14 29 15 30 16 14 17 13 18 12 19 11 20 10 21
REMARK SMILES IDX 9 22 8 23 7 24 6 25 5 26 4 27 3 28 2 29 1 30
REMARK H PARENT
REMARK Flexibility Score: inf
ROOT
ATOM      1  C   UNL     1      42.406  -1.849  31.719  1.00  0.00     0.000 C 
ENDROOT
BRANCH   1   2
ATOM      2  C   UNL     1      43.396  -1.369  30.644  1.00  0.00     0.000 C 
BRANCH   2   3
ATOM      3  C   UNL     1      43.599  -2.395  29.518  1.00  0.00     0.000 C 
BRANCH   3   4
ATOM      4  C   UNL     1      44.686  -1.976  28.515  1.00  0.00     0.000 C 
BRANCH   4   5
ATOM      5  C   UNL     1      45.303  -3.202  27.822  1.00  0.00     0.000 C 
BRANCH   5   6
ATOM      6  C   UNL     1      44.556  -4.505  28.148  1.00  0.00     0.000 C 
BRANCH   6   7
ATOM      7  C   UNL     1      43.662  -4.982  26.994  1.00  0.00     0.000 C 
BRANCH   7   8
ATOM      8  C   UNL     1      44.396  -6.010  26.118  1.00  0.00     0.000 C 
BRANCH   8   9
ATOM      9  C   UNL     1      45.388  -6.868  26.917  1.00  0.00     0.000 C 
BRANCH   9  10
ATOM     10  C   UNL     1      46.282  -7.735  26.018  1.00  0.00     0.000 C 
BRANCH  10  11
ATOM     11  C   UNL     1      46.310  -7.190  24.583  1.00  0.00     0.000 C 
BRANCH  11  12
ATOM     12  C   UNL     1      47.678  -7.355  23.900  1.00  0.00     0.006 C 
BRANCH  12  13
ATOM     13  C   UNL     1      48.531  -6.073  23.894  1.00  0.00     0.053 C 
BRANCH  13  14
ATOM     14  C   UNL     1      49.129  -5.777  25.237  1.00  0.00     0.041 C 
ATOM     15  O   UNL     1      50.154  -6.399  25.625  1.00  0.00    -0.550 OA
ATOM     16  O   UNL     1      48.536  -4.841  26.075  1.00  0.00    -0.550 OA
ENDBRANCH  13  14
ENDBRANCH  12  13
ENDBRANCH  11  12
ENDBRANCH  10  11
ENDBRANCH   9  10
ENDBRANCH   8   9
ENDBRANCH   7   8
ENDBRANCH   6   7
ENDBRANCH   5   6
ENDBRANCH   4   5
ENDBRANCH   3   4
ENDBRANCH   2   3
ENDBRANCH   1   2
BRANCH   1  17
ATOM     17  C   UNL     1      42.782  -1.364  33.131  1.00  0.00     0.000 C 
BRANCH  17  18
ATOM     18  C   UNL     1      42.965  -2.485  34.175  1.00  0.00     0.000 C 
BRANCH  18  19
ATOM     19  C   UNL     1      43.453  -3.833  33.609  1.00  0.00     0.000 C 
BRANCH  19  20
ATOM     20  C   UNL     1      42.506  -5.026  33.850  1.00  0.00     0.000 C 
BRANCH  20  21
ATOM     21  C   UNL     1      41.637  -5.414  32.642  1.00  0.00     0.000 C 
BRANCH  21  22
ATOM     22  C   UNL     1      42.456  -5.596  31.351  1.00  0.00    -0.000 C 
BRANCH  22  23
ATOM     23  C   UNL     1      41.559  -5.630  30.095  1.00  0.00    -0.000 C 
BRANCH  23  24
ATOM     24  C   UNL     1      40.347  -4.684  30.170  1.00  0.00    -0.000 C 
BRANCH  24  25
ATOM     25  C   UNL     1      40.319  -3.656  29.027  1.00  0.00    -0.000 C 
BRANCH  25  26
ATOM     26  C   UNL     1      39.177  -3.901  28.023  1.00  0.00    -0.000 C 
BRANCH  26  27
ATOM     27  C   UNL     1      39.623  -4.338  26.615  1.00  0.00    -0.000 C 
BRANCH  27  28
ATOM     28  C   UNL     1      40.119  -5.791  26.565  1.00  0.00    -0.000 C 
BRANCH  28  29
ATOM     29  C   UNL     1      39.035  -6.760  27.053  1.00  0.00    -0.003 C 
ATOM     30  C   UNL     1      38.460  -7.573  25.895  1.00  0.00     0.004 C 
ENDBRANCH  28  29
ENDBRANCH  27  28
ENDBRANCH  26  27
ENDBRANCH  25  26
ENDBRANCH  24  25
ENDBRANCH  23  24
ENDBRANCH  22  23
ENDBRANCH  21  22
ENDBRANCH  20  21
ENDBRANCH  19  20
ENDBRANCH  18  19
ENDBRANCH  17  18
ENDBRANCH   1  17
TORSDOF 26
ENDMDL
MODEL 8
REMARK VINA RESULT:    -5.197      3.038      4.250
REMARK INTER + INTRA:         -16.459
REMARK INTER:                 -12.220
REMARK INTRA:                  -4.239
REMARK UNBOUND:                -3.363
REMARK SMILES CCCCCCCCCCCCCCCCCCCCCCCCCCCC(=O)[O-]
REMARK SMILES IDX 15 1 16 2 17 3 18 4 19 5 20 6 21 7 22 8 23 9 24 10 25 11
REMARK SMILES IDX 26 12 27 13 28 14 29 15 30 16 14 17 13 18 12 19 11 20 10 21
REMARK SMILES IDX 9 22 8 23 7 24 6 25 5 26 4 27 3 28 2 29 1 30
REMARK H PARENT
REMARK Flexibility Score: inf
ROOT
ATOM      1  C   UNL     1      43.178  -5.102  27.221  1.00  0.00     0.000 C 
ENDROOT
BRANCH   1   2
ATOM      2  C   UNL     1      43.369  -5.438  28.709  1.00  0.00     0.000 C 
BRANCH   2   3
ATOM      3  C   UNL     1      43.114  -4.235  29.631  1.00  0.00     0.000 C 
BRANCH   3   4
ATOM      4  C   UNL     1      42.544  -3.019  28.882  1.00  0.00     0.000 C 
BRANCH   4   5
ATOM      5  C   UNL     1      43.258  -1.724  29.304  1.00  0.00     0.000 C 
BRANCH   5   6
ATOM      6  C   UNL     1      43.555  -1.675  30.812  1.00  0.00     0.000 C 
BRANCH   6   7
ATOM      7  C   UNL     1      42.315  -1.339  31.652  1.00  0.00     0.000 C 
BRANCH   7   8
ATOM      8  C   UNL     1      41.928  -2.518  32.558  1.00  0.00     0.000 C 
BRANCH   8   9
ATOM      9  C   UNL     1      40.407  -2.702  32.675  1.00  0.00     0.000 C 
BRANCH   9  10
ATOM     10  C   UNL     1      39.854  -3.728  31.676  1.00  0.00     0.000 C 
BRANCH  10  11
ATOM     11  C   UNL     1      39.254  -3.029  30.447  1.00  0.00     0.000 C 
BRANCH  11  12
ATOM     12  C   UNL     1      38.655  -4.011  29.425  1.00  0.00     0.006 C 
BRANCH  12  13
ATOM     13  C   UNL     1      38.724  -3.516  27.970  1.00  0.00     0.053 C 
BRANCH  13  14
ATOM     14  C   UNL     1      39.520  -4.433  27.090  1.00  0.00     0.041 C 
ATOM     15  O   UNL     1      40.020  -4.004  26.016  1.00  0.00    -0.550 OA
ATOM     16  O   UNL     1      39.680  -5.769  27.436  1.00  0.00    -0.550 OA
ENDBRANCH  13  14
ENDBRANCH  12  13
ENDBRANCH  11  12
ENDBRANCH  10  11
ENDBRANCH   9  10
ENDBRANCH   8   9
ENDBRANCH   7   8
ENDBRANCH   6   7
ENDBRANCH   5   6
ENDBRANCH   4   5
ENDBRANCH   3   4
ENDBRANCH   2   3
ENDBRANCH   1   2
BRANCH   1  17
ATOM     17  C   UNL     1      44.021  -5.999  26.297  1.00  0.00     0.000 C 
BRANCH  17  18
ATOM     18  C   UNL     1      45.081  -6.858  27.015  1.00  0.00     0.000 C 
BRANCH  18  19
ATOM     19  C   UNL     1      45.915  -7.773  26.096  1.00  0.00     0.000 C 
BRANCH  19  20
ATOM     20  C   UNL     1      45.446  -7.828  24.627  1.00  0.00     0.000 C 
BRANCH  20  21
ATOM     21  C   UNL     1      46.253  -6.947  23.659  1.00  0.00     0.000 C 
BRANCH  21  22
ATOM     22  C   UNL     1      47.354  -7.727  22.918  1.00  0.00    -0.000 C 
BRANCH  22  23
ATOM     23  C   UNL     1      48.767  -7.231  23.291  1.00  0.00    -0.000 C 
BRANCH  23  24
ATOM     24  C   UNL     1      49.240  -7.689  24.682  1.00  0.00    -0.000 C 
BRANCH  24  25
ATOM     25  C   UNL     1      50.019  -6.601  25.438  1.00  0.00    -0.000 C 
BRANCH  25  26
ATOM     26  C   UNL     1      49.397  -5.199  25.288  1.00  0.00    -0.000 C 
BRANCH  26  27
ATOM     27  C   UNL     1      48.515  -4.743  26.465  1.00  0.00    -0.000 C 
BRANCH  27  28
ATOM     28  C   UNL     1      47.203  -4.084  26.014  1.00  0.00    -0.000 C 
BRANCH  28  29
ATOM     29  C   UNL     1      46.405  -3.566  27.216  1.00  0.00    -0.003 C 
ATOM     30  C   UNL     1      46.421  -2.040  27.272  1.00  0.00     0.004 C 
ENDBRANCH  28  29
ENDBRANCH  27  28
ENDBRANCH  26  27
ENDBRANCH  25  26
ENDBRANCH  24  25
ENDBRANCH  23  24
ENDBRANCH  22  23
ENDBRANCH  21  22
ENDBRANCH  20  21
ENDBRANCH  19  20
ENDBRANCH  18  19
ENDBRANCH  17  18
ENDBRANCH   1  17
TORSDOF 26
ENDMDL
MODEL 9
REMARK VINA RESULT:    -5.134      3.906      8.555
REMARK INTER + INTRA:         -16.299
REMARK INTER:                 -11.970
REMARK INTRA:                  -4.329
REMARK UNBOUND:                -3.363
REMARK SMILES CCCCCCCCCCCCCCCCCCCCCCCCCCCC(=O)[O-]
REMARK SMILES IDX 15 1 16 2 17 3 18 4 19 5 20 6 21 7 22 8 23 9 24 10 25 11
REMARK SMILES IDX 26 12 27 13 28 14 29 15 30 16 14 17 13 18 12 19 11 20 10 21
REMARK SMILES IDX 9 22 8 23 7 24 6 25 5 26 4 27 3 28 2 29 1 30
REMARK H PARENT
REMARK Flexibility Score: inf
ROOT
ATOM      1  C   UNL     1      38.478  -3.373  28.764  1.00  0.00     0.000 C 
ENDROOT
BRANCH   1   2
ATOM      2  C   UNL     1      38.894  -2.088  29.501  1.00  0.00     0.000 C 
BRANCH   2   3
ATOM      3  C   UNL     1      40.090  -2.301  30.442  1.00  0.00     0.000 C 
BRANCH   3   4
ATOM      4  C   UNL     1      41.322  -1.473  30.039  1.00  0.00     0.000 C 
BRANCH   4   5
ATOM      5  C   UNL     1      42.147  -2.196  28.962  1.00  0.00     0.000 C 
BRANCH   5   6
ATOM      6  C   UNL     1      43.651  -2.214  29.279  1.00  0.00     0.000 C 
BRANCH   6   7
ATOM      7  C   UNL     1      44.317  -3.554  28.932  1.00  0.00     0.000 C 
BRANCH   7   8
ATOM      8  C   UNL     1      45.348  -3.381  27.806  1.00  0.00     0.000 C 
BRANCH   8   9
ATOM      9  C   UNL     1      45.918  -4.720  27.314  1.00  0.00     0.000 C 
BRANCH   9  10
ATOM     10  C   UNL     1      45.050  -5.372  26.227  1.00  0.00     0.000 C 
BRANCH  10  11
ATOM     11  C   UNL     1      44.937  -6.887  26.451  1.00  0.00     0.000 C 
BRANCH  11  12
ATOM     12  C   UNL     1      46.276  -7.625  26.275  1.00  0.00     0.006 C 
BRANCH  12  13
ATOM     13  C   UNL     1      46.940  -7.393  24.906  1.00  0.00     0.053 C 
BRANCH  13  14
ATOM     14  C   UNL     1      48.340  -6.871  25.029  1.00  0.00     0.041 C 
ATOM     15  O   UNL     1      49.297  -7.666  25.226  1.00  0.00    -0.550 OA
ATOM     16  O   UNL     1      48.585  -5.505  24.963  1.00  0.00    -0.550 OA
ENDBRANCH  13  14
ENDBRANCH  12  13
ENDBRANCH  11  12
ENDBRANCH  10  11
ENDBRANCH   9  10
ENDBRANCH   8   9
ENDBRANCH   7   8
ENDBRANCH   6   7
ENDBRANCH   5   6
ENDBRANCH   4   5
ENDBRANCH   3   4
ENDBRANCH   2   3
ENDBRANCH   1   2
BRANCH   1  17
ATOM     17  C   UNL     1      38.714  -3.289  27.246  1.00  0.00     0.000 C 
BRANCH  17  18
ATOM     18  C   UNL     1      38.743  -4.648  26.517  1.00  0.00     0.000 C 
BRANCH  18  19
ATOM     19  C   UNL     1      39.703  -5.694  27.119  1.00  0.00     0.000 C 
BRANCH  19  20
ATOM     20  C   UNL     1      41.186  -5.272  27.164  1.00  0.00     0.000 C 
BRANCH  20  21
ATOM     21  C   UNL     1      41.976  -5.819  28.365  1.00  0.00     0.000 C 
BRANCH  21  22
ATOM     22  C   UNL     1      41.194  -5.724  29.687  1.00  0.00    -0.000 C 
BRANCH  22  23
ATOM     23  C   UNL     1      41.686  -6.754  30.727  1.00  0.00    -0.000 C 
BRANCH  23  24
ATOM     24  C   UNL     1      42.461  -6.131  31.901  1.00  0.00    -0.000 C 
BRANCH  24  25
ATOM     25  C   UNL     1      42.383  -4.596  31.922  1.00  0.00    -0.000 C 
BRANCH  25  26
ATOM     26  C   UNL     1      43.151  -3.968  33.100  1.00  0.00    -0.000 C 
BRANCH  26  27
ATOM     27  C   UNL     1      43.474  -2.469  32.950  1.00  0.00    -0.000 C 
BRANCH  27  28
ATOM     28  C   UNL     1      43.188  -1.661  34.225  1.00  0.00    -0.000 C 
BRANCH  28  29
ATOM     29  C   UNL     1      43.630  -0.202  34.062  1.00  0.00    -0.003 C 
ATOM     30  C   UNL     1      43.333   0.311  32.655  1.00  0.00     0.004 C 
ENDBRANCH  28  29
ENDBRANCH  27  28
ENDBRANCH  26  27
ENDBRANCH  25  26
ENDBRANCH  24  25
ENDBRANCH  23  24
ENDBRANCH  22  23
ENDBRANCH  21  22
ENDBRANCH  20  21
ENDBRANCH  19  20
ENDBRANCH  18  19
ENDBRANCH  17  18
ENDBRANCH   1  17
TORSDOF 26
ENDMDL
