MODEL 1
REMARK VINA RESULT:    -4.412      0.000      0.000
REMARK INTER + INTRA:         -10.402
REMARK INTER:                  -8.282
REMARK INTRA:                  -2.120
REMARK UNBOUND:                -2.120
REMARK SMILES CCCCCCCCC=CCCCCCCCC(=O)[O-]
REMARK SMILES IDX 10 1 9 2 11 3 12 4 13 5 14 6 15 7 16 8 17 9 18 10 19 11
REMARK SMILES IDX 20 12 8 13 7 14 6 15 5 16 4 17 3 18 2 19 1 20
REMARK H PARENT
REMARK Flexibility Score: inf
ROOT
ATOM      1  C   UNL     1     114.929  95.357 113.074  1.00  0.00    -0.031 C 
ATOM      2  C   UNL     1     116.182  95.052 112.683  1.00  0.00    -0.031 C 
ENDROOT
BRANCH   1   3
ATOM      3  C   UNL     1     113.725  94.462 112.920  1.00  0.00     0.027 C 
BRANCH   3   4
ATOM      4  C   UNL     1     113.345  93.792 114.247  1.00  0.00     0.004 C 
BRANCH   4   5
ATOM      5  C   UNL     1     112.614  94.780 115.168  1.00  0.00     0.000 C 
BRANCH   5   6
ATOM      6  C   UNL     1     111.143  94.985 114.770  1.00  0.00     0.000 C 
BRANCH   6   7
ATOM      7  C   UNL     1     110.394  93.655 114.579  1.00  0.00     0.000 C 
BRANCH   7   8
ATOM      8  C   UNL     1     109.756  93.139 115.883  1.00  0.00     0.006 C 
BRANCH   8   9
ATOM      9  C   UNL     1     108.242  92.892 115.796  1.00  0.00     0.053 C 
BRANCH   9  10
ATOM     10  C   UNL     1     107.453  94.033 116.363  1.00  0.00     0.041 C 
ATOM     11  O   UNL     1     106.203  93.937 116.489  1.00  0.00    -0.550 OA
ATOM     12  O   UNL     1     108.094  95.212 116.722  1.00  0.00    -0.550 OA
ENDBRANCH   9  10
ENDBRANCH   8   9
ENDBRANCH   7   8
ENDBRANCH   6   7
ENDBRANCH   5   6
ENDBRANCH   4   5
ENDBRANCH   3   4
ENDBRANCH   1   3
BRANCH   2  13
ATOM     13  C   UNL     1     116.608  93.750 112.046  1.00  0.00     0.027 C 
BRANCH  13  14
ATOM     14  C   UNL     1     117.720  93.051 112.846  1.00  0.00     0.004 C 
BRANCH  14  15
ATOM     15  C   UNL     1     117.388  91.617 113.300  1.00  0.00     0.000 C 
BRANCH  15  16
ATOM     16  C   UNL     1     116.519  91.575 114.565  1.00  0.00     0.000 C 
BRANCH  16  17
ATOM     17  C   UNL     1     117.388  91.432 115.824  1.00  0.00    -0.000 C 
BRANCH  17  18
ATOM     18  C   UNL     1     117.179  92.581 116.823  1.00  0.00    -0.000 C 
BRANCH  18  19
ATOM     19  C   UNL     1     116.343  93.729 116.239  1.00  0.00    -0.003 C 
ATOM     20  C   UNL     1     117.178  94.998 116.094  1.00  0.00     0.004 C 
ENDBRANCH  18  19
ENDBRANCH  17  18
ENDBRANCH  16  17
ENDBRANCH  15  16
ENDBRANCH  14  15
ENDBRANCH  13  14
ENDBRANCH   2  13
TORSDOF 15
ENDMDL
MODEL 2
REMARK VINA RESULT:    -4.343      8.806     12.839
REMARK INTER + INTRA:         -10.271
REMARK INTER:                  -8.545
REMARK INTRA:                  -1.726
REMARK UNBOUND:                -2.120
REMARK SMILES CCCCCCCCC=CCCCCCCCC(=O)[O-]
REMARK SMILES IDX 10 1 9 2 11 3 12 4 13 5 14 6 15 7 16 8 17 9 18 10 19 11
REMARK SMILES IDX 20 12 8 13 7 14 6 15 5 16 4 17 3 18 2 19 1 20
REMARK H PARENT
REMARK Flexibility Score: inf
ROOT
ATOM      1  C   UNL     1     101.701  97.862 114.465  1.00  0.00    -0.031 C 
ATOM      2  C   UNL     1     100.909  98.909 114.764  1.00  0.00    -0.031 C 
ENDROOT
BRANCH   1   3
ATOM      3  C   UNL     1     102.386  96.971 115.472  1.00  0.00     0.027 C 
BRANCH   3   4
ATOM      4  C   UNL     1     103.656  96.336 114.894  1.00  0.00     0.004 C 
BRANCH   4   5
ATOM      5  C   UNL     1     104.143  95.180 115.781  1.00  0.00     0.000 C 
BRANCH   5   6
ATOM      6  C   UNL     1     105.588  94.760 115.467  1.00  0.00     0.000 C 
BRANCH   6   7
ATOM      7  C   UNL     1     106.062  93.584 116.339  1.00  0.00     0.000 C 
BRANCH   7   8
ATOM      8  C   UNL     1     104.917  92.626 116.719  1.00  0.00     0.006 C 
BRANCH   8   9
ATOM      9  C   UNL     1     104.515  91.643 115.608  1.00  0.00     0.053 C 
BRANCH   9  10
ATOM     10  C   UNL     1     103.072  91.250 115.701  1.00  0.00     0.041 C 
ATOM     11  O   UNL     1     102.436  91.424 116.775  1.00  0.00    -0.550 OA
ATOM     12  O   UNL     1     102.439  90.664 114.612  1.00  0.00    -0.550 OA
ENDBRANCH   9  10
ENDBRANCH   8   9
ENDBRANCH   7   8
ENDBRANCH   6   7
ENDBRANCH   5   6
ENDBRANCH   4   5
ENDBRANCH   3   4
ENDBRANCH   1   3
BRANCH   2  13
ATOM     13  C   UNL     1     100.545  99.363 116.158  1.00  0.00     0.027 C 
BRANCH  13  14
ATOM     14  C   UNL     1     100.015 100.808 116.176  1.00  0.00     0.004 C 
BRANCH  14  15
ATOM     15  C   UNL     1     101.082 101.884 116.456  1.00  0.00     0.000 C 
BRANCH  15  16
ATOM     16  C   UNL     1     101.743 102.419 115.178  1.00  0.00     0.000 C 
BRANCH  16  17
ATOM     17  C   UNL     1     103.269 102.501 115.342  1.00  0.00    -0.000 C 
BRANCH  17  18
ATOM     18  C   UNL     1     103.800 101.554 116.429  1.00  0.00    -0.000 C 
BRANCH  18  19
ATOM     19  C   UNL     1     104.377 100.253 115.851  1.00  0.00    -0.003 C 
ATOM     20  C   UNL     1     104.821  99.307 116.962  1.00  0.00     0.004 C 
ENDBRANCH  18  19
ENDBRANCH  17  18
ENDBRANCH  16  17
ENDBRANCH  15  16
ENDBRANCH  14  15
ENDBRANCH  13  14
ENDBRANCH   2  13
TORSDOF 15
ENDMDL
MODEL 3
REMARK VINA RESULT:    -4.305      4.913     11.574
REMARK INTER + INTRA:         -10.201
REMARK INTER:                  -7.803
REMARK INTRA:                  -2.398
REMARK UNBOUND:                -2.120
REMARK SMILES CCCCCCCCC=CCCCCCCCC(=O)[O-]
REMARK SMILES IDX 10 1 9 2 11 3 12 4 13 5 14 6 15 7 16 8 17 9 18 10 19 11
REMARK SMILES IDX 20 12 8 13 7 14 6 15 5 16 4 17 3 18 2 19 1 20
REMARK H PARENT
REMARK Flexibility Score: inf
ROOT
ATOM      1  C   UNL     1     104.300  91.691 115.733  1.00  0.00    -0.031 C 
ATOM      2  C   UNL     1     103.080  91.143 115.569  1.00  0.00    -0.031 C 
ENDROOT
BRANCH   1   3
ATOM      3  C   UNL     1     104.651  92.746 116.752  1.00  0.00     0.027 C 
BRANCH   3   4
ATOM      4  C   UNL     1     104.780  94.132 116.109  1.00  0.00     0.004 C 
BRANCH   4   5
ATOM      5  C   UNL     1     106.024  94.205 115.211  1.00  0.00     0.000 C 
BRANCH   5   6
ATOM      6  C   UNL     1     107.323  94.400 116.011  1.00  0.00     0.000 C 
BRANCH   6   7
ATOM      7  C   UNL     1     108.218  93.150 115.994  1.00  0.00     0.000 C 
BRANCH   7   8
ATOM      8  C   UNL     1     109.689  93.467 116.321  1.00  0.00     0.006 C 
BRANCH   8   9
ATOM      9  C   UNL     1     110.411  94.309 115.258  1.00  0.00     0.053 C 
BRANCH   9  10
ATOM     10  C   UNL     1     110.843  93.484 114.084  1.00  0.00     0.041 C 
ATOM     11  O   UNL     1     111.949  92.881 114.108  1.00  0.00    -0.550 OA
ATOM     12  O   UNL     1     110.039  93.406 112.954  1.00  0.00    -0.550 OA
ENDBRANCH   9  10
ENDBRANCH   8   9
ENDBRANCH   7   8
ENDBRANCH   6   7
ENDBRANCH   5   6
ENDBRANCH   4   5
ENDBRANCH   3   4
ENDBRANCH   1   3
BRANCH   2  13
ATOM     13  C   UNL     1     101.855  91.468 116.391  1.00  0.00     0.027 C 
BRANCH  13  14
ATOM     14  C   UNL     1     100.794  92.226 115.573  1.00  0.00     0.004 C 
BRANCH  14  15
ATOM     15  C   UNL     1     101.185  93.663 115.182  1.00  0.00     0.000 C 
BRANCH  15  16
ATOM     16  C   UNL     1     101.137  93.906 113.666  1.00  0.00     0.000 C 
BRANCH  16  17
ATOM     17  C   UNL     1     102.552  93.908 113.066  1.00  0.00    -0.000 C 
BRANCH  17  18
ATOM     18  C   UNL     1     102.877  92.612 112.308  1.00  0.00    -0.000 C 
BRANCH  18  19
ATOM     19  C   UNL     1     101.618  91.823 111.915  1.00  0.00    -0.003 C 
ATOM     20  C   UNL     1     101.788  90.336 112.209  1.00  0.00     0.004 C 
ENDBRANCH  18  19
ENDBRANCH  17  18
ENDBRANCH  16  17
ENDBRANCH  15  16
ENDBRANCH  14  15
ENDBRANCH  13  14
ENDBRANCH   2  13
TORSDOF 15
ENDMDL
MODEL 4
REMARK VINA RESULT:    -4.300      5.958     10.806
REMARK INTER + INTRA:         -10.190
REMARK INTER:                  -7.140
REMARK INTRA:                  -3.050
REMARK UNBOUND:                -2.120
REMARK SMILES CCCCCCCCC=CCCCCCCCC(=O)[O-]
REMARK SMILES IDX 10 1 9 2 11 3 12 4 13 5 14 6 15 7 16 8 17 9 18 10 19 11
REMARK SMILES IDX 20 12 8 13 7 14 6 15 5 16 4 17 3 18 2 19 1 20
REMARK H PARENT
REMARK Flexibility Score: inf
ROOT
ATOM      1  C   UNL     1     101.344  91.834 113.843  1.00  0.00    -0.031 C 
ATOM      2  C   UNL     1     101.731  91.738 112.556  1.00  0.00    -0.031 C 
ENDROOT
BRANCH   1   3
ATOM      3  C   UNL     1     101.844  90.964 114.971  1.00  0.00     0.027 C 
BRANCH   3   4
ATOM      4  C   UNL     1     102.651  91.773 115.993  1.00  0.00     0.004 C 
BRANCH   4   5
ATOM      5  C   UNL     1     104.142  91.790 115.623  1.00  0.00     0.000 C 
BRANCH   5   6
ATOM      6  C   UNL     1     105.003  92.524 116.665  1.00  0.00     0.000 C 
BRANCH   6   7
ATOM      7  C   UNL     1     106.484  92.602 116.255  1.00  0.00     0.000 C 
BRANCH   7   8
ATOM      8  C   UNL     1     106.968  94.049 116.047  1.00  0.00     0.006 C 
BRANCH   8   9
ATOM      9  C   UNL     1     108.472  94.257 116.282  1.00  0.00     0.053 C 
BRANCH   9  10
ATOM     10  C   UNL     1     109.305  93.510 115.285  1.00  0.00     0.041 C 
ATOM     11  O   UNL     1     110.092  92.605 115.671  1.00  0.00    -0.550 OA
ATOM     12  O   UNL     1     109.234  93.835 113.937  1.00  0.00    -0.550 OA
ENDBRANCH   9  10
ENDBRANCH   8   9
ENDBRANCH   7   8
ENDBRANCH   6   7
ENDBRANCH   5   6
ENDBRANCH   4   5
ENDBRANCH   3   4
ENDBRANCH   1   3
BRANCH   2  13
ATOM     13  C   UNL     1     102.751  90.762 112.018  1.00  0.00     0.027 C 
BRANCH  13  14
ATOM     14  C   UNL     1     104.133  91.413 111.834  1.00  0.00     0.004 C 
BRANCH  14  15
ATOM     15  C   UNL     1     104.122  92.953 111.795  1.00  0.00     0.000 C 
BRANCH  15  16
ATOM     16  C   UNL     1     105.290  93.580 112.569  1.00  0.00     0.000 C 
BRANCH  16  17
ATOM     17  C   UNL     1     104.847  94.865 113.286  1.00  0.00    -0.000 C 
BRANCH  17  18
ATOM     18  C   UNL     1     103.324  94.944 113.474  1.00  0.00    -0.000 C 
BRANCH  18  19
ATOM     19  C   UNL     1     102.922  95.302 114.912  1.00  0.00    -0.003 C 
ATOM     20  C   UNL     1     103.999  96.143 115.590  1.00  0.00     0.004 C 
ENDBRANCH  18  19
ENDBRANCH  17  18
ENDBRANCH  16  17
ENDBRANCH  15  16
ENDBRANCH  14  15
ENDBRANCH  13  14
ENDBRANCH   2  13
TORSDOF 15
ENDMDL
MODEL 5
REMARK VINA RESULT:    -4.283      8.395     12.782
REMARK INTER + INTRA:         -10.160
REMARK INTER:                  -7.481
REMARK INTRA:                  -2.679
REMARK UNBOUND:                -2.120
REMARK SMILES CCCCCCCCC=CCCCCCCCC(=O)[O-]
REMARK SMILES IDX 10 1 9 2 11 3 12 4 13 5 14 6 15 7 16 8 17 9 18 10 19 11
REMARK SMILES IDX 20 12 8 13 7 14 6 15 5 16 4 17 3 18 2 19 1 20
REMARK H PARENT
REMARK Flexibility Score: inf
ROOT
ATOM      1  C   UNL     1     100.517  98.678 115.876  1.00  0.00    -0.031 C 
ATOM      2  C   UNL     1     100.319  99.814 116.573  1.00  0.00    -0.031 C 
ENDROOT
BRANCH   1   3
ATOM      3  C   UNL     1     100.904  98.605 114.420  1.00  0.00     0.027 C 
BRANCH   3   4
ATOM      4  C   UNL     1     101.309  97.183 114.013  1.00  0.00     0.004 C 
BRANCH   4   5
ATOM      5  C   UNL     1     101.487  96.290 115.251  1.00  0.00     0.000 C 
BRANCH   5   6
ATOM      6  C   UNL     1     102.674  95.322 115.118  1.00  0.00     0.000 C 
BRANCH   6   7
ATOM      7  C   UNL     1     103.928  96.003 114.542  1.00  0.00     0.000 C 
BRANCH   7   8
ATOM      8  C   UNL     1     105.180  95.776 115.410  1.00  0.00     0.006 C 
BRANCH   8   9
ATOM      9  C   UNL     1     106.068  94.609 114.953  1.00  0.00     0.053 C 
BRANCH   9  10
ATOM     10  C   UNL     1     106.217  93.565 116.018  1.00  0.00     0.041 C 
ATOM     11  O   UNL     1     107.286  92.904 116.111  1.00  0.00    -0.550 OA
ATOM     12  O   UNL     1     105.165  93.301 116.885  1.00  0.00    -0.550 OA
ENDBRANCH   9  10
ENDBRANCH   8   9
ENDBRANCH   7   8
ENDBRANCH   6   7
ENDBRANCH   5   6
ENDBRANCH   4   5
ENDBRANCH   3   4
ENDBRANCH   1   3
BRANCH   2  13
ATOM     13  C   UNL     1     100.475 101.215 116.029  1.00  0.00     0.027 C 
BRANCH  13  14
ATOM     14  C   UNL     1     101.814 101.850 116.443  1.00  0.00     0.004 C 
BRANCH  14  15
ATOM     15  C   UNL     1     102.628 102.457 115.284  1.00  0.00     0.000 C 
BRANCH  15  16
ATOM     16  C   UNL     1     104.134 102.179 115.400  1.00  0.00     0.000 C 
BRANCH  16  17
ATOM     17  C   UNL     1     104.586 101.155 114.347  1.00  0.00    -0.000 C 
BRANCH  17  18
ATOM     18  C   UNL     1     104.364  99.703 114.798  1.00  0.00    -0.000 C 
BRANCH  18  19
ATOM     19  C   UNL     1     104.974  99.411 116.178  1.00  0.00    -0.003 C 
ATOM     20  C   UNL     1     103.935  98.815 117.122  1.00  0.00     0.004 C 
ENDBRANCH  18  19
ENDBRANCH  17  18
ENDBRANCH  16  17
ENDBRANCH  15  16
ENDBRANCH  14  15
ENDBRANCH  13  14
ENDBRANCH   2  13
TORSDOF 15
ENDMDL
MODEL 6
REMARK VINA RESULT:    -4.271      6.026      9.759
REMARK INTER + INTRA:         -10.137
REMARK INTER:                  -7.812
REMARK INTRA:                  -2.325
REMARK UNBOUND:                -2.120
REMARK SMILES CCCCCCCCC=CCCCCCCCC(=O)[O-]
REMARK SMILES IDX 10 1 9 2 11 3 12 4 13 5 14 6 15 7 16 8 17 9 18 10 19 11
REMARK SMILES IDX 20 12 8 13 7 14 6 15 5 16 4 17 3 18 2 19 1 20
REMARK H PARENT
REMARK Flexibility Score: inf
ROOT
ATOM      1  C   UNL     1     105.213  92.287 116.484  1.00  0.00    -0.031 C 
ATOM      2  C   UNL     1     105.521  93.597 116.557  1.00  0.00    -0.031 C 
ENDROOT
BRANCH   1   3
ATOM      3  C   UNL     1     104.122  91.694 115.627  1.00  0.00     0.027 C 
BRANCH   3   4
ATOM      4  C   UNL     1     102.816  91.524 116.412  1.00  0.00     0.004 C 
BRANCH   4   5
ATOM      5  C   UNL     1     101.598  91.741 115.501  1.00  0.00     0.000 C 
BRANCH   5   6
ATOM      6  C   UNL     1     101.206  93.222 115.378  1.00  0.00     0.000 C 
BRANCH   6   7
ATOM      7  C   UNL     1     101.423  93.773 113.958  1.00  0.00     0.000 C 
BRANCH   7   8
ATOM      8  C   UNL     1     101.722  95.284 113.945  1.00  0.00     0.006 C 
BRANCH   8   9
ATOM      9  C   UNL     1     101.421  96.004 115.269  1.00  0.00     0.053 C 
BRANCH   9  10
ATOM     10  C   UNL     1     102.057  97.359 115.330  1.00  0.00     0.041 C 
ATOM     11  O   UNL     1     102.985  97.587 116.151  1.00  0.00    -0.550 OA
ATOM     12  O   UNL     1     101.605  98.377 114.500  1.00  0.00    -0.550 OA
ENDBRANCH   9  10
ENDBRANCH   8   9
ENDBRANCH   7   8
ENDBRANCH   6   7
ENDBRANCH   5   6
ENDBRANCH   4   5
ENDBRANCH   3   4
ENDBRANCH   1   3
BRANCH   2  13
ATOM     13  C   UNL     1     104.847  94.700 115.775  1.00  0.00     0.027 C 
BRANCH  13  14
ATOM     14  C   UNL     1     105.447  94.861 114.367  1.00  0.00     0.004 C 
BRANCH  14  15
ATOM     15  C   UNL     1     106.702  95.752 114.297  1.00  0.00     0.000 C 
BRANCH  15  16
ATOM     16  C   UNL     1     106.809  96.729 115.476  1.00  0.00     0.000 C 
BRANCH  16  17
ATOM     17  C   UNL     1     108.052  96.426 116.329  1.00  0.00    -0.000 C 
BRANCH  17  18
ATOM     18  C   UNL     1     108.954  95.352 115.701  1.00  0.00    -0.000 C 
BRANCH  18  19
ATOM     19  C   UNL     1     109.245  94.188 116.660  1.00  0.00    -0.003 C 
ATOM     20  C   UNL     1     109.554  92.908 115.891  1.00  0.00     0.004 C 
ENDBRANCH  18  19
ENDBRANCH  17  18
ENDBRANCH  16  17
ENDBRANCH  15  16
ENDBRANCH  14  15
ENDBRANCH  13  14
ENDBRANCH   2  13
TORSDOF 15
ENDMDL
MODEL 7
REMARK VINA RESULT:    -4.239      7.387     12.358
REMARK INTER + INTRA:         -10.076
REMARK INTER:                  -7.415
REMARK INTRA:                  -2.661
REMARK UNBOUND:                -2.120
REMARK SMILES CCCCCCCCC=CCCCCCCCC(=O)[O-]
REMARK SMILES IDX 10 1 9 2 11 3 12 4 13 5 14 6 15 7 16 8 17 9 18 10 19 11
REMARK SMILES IDX 20 12 8 13 7 14 6 15 5 16 4 17 3 18 2 19 1 20
REMARK H PARENT
REMARK Flexibility Score: inf
ROOT
ATOM      1  C   UNL     1     105.001 100.017 114.581  1.00  0.00    -0.031 C 
ATOM      2  C   UNL     1     104.637 101.295 114.360  1.00  0.00    -0.031 C 
ENDROOT
BRANCH   1   3
ATOM      3  C   UNL     1     105.026  99.338 115.929  1.00  0.00     0.027 C 
BRANCH   3   4
ATOM      4  C   UNL     1     105.508  97.887 115.821  1.00  0.00     0.004 C 
BRANCH   4   5
ATOM      5  C   UNL     1     105.380  97.373 114.379  1.00  0.00     0.000 C 
BRANCH   5   6
ATOM      6  C   UNL     1     104.778  95.960 114.304  1.00  0.00     0.000 C 
BRANCH   6   7
ATOM      7  C   UNL     1     104.345  95.431 115.682  1.00  0.00     0.000 C 
BRANCH   7   8
ATOM      8  C   UNL     1     104.987  94.074 116.026  1.00  0.00     0.006 C 
BRANCH   8   9
ATOM      9  C   UNL     1     106.199  93.704 115.157  1.00  0.00     0.053 C 
BRANCH   9  10
ATOM     10  C   UNL     1     107.479  93.733 115.935  1.00  0.00     0.041 C 
ATOM     11  O   UNL     1     108.166  92.684 116.063  1.00  0.00    -0.550 OA
ATOM     12  O   UNL     1     107.897  94.910 116.544  1.00  0.00    -0.550 OA
ENDBRANCH   9  10
ENDBRANCH   8   9
ENDBRANCH   7   8
ENDBRANCH   6   7
ENDBRANCH   5   6
ENDBRANCH   4   5
ENDBRANCH   3   4
ENDBRANCH   1   3
BRANCH   2  13
ATOM     13  C   UNL     1     104.165 102.267 115.416  1.00  0.00     0.027 C 
BRANCH  13  14
ATOM     14  C   UNL     1     102.857 102.970 115.011  1.00  0.00     0.004 C 
BRANCH  14  15
ATOM     15  C   UNL     1     101.572 102.191 115.352  1.00  0.00     0.000 C 
BRANCH  15  16
ATOM     16  C   UNL     1     101.623 101.527 116.735  1.00  0.00     0.000 C 
BRANCH  16  17
ATOM     17  C   UNL     1     101.408 100.009 116.624  1.00  0.00    -0.000 C 
BRANCH  17  18
ATOM     18  C   UNL     1     101.150  99.551 115.179  1.00  0.00    -0.000 C 
BRANCH  18  19
ATOM     19  C   UNL     1     101.693  98.142 114.899  1.00  0.00    -0.003 C 
ATOM     20  C   UNL     1     101.444  97.736 113.450  1.00  0.00     0.004 C 
ENDBRANCH  18  19
ENDBRANCH  17  18
ENDBRANCH  16  17
ENDBRANCH  15  16
ENDBRANCH  14  15
ENDBRANCH  13  14
ENDBRANCH   2  13
TORSDOF 15
ENDMDL
MODEL 8
REMARK VINA RESULT:    -4.224      7.830     11.300
REMARK INTER + INTRA:         -10.049
REMARK INTER:                  -7.092
REMARK INTRA:                  -2.957
REMARK UNBOUND:                -2.120
REMARK SMILES CCCCCCCCC=CCCCCCCCC(=O)[O-]
REMARK SMILES IDX 10 1 9 2 11 3 12 4 13 5 14 6 15 7 16 8 17 9 18 10 19 11
REMARK SMILES IDX 20 12 8 13 7 14 6 15 5 16 4 17 3 18 2 19 1 20
REMARK H PARENT
REMARK Flexibility Score: inf
ROOT
ATOM      1  C   UNL     1     102.915  90.772 111.153  1.00  0.00    -0.031 C 
ATOM      2  C   UNL     1     101.903  90.326 111.922  1.00  0.00    -0.031 C 
ENDROOT
BRANCH   1   3
ATOM      3  C   UNL     1     104.282  91.169 111.654  1.00  0.00     0.027 C 
BRANCH   3   4
ATOM      4  C   UNL     1     104.496  92.685 111.572  1.00  0.00     0.004 C 
BRANCH   4   5
ATOM      5  C   UNL     1     104.489  93.315 112.973  1.00  0.00     0.000 C 
BRANCH   5   6
ATOM      6  C   UNL     1     103.266  94.216 113.211  1.00  0.00     0.000 C 
BRANCH   6   7
ATOM      7  C   UNL     1     103.471  95.189 114.385  1.00  0.00     0.000 C 
BRANCH   7   8
ATOM      8  C   UNL     1     102.209  95.348 115.253  1.00  0.00     0.006 C 
BRANCH   8   9
ATOM      9  C   UNL     1     100.898  94.970 114.546  1.00  0.00     0.053 C 
BRANCH   9  10
ATOM     10  C   UNL     1      99.749  95.819 114.998  1.00  0.00     0.041 C 
ATOM     11  O   UNL     1      99.948  97.007 115.368  1.00  0.00    -0.550 OA
ATOM     12  O   UNL     1      98.466  95.289 115.040  1.00  0.00    -0.550 OA
ENDBRANCH   9  10
ENDBRANCH   8   9
ENDBRANCH   7   8
ENDBRANCH   6   7
ENDBRANCH   5   6
ENDBRANCH   4   5
ENDBRANCH   3   4
ENDBRANCH   1   3
BRANCH   2  13
ATOM     13  C   UNL     1     101.964  90.118 113.418  1.00  0.00     0.027 C 
BRANCH  13  14
ATOM     14  C   UNL     1     101.278  91.259 114.189  1.00  0.00     0.004 C 
BRANCH  14  15
ATOM     15  C   UNL     1     101.796  91.472 115.624  1.00  0.00     0.000 C 
BRANCH  15  16
ATOM     16  C   UNL     1     103.292  91.161 115.774  1.00  0.00     0.000 C 
BRANCH  16  17
ATOM     17  C   UNL     1     104.004  92.262 116.577  1.00  0.00    -0.000 C 
BRANCH  17  18
ATOM     18  C   UNL     1     105.520  92.291 116.327  1.00  0.00    -0.000 C 
BRANCH  18  19
ATOM     19  C   UNL     1     106.116  93.700 116.464  1.00  0.00    -0.003 C 
ATOM     20  C   UNL     1     107.350  93.864 115.582  1.00  0.00     0.004 C 
ENDBRANCH  18  19
ENDBRANCH  17  18
ENDBRANCH  16  17
ENDBRANCH  15  16
ENDBRANCH  14  15
ENDBRANCH  13  14
ENDBRANCH   2  13
TORSDOF 15
ENDMDL
MODEL 9
REMARK VINA RESULT:    -4.208      9.673     12.032
REMARK INTER + INTRA:         -10.018
REMARK INTER:                  -8.389
REMARK INTRA:                  -1.629
REMARK UNBOUND:                -2.120
REMARK SMILES CCCCCCCCC=CCCCCCCCC(=O)[O-]
REMARK SMILES IDX 10 1 9 2 11 3 12 4 13 5 14 6 15 7 16 8 17 9 18 10 19 11
REMARK SMILES IDX 20 12 8 13 7 14 6 15 5 16 4 17 3 18 2 19 1 20
REMARK H PARENT
REMARK Flexibility Score: inf
ROOT
ATOM      1  C   UNL     1     103.342  97.704 115.757  1.00  0.00    -0.031 C 
ATOM      2  C   UNL     1     103.984  96.520 115.724  1.00  0.00    -0.031 C 
ENDROOT
BRANCH   1   3
ATOM      3  C   UNL     1     103.099  98.598 114.566  1.00  0.00     0.027 C 
BRANCH   3   4
ATOM      4  C   UNL     1     104.353  99.398 114.196  1.00  0.00     0.004 C 
BRANCH   4   5
ATOM      5  C   UNL     1     104.612 100.514 115.220  1.00  0.00     0.000 C 
BRANCH   5   6
ATOM      6  C   UNL     1     104.456 101.920 114.617  1.00  0.00     0.000 C 
BRANCH   6   7
ATOM      7  C   UNL     1     103.509 102.811 115.440  1.00  0.00     0.000 C 
BRANCH   7   8
ATOM      8  C   UNL     1     102.029 102.423 115.270  1.00  0.00     0.006 C 
BRANCH   8   9
ATOM      9  C   UNL     1     101.406 101.736 116.496  1.00  0.00     0.053 C 
BRANCH   9  10
ATOM     10  C   UNL     1     100.412 100.684 116.106  1.00  0.00     0.041 C 
ATOM     11  O   UNL     1      99.764 100.793 115.031  1.00  0.00    -0.550 OA
ATOM     12  O   UNL     1     100.179  99.602 116.945  1.00  0.00    -0.550 OA
ENDBRANCH   9  10
ENDBRANCH   8   9
ENDBRANCH   7   8
ENDBRANCH   6   7
ENDBRANCH   5   6
ENDBRANCH   4   5
ENDBRANCH   3   4
ENDBRANCH   1   3
BRANCH   2  13
ATOM     13  C   UNL     1     104.553  95.866 114.486  1.00  0.00     0.027 C 
BRANCH  13  14
ATOM     14  C   UNL     1     105.093  94.454 114.775  1.00  0.00     0.004 C 
BRANCH  14  15
ATOM     15  C   UNL     1     105.097  94.055 116.262  1.00  0.00     0.000 C 
BRANCH  15  16
ATOM     16  C   UNL     1     104.953  92.541 116.477  1.00  0.00     0.000 C 
BRANCH  16  17
ATOM     17  C   UNL     1     104.003  91.927 115.436  1.00  0.00    -0.000 C 
BRANCH  17  18
ATOM     18  C   UNL     1     102.788  91.237 116.077  1.00  0.00    -0.000 C 
BRANCH  18  19
ATOM     19  C   UNL     1     101.489  92.034 115.893  1.00  0.00    -0.003 C 
ATOM     20  C   UNL     1     101.661  93.132 114.847  1.00  0.00     0.004 C 
ENDBRANCH  18  19
ENDBRANCH  17  18
ENDBRANCH  16  17
ENDBRANCH  15  16
ENDBRANCH  14  15
ENDBRANCH  13  14
ENDBRANCH   2  13
TORSDOF 15
ENDMDL
