MODEL 1
REMARK VINA RESULT:    -6.291      0.000      0.000
REMARK INTER + INTRA:          -7.909
REMARK INTER:                  -7.578
REMARK INTRA:                  -0.331
REMARK UNBOUND:                -0.331
REMARK SMILES O=c1c(O)c(-c2ccc(O)c(O)c2)oc2cc(O)cc(O)c12
REMARK SMILES IDX 5 1 3 2 2 3 1 4 22 5 20 6 19 7 17 8 16 9 15 10 14 11 6 12
REMARK SMILES IDX 7 13 8 14 9 15 13 16 11 17 10 18 12 20 4 22 21 24 18 26
REMARK H PARENT 10 19 12 21 4 23 21 25 18 27
REMARK Flexibility Score: inf
ROOT
ATOM      1  C   UNL     1       9.444 -14.768  12.130  1.00  0.00     0.180 A 
ATOM      2  C   UNL     1      10.706 -14.181  12.327  1.00  0.00     0.208 A 
ATOM      3  C   UNL     1      10.778 -12.832  12.711  1.00  0.00     0.238 A 
ATOM      4  O   UNL     1      11.908 -12.327  12.939  1.00  0.00    -0.285 OA
ATOM      5  C   UNL     1       9.588 -12.083  12.877  1.00  0.00     0.111 A 
ATOM      6  C   UNL     1       9.544 -10.699  13.224  1.00  0.00     0.134 A 
ATOM      7  C   UNL     1       8.310 -10.093  13.490  1.00  0.00     0.093 A 
ATOM      8  C   UNL     1       7.114 -10.804  13.356  1.00  0.00     0.123 A 
ATOM      9  C   UNL     1       7.144 -12.138  12.959  1.00  0.00     0.094 A 
ATOM     10  C   UNL     1       8.361 -12.781  12.723  1.00  0.00     0.146 A 
ATOM     11  O   UNL     1       8.346 -14.057  12.357  1.00  0.00    -0.452 OA
ENDROOT
BRANCH   1  12
ATOM     12  C   UNL     1       9.289 -16.176  11.701  1.00  0.00     0.025 A 
ATOM     13  C   UNL     1       9.059 -17.171  12.664  1.00  0.00     0.016 A 
ATOM     14  C   UNL     1       8.889 -18.502  12.280  1.00  0.00     0.051 A 
ATOM     15  C   UNL     1       8.930 -18.860  10.928  1.00  0.00     0.157 A 
ATOM     16  C   UNL     1       9.309 -16.534  10.341  1.00  0.00     0.062 A 
ATOM     17  C   UNL     1       9.137 -17.871   9.953  1.00  0.00     0.158 A 
BRANCH  15  18
ATOM     18  O   UNL     1       8.759 -20.198  10.575  1.00  0.00    -0.504 OA
ATOM     19  H   UNL     1       8.128 -20.483   9.836  1.00  0.00     0.293 HD
ENDBRANCH  15  18
BRANCH  17  20
ATOM     20  O   UNL     1       9.164 -18.217   8.603  1.00  0.00    -0.504 OA
ATOM     21  H   UNL     1       9.991 -18.612   8.172  1.00  0.00     0.293 HD
ENDBRANCH  17  20
ENDBRANCH   1  12
BRANCH   2  22
ATOM     22  O   UNL     1      11.867 -14.944  12.179  1.00  0.00    -0.502 OA
ATOM     23  H   UNL     1      12.041 -15.782  12.722  1.00  0.00     0.293 HD
ENDBRANCH   2  22
BRANCH   6  24
ATOM     24  O   UNL     1      10.671  -9.875  13.295  1.00  0.00    -0.507 OA
ATOM     25  H   UNL     1      11.094  -9.413  12.505  1.00  0.00     0.293 HD
ENDBRANCH   6  24
BRANCH   8  26
ATOM     26  O   UNL     1       5.889 -10.189  13.607  1.00  0.00    -0.508 OA
ATOM     27  H   UNL     1       5.830  -9.206  13.850  1.00  0.00     0.293 HD
ENDBRANCH   8  26
TORSDOF 6
ENDMDL
MODEL 2
REMARK VINA RESULT:    -6.199      6.832      8.624
REMARK INTER + INTRA:          -7.799
REMARK INTER:                  -7.495
REMARK INTRA:                  -0.304
REMARK UNBOUND:                -0.331
REMARK SMILES O=c1c(O)c(-c2ccc(O)c(O)c2)oc2cc(O)cc(O)c12
REMARK SMILES IDX 5 1 3 2 2 3 1 4 22 5 20 6 19 7 17 8 16 9 15 10 14 11 6 12
REMARK SMILES IDX 7 13 8 14 9 15 13 16 11 17 10 18 12 20 4 22 21 24 18 26
REMARK H PARENT 10 19 12 21 4 23 21 25 18 27
REMARK Flexibility Score: inf
ROOT
ATOM      1  C   UNL     1       3.501 -15.655   8.205  1.00  0.00     0.180 A 
ATOM      2  C   UNL     1       4.402 -16.292   9.077  1.00  0.00     0.208 A 
ATOM      3  C   UNL     1       5.776 -16.244   8.792  1.00  0.00     0.238 A 
ATOM      4  O   UNL     1       6.581 -16.768   9.604  1.00  0.00    -0.285 OA
ATOM      5  C   UNL     1       6.231 -15.576   7.629  1.00  0.00     0.111 A 
ATOM      6  C   UNL     1       7.596 -15.500   7.221  1.00  0.00     0.134 A 
ATOM      7  C   UNL     1       7.946 -14.701   6.124  1.00  0.00     0.093 A 
ATOM      8  C   UNL     1       6.971 -14.029   5.383  1.00  0.00     0.123 A 
ATOM      9  C   UNL     1       5.629 -14.146   5.738  1.00  0.00     0.094 A 
ATOM     10  C   UNL     1       5.253 -14.905   6.849  1.00  0.00     0.146 A 
ATOM     11  O   UNL     1       3.965 -14.982   7.159  1.00  0.00    -0.452 OA
ENDROOT
BRANCH   1  12
ATOM     12  C   UNL     1       2.038 -15.684   8.426  1.00  0.00     0.025 A 
ATOM     13  C   UNL     1       1.453 -14.751   9.296  1.00  0.00     0.016 A 
ATOM     14  C   UNL     1       0.072 -14.746   9.503  1.00  0.00     0.051 A 
ATOM     15  C   UNL     1      -0.748 -15.661   8.835  1.00  0.00     0.157 A 
ATOM     16  C   UNL     1       1.210 -16.590   7.739  1.00  0.00     0.062 A 
ATOM     17  C   UNL     1      -0.177 -16.585   7.945  1.00  0.00     0.158 A 
BRANCH  15  18
ATOM     18  O   UNL     1      -2.123 -15.634   9.064  1.00  0.00    -0.504 OA
ATOM     19  H   UNL     1      -2.524 -15.185   9.878  1.00  0.00     0.293 HD
ENDBRANCH  15  18
BRANCH  17  20
ATOM     20  O   UNL     1      -0.989 -17.491   7.263  1.00  0.00    -0.504 OA
ATOM     21  H   UNL     1      -1.614 -18.119   7.755  1.00  0.00     0.293 HD
ENDBRANCH  17  20
ENDBRANCH   1  12
BRANCH   2  22
ATOM     22  O   UNL     1       3.934 -16.928  10.231  1.00  0.00    -0.502 OA
ATOM     23  H   UNL     1       3.706 -16.420  11.077  1.00  0.00     0.293 HD
ENDBRANCH   2  22
BRANCH   6  24
ATOM     24  O   UNL     1       8.636 -16.204   7.836  1.00  0.00    -0.507 OA
ATOM     25  H   UNL     1       9.211 -15.843   8.581  1.00  0.00     0.293 HD
ENDBRANCH   6  24
BRANCH   8  26
ATOM     26  O   UNL     1       7.325 -13.250   4.283  1.00  0.00    -0.508 OA
ATOM     27  H   UNL     1       6.914 -12.337   4.127  1.00  0.00     0.293 HD
ENDBRANCH   8  26
TORSDOF 6
ENDMDL
MODEL 3
REMARK VINA RESULT:    -6.121      5.725      7.514
REMARK INTER + INTRA:          -7.705
REMARK INTER:                  -7.665
REMARK INTRA:                  -0.040
REMARK UNBOUND:                -0.331
REMARK SMILES O=c1c(O)c(-c2ccc(O)c(O)c2)oc2cc(O)cc(O)c12
REMARK SMILES IDX 5 1 3 2 2 3 1 4 22 5 20 6 19 7 17 8 16 9 15 10 14 11 6 12
REMARK SMILES IDX 7 13 8 14 9 15 13 16 11 17 10 18 12 20 4 22 21 24 18 26
REMARK H PARENT 10 19 12 21 4 23 21 25 18 27
REMARK Flexibility Score: inf
ROOT
ATOM      1  C   UNL     1       5.585 -15.919   8.486  1.00  0.00     0.180 A 
ATOM      2  C   UNL     1       5.016 -14.991   7.595  1.00  0.00     0.208 A 
ATOM      3  C   UNL     1       5.807 -14.466   6.561  1.00  0.00     0.238 A 
ATOM      4  O   UNL     1       5.278 -13.678   5.735  1.00  0.00    -0.285 OA
ATOM      5  C   UNL     1       7.161 -14.862   6.440  1.00  0.00     0.111 A 
ATOM      6  C   UNL     1       8.066 -14.363   5.455  1.00  0.00     0.134 A 
ATOM      7  C   UNL     1       9.345 -14.922   5.346  1.00  0.00     0.093 A 
ATOM      8  C   UNL     1       9.775 -15.916   6.230  1.00  0.00     0.123 A 
ATOM      9  C   UNL     1       8.919 -16.366   7.232  1.00  0.00     0.094 A 
ATOM     10  C   UNL     1       7.625 -15.855   7.343  1.00  0.00     0.146 A 
ATOM     11  O   UNL     1       6.838 -16.319   8.306  1.00  0.00    -0.452 OA
ENDROOT
BRANCH   1  12
ATOM     12  C   UNL     1       4.822 -16.497   9.615  1.00  0.00     0.025 A 
ATOM     13  C   UNL     1       3.624 -17.183   9.360  1.00  0.00     0.016 A 
ATOM     14  C   UNL     1       2.899 -17.754  10.408  1.00  0.00     0.051 A 
ATOM     15  C   UNL     1       3.364 -17.662  11.723  1.00  0.00     0.157 A 
ATOM     16  C   UNL     1       5.299 -16.423  10.936  1.00  0.00     0.062 A 
ATOM     17  C   UNL     1       4.572 -16.997  11.989  1.00  0.00     0.158 A 
BRANCH  15  18
ATOM     18  O   UNL     1       2.617 -18.240  12.749  1.00  0.00    -0.504 OA
ATOM     19  H   UNL     1       2.904 -18.187  13.719  1.00  0.00     0.293 HD
ENDBRANCH  15  18
BRANCH  17  20
ATOM     20  O   UNL     1       5.050 -16.914  13.296  1.00  0.00    -0.504 OA
ATOM     21  H   UNL     1       6.009 -16.655  13.496  1.00  0.00     0.293 HD
ENDBRANCH  17  20
ENDBRANCH   1  12
BRANCH   2  22
ATOM     22  O   UNL     1       3.671 -14.631   7.720  1.00  0.00    -0.502 OA
ATOM     23  H   UNL     1       3.250 -14.401   8.612  1.00  0.00     0.293 HD
ENDBRANCH   2  22
BRANCH   6  24
ATOM     24  O   UNL     1       7.769 -13.311   4.584  1.00  0.00    -0.507 OA
ATOM     25  H   UNL     1       8.422 -12.906   3.930  1.00  0.00     0.293 HD
ENDBRANCH   6  24
BRANCH   8  26
ATOM     26  O   UNL     1      11.055 -16.456   6.125  1.00  0.00    -0.508 OA
ATOM     27  H   UNL     1      11.361 -16.934   5.285  1.00  0.00     0.293 HD
ENDBRANCH   8  26
TORSDOF 6
ENDMDL
MODEL 4
REMARK VINA RESULT:    -6.102      1.224      1.224
REMARK INTER + INTRA:          -7.682
REMARK INTER:                  -7.391
REMARK INTRA:                  -0.291
REMARK UNBOUND:                -0.331
REMARK SMILES O=c1c(O)c(-c2ccc(O)c(O)c2)oc2cc(O)cc(O)c12
REMARK SMILES IDX 5 1 3 2 2 3 1 4 22 5 20 6 19 7 17 8 16 9 15 10 14 11 6 12
REMARK SMILES IDX 7 13 8 14 9 15 13 16 11 17 10 18 12 20 4 22 21 24 18 26
REMARK H PARENT 10 19 12 21 4 23 21 25 18 27
REMARK Flexibility Score: inf
ROOT
ATOM      1  C   UNL     1       9.955 -14.958  12.762  1.00  0.00     0.180 A 
ATOM      2  C   UNL     1      11.036 -14.131  12.410  1.00  0.00     0.208 A 
ATOM      3  C   UNL     1      11.026 -12.787  12.816  1.00  0.00     0.238 A 
ATOM      4  O   UNL     1      12.021 -12.066  12.546  1.00  0.00    -0.285 OA
ATOM      5  C   UNL     1       9.927 -12.282  13.553  1.00  0.00     0.111 A 
ATOM      6  C   UNL     1       9.792 -10.927  13.980  1.00  0.00     0.134 A 
ATOM      7  C   UNL     1       8.726 -10.569  14.815  1.00  0.00     0.093 A 
ATOM      8  C   UNL     1       7.755 -11.503  15.184  1.00  0.00     0.123 A 
ATOM      9  C   UNL     1       7.846 -12.814  14.722  1.00  0.00     0.094 A 
ATOM     10  C   UNL     1       8.917 -13.210  13.918  1.00  0.00     0.146 A 
ATOM     11  O   UNL     1       8.971 -14.472  13.508  1.00  0.00    -0.452 OA
ENDROOT
BRANCH   1  12
ATOM     12  C   UNL     1       9.883 -16.378  12.349  1.00  0.00     0.025 A 
ATOM     13  C   UNL     1      10.115 -17.386  13.298  1.00  0.00     0.016 A 
ATOM     14  C   UNL     1      10.032 -18.732  12.936  1.00  0.00     0.051 A 
ATOM     15  C   UNL     1       9.701 -19.094  11.626  1.00  0.00     0.157 A 
ATOM     16  C   UNL     1       9.530 -16.743  11.037  1.00  0.00     0.062 A 
ATOM     17  C   UNL     1       9.445 -18.095  10.672  1.00  0.00     0.158 A 
BRANCH  15  18
ATOM     18  O   UNL     1       9.628 -20.445  11.293  1.00  0.00    -0.504 OA
ATOM     19  H   UNL     1       9.013 -20.788  10.565  1.00  0.00     0.293 HD
ENDBRANCH  15  18
BRANCH  17  20
ATOM     20  O   UNL     1       9.100 -18.447   9.368  1.00  0.00    -0.504 OA
ATOM     21  H   UNL     1       9.654 -19.103   8.831  1.00  0.00     0.293 HD
ENDBRANCH  17  20
ENDBRANCH   1  12
BRANCH   2  22
ATOM     22  O   UNL     1      12.121 -14.655  11.702  1.00  0.00    -0.502 OA
ATOM     23  H   UNL     1      12.054 -14.929  10.729  1.00  0.00     0.293 HD
ENDBRANCH   2  22
BRANCH   6  24
ATOM     24  O   UNL     1      10.655  -9.897  13.594  1.00  0.00    -0.507 OA
ATOM     25  H   UNL     1      11.152  -9.863  12.717  1.00  0.00     0.293 HD
ENDBRANCH   6  24
BRANCH   8  26
ATOM     26  O   UNL     1       6.688 -11.135  16.002  1.00  0.00    -0.508 OA
ATOM     27  H   UNL     1       6.739 -11.224  17.010  1.00  0.00     0.293 HD
ENDBRANCH   8  26
TORSDOF 6
ENDMDL
MODEL 5
REMARK VINA RESULT:    -6.089      6.056      8.209
REMARK INTER + INTRA:          -7.666
REMARK INTER:                  -7.346
REMARK INTRA:                  -0.320
REMARK UNBOUND:                -0.331
REMARK SMILES O=c1c(O)c(-c2ccc(O)c(O)c2)oc2cc(O)cc(O)c12
REMARK SMILES IDX 5 1 3 2 2 3 1 4 22 5 20 6 19 7 17 8 16 9 15 10 14 11 6 12
REMARK SMILES IDX 7 13 8 14 9 15 13 16 11 17 10 18 12 20 4 22 21 24 18 26
REMARK H PARENT 10 19 12 21 4 23 21 25 18 27
REMARK Flexibility Score: inf
ROOT
ATOM      1  C   UNL     1       5.674 -15.172   6.921  1.00  0.00     0.180 A 
ATOM      2  C   UNL     1       6.038 -14.212   5.959  1.00  0.00     0.208 A 
ATOM      3  C   UNL     1       7.384 -14.112   5.573  1.00  0.00     0.238 A 
ATOM      4  O   UNL     1       7.696 -13.290   4.673  1.00  0.00    -0.285 OA
ATOM      5  C   UNL     1       8.352 -14.959   6.166  1.00  0.00     0.111 A 
ATOM      6  C   UNL     1       9.749 -14.916   5.880  1.00  0.00     0.134 A 
ATOM      7  C   UNL     1      10.597 -15.888   6.427  1.00  0.00     0.093 A 
ATOM      8  C   UNL     1      10.106 -16.862   7.301  1.00  0.00     0.123 A 
ATOM      9  C   UNL     1       8.754 -16.875   7.632  1.00  0.00     0.094 A 
ATOM     10  C   UNL     1       7.878 -15.941   7.074  1.00  0.00     0.146 A 
ATOM     11  O   UNL     1       6.594 -15.995   7.409  1.00  0.00    -0.452 OA
ENDROOT
BRANCH   1  12
ATOM     12  C   UNL     1       4.280 -15.321   7.396  1.00  0.00     0.025 A 
ATOM     13  C   UNL     1       3.814 -14.503   8.437  1.00  0.00     0.016 A 
ATOM     14  C   UNL     1       2.496 -14.611   8.887  1.00  0.00     0.051 A 
ATOM     15  C   UNL     1       1.619 -15.526   8.295  1.00  0.00     0.157 A 
ATOM     16  C   UNL     1       3.391 -16.225   6.788  1.00  0.00     0.062 A 
ATOM     17  C   UNL     1       2.067 -16.334   7.237  1.00  0.00     0.158 A 
BRANCH  15  18
ATOM     18  O   UNL     1       0.311 -15.614   8.767  1.00  0.00    -0.504 OA
ATOM     19  H   UNL     1      -0.406 -14.953   8.493  1.00  0.00     0.293 HD
ENDBRANCH  15  18
BRANCH  17  20
ATOM     20  O   UNL     1       1.194 -17.238   6.632  1.00  0.00    -0.504 OA
ATOM     21  H   UNL     1       0.921 -17.144   5.662  1.00  0.00     0.293 HD
ENDBRANCH  17  20
ENDBRANCH   1  12
BRANCH   2  22
ATOM     22  O   UNL     1       5.063 -13.401   5.371  1.00  0.00    -0.502 OA
ATOM     23  H   UNL     1       4.558 -12.694   5.891  1.00  0.00     0.293 HD
ENDBRANCH   2  22
BRANCH   6  24
ATOM     24  O   UNL     1      10.356 -13.932   5.094  1.00  0.00    -0.507 OA
ATOM     25  H   UNL     1       9.959 -13.024   4.903  1.00  0.00     0.293 HD
ENDBRANCH   6  24
BRANCH   8  26
ATOM     26  O   UNL     1      10.958 -17.816   7.853  1.00  0.00    -0.508 OA
ATOM     27  H   UNL     1      11.878 -17.567   8.199  1.00  0.00     0.293 HD
ENDBRANCH   8  26
TORSDOF 6
ENDMDL
MODEL 6
REMARK VINA RESULT:    -6.006      7.368      9.643
REMARK INTER + INTRA:          -7.566
REMARK INTER:                  -7.243
REMARK INTRA:                  -0.323
REMARK UNBOUND:                -0.331
REMARK SMILES O=c1c(O)c(-c2ccc(O)c(O)c2)oc2cc(O)cc(O)c12
REMARK SMILES IDX 5 1 3 2 2 3 1 4 22 5 20 6 19 7 17 8 16 9 15 10 14 11 6 12
REMARK SMILES IDX 7 13 8 14 9 15 13 16 11 17 10 18 12 20 4 22 21 24 18 26
REMARK H PARENT 10 19 12 21 4 23 21 25 18 27
REMARK Flexibility Score: inf
ROOT
ATOM      1  C   UNL     1       3.887 -15.412   7.018  1.00  0.00     0.180 A 
ATOM      2  C   UNL     1       3.327 -14.886   8.196  1.00  0.00     0.208 A 
ATOM      3  C   UNL     1       2.045 -15.305   8.587  1.00  0.00     0.238 A 
ATOM      4  O   UNL     1       1.572 -14.873   9.670  1.00  0.00    -0.285 OA
ATOM      5  C   UNL     1       1.332 -16.230   7.787  1.00  0.00     0.111 A 
ATOM      6  C   UNL     1       0.010 -16.691   8.066  1.00  0.00     0.134 A 
ATOM      7  C   UNL     1      -0.548 -17.705   7.278  1.00  0.00     0.093 A 
ATOM      8  C   UNL     1       0.143 -18.228   6.181  1.00  0.00     0.123 A 
ATOM      9  C   UNL     1       1.409 -17.740   5.865  1.00  0.00     0.094 A 
ATOM     10  C   UNL     1       2.007 -16.756   6.655  1.00  0.00     0.146 A 
ATOM     11  O   UNL     1       3.219 -16.326   6.325  1.00  0.00    -0.452 OA
ENDROOT
BRANCH   1  12
ATOM     12  C   UNL     1       5.222 -15.000   6.529  1.00  0.00     0.025 A 
ATOM     13  C   UNL     1       5.332 -13.896   5.670  1.00  0.00     0.016 A 
ATOM     14  C   UNL     1       6.584 -13.477   5.213  1.00  0.00     0.051 A 
ATOM     15  C   UNL     1       7.745 -14.144   5.617  1.00  0.00     0.157 A 
ATOM     16  C   UNL     1       6.392 -15.657   6.951  1.00  0.00     0.062 A 
ATOM     17  C   UNL     1       7.649 -15.237   6.494  1.00  0.00     0.158 A 
BRANCH  15  18
ATOM     18  O   UNL     1       8.979 -13.705   5.142  1.00  0.00    -0.504 OA
ATOM     19  H   UNL     1       9.643 -13.222   5.735  1.00  0.00     0.293 HD
ENDBRANCH  15  18
BRANCH  17  20
ATOM     20  O   UNL     1       8.803 -15.898   6.913  1.00  0.00    -0.504 OA
ATOM     21  H   UNL     1       9.175 -16.692   6.405  1.00  0.00     0.293 HD
ENDBRANCH  17  20
ENDBRANCH   1  12
BRANCH   2  22
ATOM     22  O   UNL     1       4.058 -13.991   8.983  1.00  0.00    -0.502 OA
ATOM     23  H   UNL     1       3.959 -13.946   9.990  1.00  0.00     0.293 HD
ENDBRANCH   2  22
BRANCH   6  24
ATOM     24  O   UNL     1      -0.800 -16.173   9.080  1.00  0.00    -0.507 OA
ATOM     25  H   UNL     1      -1.394 -16.726   9.679  1.00  0.00     0.293 HD
ENDBRANCH   6  24
BRANCH   8  26
ATOM     26  O   UNL     1      -0.426 -19.225   5.392  1.00  0.00    -0.508 OA
ATOM     27  H   UNL     1      -0.426 -19.164   4.380  1.00  0.00     0.293 HD
ENDBRANCH   8  26
TORSDOF 6
ENDMDL
MODEL 7
REMARK VINA RESULT:    -5.877      9.317     10.933
REMARK INTER + INTRA:          -7.411
REMARK INTER:                  -7.118
REMARK INTRA:                  -0.293
REMARK UNBOUND:                -0.331
REMARK SMILES O=c1c(O)c(-c2ccc(O)c(O)c2)oc2cc(O)cc(O)c12
REMARK SMILES IDX 5 1 3 2 2 3 1 4 22 5 20 6 19 7 17 8 16 9 15 10 14 11 6 12
REMARK SMILES IDX 7 13 8 14 9 15 13 16 11 17 10 18 12 20 4 22 21 24 18 26
REMARK H PARENT 10 19 12 21 4 23 21 25 18 27
REMARK Flexibility Score: inf
ROOT
ATOM      1  C   UNL     1      14.385 -23.337  14.927  1.00  0.00     0.180 A 
ATOM      2  C   UNL     1      15.011 -23.076  16.159  1.00  0.00     0.208 A 
ATOM      3  C   UNL     1      15.869 -21.970  16.266  1.00  0.00     0.238 A 
ATOM      4  O   UNL     1      16.384 -21.709  17.384  1.00  0.00    -0.285 OA
ATOM      5  C   UNL     1      16.105 -21.149  15.136  1.00  0.00     0.111 A 
ATOM      6  C   UNL     1      16.986 -20.027  15.121  1.00  0.00     0.134 A 
ATOM      7  C   UNL     1      17.042 -19.208  13.986  1.00  0.00     0.093 A 
ATOM      8  C   UNL     1      16.297 -19.509  12.842  1.00  0.00     0.123 A 
ATOM      9  C   UNL     1      15.479 -20.637  12.828  1.00  0.00     0.094 A 
ATOM     10  C   UNL     1      15.375 -21.452  13.958  1.00  0.00     0.146 A 
ATOM     11  O   UNL     1      14.576 -22.511  13.905  1.00  0.00    -0.452 OA
ENDROOT
BRANCH   1  12
ATOM     12  C   UNL     1      13.488 -24.498  14.730  1.00  0.00     0.025 A 
ATOM     13  C   UNL     1      13.992 -25.669  14.145  1.00  0.00     0.016 A 
ATOM     14  C   UNL     1      13.169 -26.784  13.970  1.00  0.00     0.051 A 
ATOM     15  C   UNL     1      11.835 -26.752  14.387  1.00  0.00     0.157 A 
ATOM     16  C   UNL     1      12.152 -24.474  15.169  1.00  0.00     0.062 A 
ATOM     17  C   UNL     1      11.324 -25.592  14.994  1.00  0.00     0.158 A 
BRANCH  15  18
ATOM     18  O   UNL     1      11.037 -27.878  14.196  1.00  0.00    -0.504 OA
ATOM     19  H   UNL     1      11.218 -28.753  14.672  1.00  0.00     0.293 HD
ENDBRANCH  15  18
BRANCH  17  20
ATOM     20  O   UNL     1       9.999 -25.557  15.427  1.00  0.00    -0.504 OA
ATOM     21  H   UNL     1       9.507 -24.682  15.562  1.00  0.00     0.293 HD
ENDBRANCH  17  20
ENDBRANCH   1  12
BRANCH   2  22
ATOM     22  O   UNL     1      14.748 -23.886  17.267  1.00  0.00    -0.502 OA
ATOM     23  H   UNL     1      15.479 -24.375  17.770  1.00  0.00     0.293 HD
ENDBRANCH   2  22
BRANCH   6  24
ATOM     24  O   UNL     1      17.842 -19.690  16.174  1.00  0.00    -0.507 OA
ATOM     25  H   UNL     1      17.895 -18.778  16.601  1.00  0.00     0.293 HD
ENDBRANCH   6  24
BRANCH   8  26
ATOM     26  O   UNL     1      16.370 -18.699  11.711  1.00  0.00    -0.508 OA
ATOM     27  H   UNL     1      16.643 -19.072  10.809  1.00  0.00     0.293 HD
ENDBRANCH   8  26
TORSDOF 6
ENDMDL
MODEL 8
REMARK VINA RESULT:    -5.871      2.144      6.861
REMARK INTER + INTRA:          -7.404
REMARK INTER:                  -7.102
REMARK INTRA:                  -0.302
REMARK UNBOUND:                -0.331
REMARK SMILES O=c1c(O)c(-c2ccc(O)c(O)c2)oc2cc(O)cc(O)c12
REMARK SMILES IDX 5 1 3 2 2 3 1 4 22 5 20 6 19 7 17 8 16 9 15 10 14 11 6 12
REMARK SMILES IDX 7 13 8 14 9 15 13 16 11 17 10 18 12 20 4 22 21 24 18 26
REMARK H PARENT 10 19 12 21 4 23 21 25 18 27
REMARK Flexibility Score: inf
ROOT
ATOM      1  C   UNL     1       8.471 -14.343  12.442  1.00  0.00     0.180 A 
ATOM      2  C   UNL     1       7.657 -15.275  11.773  1.00  0.00     0.208 A 
ATOM      3  C   UNL     1       8.245 -16.151  10.847  1.00  0.00     0.238 A 
ATOM      4  O   UNL     1       7.522 -17.019  10.292  1.00  0.00    -0.285 OA
ATOM      5  C   UNL     1       9.635 -16.074  10.587  1.00  0.00     0.111 A 
ATOM      6  C   UNL     1      10.328 -16.885   9.639  1.00  0.00     0.134 A 
ATOM      7  C   UNL     1      11.724 -16.813   9.559  1.00  0.00     0.093 A 
ATOM      8  C   UNL     1      12.446 -15.912  10.347  1.00  0.00     0.123 A 
ATOM      9  C   UNL     1      11.772 -15.075  11.232  1.00  0.00     0.094 A 
ATOM     10  C   UNL     1      10.383 -15.149  11.361  1.00  0.00     0.146 A 
ATOM     11  O   UNL     1       9.781 -14.339  12.224  1.00  0.00    -0.452 OA
ENDROOT
BRANCH   1  12
ATOM     12  C   UNL     1       7.921 -13.371  13.413  1.00  0.00     0.025 A 
ATOM     13  C   UNL     1       8.117 -13.580  14.786  1.00  0.00     0.016 A 
ATOM     14  C   UNL     1       7.625 -12.665  15.719  1.00  0.00     0.051 A 
ATOM     15  C   UNL     1       6.943 -11.519  15.296  1.00  0.00     0.157 A 
ATOM     16  C   UNL     1       7.253 -12.208  12.987  1.00  0.00     0.062 A 
ATOM     17  C   UNL     1       6.759 -11.287  13.923  1.00  0.00     0.158 A 
BRANCH  15  18
ATOM     18  O   UNL     1       6.461 -10.625  16.250  1.00  0.00    -0.504 OA
ATOM     19  H   UNL     1       6.036  -9.742  15.994  1.00  0.00     0.293 HD
ENDBRANCH  15  18
BRANCH  17  20
ATOM     20  O   UNL     1       6.094 -10.140  13.492  1.00  0.00    -0.504 OA
ATOM     21  H   UNL     1       6.057  -9.883  12.513  1.00  0.00     0.293 HD
ENDBRANCH  17  20
ENDBRANCH   1  12
BRANCH   2  22
ATOM     22  O   UNL     1       6.292 -15.349  12.061  1.00  0.00    -0.502 OA
ATOM     23  H   UNL     1       5.815 -14.653  12.621  1.00  0.00     0.293 HD
ENDBRANCH   2  22
BRANCH   6  24
ATOM     24  O   UNL     1       9.696 -17.750   8.741  1.00  0.00    -0.507 OA
ATOM     25  H   UNL     1      10.091 -18.057   7.865  1.00  0.00     0.293 HD
ENDBRANCH   6  24
BRANCH   8  26
ATOM     26  O   UNL     1      13.834 -15.836  10.250  1.00  0.00    -0.508 OA
ATOM     27  H   UNL     1      14.323 -16.128   9.411  1.00  0.00     0.293 HD
ENDBRANCH   8  26
TORSDOF 6
ENDMDL
MODEL 9
REMARK VINA RESULT:    -5.800      3.488      4.253
REMARK INTER + INTRA:          -7.318
REMARK INTER:                  -6.984
REMARK INTRA:                  -0.335
REMARK UNBOUND:                -0.331
REMARK SMILES O=c1c(O)c(-c2ccc(O)c(O)c2)oc2cc(O)cc(O)c12
REMARK SMILES IDX 5 1 3 2 2 3 1 4 22 5 20 6 19 7 17 8 16 9 15 10 14 11 6 12
REMARK SMILES IDX 7 13 8 14 9 15 13 16 11 17 10 18 12 20 4 22 21 24 18 26
REMARK H PARENT 10 19 12 21 4 23 21 25 18 27
REMARK Flexibility Score: inf
ROOT
ATOM      1  C   UNL     1       7.312 -14.399  10.524  1.00  0.00     0.180 A 
ATOM      2  C   UNL     1       8.378 -15.296  10.716  1.00  0.00     0.208 A 
ATOM      3  C   UNL     1       9.456 -14.910  11.528  1.00  0.00     0.238 A 
ATOM      4  O   UNL     1      10.380 -15.737  11.741  1.00  0.00    -0.285 OA
ATOM      5  C   UNL     1       9.465 -13.624  12.122  1.00  0.00     0.111 A 
ATOM      6  C   UNL     1      10.525 -13.113  12.929  1.00  0.00     0.134 A 
ATOM      7  C   UNL     1      10.369 -11.879  13.573  1.00  0.00     0.093 A 
ATOM      8  C   UNL     1       9.218 -11.109  13.386  1.00  0.00     0.123 A 
ATOM      9  C   UNL     1       8.204 -11.574  12.553  1.00  0.00     0.094 A 
ATOM     10  C   UNL     1       8.314 -12.817  11.926  1.00  0.00     0.146 A 
ATOM     11  O   UNL     1       7.320 -13.227  11.147  1.00  0.00    -0.452 OA
ENDROOT
BRANCH   1  12
ATOM     12  C   UNL     1       6.153 -14.725   9.663  1.00  0.00     0.025 A 
ATOM     13  C   UNL     1       5.001 -15.282  10.238  1.00  0.00     0.016 A 
ATOM     14  C   UNL     1       3.888 -15.578   9.448  1.00  0.00     0.051 A 
ATOM     15  C   UNL     1       3.902 -15.310   8.076  1.00  0.00     0.157 A 
ATOM     16  C   UNL     1       6.159 -14.437   8.286  1.00  0.00     0.062 A 
ATOM     17  C   UNL     1       5.041 -14.733   7.492  1.00  0.00     0.158 A 
BRANCH  15  18
ATOM     18  O   UNL     1       2.777 -15.619   7.312  1.00  0.00    -0.504 OA
ATOM     19  H   UNL     1       2.842 -15.853   6.329  1.00  0.00     0.293 HD
ENDBRANCH  15  18
BRANCH  17  20
ATOM     20  O   UNL     1       5.058 -14.449   6.127  1.00  0.00    -0.504 OA
ATOM     21  H   UNL     1       5.611 -13.688   5.749  1.00  0.00     0.293 HD
ENDBRANCH  17  20
ENDBRANCH   1  12
BRANCH   2  22
ATOM     22  O   UNL     1       8.338 -16.568  10.138  1.00  0.00    -0.502 OA
ATOM     23  H   UNL     1       8.875 -16.808   9.313  1.00  0.00     0.293 HD
ENDBRANCH   2  22
BRANCH   6  24
ATOM     24  O   UNL     1      11.752 -13.758  13.108  1.00  0.00    -0.507 OA
ATOM     25  H   UNL     1      11.881 -14.613  13.628  1.00  0.00     0.293 HD
ENDBRANCH   6  24
BRANCH   8  26
ATOM     26  O   UNL     1       9.077  -9.875  14.018  1.00  0.00    -0.508 OA
ATOM     27  H   UNL     1       9.847  -9.218  14.074  1.00  0.00     0.293 HD
ENDBRANCH   8  26
TORSDOF 6
ENDMDL
