MODEL 1
REMARK VINA RESULT:    23.436      0.000      0.000
REMARK INTER + INTRA:          37.933
REMARK INTER:                  34.396
REMARK INTRA:                   3.537
REMARK UNBOUND:                 3.537
REMARK SMILES O=c1c(O[C@H]2O[C@@H](CO)[C@H](O)[C@@H](O)[C@@H]2O)c(-c2ccc(O)c(O)c2)oc2cc(O)cc(O)c12
REMARK SMILES IDX 4 1 3 2 16 3 25 4 2 5 26 6 1 7 33 8 27 9 31 10 28 11 30 12
REMARK SMILES IDX 17 13 18 14 19 15 20 16 24 17 22 18 21 19 23 21 32 23 29 25
REMARK SMILES IDX 5 27 14 28 6 29 12 30 7 31 10 32 15 33 13 35 8 37 9 38 11 40
REMARK H PARENT 21 20 23 22 32 24 29 26 15 34 13 36 9 39 11 41
REMARK Flexibility Score: inf
ROOT
ATOM      1  O   UNL     1     -26.045   8.636  -3.908  1.00  0.00    -0.454 OA
ENDROOT
BRANCH   1   2
ATOM      2  C   UNL     1     -25.823   7.584  -4.817  1.00  0.00     0.214 A 
ATOM      3  C   UNL     1     -26.927   7.046  -5.508  1.00  0.00     0.180 A 
ATOM      4  O   UNL     1     -26.770   5.996  -6.306  1.00  0.00    -0.452 OA
ATOM      5  C   UNL     1     -24.547   7.034  -5.061  1.00  0.00     0.239 A 
ATOM      6  C   UNL     1     -25.593   5.434  -6.546  1.00  0.00     0.146 A 
ATOM      7  O   UNL     1     -23.529   7.537  -4.516  1.00  0.00    -0.285 OA
ATOM      8  C   UNL     1     -24.416   5.943  -5.945  1.00  0.00     0.111 A 
ATOM      9  C   UNL     1     -25.526   4.341  -7.412  1.00  0.00     0.094 A 
ATOM     10  C   UNL     1     -23.169   5.344  -6.256  1.00  0.00     0.134 A 
ATOM     11  C   UNL     1     -24.296   3.755  -7.715  1.00  0.00     0.123 A 
ATOM     12  C   UNL     1     -23.121   4.260  -7.143  1.00  0.00     0.093 A 
BRANCH   3  13
ATOM     13  C   UNL     1     -28.288   7.602  -5.350  1.00  0.00     0.025 A 
ATOM     14  C   UNL     1     -28.774   7.891  -4.064  1.00  0.00     0.016 A 
ATOM     15  C   UNL     1     -30.070   8.381  -3.892  1.00  0.00     0.051 A 
ATOM     16  C   UNL     1     -30.905   8.569  -5.002  1.00  0.00     0.157 A 
ATOM     17  C   UNL     1     -29.132   7.782  -6.461  1.00  0.00     0.062 A 
ATOM     18  C   UNL     1     -30.435   8.268  -6.288  1.00  0.00     0.158 A 
BRANCH  16  19
ATOM     19  O   UNL     1     -32.203   9.047  -4.834  1.00  0.00    -0.504 OA
ATOM     20  H   UNL     1     -32.387  10.032  -4.672  1.00  0.00     0.293 HD
ENDBRANCH  16  19
BRANCH  18  21
ATOM     21  O   UNL     1     -31.270   8.449  -7.388  1.00  0.00    -0.504 OA
ATOM     22  H   UNL     1     -31.598   7.665  -7.944  1.00  0.00     0.293 HD
ENDBRANCH  18  21
ENDBRANCH   3  13
BRANCH  10  23
ATOM     23  O   UNL     1     -21.982   5.818  -5.694  1.00  0.00    -0.507 OA
ATOM     24  H   UNL     1     -21.511   6.639  -6.053  1.00  0.00     0.293 HD
ENDBRANCH  10  23
BRANCH  11  25
ATOM     25  O   UNL     1     -24.251   2.674  -8.591  1.00  0.00    -0.508 OA
ATOM     26  H   UNL     1     -25.080   2.132  -8.806  1.00  0.00     0.293 HD
ENDBRANCH  11  25
ENDBRANCH   1   2
BRANCH   1  27
ATOM     27  C   UNL     1     -26.535   9.938  -4.239  1.00  0.00     0.339 C 
ATOM     28  C   UNL     1     -26.910   9.992  -5.736  1.00  0.00     0.214 C 
ATOM     29  O   UNL     1     -25.597  10.941  -3.875  1.00  0.00    -0.332 OA
ATOM     30  C   UNL     1     -25.661   9.967  -6.661  1.00  0.00     0.180 C 
ATOM     31  C   UNL     1     -24.470  11.085  -4.738  1.00  0.00     0.179 C 
ATOM     32  C   UNL     1     -24.344  10.023  -5.861  1.00  0.00     0.177 C 
BRANCH  28  33
ATOM     33  O   UNL     1     -27.703  11.125  -5.997  1.00  0.00    -0.384 OA
ATOM     34  H   UNL     1     -28.392  10.867  -6.664  1.00  0.00     0.211 HD
ENDBRANCH  28  33
BRANCH  30  35
ATOM     35  O   UNL     1     -25.678   8.842  -7.504  1.00  0.00    -0.387 OA
ATOM     36  H   UNL     1     -25.418   8.054  -6.957  1.00  0.00     0.211 HD
ENDBRANCH  30  35
BRANCH  31  37
ATOM     37  C   UNL     1     -23.197  11.124  -3.878  1.00  0.00     0.191 C 
BRANCH  37  38
ATOM     38  O   UNL     1     -22.411   9.981  -4.098  1.00  0.00    -0.394 OA
ATOM     39  H   UNL     1     -22.646   9.331  -3.388  1.00  0.00     0.210 HD
ENDBRANCH  37  38
ENDBRANCH  31  37
BRANCH  32  40
ATOM     40  O   UNL     1     -23.284  10.363  -6.717  1.00  0.00    -0.387 OA
ATOM     41  H   UNL     1     -23.463  11.281  -7.051  1.00  0.00     0.211 HD
ENDBRANCH  32  40
ENDBRANCH   1  27
TORSDOF 12
ENDMDL
