MODEL 1
REMARK VINA RESULT:    -7.561      0.000      0.000
REMARK INTER + INTRA:          -8.728
REMARK INTER:                  -9.108
REMARK INTRA:                   0.380
REMARK UNBOUND:                 0.380
REMARK SMILES O=c1c(O)c(-c2ccc(O)c(O)c2)oc2cc(O)cc(O)c12
REMARK SMILES IDX 5 1 3 2 2 3 1 4 22 5 20 6 19 7 17 8 16 9 15 10 14 11 6 12
REMARK SMILES IDX 7 13 8 14 9 15 13 16 11 17 10 18 12 20 4 22 21 24 18 26
REMARK H PARENT 10 19 12 21 4 23 21 25 18 27
REMARK Flexibility Score: inf
ROOT
ATOM      1  C   UNL     1     -17.277 -10.952 -10.405  1.00  0.00     0.180 A 
ATOM      2  C   UNL     1     -16.146 -11.784 -10.487  1.00  0.00     0.208 A 
ATOM      3  C   UNL     1     -15.111 -11.618  -9.553  1.00  0.00     0.238 A 
ATOM      4  O   UNL     1     -14.077 -12.328  -9.665  1.00  0.00    -0.285 OA
ATOM      5  C   UNL     1     -15.225 -10.636  -8.541  1.00  0.00     0.111 A 
ATOM      6  C   UNL     1     -14.255 -10.409  -7.518  1.00  0.00     0.134 A 
ATOM      7  C   UNL     1     -14.411  -9.324  -6.647  1.00  0.00     0.093 A 
ATOM      8  C   UNL     1     -15.533  -8.499  -6.718  1.00  0.00     0.123 A 
ATOM      9  C   UNL     1     -16.516  -8.748  -7.675  1.00  0.00     0.094 A 
ATOM     10  C   UNL     1     -16.372  -9.801  -8.581  1.00  0.00     0.146 A 
ATOM     11  O   UNL     1     -17.326  -9.997  -9.484  1.00  0.00    -0.452 OA
ENDROOT
BRANCH   1  12
ATOM     12  C   UNL     1     -18.421 -11.083 -11.337  1.00  0.00     0.025 A 
ATOM     13  C   UNL     1     -18.607 -12.241 -12.107  1.00  0.00     0.016 A 
ATOM     14  C   UNL     1     -19.706 -12.351 -12.961  1.00  0.00     0.051 A 
ATOM     15  C   UNL     1     -20.644 -11.318 -13.054  1.00  0.00     0.157 A 
ATOM     16  C   UNL     1     -19.372 -10.054 -11.412  1.00  0.00     0.062 A 
ATOM     17  C   UNL     1     -20.478 -10.155 -12.266  1.00  0.00     0.158 A 
BRANCH  15  18
ATOM     18  O   UNL     1     -21.718 -11.488 -13.931  1.00  0.00    -0.504 OA
ATOM     19  H   UNL     1     -22.397 -12.231 -13.855  1.00  0.00     0.293 HD
ENDBRANCH  15  18
BRANCH  17  20
ATOM     20  O   UNL     1     -21.377  -9.087 -12.298  1.00  0.00    -0.504 OA
ATOM     21  H   UNL     1     -21.596  -8.508 -11.500  1.00  0.00     0.293 HD
ENDBRANCH  17  20
ENDBRANCH   1  12
BRANCH   2  22
ATOM     22  O   UNL     1     -16.044 -12.731 -11.508  1.00  0.00    -0.502 OA
ATOM     23  H   UNL     1     -16.176 -13.722 -11.345  1.00  0.00     0.293 HD
ENDBRANCH   2  22
BRANCH   6  24
ATOM     24  O   UNL     1     -13.144 -11.229  -7.301  1.00  0.00    -0.507 OA
ATOM     25  H   UNL     1     -13.072 -11.917  -6.568  1.00  0.00     0.293 HD
ENDBRANCH   6  24
BRANCH   8  26
ATOM     26  O   UNL     1     -15.663  -7.438  -5.823  1.00  0.00    -0.508 OA
ATOM     27  H   UNL     1     -15.301  -6.516  -6.039  1.00  0.00     0.293 HD
ENDBRANCH   8  26
TORSDOF 6
ENDMDL
MODEL 2
REMARK VINA RESULT:    -5.911      1.241      2.899
REMARK INTER + INTRA:          -6.741
REMARK INTER:                  -7.207
REMARK INTRA:                   0.467
REMARK UNBOUND:                 0.380
REMARK SMILES O=c1c(O)c(-c2ccc(O)c(O)c2)oc2cc(O)cc(O)c12
REMARK SMILES IDX 5 1 3 2 2 3 1 4 22 5 20 6 19 7 17 8 16 9 15 10 14 11 6 12
REMARK SMILES IDX 7 13 8 14 9 15 13 16 11 17 10 18 12 20 4 22 21 24 18 26
REMARK H PARENT 10 19 12 21 4 23 21 25 18 27
REMARK Flexibility Score: inf
ROOT
ATOM      1  C   UNL     1     -17.801 -10.209  -9.744  1.00  0.00     0.180 A 
ATOM      2  C   UNL     1     -18.275  -9.198  -8.890  1.00  0.00     0.208 A 
ATOM      3  C   UNL     1     -17.456  -8.756  -7.838  1.00  0.00     0.238 A 
ATOM      4  O   UNL     1     -17.907  -7.890  -7.044  1.00  0.00    -0.285 OA
ATOM      5  C   UNL     1     -16.169  -9.319  -7.663  1.00  0.00     0.111 A 
ATOM      6  C   UNL     1     -15.239  -8.919  -6.656  1.00  0.00     0.134 A 
ATOM      7  C   UNL     1     -14.047  -9.634  -6.495  1.00  0.00     0.093 A 
ATOM      8  C   UNL     1     -13.719 -10.690  -7.344  1.00  0.00     0.123 A 
ATOM      9  C   UNL     1     -14.593 -11.051  -8.369  1.00  0.00     0.094 A 
ATOM     10  C   UNL     1     -15.807 -10.380  -8.533  1.00  0.00     0.146 A 
ATOM     11  O   UNL     1     -16.616 -10.762  -9.515  1.00  0.00    -0.452 OA
ENDROOT
BRANCH   1  12
ATOM     12  C   UNL     1     -18.595 -10.709 -10.890  1.00  0.00     0.025 A 
ATOM     13  C   UNL     1     -18.310 -11.943 -11.494  1.00  0.00     0.016 A 
ATOM     14  C   UNL     1     -19.089 -12.404 -12.557  1.00  0.00     0.051 A 
ATOM     15  C   UNL     1     -20.170 -11.653 -13.030  1.00  0.00     0.157 A 
ATOM     16  C   UNL     1     -19.693  -9.963 -11.348  1.00  0.00     0.062 A 
ATOM     17  C   UNL     1     -20.479 -10.417 -12.414  1.00  0.00     0.158 A 
BRANCH  15  18
ATOM     18  O   UNL     1     -20.904 -12.169 -14.100  1.00  0.00    -0.504 OA
ATOM     19  H   UNL     1     -20.866 -11.803 -15.040  1.00  0.00     0.293 HD
ENDBRANCH  15  18
BRANCH  17  20
ATOM     20  O   UNL     1     -21.547  -9.618 -12.824  1.00  0.00    -0.504 OA
ATOM     21  H   UNL     1     -22.512  -9.918 -12.822  1.00  0.00     0.293 HD
ENDBRANCH  17  20
ENDBRANCH   1  12
BRANCH   2  22
ATOM     22  O   UNL     1     -19.557  -8.672  -9.067  1.00  0.00    -0.502 OA
ATOM     23  H   UNL     1     -19.907  -7.896  -8.518  1.00  0.00     0.293 HD
ENDBRANCH   2  22
BRANCH   6  24
ATOM     24  O   UNL     1     -15.427  -7.819  -5.814  1.00  0.00    -0.507 OA
ATOM     25  H   UNL     1     -16.301  -7.332  -5.691  1.00  0.00     0.293 HD
ENDBRANCH   6  24
BRANCH   8  26
ATOM     26  O   UNL     1     -12.515 -11.369  -7.164  1.00  0.00    -0.508 OA
ATOM     27  H   UNL     1     -12.364 -11.978  -6.367  1.00  0.00     0.293 HD
ENDBRANCH   8  26
TORSDOF 6
ENDMDL
MODEL 3
REMARK VINA RESULT:    -5.787     12.003     13.357
REMARK INTER + INTRA:          -6.591
REMARK INTER:                  -6.282
REMARK INTRA:                  -0.309
REMARK UNBOUND:                 0.380
REMARK SMILES O=c1c(O)c(-c2ccc(O)c(O)c2)oc2cc(O)cc(O)c12
REMARK SMILES IDX 5 1 3 2 2 3 1 4 22 5 20 6 19 7 17 8 16 9 15 10 14 11 6 12
REMARK SMILES IDX 7 13 8 14 9 15 13 16 11 17 10 18 12 20 4 22 21 24 18 26
REMARK H PARENT 10 19 12 21 4 23 21 25 18 27
REMARK Flexibility Score: inf
ROOT
ATOM      1  C   UNL     1      -5.528 -15.674 -12.400  1.00  0.00     0.180 A 
ATOM      2  C   UNL     1      -5.397 -14.418 -11.780  1.00  0.00     0.208 A 
ATOM      3  C   UNL     1      -4.989 -14.362 -10.438  1.00  0.00     0.238 A 
ATOM      4  O   UNL     1      -4.926 -13.238  -9.873  1.00  0.00    -0.285 OA
ATOM      5  C   UNL     1      -4.703 -15.558  -9.737  1.00  0.00     0.111 A 
ATOM      6  C   UNL     1      -4.243 -15.616  -8.386  1.00  0.00     0.134 A 
ATOM      7  C   UNL     1      -4.117 -16.857  -7.753  1.00  0.00     0.093 A 
ATOM      8  C   UNL     1      -4.369 -18.045  -8.439  1.00  0.00     0.123 A 
ATOM      9  C   UNL     1      -4.761 -18.002  -9.777  1.00  0.00     0.094 A 
ATOM     10  C   UNL     1      -4.931 -16.777 -10.426  1.00  0.00     0.146 A 
ATOM     11  O   UNL     1      -5.315 -16.780 -11.697  1.00  0.00    -0.452 OA
ENDROOT
BRANCH   1  12
ATOM     12  C   UNL     1      -5.929 -15.814 -13.819  1.00  0.00     0.025 A 
ATOM     13  C   UNL     1      -4.975 -16.000 -14.832  1.00  0.00     0.016 A 
ATOM     14  C   UNL     1      -5.379 -16.154 -16.160  1.00  0.00     0.051 A 
ATOM     15  C   UNL     1      -6.735 -16.138 -16.501  1.00  0.00     0.157 A 
ATOM     16  C   UNL     1      -7.291 -15.820 -14.155  1.00  0.00     0.062 A 
ATOM     17  C   UNL     1      -7.705 -15.973 -15.484  1.00  0.00     0.158 A 
BRANCH  15  18
ATOM     18  O   UNL     1      -7.072 -16.292 -17.848  1.00  0.00    -0.504 OA
ATOM     19  H   UNL     1      -6.448 -16.081 -18.614  1.00  0.00     0.293 HD
ENDBRANCH  15  18
BRANCH  17  20
ATOM     20  O   UNL     1      -9.076 -15.957 -15.746  1.00  0.00    -0.504 OA
ATOM     21  H   UNL     1      -9.632 -16.785 -15.905  1.00  0.00     0.293 HD
ENDBRANCH  17  20
ENDBRANCH   1  12
BRANCH   2  22
ATOM     22  O   UNL     1      -5.706 -13.252 -12.484  1.00  0.00    -0.502 OA
ATOM     23  H   UNL     1      -6.289 -12.521 -12.095  1.00  0.00     0.293 HD
ENDBRANCH   2  22
BRANCH   6  24
ATOM     24  O   UNL     1      -3.875 -14.493  -7.639  1.00  0.00    -0.507 OA
ATOM     25  H   UNL     1      -4.322 -14.200  -6.784  1.00  0.00     0.293 HD
ENDBRANCH   6  24
BRANCH   8  26
ATOM     26  O   UNL     1      -4.217 -19.264  -7.781  1.00  0.00    -0.508 OA
ATOM     27  H   UNL     1      -3.546 -19.956  -8.097  1.00  0.00     0.293 HD
ENDBRANCH   8  26
TORSDOF 6
ENDMDL
MODEL 4
REMARK VINA RESULT:    -5.734     12.281     13.375
REMARK INTER + INTRA:          -6.527
REMARK INTER:                  -6.443
REMARK INTRA:                  -0.084
REMARK UNBOUND:                 0.380
REMARK SMILES O=c1c(O)c(-c2ccc(O)c(O)c2)oc2cc(O)cc(O)c12
REMARK SMILES IDX 5 1 3 2 2 3 1 4 22 5 20 6 19 7 17 8 16 9 15 10 14 11 6 12
REMARK SMILES IDX 7 13 8 14 9 15 13 16 11 17 10 18 12 20 4 22 21 24 18 26
REMARK H PARENT 10 19 12 21 4 23 21 25 18 27
REMARK Flexibility Score: inf
ROOT
ATOM      1  C   UNL     1      -5.547 -16.006 -13.044  1.00  0.00     0.180 A 
ATOM      2  C   UNL     1      -5.476 -17.411 -13.054  1.00  0.00     0.208 A 
ATOM      3  C   UNL     1      -5.136 -18.083 -11.869  1.00  0.00     0.238 A 
ATOM      4  O   UNL     1      -5.021 -19.337 -11.898  1.00  0.00    -0.285 OA
ATOM      5  C   UNL     1      -4.887 -17.346 -10.687  1.00  0.00     0.111 A 
ATOM      6  C   UNL     1      -4.574 -17.926  -9.420  1.00  0.00     0.134 A 
ATOM      7  C   UNL     1      -4.219 -17.097  -8.350  1.00  0.00     0.093 A 
ATOM      8  C   UNL     1      -4.228 -15.709  -8.480  1.00  0.00     0.123 A 
ATOM      9  C   UNL     1      -4.591 -15.130  -9.696  1.00  0.00     0.094 A 
ATOM     10  C   UNL     1      -4.915 -15.931 -10.793  1.00  0.00     0.146 A 
ATOM     11  O   UNL     1      -5.244 -15.340 -11.936  1.00  0.00    -0.452 OA
ENDROOT
BRANCH   1  12
ATOM     12  C   UNL     1      -5.923 -15.228 -14.246  1.00  0.00     0.025 A 
ATOM     13  C   UNL     1      -5.049 -14.286 -14.810  1.00  0.00     0.016 A 
ATOM     14  C   UNL     1      -5.417 -13.582 -15.958  1.00  0.00     0.051 A 
ATOM     15  C   UNL     1      -6.653 -13.810 -16.571  1.00  0.00     0.157 A 
ATOM     16  C   UNL     1      -7.155 -15.475 -14.872  1.00  0.00     0.062 A 
ATOM     17  C   UNL     1      -7.533 -14.773 -16.023  1.00  0.00     0.158 A 
BRANCH  15  18
ATOM     18  O   UNL     1      -6.963 -13.068 -17.714  1.00  0.00    -0.504 OA
ATOM     19  H   UNL     1      -6.289 -12.812 -18.421  1.00  0.00     0.293 HD
ENDBRANCH  15  18
BRANCH  17  20
ATOM     20  O   UNL     1      -8.778 -15.062 -16.584  1.00  0.00    -0.504 OA
ATOM     21  H   UNL     1      -9.607 -14.503 -16.440  1.00  0.00     0.293 HD
ENDBRANCH  17  20
ENDBRANCH   1  12
BRANCH   2  22
ATOM     22  O   UNL     1      -5.704 -18.117 -14.237  1.00  0.00    -0.502 OA
ATOM     23  H   UNL     1      -6.262 -17.743 -14.995  1.00  0.00     0.293 HD
ENDBRANCH   2  22
BRANCH   6  24
ATOM     24  O   UNL     1      -4.624 -19.298  -9.157  1.00  0.00    -0.507 OA
ATOM     25  H   UNL     1      -5.210 -19.729  -8.458  1.00  0.00     0.293 HD
ENDBRANCH   6  24
BRANCH   8  26
ATOM     26  O   UNL     1      -3.885 -14.914  -7.388  1.00  0.00    -0.508 OA
ATOM     27  H   UNL     1      -4.591 -14.453  -6.826  1.00  0.00     0.293 HD
ENDBRANCH   8  26
TORSDOF 6
ENDMDL
MODEL 5
REMARK VINA RESULT:    -5.587     11.760     12.783
REMARK INTER + INTRA:          -6.350
REMARK INTER:                  -6.260
REMARK INTRA:                  -0.090
REMARK UNBOUND:                 0.380
REMARK SMILES O=c1c(O)c(-c2ccc(O)c(O)c2)oc2cc(O)cc(O)c12
REMARK SMILES IDX 5 1 3 2 2 3 1 4 22 5 20 6 19 7 17 8 16 9 15 10 14 11 6 12
REMARK SMILES IDX 7 13 8 14 9 15 13 16 11 17 10 18 12 20 4 22 21 24 18 26
REMARK H PARENT 10 19 12 21 4 23 21 25 18 27
REMARK Flexibility Score: inf
ROOT
ATOM      1  C   UNL     1      -5.824 -15.913 -13.053  1.00  0.00     0.180 A 
ATOM      2  C   UNL     1      -5.428 -16.886 -12.118  1.00  0.00     0.208 A 
ATOM      3  C   UNL     1      -4.939 -16.469 -10.869  1.00  0.00     0.238 A 
ATOM      4  O   UNL     1      -4.534 -17.342 -10.057  1.00  0.00    -0.285 OA
ATOM      5  C   UNL     1      -4.866 -15.088 -10.566  1.00  0.00     0.111 A 
ATOM      6  C   UNL     1      -4.424 -14.555  -9.317  1.00  0.00     0.134 A 
ATOM      7  C   UNL     1      -4.271 -13.171  -9.173  1.00  0.00     0.093 A 
ATOM      8  C   UNL     1      -4.604 -12.298 -10.208  1.00  0.00     0.123 A 
ATOM      9  C   UNL     1      -5.093 -12.805 -11.411  1.00  0.00     0.094 A 
ATOM     10  C   UNL     1      -5.224 -14.183 -11.598  1.00  0.00     0.146 A 
ATOM     11  O   UNL     1      -5.684 -14.625 -12.763  1.00  0.00    -0.452 OA
ENDROOT
BRANCH   1  12
ATOM     12  C   UNL     1      -6.374 -16.274 -14.380  1.00  0.00     0.025 A 
ATOM     13  C   UNL     1      -5.639 -17.051 -15.289  1.00  0.00     0.016 A 
ATOM     14  C   UNL     1      -6.188 -17.399 -16.524  1.00  0.00     0.051 A 
ATOM     15  C   UNL     1      -7.481 -16.992 -16.872  1.00  0.00     0.157 A 
ATOM     16  C   UNL     1      -7.679 -15.883 -14.717  1.00  0.00     0.062 A 
ATOM     17  C   UNL     1      -8.238 -16.227 -15.954  1.00  0.00     0.158 A 
BRANCH  15  18
ATOM     18  O   UNL     1      -7.969 -17.369 -18.125  1.00  0.00    -0.504 OA
ATOM     19  H   UNL     1      -7.652 -16.972 -18.998  1.00  0.00     0.293 HD
ENDBRANCH  15  18
BRANCH  17  20
ATOM     20  O   UNL     1      -9.537 -15.793 -16.226  1.00  0.00    -0.504 OA
ATOM     21  H   UNL     1     -10.251 -15.669 -15.523  1.00  0.00     0.293 HD
ENDBRANCH  17  20
ENDBRANCH   1  12
BRANCH   2  22
ATOM     22  O   UNL     1      -5.487 -18.242 -12.446  1.00  0.00    -0.502 OA
ATOM     23  H   UNL     1      -4.930 -18.941 -11.971  1.00  0.00     0.293 HD
ENDBRANCH   2  22
BRANCH   6  24
ATOM     24  O   UNL     1      -4.153 -15.333  -8.188  1.00  0.00    -0.507 OA
ATOM     25  H   UNL     1      -3.230 -15.602  -7.883  1.00  0.00     0.293 HD
ENDBRANCH   6  24
BRANCH   8  26
ATOM     26  O   UNL     1      -4.454 -10.924 -10.024  1.00  0.00    -0.508 OA
ATOM     27  H   UNL     1      -3.971 -10.548  -9.215  1.00  0.00     0.293 HD
ENDBRANCH   8  26
TORSDOF 6
ENDMDL
MODEL 6
REMARK VINA RESULT:    -5.541     12.324     14.826
REMARK INTER + INTRA:          -6.294
REMARK INTER:                  -6.063
REMARK INTRA:                  -0.231
REMARK UNBOUND:                 0.380
REMARK SMILES O=c1c(O)c(-c2ccc(O)c(O)c2)oc2cc(O)cc(O)c12
REMARK SMILES IDX 5 1 3 2 2 3 1 4 22 5 20 6 19 7 17 8 16 9 15 10 14 11 6 12
REMARK SMILES IDX 7 13 8 14 9 15 13 16 11 17 10 18 12 20 4 22 21 24 18 26
REMARK H PARENT 10 19 12 21 4 23 21 25 18 27
REMARK Flexibility Score: inf
ROOT
ATOM      1  C   UNL     1      -6.534 -17.855 -15.307  1.00  0.00     0.180 A 
ATOM      2  C   UNL     1      -7.386 -18.747 -15.982  1.00  0.00     0.208 A 
ATOM      3  C   UNL     1      -7.418 -20.092 -15.580  1.00  0.00     0.238 A 
ATOM      4  O   UNL     1      -8.141 -20.898 -16.224  1.00  0.00    -0.285 OA
ATOM      5  C   UNL     1      -6.611 -20.525 -14.501  1.00  0.00     0.111 A 
ATOM      6  C   UNL     1      -6.595 -21.857 -13.984  1.00  0.00     0.134 A 
ATOM      7  C   UNL     1      -5.663 -22.203 -12.999  1.00  0.00     0.093 A 
ATOM      8  C   UNL     1      -4.792 -21.253 -12.465  1.00  0.00     0.123 A 
ATOM      9  C   UNL     1      -4.841 -19.936 -12.920  1.00  0.00     0.094 A 
ATOM     10  C   UNL     1      -5.735 -19.568 -13.928  1.00  0.00     0.146 A 
ATOM     11  O   UNL     1      -5.742 -18.305 -14.341  1.00  0.00    -0.452 OA
ENDROOT
BRANCH   1  12
ATOM     12  C   UNL     1      -6.463 -16.418 -15.655  1.00  0.00     0.025 A 
ATOM     13  C   UNL     1      -5.861 -15.983 -16.846  1.00  0.00     0.016 A 
ATOM     14  C   UNL     1      -5.828 -14.624 -17.163  1.00  0.00     0.051 A 
ATOM     15  C   UNL     1      -6.403 -13.676 -16.310  1.00  0.00     0.157 A 
ATOM     16  C   UNL     1      -7.060 -15.471 -14.808  1.00  0.00     0.062 A 
ATOM     17  C   UNL     1      -7.031 -14.106 -15.118  1.00  0.00     0.158 A 
BRANCH  15  18
ATOM     18  O   UNL     1      -6.331 -12.332 -16.684  1.00  0.00    -0.504 OA
ATOM     19  H   UNL     1      -5.571 -11.716 -16.435  1.00  0.00     0.293 HD
ENDBRANCH  15  18
BRANCH  17  20
ATOM     20  O   UNL     1      -7.635 -13.221 -14.223  1.00  0.00    -0.504 OA
ATOM     21  H   UNL     1      -7.666 -12.219 -14.351  1.00  0.00     0.293 HD
ENDBRANCH  17  20
ENDBRANCH   1  12
BRANCH   2  22
ATOM     22  O   UNL     1      -8.156 -18.304 -17.059  1.00  0.00    -0.502 OA
ATOM     23  H   UNL     1      -9.145 -18.506 -17.140  1.00  0.00     0.293 HD
ENDBRANCH   2  22
BRANCH   6  24
ATOM     24  O   UNL     1      -7.484 -22.859 -14.382  1.00  0.00    -0.507 OA
ATOM     25  H   UNL     1      -8.062 -23.397 -13.755  1.00  0.00     0.293 HD
ENDBRANCH   6  24
BRANCH   8  26
ATOM     26  O   UNL     1      -3.889 -21.630 -11.473  1.00  0.00    -0.508 OA
ATOM     27  H   UNL     1      -4.029 -21.372 -10.503  1.00  0.00     0.293 HD
ENDBRANCH   8  26
TORSDOF 6
ENDMDL
MODEL 7
REMARK VINA RESULT:    -5.406     12.699     14.608
REMARK INTER + INTRA:          -6.131
REMARK INTER:                  -6.332
REMARK INTRA:                   0.201
REMARK UNBOUND:                 0.380
REMARK SMILES O=c1c(O)c(-c2ccc(O)c(O)c2)oc2cc(O)cc(O)c12
REMARK SMILES IDX 5 1 3 2 2 3 1 4 22 5 20 6 19 7 17 8 16 9 15 10 14 11 6 12
REMARK SMILES IDX 7 13 8 14 9 15 13 16 11 17 10 18 12 20 4 22 21 24 18 26
REMARK H PARENT 10 19 12 21 4 23 21 25 18 27
REMARK Flexibility Score: inf
ROOT
ATOM      1  C   UNL     1      -5.816 -15.529 -13.148  1.00  0.00     0.180 A 
ATOM      2  C   UNL     1      -5.626 -14.359 -13.905  1.00  0.00     0.208 A 
ATOM      3  C   UNL     1      -6.085 -14.325 -15.231  1.00  0.00     0.238 A 
ATOM      4  O   UNL     1      -5.864 -13.296 -15.921  1.00  0.00    -0.285 OA
ATOM      5  C   UNL     1      -6.741 -15.454 -15.779  1.00  0.00     0.111 A 
ATOM      6  C   UNL     1      -7.282 -15.515 -17.099  1.00  0.00     0.134 A 
ATOM      7  C   UNL     1      -7.794 -16.726 -17.579  1.00  0.00     0.093 A 
ATOM      8  C   UNL     1      -7.845 -17.860 -16.768  1.00  0.00     0.123 A 
ATOM      9  C   UNL     1      -7.373 -17.794 -15.457  1.00  0.00     0.094 A 
ATOM     10  C   UNL     1      -6.824 -16.610 -14.960  1.00  0.00     0.146 A 
ATOM     11  O   UNL     1      -6.376 -16.593 -13.710  1.00  0.00    -0.452 OA
ENDROOT
BRANCH   1  12
ATOM     12  C   UNL     1      -5.382 -15.632 -11.735  1.00  0.00     0.025 A 
ATOM     13  C   UNL     1      -5.408 -14.519 -10.880  1.00  0.00     0.016 A 
ATOM     14  C   UNL     1      -5.017 -14.647  -9.546  1.00  0.00     0.051 A 
ATOM     15  C   UNL     1      -4.607 -15.883  -9.036  1.00  0.00     0.157 A 
ATOM     16  C   UNL     1      -4.992 -16.878 -11.221  1.00  0.00     0.062 A 
ATOM     17  C   UNL     1      -4.598 -17.016  -9.884  1.00  0.00     0.158 A 
BRANCH  15  18
ATOM     18  O   UNL     1      -4.224 -15.942  -7.694  1.00  0.00    -0.504 OA
ATOM     19  H   UNL     1      -4.559 -16.634  -7.041  1.00  0.00     0.293 HD
ENDBRANCH  15  18
BRANCH  17  20
ATOM     20  O   UNL     1      -4.211 -18.283  -9.446  1.00  0.00    -0.504 OA
ATOM     21  H   UNL     1      -3.417 -18.790  -9.810  1.00  0.00     0.293 HD
ENDBRANCH  17  20
ENDBRANCH   1  12
BRANCH   2  22
ATOM     22  O   UNL     1      -4.956 -13.265 -13.352  1.00  0.00    -0.502 OA
ATOM     23  H   UNL     1      -4.418 -12.616 -13.913  1.00  0.00     0.293 HD
ENDBRANCH   2  22
BRANCH   6  24
ATOM     24  O   UNL     1      -7.365 -14.417 -17.960  1.00  0.00    -0.507 OA
ATOM     25  H   UNL     1      -7.111 -14.432 -18.936  1.00  0.00     0.293 HD
ENDBRANCH   6  24
BRANCH   8  26
ATOM     26  O   UNL     1      -8.377 -19.044 -17.274  1.00  0.00    -0.508 OA
ATOM     27  H   UNL     1      -8.909 -19.678 -16.689  1.00  0.00     0.293 HD
ENDBRANCH   8  26
TORSDOF 6
ENDMDL
MODEL 8
REMARK VINA RESULT:    -5.254     12.790     14.940
REMARK INTER + INTRA:          -5.948
REMARK INTER:                  -5.791
REMARK INTRA:                  -0.157
REMARK UNBOUND:                 0.380
REMARK SMILES O=c1c(O)c(-c2ccc(O)c(O)c2)oc2cc(O)cc(O)c12
REMARK SMILES IDX 5 1 3 2 2 3 1 4 22 5 20 6 19 7 17 8 16 9 15 10 14 11 6 12
REMARK SMILES IDX 7 13 8 14 9 15 13 16 11 17 10 18 12 20 4 22 21 24 18 26
REMARK H PARENT 10 19 12 21 4 23 21 25 18 27
REMARK Flexibility Score: inf
ROOT
ATOM      1  C   UNL     1      -5.162 -18.632 -11.768  1.00  0.00     0.180 A 
ATOM      2  C   UNL     1      -4.895 -18.243 -10.443  1.00  0.00     0.208 A 
ATOM      3  C   UNL     1      -4.880 -16.876 -10.126  1.00  0.00     0.238 A 
ATOM      4  O   UNL     1      -4.586 -16.532  -8.951  1.00  0.00    -0.285 OA
ATOM      5  C   UNL     1      -5.146 -15.916 -11.131  1.00  0.00     0.111 A 
ATOM      6  C   UNL     1      -5.196 -14.505 -10.913  1.00  0.00     0.134 A 
ATOM      7  C   UNL     1      -5.339 -13.643 -12.005  1.00  0.00     0.093 A 
ATOM      8  C   UNL     1      -5.500 -14.138 -13.299  1.00  0.00     0.123 A 
ATOM      9  C   UNL     1      -5.513 -15.516 -13.516  1.00  0.00     0.094 A 
ATOM     10  C   UNL     1      -5.336 -16.402 -12.451  1.00  0.00     0.146 A 
ATOM     11  O   UNL     1      -5.344 -17.706 -12.702  1.00  0.00    -0.452 OA
ENDROOT
BRANCH   1  12
ATOM     12  C   UNL     1      -5.220 -20.055 -12.175  1.00  0.00     0.025 A 
ATOM     13  C   UNL     1      -4.275 -20.603 -13.056  1.00  0.00     0.016 A 
ATOM     14  C   UNL     1      -4.337 -21.953 -13.405  1.00  0.00     0.051 A 
ATOM     15  C   UNL     1      -5.330 -22.784 -12.877  1.00  0.00     0.157 A 
ATOM     16  C   UNL     1      -6.205 -20.891 -11.626  1.00  0.00     0.062 A 
ATOM     17  C   UNL     1      -6.276 -22.246 -11.971  1.00  0.00     0.158 A 
BRANCH  15  18
ATOM     18  O   UNL     1      -5.340 -24.123 -13.272  1.00  0.00    -0.504 OA
ATOM     19  H   UNL     1      -5.370 -24.901 -12.629  1.00  0.00     0.293 HD
ENDBRANCH  15  18
BRANCH  17  20
ATOM     20  O   UNL     1      -7.289 -23.014 -11.396  1.00  0.00    -0.504 OA
ATOM     21  H   UNL     1      -7.315 -24.024 -11.417  1.00  0.00     0.293 HD
ENDBRANCH  17  20
ENDBRANCH   1  12
BRANCH   2  22
ATOM     22  O   UNL     1      -4.612 -19.206  -9.472  1.00  0.00    -0.502 OA
ATOM     23  H   UNL     1      -4.406 -20.170  -9.705  1.00  0.00     0.293 HD
ENDBRANCH   2  22
BRANCH   6  24
ATOM     24  O   UNL     1      -5.138 -13.909  -9.650  1.00  0.00    -0.507 OA
ATOM     25  H   UNL     1      -4.663 -13.043  -9.444  1.00  0.00     0.293 HD
ENDBRANCH   6  24
BRANCH   8  26
ATOM     26  O   UNL     1      -5.657 -13.250 -14.361  1.00  0.00    -0.508 OA
ATOM     27  H   UNL     1      -4.859 -12.886 -14.870  1.00  0.00     0.293 HD
ENDBRANCH   8  26
TORSDOF 6
ENDMDL
MODEL 9
REMARK VINA RESULT:    -5.125     12.634     15.244
REMARK INTER + INTRA:          -5.793
REMARK INTER:                  -5.523
REMARK INTRA:                  -0.270
REMARK UNBOUND:                 0.380
REMARK SMILES O=c1c(O)c(-c2ccc(O)c(O)c2)oc2cc(O)cc(O)c12
REMARK SMILES IDX 5 1 3 2 2 3 1 4 22 5 20 6 19 7 17 8 16 9 15 10 14 11 6 12
REMARK SMILES IDX 7 13 8 14 9 15 13 16 11 17 10 18 12 20 4 22 21 24 18 26
REMARK H PARENT 10 19 12 21 4 23 21 25 18 27
REMARK Flexibility Score: inf
ROOT
ATOM      1  C   UNL     1      -5.369 -18.530 -12.925  1.00  0.00     0.180 A 
ATOM      2  C   UNL     1      -5.123 -17.605 -11.895  1.00  0.00     0.208 A 
ATOM      3  C   UNL     1      -5.330 -16.238 -12.144  1.00  0.00     0.238 A 
ATOM      4  O   UNL     1      -5.056 -15.410 -11.236  1.00  0.00    -0.285 OA
ATOM      5  C   UNL     1      -5.794 -15.816 -13.413  1.00  0.00     0.111 A 
ATOM      6  C   UNL     1      -6.076 -14.460 -13.762  1.00  0.00     0.134 A 
ATOM      7  C   UNL     1      -6.406 -14.143 -15.085  1.00  0.00     0.093 A 
ATOM      8  C   UNL     1      -6.528 -15.137 -16.055  1.00  0.00     0.123 A 
ATOM      9  C   UNL     1      -6.313 -16.471 -15.711  1.00  0.00     0.094 A 
ATOM     10  C   UNL     1      -5.948 -16.816 -14.408  1.00  0.00     0.146 A 
ATOM     11  O   UNL     1      -5.742 -18.097 -14.124  1.00  0.00    -0.452 OA
ENDROOT
BRANCH   1  12
ATOM     12  C   UNL     1      -5.199 -19.988 -12.731  1.00  0.00     0.025 A 
ATOM     13  C   UNL     1      -4.069 -20.663 -13.218  1.00  0.00     0.016 A 
ATOM     14  C   UNL     1      -3.920 -22.034 -13.002  1.00  0.00     0.051 A 
ATOM     15  C   UNL     1      -4.884 -22.755 -12.289  1.00  0.00     0.157 A 
ATOM     16  C   UNL     1      -6.157 -20.704 -11.997  1.00  0.00     0.062 A 
ATOM     17  C   UNL     1      -6.016 -22.080 -11.775  1.00  0.00     0.158 A 
BRANCH  15  18
ATOM     18  O   UNL     1      -4.677 -24.125 -12.112  1.00  0.00    -0.504 OA
ATOM     19  H   UNL     1      -4.088 -24.688 -12.708  1.00  0.00     0.293 HD
ENDBRANCH  15  18
BRANCH  17  20
ATOM     20  O   UNL     1      -7.014 -22.729 -11.046  1.00  0.00    -0.504 OA
ATOM     21  H   UNL     1      -7.882 -23.057 -11.444  1.00  0.00     0.293 HD
ENDBRANCH  17  20
ENDBRANCH   1  12
BRANCH   2  22
ATOM     22  O   UNL     1      -4.644 -18.042 -10.658  1.00  0.00    -0.502 OA
ATOM     23  H   UNL     1      -3.846 -17.616 -10.202  1.00  0.00     0.293 HD
ENDBRANCH   2  22
BRANCH   6  24
ATOM     24  O   UNL     1      -6.073 -13.402 -12.849  1.00  0.00    -0.507 OA
ATOM     25  H   UNL     1      -6.900 -12.968 -12.469  1.00  0.00     0.293 HD
ENDBRANCH   6  24
BRANCH   8  26
ATOM     26  O   UNL     1      -6.874 -14.786 -17.359  1.00  0.00    -0.508 OA
ATOM     27  H   UNL     1      -6.595 -13.897 -17.760  1.00  0.00     0.293 HD
ENDBRANCH   8  26
TORSDOF 6
ENDMDL
