MODEL 1
REMARK VINA RESULT:    -6.438      0.000      0.000
REMARK INTER + INTRA:          -7.830
REMARK INTER:                  -7.567
REMARK INTRA:                  -0.263
REMARK UNBOUND:                -0.263
REMARK SMILES O=c1cc(-c2ccc(O)c(O)c2)oc2cc(O)cc(O)c12
REMARK SMILES IDX 4 1 3 2 2 3 1 4 21 5 19 6 18 7 16 8 15 9 14 10 13 11 5 12
REMARK SMILES IDX 6 13 7 14 8 15 12 16 10 17 9 18 11 20 20 22 17 24
REMARK H PARENT 9 19 11 21 20 23 17 25
REMARK Flexibility Score: inf
ROOT
ATOM      1  C   UNL     1      14.516  55.840  34.561  1.00  0.00     0.138 A 
ATOM      2  C   UNL     1      14.342  55.571  33.193  1.00  0.00     0.100 A 
ATOM      3  C   UNL     1      14.813  56.484  32.248  1.00  0.00     0.197 A 
ATOM      4  O   UNL     1      14.652  56.235  31.023  1.00  0.00    -0.289 OA
ATOM      5  C   UNL     1      15.453  57.663  32.680  1.00  0.00     0.107 A 
ATOM      6  C   UNL     1      15.960  58.639  31.789  1.00  0.00     0.134 A 
ATOM      7  C   UNL     1      16.580  59.790  32.300  1.00  0.00     0.093 A 
ATOM      8  C   UNL     1      16.700  59.982  33.682  1.00  0.00     0.123 A 
ATOM      9  C   UNL     1      16.201  59.021  34.564  1.00  0.00     0.094 A 
ATOM     10  C   UNL     1      15.581  57.867  34.075  1.00  0.00     0.146 A 
ATOM     11  O   UNL     1      15.116  56.967  34.935  1.00  0.00    -0.456 OA
ENDROOT
BRANCH   1  12
ATOM     12  C   UNL     1      14.035  54.905  35.610  1.00  0.00     0.021 A 
ATOM     13  C   UNL     1      14.884  53.945  36.191  1.00  0.00     0.016 A 
ATOM     14  C   UNL     1      14.406  53.085  37.183  1.00  0.00     0.051 A 
ATOM     15  C   UNL     1      13.080  53.171  37.617  1.00  0.00     0.157 A 
ATOM     16  C   UNL     1      12.706  54.995  36.060  1.00  0.00     0.062 A 
ATOM     17  C   UNL     1      12.225  54.132  37.054  1.00  0.00     0.158 A 
BRANCH  15  18
ATOM     18  O   UNL     1      12.632  52.298  38.608  1.00  0.00    -0.504 OA
ATOM     19  H   UNL     1      11.790  51.746  38.499  1.00  0.00     0.293 HD
ENDBRANCH  15  18
BRANCH  17  20
ATOM     20  O   UNL     1      10.903  54.226  37.485  1.00  0.00    -0.504 OA
ATOM     21  H   UNL     1      10.631  53.966  38.426  1.00  0.00     0.293 HD
ENDBRANCH  17  20
ENDBRANCH   1  12
BRANCH   6  22
ATOM     22  O   UNL     1      15.854  58.475  30.409  1.00  0.00    -0.507 OA
ATOM     23  H   UNL     1      14.957  58.351  29.954  1.00  0.00     0.293 HD
ENDBRANCH   6  22
BRANCH   8  24
ATOM     24  O   UNL     1      17.314  61.124  34.189  1.00  0.00    -0.508 OA
ATOM     25  H   UNL     1      17.464  61.945  33.613  1.00  0.00     0.293 HD
ENDBRANCH   8  24
TORSDOF 5
ENDMDL
MODEL 2
REMARK VINA RESULT:    -6.220      0.658      1.488
REMARK INTER + INTRA:          -7.574
REMARK INTER:                  -7.314
REMARK INTRA:                  -0.260
REMARK UNBOUND:                -0.263
REMARK SMILES O=c1cc(-c2ccc(O)c(O)c2)oc2cc(O)cc(O)c12
REMARK SMILES IDX 4 1 3 2 2 3 1 4 21 5 19 6 18 7 16 8 15 9 14 10 13 11 5 12
REMARK SMILES IDX 6 13 7 14 8 15 12 16 10 17 9 18 11 20 20 22 17 24
REMARK H PARENT 9 19 11 21 20 23 17 25
REMARK Flexibility Score: inf
ROOT
ATOM      1  C   UNL     1      14.451  55.738  34.602  1.00  0.00     0.138 A 
ATOM      2  C   UNL     1      14.307  55.441  33.237  1.00  0.00     0.100 A 
ATOM      3  C   UNL     1      14.796  56.335  32.284  1.00  0.00     0.197 A 
ATOM      4  O   UNL     1      14.661  56.061  31.061  1.00  0.00    -0.289 OA
ATOM      5  C   UNL     1      15.425  57.525  32.705  1.00  0.00     0.107 A 
ATOM      6  C   UNL     1      15.949  58.483  31.805  1.00  0.00     0.134 A 
ATOM      7  C   UNL     1      16.556  59.646  32.305  1.00  0.00     0.093 A 
ATOM      8  C   UNL     1      16.646  59.866  33.685  1.00  0.00     0.123 A 
ATOM      9  C   UNL     1      16.130  58.922  34.576  1.00  0.00     0.094 A 
ATOM     10  C   UNL     1      15.523  57.758  34.098  1.00  0.00     0.146 A 
ATOM     11  O   UNL     1      15.041  56.874  34.966  1.00  0.00    -0.456 OA
ENDROOT
BRANCH   1  12
ATOM     12  C   UNL     1      13.949  54.824  35.660  1.00  0.00     0.021 A 
ATOM     13  C   UNL     1      12.758  55.089  36.361  1.00  0.00     0.016 A 
ATOM     14  C   UNL     1      12.304  54.205  37.345  1.00  0.00     0.051 A 
ATOM     15  C   UNL     1      13.022  53.043  37.638  1.00  0.00     0.157 A 
ATOM     16  C   UNL     1      14.660  53.646  35.951  1.00  0.00     0.062 A 
ATOM     17  C   UNL     1      14.206  52.760  36.938  1.00  0.00     0.158 A 
BRANCH  15  18
ATOM     18  O   UNL     1      12.544  52.182  38.626  1.00  0.00    -0.504 OA
ATOM     19  H   UNL     1      12.940  51.261  38.775  1.00  0.00     0.293 HD
ENDBRANCH  15  18
BRANCH  17  20
ATOM     20  O   UNL     1      14.925  51.601  37.223  1.00  0.00    -0.504 OA
ATOM     21  H   UNL     1      15.019  51.254  38.171  1.00  0.00     0.293 HD
ENDBRANCH  17  20
ENDBRANCH   1  12
BRANCH   6  22
ATOM     22  O   UNL     1      15.873  58.291  30.426  1.00  0.00    -0.507 OA
ATOM     23  H   UNL     1      15.385  58.943  29.823  1.00  0.00     0.293 HD
ENDBRANCH   6  22
BRANCH   8  24
ATOM     24  O   UNL     1      17.248  61.020  34.182  1.00  0.00    -0.508 OA
ATOM     25  H   UNL     1      16.795  61.593  34.885  1.00  0.00     0.293 HD
ENDBRANCH   8  24
TORSDOF 5
ENDMDL
MODEL 3
REMARK VINA RESULT:    -5.934      1.773      1.947
REMARK INTER + INTRA:          -7.238
REMARK INTER:                  -6.968
REMARK INTRA:                  -0.269
REMARK UNBOUND:                -0.263
REMARK SMILES O=c1cc(-c2ccc(O)c(O)c2)oc2cc(O)cc(O)c12
REMARK SMILES IDX 4 1 3 2 2 3 1 4 21 5 19 6 18 7 16 8 15 9 14 10 13 11 5 12
REMARK SMILES IDX 6 13 7 14 8 15 12 16 10 17 9 18 11 20 20 22 17 24
REMARK H PARENT 9 19 11 21 20 23 17 25
REMARK Flexibility Score: inf
ROOT
ATOM      1  C   UNL     1      14.259  56.038  34.862  1.00  0.00     0.138 A 
ATOM      2  C   UNL     1      13.056  56.433  34.254  1.00  0.00     0.100 A 
ATOM      3  C   UNL     1      12.980  57.676  33.624  1.00  0.00     0.197 A 
ATOM      4  O   UNL     1      11.895  58.021  33.082  1.00  0.00    -0.289 OA
ATOM      5  C   UNL     1      14.110  58.519  33.611  1.00  0.00     0.107 A 
ATOM      6  C   UNL     1      14.117  59.793  32.994  1.00  0.00     0.134 A 
ATOM      7  C   UNL     1      15.282  60.574  33.030  1.00  0.00     0.093 A 
ATOM      8  C   UNL     1      16.435  60.105  33.671  1.00  0.00     0.123 A 
ATOM      9  C   UNL     1      16.432  58.849  34.280  1.00  0.00     0.094 A 
ATOM     10  C   UNL     1      15.282  58.055  34.255  1.00  0.00     0.146 A 
ATOM     11  O   UNL     1      15.304  56.862  34.840  1.00  0.00    -0.456 OA
ENDROOT
BRANCH   1  12
ATOM     12  C   UNL     1      14.398  54.728  35.547  1.00  0.00     0.021 A 
ATOM     13  C   UNL     1      15.428  53.827  35.220  1.00  0.00     0.016 A 
ATOM     14  C   UNL     1      15.540  52.605  35.888  1.00  0.00     0.051 A 
ATOM     15  C   UNL     1      14.634  52.264  36.897  1.00  0.00     0.157 A 
ATOM     16  C   UNL     1      13.497  54.384  36.572  1.00  0.00     0.062 A 
ATOM     17  C   UNL     1      13.608  53.158  37.242  1.00  0.00     0.158 A 
BRANCH  15  18
ATOM     18  O   UNL     1      14.771  51.037  37.544  1.00  0.00    -0.504 OA
ATOM     19  H   UNL     1      14.093  50.292  37.436  1.00  0.00     0.293 HD
ENDBRANCH  15  18
BRANCH  17  20
ATOM     20  O   UNL     1      12.704  52.826  38.249  1.00  0.00    -0.504 OA
ATOM     21  H   UNL     1      12.075  52.036  38.159  1.00  0.00     0.293 HD
ENDBRANCH  17  20
ENDBRANCH   1  12
BRANCH   6  22
ATOM     22  O   UNL     1      12.983  60.285  32.350  1.00  0.00    -0.507 OA
ATOM     23  H   UNL     1      12.682  61.247  32.460  1.00  0.00     0.293 HD
ENDBRANCH   6  22
BRANCH   8  24
ATOM     24  O   UNL     1      17.592  60.882  33.707  1.00  0.00    -0.508 OA
ATOM     25  H   UNL     1      18.095  61.042  34.572  1.00  0.00     0.293 HD
ENDBRANCH   8  24
TORSDOF 5
ENDMDL
MODEL 4
REMARK VINA RESULT:    -5.402      2.540      3.550
REMARK INTER + INTRA:          -6.612
REMARK INTER:                  -6.349
REMARK INTRA:                  -0.263
REMARK UNBOUND:                -0.263
REMARK SMILES O=c1cc(-c2ccc(O)c(O)c2)oc2cc(O)cc(O)c12
REMARK SMILES IDX 4 1 3 2 2 3 1 4 21 5 19 6 18 7 16 8 15 9 14 10 13 11 5 12
REMARK SMILES IDX 6 13 7 14 8 15 12 16 10 17 9 18 11 20 20 22 17 24
REMARK H PARENT 9 19 11 21 20 23 17 25
REMARK Flexibility Score: inf
ROOT
ATOM      1  C   UNL     1      15.201  56.018  34.200  1.00  0.00     0.138 A 
ATOM      2  C   UNL     1      16.503  56.540  34.128  1.00  0.00     0.100 A 
ATOM      3  C   UNL     1      16.695  57.920  34.200  1.00  0.00     0.197 A 
ATOM      4  O   UNL     1      17.868  58.379  34.133  1.00  0.00    -0.289 OA
ATOM      5  C   UNL     1      15.580  58.771  34.340  1.00  0.00     0.107 A 
ATOM      6  C   UNL     1      15.687  60.180  34.420  1.00  0.00     0.134 A 
ATOM      7  C   UNL     1      14.527  60.958  34.553  1.00  0.00     0.093 A 
ATOM      8  C   UNL     1      13.265  60.353  34.605  1.00  0.00     0.123 A 
ATOM      9  C   UNL     1      13.156  58.963  34.526  1.00  0.00     0.094 A 
ATOM     10  C   UNL     1      14.299  58.171  34.394  1.00  0.00     0.146 A 
ATOM     11  O   UNL     1      14.169  56.850  34.322  1.00  0.00    -0.456 OA
ENDROOT
BRANCH   1  12
ATOM     12  C   UNL     1      14.937  54.558  34.129  1.00  0.00     0.021 A 
ATOM     13  C   UNL     1      14.509  53.942  32.938  1.00  0.00     0.016 A 
ATOM     14  C   UNL     1      14.278  52.564  32.897  1.00  0.00     0.051 A 
ATOM     15  C   UNL     1      14.477  51.779  34.036  1.00  0.00     0.157 A 
ATOM     16  C   UNL     1      15.147  53.761  35.268  1.00  0.00     0.062 A 
ATOM     17  C   UNL     1      14.914  52.379  35.228  1.00  0.00     0.158 A 
BRANCH  15  18
ATOM     18  O   UNL     1      14.236  50.407  33.964  1.00  0.00    -0.504 OA
ATOM     19  H   UNL     1      13.314  50.013  34.110  1.00  0.00     0.293 HD
ENDBRANCH  15  18
BRANCH  17  20
ATOM     20  O   UNL     1      15.117  51.601  36.366  1.00  0.00    -0.504 OA
ATOM     21  H   UNL     1      16.025  51.206  36.585  1.00  0.00     0.293 HD
ENDBRANCH  17  20
ENDBRANCH   1  12
BRANCH   6  22
ATOM     22  O   UNL     1      16.930  60.810  34.370  1.00  0.00    -0.507 OA
ATOM     23  H   UNL     1      17.161  61.584  34.982  1.00  0.00     0.293 HD
ENDBRANCH   6  22
BRANCH   8  24
ATOM     24  O   UNL     1      12.113  61.125  34.736  1.00  0.00    -0.508 OA
ATOM     25  H   UNL     1      11.465  60.983  35.503  1.00  0.00     0.293 HD
ENDBRANCH   8  24
TORSDOF 5
ENDMDL
MODEL 5
REMARK VINA RESULT:    -5.361      1.401      3.038
REMARK INTER + INTRA:          -6.564
REMARK INTER:                  -6.300
REMARK INTRA:                  -0.264
REMARK UNBOUND:                -0.263
REMARK SMILES O=c1cc(-c2ccc(O)c(O)c2)oc2cc(O)cc(O)c12
REMARK SMILES IDX 4 1 3 2 2 3 1 4 21 5 19 6 18 7 16 8 15 9 14 10 13 11 5 12
REMARK SMILES IDX 6 13 7 14 8 15 12 16 10 17 9 18 11 20 20 22 17 24
REMARK H PARENT 9 19 11 21 20 23 17 25
REMARK Flexibility Score: inf
ROOT
ATOM      1  C   UNL     1      14.413  55.720  34.291  1.00  0.00     0.138 A 
ATOM      2  C   UNL     1      14.974  56.987  34.523  1.00  0.00     0.100 A 
ATOM      3  C   UNL     1      15.360  57.776  33.438  1.00  0.00     0.197 A 
ATOM      4  O   UNL     1      15.865  58.911  33.656  1.00  0.00    -0.289 OA
ATOM      5  C   UNL     1      15.185  57.289  32.127  1.00  0.00     0.107 A 
ATOM      6  C   UNL     1      15.549  58.024  30.973  1.00  0.00     0.134 A 
ATOM      7  C   UNL     1      15.348  57.466  29.702  1.00  0.00     0.093 A 
ATOM      8  C   UNL     1      14.791  56.189  29.565  1.00  0.00     0.123 A 
ATOM      9  C   UNL     1      14.430  55.461  30.700  1.00  0.00     0.094 A 
ATOM     10  C   UNL     1      14.623  55.999  31.975  1.00  0.00     0.146 A 
ATOM     11  O   UNL     1      14.270  55.287  33.041  1.00  0.00    -0.456 OA
ENDROOT
BRANCH   1  12
ATOM     12  C   UNL     1      13.984  54.838  35.406  1.00  0.00     0.021 A 
ATOM     13  C   UNL     1      14.858  53.897  35.981  1.00  0.00     0.016 A 
ATOM     14  C   UNL     1      14.431  53.086  37.037  1.00  0.00     0.051 A 
ATOM     15  C   UNL     1      13.132  53.205  37.540  1.00  0.00     0.157 A 
ATOM     16  C   UNL     1      12.683  54.962  35.926  1.00  0.00     0.062 A 
ATOM     17  C   UNL     1      12.254  54.148  36.983  1.00  0.00     0.158 A 
BRANCH  15  18
ATOM     18  O   UNL     1      12.735  52.382  38.593  1.00  0.00    -0.504 OA
ATOM     19  H   UNL     1      13.297  51.598  38.905  1.00  0.00     0.293 HD
ENDBRANCH  15  18
BRANCH  17  20
ATOM     20  O   UNL     1      10.959  54.275  37.483  1.00  0.00    -0.504 OA
ATOM     21  H   UNL     1      10.627  55.145  37.884  1.00  0.00     0.293 HD
ENDBRANCH  17  20
ENDBRANCH   1  12
BRANCH   6  22
ATOM     22  O   UNL     1      16.106  59.299  31.080  1.00  0.00    -0.507 OA
ATOM     23  H   UNL     1      16.599  59.597  31.914  1.00  0.00     0.293 HD
ENDBRANCH   6  22
BRANCH   8  24
ATOM     24  O   UNL     1      14.591  55.634  28.303  1.00  0.00    -0.508 OA
ATOM     25  H   UNL     1      14.243  54.689  28.188  1.00  0.00     0.293 HD
ENDBRANCH   8  24
TORSDOF 5
ENDMDL
MODEL 6
REMARK VINA RESULT:    -5.272      1.700      2.059
REMARK INTER + INTRA:          -6.459
REMARK INTER:                  -6.167
REMARK INTRA:                  -0.292
REMARK UNBOUND:                -0.263
REMARK SMILES O=c1cc(-c2ccc(O)c(O)c2)oc2cc(O)cc(O)c12
REMARK SMILES IDX 4 1 3 2 2 3 1 4 21 5 19 6 18 7 16 8 15 9 14 10 13 11 5 12
REMARK SMILES IDX 6 13 7 14 8 15 12 16 10 17 9 18 11 20 20 22 17 24
REMARK H PARENT 9 19 11 21 20 23 17 25
REMARK Flexibility Score: inf
ROOT
ATOM      1  C   UNL     1      15.332  55.477  33.850  1.00  0.00     0.138 A 
ATOM      2  C   UNL     1      14.998  55.484  32.485  1.00  0.00     0.100 A 
ATOM      3  C   UNL     1      15.192  56.646  31.737  1.00  0.00     0.197 A 
ATOM      4  O   UNL     1      14.888  56.643  30.513  1.00  0.00    -0.289 OA
ATOM      5  C   UNL     1      15.715  57.796  32.362  1.00  0.00     0.107 A 
ATOM      6  C   UNL     1      15.943  59.013  31.676  1.00  0.00     0.134 A 
ATOM      7  C   UNL     1      16.461  60.116  32.372  1.00  0.00     0.093 A 
ATOM      8  C   UNL     1      16.755  60.022  33.738  1.00  0.00     0.123 A 
ATOM      9  C   UNL     1      16.532  58.823  34.417  1.00  0.00     0.094 A 
ATOM     10  C   UNL     1      16.016  57.714  33.742  1.00  0.00     0.146 A 
ATOM     11  O   UNL     1      15.815  56.583  34.411  1.00  0.00    -0.456 OA
ENDROOT
BRANCH   1  12
ATOM     12  C   UNL     1      15.147  54.270  34.695  1.00  0.00     0.021 A 
ATOM     13  C   UNL     1      15.151  54.344  36.101  1.00  0.00     0.016 A 
ATOM     14  C   UNL     1      14.964  53.192  36.871  1.00  0.00     0.051 A 
ATOM     15  C   UNL     1      14.763  51.954  36.255  1.00  0.00     0.157 A 
ATOM     16  C   UNL     1      14.931  53.023  34.082  1.00  0.00     0.062 A 
ATOM     17  C   UNL     1      14.744  51.868  34.854  1.00  0.00     0.158 A 
BRANCH  15  18
ATOM     18  O   UNL     1      14.580  50.823  37.051  1.00  0.00    -0.504 OA
ATOM     19  H   UNL     1      14.630  50.862  38.062  1.00  0.00     0.293 HD
ENDBRANCH  15  18
BRANCH  17  20
ATOM     20  O   UNL     1      14.540  50.636  34.234  1.00  0.00    -0.504 OA
ATOM     21  H   UNL     1      14.350  50.566  33.241  1.00  0.00     0.293 HD
ENDBRANCH  17  20
ENDBRANCH   1  12
BRANCH   6  22
ATOM     22  O   UNL     1      15.659  59.135  30.316  1.00  0.00    -0.507 OA
ATOM     23  H   UNL     1      16.128  58.567  29.620  1.00  0.00     0.293 HD
ENDBRANCH   6  22
BRANCH   8  24
ATOM     24  O   UNL     1      17.270  61.117  34.429  1.00  0.00    -0.508 OA
ATOM     25  H   UNL     1      18.269  61.272  34.507  1.00  0.00     0.293 HD
ENDBRANCH   8  24
TORSDOF 5
ENDMDL
MODEL 7
REMARK VINA RESULT:    -5.214     11.202     12.513
REMARK INTER + INTRA:          -6.392
REMARK INTER:                  -6.100
REMARK INTRA:                  -0.291
REMARK UNBOUND:                -0.263
REMARK SMILES O=c1cc(-c2ccc(O)c(O)c2)oc2cc(O)cc(O)c12
REMARK SMILES IDX 4 1 3 2 2 3 1 4 21 5 19 6 18 7 16 8 15 9 14 10 13 11 5 12
REMARK SMILES IDX 6 13 7 14 8 15 12 16 10 17 9 18 11 20 20 22 17 24
REMARK H PARENT 9 19 11 21 20 23 17 25
REMARK Flexibility Score: inf
ROOT
ATOM      1  C   UNL     1      25.905  53.522  31.459  1.00  0.00     0.138 A 
ATOM      2  C   UNL     1      25.578  52.282  30.885  1.00  0.00     0.100 A 
ATOM      3  C   UNL     1      24.701  52.237  29.800  1.00  0.00     0.197 A 
ATOM      4  O   UNL     1      24.413  51.120  29.292  1.00  0.00    -0.289 OA
ATOM      5  C   UNL     1      24.154  53.436  29.299  1.00  0.00     0.107 A 
ATOM      6  C   UNL     1      23.259  53.479  28.203  1.00  0.00     0.134 A 
ATOM      7  C   UNL     1      22.753  54.713  27.768  1.00  0.00     0.093 A 
ATOM      8  C   UNL     1      23.125  55.901  28.408  1.00  0.00     0.123 A 
ATOM      9  C   UNL     1      24.008  55.863  29.489  1.00  0.00     0.094 A 
ATOM     10  C   UNL     1      24.523  54.644  29.938  1.00  0.00     0.146 A 
ATOM     11  O   UNL     1      25.363  54.634  30.968  1.00  0.00    -0.456 OA
ENDROOT
BRANCH   1  12
ATOM     12  C   UNL     1      26.831  53.630  32.615  1.00  0.00     0.021 A 
ATOM     13  C   UNL     1      27.431  54.853  32.970  1.00  0.00     0.016 A 
ATOM     14  C   UNL     1      28.291  54.926  34.070  1.00  0.00     0.051 A 
ATOM     15  C   UNL     1      28.561  53.789  34.835  1.00  0.00     0.157 A 
ATOM     16  C   UNL     1      27.097  52.492  33.397  1.00  0.00     0.062 A 
ATOM     17  C   UNL     1      27.960  52.565  34.499  1.00  0.00     0.158 A 
BRANCH  15  18
ATOM     18  O   UNL     1      29.424  53.894  35.925  1.00  0.00    -0.504 OA
ATOM     19  H   UNL     1      29.184  54.426  36.754  1.00  0.00     0.293 HD
ENDBRANCH  15  18
BRANCH  17  20
ATOM     20  O   UNL     1      28.222  51.427  35.261  1.00  0.00    -0.504 OA
ATOM     21  H   UNL     1      28.087  50.495  34.887  1.00  0.00     0.293 HD
ENDBRANCH  17  20
ENDBRANCH   1  12
BRANCH   6  22
ATOM     22  O   UNL     1      22.871  52.311  27.547  1.00  0.00    -0.507 OA
ATOM     23  H   UNL     1      23.550  51.670  27.153  1.00  0.00     0.293 HD
ENDBRANCH   6  22
BRANCH   8  24
ATOM     24  O   UNL     1      22.623  57.127  27.976  1.00  0.00    -0.508 OA
ATOM     25  H   UNL     1      21.687  57.212  27.596  1.00  0.00     0.293 HD
ENDBRANCH   8  24
TORSDOF 5
ENDMDL
MODEL 8
REMARK VINA RESULT:    -5.186      3.397      7.208
REMARK INTER + INTRA:          -6.359
REMARK INTER:                  -6.093
REMARK INTRA:                  -0.266
REMARK UNBOUND:                -0.263
REMARK SMILES O=c1cc(-c2ccc(O)c(O)c2)oc2cc(O)cc(O)c12
REMARK SMILES IDX 4 1 3 2 2 3 1 4 21 5 19 6 18 7 16 8 15 9 14 10 13 11 5 12
REMARK SMILES IDX 6 13 7 14 8 15 12 16 10 17 9 18 11 20 20 22 17 24
REMARK H PARENT 9 19 11 21 20 23 17 25
REMARK Flexibility Score: inf
ROOT
ATOM      1  C   UNL     1      14.980  54.507  33.584  1.00  0.00     0.138 A 
ATOM      2  C   UNL     1      15.034  53.591  34.648  1.00  0.00     0.100 A 
ATOM      3  C   UNL     1      14.651  52.266  34.434  1.00  0.00     0.197 A 
ATOM      4  O   UNL     1      14.701  51.451  35.394  1.00  0.00    -0.289 OA
ATOM      5  C   UNL     1      14.213  51.867  33.154  1.00  0.00     0.107 A 
ATOM      6  C   UNL     1      13.809  50.545  32.852  1.00  0.00     0.134 A 
ATOM      7  C   UNL     1      13.380  50.229  31.554  1.00  0.00     0.093 A 
ATOM      8  C   UNL     1      13.348  51.211  30.556  1.00  0.00     0.123 A 
ATOM      9  C   UNL     1      13.747  52.516  30.850  1.00  0.00     0.094 A 
ATOM     10  C   UNL     1      14.177  52.851  32.137  1.00  0.00     0.146 A 
ATOM     11  O   UNL     1      14.553  54.100  32.391  1.00  0.00    -0.456 OA
ENDROOT
BRANCH   1  12
ATOM     12  C   UNL     1      15.374  55.928  33.755  1.00  0.00     0.021 A 
ATOM     13  C   UNL     1      14.484  56.885  34.277  1.00  0.00     0.016 A 
ATOM     14  C   UNL     1      14.886  58.214  34.436  1.00  0.00     0.051 A 
ATOM     15  C   UNL     1      16.180  58.610  34.086  1.00  0.00     0.157 A 
ATOM     16  C   UNL     1      16.679  56.330  33.416  1.00  0.00     0.062 A 
ATOM     17  C   UNL     1      17.082  57.663  33.574  1.00  0.00     0.158 A 
BRANCH  15  18
ATOM     18  O   UNL     1      16.550  59.943  34.255  1.00  0.00    -0.504 OA
ATOM     19  H   UNL     1      17.243  60.227  34.937  1.00  0.00     0.293 HD
ENDBRANCH  15  18
BRANCH  17  20
ATOM     20  O   UNL     1      18.375  58.051  33.226  1.00  0.00    -0.504 OA
ATOM     21  H   UNL     1      18.582  58.994  32.916  1.00  0.00     0.293 HD
ENDBRANCH  17  20
ENDBRANCH   1  12
BRANCH   6  22
ATOM     22  O   UNL     1      13.829  49.547  33.826  1.00  0.00    -0.507 OA
ATOM     23  H   UNL     1      14.499  49.559  34.587  1.00  0.00     0.293 HD
ENDBRANCH   6  22
BRANCH   8  24
ATOM     24  O   UNL     1      12.922  50.898  29.267  1.00  0.00    -0.508 OA
ATOM     25  H   UNL     1      13.384  50.185  28.714  1.00  0.00     0.293 HD
ENDBRANCH   8  24
TORSDOF 5
ENDMDL
MODEL 9
REMARK VINA RESULT:    -5.075      5.416      6.944
REMARK INTER + INTRA:          -6.228
REMARK INTER:                  -5.963
REMARK INTRA:                  -0.264
REMARK UNBOUND:                -0.263
REMARK SMILES O=c1cc(-c2ccc(O)c(O)c2)oc2cc(O)cc(O)c12
REMARK SMILES IDX 4 1 3 2 2 3 1 4 21 5 19 6 18 7 16 8 15 9 14 10 13 11 5 12
REMARK SMILES IDX 6 13 7 14 8 15 12 16 10 17 9 18 11 20 20 22 17 24
REMARK H PARENT 9 19 11 21 20 23 17 25
REMARK Flexibility Score: inf
ROOT
ATOM      1  C   UNL     1      14.554  50.528  33.177  1.00  0.00     0.138 A 
ATOM      2  C   UNL     1      14.275  51.448  32.152  1.00  0.00     0.100 A 
ATOM      3  C   UNL     1      14.171  52.805  32.457  1.00  0.00     0.197 A 
ATOM      4  O   UNL     1      13.919  53.623  31.532  1.00  0.00    -0.289 OA
ATOM      5  C   UNL     1      14.344  53.233  33.789  1.00  0.00     0.107 A 
ATOM      6  C   UNL     1      14.255  54.590  34.184  1.00  0.00     0.134 A 
ATOM      7  C   UNL     1      14.434  54.934  35.532  1.00  0.00     0.093 A 
ATOM      8  C   UNL     1      14.698  53.947  36.490  1.00  0.00     0.123 A 
ATOM      9  C   UNL     1      14.786  52.608  36.105  1.00  0.00     0.094 A 
ATOM     10  C   UNL     1      14.611  52.245  34.767  1.00  0.00     0.146 A 
ATOM     11  O   UNL     1      14.701  50.964  34.425  1.00  0.00    -0.456 OA
ENDROOT
BRANCH   1  12
ATOM     12  C   UNL     1      14.675  49.072  32.910  1.00  0.00     0.021 A 
ATOM     13  C   UNL     1      13.693  48.158  33.336  1.00  0.00     0.016 A 
ATOM     14  C   UNL     1      13.828  46.794  33.062  1.00  0.00     0.051 A 
ATOM     15  C   UNL     1      14.936  46.321  32.354  1.00  0.00     0.157 A 
ATOM     16  C   UNL     1      15.781  48.590  32.187  1.00  0.00     0.062 A 
ATOM     17  C   UNL     1      15.918  47.222  31.913  1.00  0.00     0.158 A 
BRANCH  15  18
ATOM     18  O   UNL     1      15.043  44.954  32.098  1.00  0.00    -0.504 OA
ATOM     19  H   UNL     1      14.304  44.302  32.333  1.00  0.00     0.293 HD
ENDBRANCH  15  18
BRANCH  17  20
ATOM     20  O   UNL     1      17.023  46.757  31.204  1.00  0.00    -0.504 OA
ATOM     21  H   UNL     1      17.529  47.352  30.557  1.00  0.00     0.293 HD
ENDBRANCH  17  20
ENDBRANCH   1  12
BRANCH   6  22
ATOM     22  O   UNL     1      13.993  55.593  33.251  1.00  0.00    -0.507 OA
ATOM     23  H   UNL     1      13.131  55.614  32.719  1.00  0.00     0.293 HD
ENDBRANCH   6  22
BRANCH   8  24
ATOM     24  O   UNL     1      14.875  54.289  37.829  1.00  0.00    -0.508 OA
ATOM     25  H   UNL     1      15.701  54.004  38.344  1.00  0.00     0.293 HD
ENDBRANCH   8  24
TORSDOF 5
ENDMDL
