MODEL 1
REMARK VINA RESULT:    -3.578      0.000      0.000
REMARK INTER + INTRA:          -7.120
REMARK INTER:                  -5.669
REMARK INTRA:                  -1.451
REMARK UNBOUND:                -1.451
REMARK SMILES CCCCCCCCCCCC(=O)[O-]
REMARK SMILES IDX 7 1 8 2 9 3 10 4 11 5 12 6 13 7 14 8 6 9 5 10 4 11 3 12 2 13
REMARK SMILES IDX 1 14
REMARK H PARENT
REMARK Flexibility Score: inf
ROOT
ATOM      1  C   UNL     1      19.372  39.602  36.265  1.00  0.00     0.000 C 
ENDROOT
BRANCH   1   2
ATOM      2  C   UNL     1      19.659  39.545  37.777  1.00  0.00     0.000 C 
BRANCH   2   3
ATOM      3  C   UNL     1      18.990  38.340  38.459  1.00  0.00     0.000 C 
BRANCH   3   4
ATOM      4  C   UNL     1      19.470  38.139  39.907  1.00  0.00     0.006 C 
BRANCH   4   5
ATOM      5  C   UNL     1      20.369  39.288  40.382  1.00  0.00     0.053 C 
BRANCH   5   6
ATOM      6  C   UNL     1      21.746  38.813  40.732  1.00  0.00     0.041 C 
ATOM      7  O   UNL     1      21.963  38.266  41.845  1.00  0.00    -0.550 OA
ATOM      8  O   UNL     1      22.782  38.945  39.816  1.00  0.00    -0.550 OA
ENDBRANCH   5   6
ENDBRANCH   4   5
ENDBRANCH   3   4
ENDBRANCH   2   3
ENDBRANCH   1   2
BRANCH   1   9
ATOM      9  C   UNL     1      18.576  38.385  35.761  1.00  0.00     0.000 C 
BRANCH   9  10
ATOM     10  C   UNL     1      19.346  37.452  34.809  1.00  0.00    -0.000 C 
BRANCH  10  11
ATOM     11  C   UNL     1      20.861  37.719  34.805  1.00  0.00    -0.000 C 
BRANCH  11  12
ATOM     12  C   UNL     1      21.660  36.598  35.489  1.00  0.00    -0.000 C 
BRANCH  12  13
ATOM     13  C   UNL     1      22.229  37.027  36.850  1.00  0.00    -0.003 C 
ATOM     14  C   UNL     1      21.926  35.987  37.925  1.00  0.00     0.004 C 
ENDBRANCH  12  13
ENDBRANCH  11  12
ENDBRANCH  10  11
ENDBRANCH   9  10
ENDBRANCH   1   9
TORSDOF 10
ENDMDL
MODEL 2
REMARK VINA RESULT:    -3.499      3.566      5.505
REMARK INTER + INTRA:          -6.996
REMARK INTER:                  -5.532
REMARK INTRA:                  -1.464
REMARK UNBOUND:                -1.451
REMARK SMILES CCCCCCCCCCCC(=O)[O-]
REMARK SMILES IDX 7 1 8 2 9 3 10 4 11 5 12 6 13 7 14 8 6 9 5 10 4 11 3 12 2 13
REMARK SMILES IDX 1 14
REMARK H PARENT
REMARK Flexibility Score: inf
ROOT
ATOM      1  C   UNL     1      21.622  36.611  35.358  1.00  0.00     0.000 C 
ENDROOT
BRANCH   1   2
ATOM      2  C   UNL     1      21.716  38.137  35.180  1.00  0.00     0.000 C 
BRANCH   2   3
ATOM      3  C   UNL     1      20.335  38.814  35.159  1.00  0.00     0.000 C 
BRANCH   3   4
ATOM      4  C   UNL     1      19.183  37.803  35.023  1.00  0.00     0.006 C 
BRANCH   4   5
ATOM      5  C   UNL     1      17.878  38.329  35.635  1.00  0.00     0.053 C 
BRANCH   5   6
ATOM      6  C   UNL     1      16.824  38.556  34.593  1.00  0.00     0.041 C 
ATOM      7  O   UNL     1      16.593  39.718  34.171  1.00  0.00    -0.550 OA
ATOM      8  O   UNL     1      16.120  37.479  34.068  1.00  0.00    -0.550 OA
ENDBRANCH   5   6
ENDBRANCH   4   5
ENDBRANCH   3   4
ENDBRANCH   2   3
ENDBRANCH   1   2
BRANCH   1   9
ATOM      9  C   UNL     1      22.096  36.139  36.745  1.00  0.00     0.000 C 
BRANCH   9  10
ATOM     10  C   UNL     1      22.613  37.255  37.670  1.00  0.00    -0.000 C 
BRANCH  10  11
ATOM     11  C   UNL     1      21.677  37.526  38.861  1.00  0.00    -0.000 C 
BRANCH  11  12
ATOM     12  C   UNL     1      20.269  36.948  38.648  1.00  0.00    -0.000 C 
BRANCH  12  13
ATOM     13  C   UNL     1      19.163  37.985  38.897  1.00  0.00    -0.003 C 
ATOM     14  C   UNL     1      19.722  39.404  38.859  1.00  0.00     0.004 C 
ENDBRANCH  12  13
ENDBRANCH  11  12
ENDBRANCH  10  11
ENDBRANCH   9  10
ENDBRANCH   1   9
TORSDOF 10
ENDMDL
MODEL 3
REMARK VINA RESULT:    -3.492      3.368      5.097
REMARK INTER + INTRA:          -6.985
REMARK INTER:                  -5.541
REMARK INTRA:                  -1.443
REMARK UNBOUND:                -1.451
REMARK SMILES CCCCCCCCCCCC(=O)[O-]
REMARK SMILES IDX 7 1 8 2 9 3 10 4 11 5 12 6 13 7 14 8 6 9 5 10 4 11 3 12 2 13
REMARK SMILES IDX 1 14
REMARK H PARENT
REMARK Flexibility Score: inf
ROOT
ATOM      1  C   UNL     1      19.022  38.502  38.398  1.00  0.00     0.000 C 
ENDROOT
BRANCH   1   2
ATOM      2  C   UNL     1      19.523  39.641  37.491  1.00  0.00     0.000 C 
BRANCH   2   3
ATOM      3  C   UNL     1      19.056  39.482  36.034  1.00  0.00     0.000 C 
BRANCH   3   4
ATOM      4  C   UNL     1      18.336  38.145  35.787  1.00  0.00     0.006 C 
BRANCH   4   5
ATOM      5  C   UNL     1      17.765  38.050  34.366  1.00  0.00     0.053 C 
BRANCH   5   6
ATOM      6  C   UNL     1      18.675  37.290  33.448  1.00  0.00     0.041 C 
ATOM      7  O   UNL     1      19.645  37.871  32.895  1.00  0.00    -0.550 OA
ATOM      8  O   UNL     1      18.469  35.934  33.229  1.00  0.00    -0.550 OA
ENDBRANCH   5   6
ENDBRANCH   4   5
ENDBRANCH   3   4
ENDBRANCH   2   3
ENDBRANCH   1   2
BRANCH   1   9
ATOM      9  C   UNL     1      20.056  38.085  39.460  1.00  0.00     0.000 C 
BRANCH   9  10
ATOM     10  C   UNL     1      21.403  37.593  38.900  1.00  0.00    -0.000 C 
BRANCH  10  11
ATOM     11  C   UNL     1      21.282  36.267  38.129  1.00  0.00    -0.000 C 
BRANCH  11  12
ATOM     12  C   UNL     1      22.297  36.158  36.979  1.00  0.00    -0.000 C 
BRANCH  12  13
ATOM     13  C   UNL     1      21.721  36.637  35.639  1.00  0.00    -0.003 C 
ATOM     14  C   UNL     1      22.295  37.996  35.248  1.00  0.00     0.004 C 
ENDBRANCH  12  13
ENDBRANCH  11  12
ENDBRANCH  10  11
ENDBRANCH   9  10
ENDBRANCH   1   9
TORSDOF 10
ENDMDL
MODEL 4
REMARK VINA RESULT:    -3.492      1.614      2.488
REMARK INTER + INTRA:          -6.984
REMARK INTER:                  -5.461
REMARK INTRA:                  -1.522
REMARK UNBOUND:                -1.451
REMARK SMILES CCCCCCCCCCCC(=O)[O-]
REMARK SMILES IDX 7 1 8 2 9 3 10 4 11 5 12 6 13 7 14 8 6 9 5 10 4 11 3 12 2 13
REMARK SMILES IDX 1 14
REMARK H PARENT
REMARK Flexibility Score: inf
ROOT
ATOM      1  C   UNL     1      17.749  38.118  34.960  1.00  0.00     0.000 C 
ENDROOT
BRANCH   1   2
ATOM      2  C   UNL     1      18.376  39.521  34.882  1.00  0.00     0.000 C 
BRANCH   2   3
ATOM      3  C   UNL     1      19.100  39.916  36.181  1.00  0.00     0.000 C 
BRANCH   3   4
ATOM      4  C   UNL     1      19.080  38.793  37.233  1.00  0.00     0.006 C 
BRANCH   4   5
ATOM      5  C   UNL     1      20.088  39.043  38.363  1.00  0.00     0.053 C 
BRANCH   5   6
ATOM      6  C   UNL     1      19.663  38.391  39.644  1.00  0.00     0.041 C 
ATOM      7  O   UNL     1      18.630  37.672  39.676  1.00  0.00    -0.550 OA
ATOM      8  O   UNL     1      20.425  38.553  40.794  1.00  0.00    -0.550 OA
ENDBRANCH   5   6
ENDBRANCH   4   5
ENDBRANCH   3   4
ENDBRANCH   2   3
ENDBRANCH   1   2
BRANCH   1   9
ATOM      9  C   UNL     1      18.362  37.131  33.949  1.00  0.00     0.000 C 
BRANCH   9  10
ATOM     10  C   UNL     1      19.491  37.710  33.077  1.00  0.00    -0.000 C 
BRANCH  10  11
ATOM     11  C   UNL     1      20.881  37.181  33.470  1.00  0.00    -0.000 C 
BRANCH  11  12
ATOM     12  C   UNL     1      21.777  38.273  34.078  1.00  0.00    -0.000 C 
BRANCH  12  13
ATOM     13  C   UNL     1      22.334  37.878  35.454  1.00  0.00    -0.003 C 
ATOM     14  C   UNL     1      21.737  36.557  35.930  1.00  0.00     0.004 C 
ENDBRANCH  12  13
ENDBRANCH  11  12
ENDBRANCH  10  11
ENDBRANCH   9  10
ENDBRANCH   1   9
TORSDOF 10
ENDMDL
MODEL 5
REMARK VINA RESULT:    -3.472      2.068      3.788
REMARK INTER + INTRA:          -6.952
REMARK INTER:                  -5.654
REMARK INTRA:                  -1.298
REMARK UNBOUND:                -1.451
REMARK SMILES CCCCCCCCCCCC(=O)[O-]
REMARK SMILES IDX 7 1 8 2 9 3 10 4 11 5 12 6 13 7 14 8 6 9 5 10 4 11 3 12 2 13
REMARK SMILES IDX 1 14
REMARK H PARENT
REMARK Flexibility Score: inf
ROOT
ATOM      1  C   UNL     1      21.802  38.046  35.127  1.00  0.00     0.000 C 
ENDROOT
BRANCH   1   2
ATOM      2  C   UNL     1      21.746  36.600  35.650  1.00  0.00     0.000 C 
BRANCH   2   3
ATOM      3  C   UNL     1      22.340  36.459  37.061  1.00  0.00     0.000 C 
BRANCH   3   4
ATOM      4  C   UNL     1      21.264  36.495  38.161  1.00  0.00     0.006 C 
BRANCH   4   5
ATOM      5  C   UNL     1      21.235  37.841  38.897  1.00  0.00     0.053 C 
BRANCH   5   6
ATOM      6  C   UNL     1      19.837  38.348  39.081  1.00  0.00     0.041 C 
ATOM      7  O   UNL     1      19.509  39.477  38.631  1.00  0.00    -0.550 OA
ATOM      8  O   UNL     1      18.889  37.560  39.721  1.00  0.00    -0.550 OA
ENDBRANCH   5   6
ENDBRANCH   4   5
ENDBRANCH   3   4
ENDBRANCH   2   3
ENDBRANCH   1   2
BRANCH   1   9
ATOM      9  C   UNL     1      20.434  38.750  35.163  1.00  0.00     0.000 C 
BRANCH   9  10
ATOM     10  C   UNL     1      19.233  37.826  35.437  1.00  0.00    -0.000 C 
BRANCH  10  11
ATOM     11  C   UNL     1      18.284  37.705  34.232  1.00  0.00    -0.000 C 
BRANCH  11  12
ATOM     12  C   UNL     1      18.621  36.503  33.334  1.00  0.00    -0.000 C 
BRANCH  12  13
ATOM     13  C   UNL     1      18.997  36.924  31.906  1.00  0.00    -0.003 C 
ATOM     14  C   UNL     1      20.506  37.098  31.763  1.00  0.00     0.004 C 
ENDBRANCH  12  13
ENDBRANCH  11  12
ENDBRANCH  10  11
ENDBRANCH   9  10
ENDBRANCH   1   9
TORSDOF 10
ENDMDL
MODEL 6
REMARK VINA RESULT:    -3.462      3.147      5.781
REMARK INTER + INTRA:          -6.937
REMARK INTER:                  -5.670
REMARK INTRA:                  -1.268
REMARK UNBOUND:                -1.451
REMARK SMILES CCCCCCCCCCCC(=O)[O-]
REMARK SMILES IDX 7 1 8 2 9 3 10 4 11 5 12 6 13 7 14 8 6 9 5 10 4 11 3 12 2 13
REMARK SMILES IDX 1 14
REMARK H PARENT
REMARK Flexibility Score: inf
ROOT
ATOM      1  C   UNL     1      21.954  36.127  37.875  1.00  0.00     0.000 C 
ENDROOT
BRANCH   1   2
ATOM      2  C   UNL     1      22.012  36.325  36.350  1.00  0.00     0.000 C 
BRANCH   2   3
ATOM      3  C   UNL     1      22.374  37.767  35.956  1.00  0.00     0.000 C 
BRANCH   3   4
ATOM      4  C   UNL     1      21.624  38.242  34.699  1.00  0.00     0.006 C 
BRANCH   4   5
ATOM      5  C   UNL     1      20.975  37.078  33.939  1.00  0.00     0.053 C 
BRANCH   5   6
ATOM      6  C   UNL     1      19.506  37.294  33.735  1.00  0.00     0.041 C 
ATOM      7  O   UNL     1      18.753  36.318  33.478  1.00  0.00    -0.550 OA
ATOM      8  O   UNL     1      18.965  38.567  33.860  1.00  0.00    -0.550 OA
ENDBRANCH   5   6
ENDBRANCH   4   5
ENDBRANCH   3   4
ENDBRANCH   2   3
ENDBRANCH   1   2
BRANCH   1   9
ATOM      9  C   UNL     1      22.946  37.028  38.634  1.00  0.00     0.000 C 
BRANCH   9  10
ATOM     10  C   UNL     1      22.314  37.931  39.709  1.00  0.00    -0.000 C 
BRANCH  10  11
ATOM     11  C   UNL     1      21.120  38.745  39.179  1.00  0.00    -0.000 C 
BRANCH  11  12
ATOM     12  C   UNL     1      19.806  38.402  39.900  1.00  0.00    -0.000 C 
BRANCH  12  13
ATOM     13  C   UNL     1      18.648  38.154  38.923  1.00  0.00    -0.003 C 
ATOM     14  C   UNL     1      19.067  38.448  37.486  1.00  0.00     0.004 C 
ENDBRANCH  12  13
ENDBRANCH  11  12
ENDBRANCH  10  11
ENDBRANCH   9  10
ENDBRANCH   1   9
TORSDOF 10
ENDMDL
MODEL 7
REMARK VINA RESULT:    -3.438      1.688      3.521
REMARK INTER + INTRA:          -6.899
REMARK INTER:                  -5.355
REMARK INTRA:                  -1.544
REMARK UNBOUND:                -1.451
REMARK SMILES CCCCCCCCCCCC(=O)[O-]
REMARK SMILES IDX 7 1 8 2 9 3 10 4 11 5 12 6 13 7 14 8 6 9 5 10 4 11 3 12 2 13
REMARK SMILES IDX 1 14
REMARK H PARENT
REMARK Flexibility Score: inf
ROOT
ATOM      1  C   UNL     1      21.899  38.171  34.177  1.00  0.00     0.000 C 
ENDROOT
BRANCH   1   2
ATOM      2  C   UNL     1      22.309  37.874  35.630  1.00  0.00     0.000 C 
BRANCH   2   3
ATOM      3  C   UNL     1      21.714  36.555  36.152  1.00  0.00     0.000 C 
BRANCH   3   4
ATOM      4  C   UNL     1      21.489  36.570  37.674  1.00  0.00     0.006 C 
BRANCH   4   5
ATOM      5  C   UNL     1      21.417  37.997  38.233  1.00  0.00     0.053 C 
BRANCH   5   6
ATOM      6  C   UNL     1      20.260  38.173  39.170  1.00  0.00     0.041 C 
ATOM      7  O   UNL     1      19.367  37.289  39.245  1.00  0.00    -0.550 OA
ATOM      8  O   UNL     1      20.185  39.298  39.981  1.00  0.00    -0.550 OA
ENDBRANCH   5   6
ENDBRANCH   4   5
ENDBRANCH   3   4
ENDBRANCH   2   3
ENDBRANCH   1   2
BRANCH   1   9
ATOM      9  C   UNL     1      20.968  37.097  33.585  1.00  0.00     0.000 C 
BRANCH   9  10
ATOM     10  C   UNL     1      19.602  37.615  33.098  1.00  0.00    -0.000 C 
BRANCH  10  11
ATOM     11  C   UNL     1      18.423  37.031  33.895  1.00  0.00    -0.000 C 
BRANCH  11  12
ATOM     12  C   UNL     1      17.679  38.098  34.715  1.00  0.00    -0.000 C 
BRANCH  12  13
ATOM     13  C   UNL     1      18.390  38.426  36.036  1.00  0.00    -0.003 C 
ATOM     14  C   UNL     1      19.041  39.805  35.983  1.00  0.00     0.004 C 
ENDBRANCH  12  13
ENDBRANCH  11  12
ENDBRANCH  10  11
ENDBRANCH   9  10
ENDBRANCH   1   9
TORSDOF 10
ENDMDL
MODEL 8
REMARK VINA RESULT:    -3.403      2.765      4.506
REMARK INTER + INTRA:          -6.843
REMARK INTER:                  -5.407
REMARK INTRA:                  -1.435
REMARK UNBOUND:                -1.451
REMARK SMILES CCCCCCCCCCCC(=O)[O-]
REMARK SMILES IDX 7 1 8 2 9 3 10 4 11 5 12 6 13 7 14 8 6 9 5 10 4 11 3 12 2 13
REMARK SMILES IDX 1 14
REMARK H PARENT
REMARK Flexibility Score: inf
ROOT
ATOM      1  C   UNL     1      20.866  37.013  32.973  1.00  0.00     0.000 C 
ENDROOT
BRANCH   1   2
ATOM      2  C   UNL     1      21.173  38.379  33.613  1.00  0.00     0.000 C 
BRANCH   2   3
ATOM      3  C   UNL     1      21.566  38.260  35.095  1.00  0.00     0.000 C 
BRANCH   3   4
ATOM      4  C   UNL     1      21.050  36.962  35.741  1.00  0.00     0.006 C 
BRANCH   4   5
ATOM      5  C   UNL     1      22.135  36.257  36.566  1.00  0.00     0.053 C 
BRANCH   5   6
ATOM      6  C   UNL     1      21.764  36.167  38.015  1.00  0.00     0.041 C 
ATOM      7  O   UNL     1      22.575  35.682  38.847  1.00  0.00    -0.550 OA
ATOM      8  O   UNL     1      20.535  36.647  38.451  1.00  0.00    -0.550 OA
ENDBRANCH   5   6
ENDBRANCH   4   5
ENDBRANCH   3   4
ENDBRANCH   2   3
ENDBRANCH   1   2
BRANCH   1   9
ATOM      9  C   UNL     1      19.471  36.955  32.325  1.00  0.00     0.000 C 
BRANCH   9  10
ATOM     10  C   UNL     1      18.360  36.378  33.222  1.00  0.00    -0.000 C 
BRANCH  10  11
ATOM     11  C   UNL     1      17.322  37.433  33.642  1.00  0.00    -0.000 C 
BRANCH  11  12
ATOM     12  C   UNL     1      17.632  38.054  35.013  1.00  0.00    -0.000 C 
BRANCH  12  13
ATOM     13  C   UNL     1      17.881  39.567  34.931  1.00  0.00    -0.003 C 
ATOM     14  C   UNL     1      17.719  40.074  33.502  1.00  0.00     0.004 C 
ENDBRANCH  12  13
ENDBRANCH  11  12
ENDBRANCH  10  11
ENDBRANCH   9  10
ENDBRANCH   1   9
TORSDOF 10
ENDMDL
MODEL 9
REMARK VINA RESULT:    -3.370      3.466      5.219
REMARK INTER + INTRA:          -6.790
REMARK INTER:                  -5.319
REMARK INTRA:                  -1.471
REMARK UNBOUND:                -1.451
REMARK SMILES CCCCCCCCCCCC(=O)[O-]
REMARK SMILES IDX 7 1 8 2 9 3 10 4 11 5 12 6 13 7 14 8 6 9 5 10 4 11 3 12 2 13
REMARK SMILES IDX 1 14
REMARK H PARENT
REMARK Flexibility Score: inf
ROOT
ATOM      1  C   UNL     1      19.072  38.128  38.904  1.00  0.00     0.000 C 
ENDROOT
BRANCH   1   2
ATOM      2  C   UNL     1      19.277  38.958  37.624  1.00  0.00     0.000 C 
BRANCH   2   3
ATOM      3  C   UNL     1      19.085  38.125  36.344  1.00  0.00     0.000 C 
BRANCH   3   4
ATOM      4  C   UNL     1      20.286  38.225  35.389  1.00  0.00     0.006 C 
BRANCH   4   5
ATOM      5  C   UNL     1      20.380  37.014  34.450  1.00  0.00     0.053 C 
BRANCH   5   6
ATOM      6  C   UNL     1      19.274  37.006  33.438  1.00  0.00     0.041 C 
ATOM      7  O   UNL     1      18.594  35.963  33.253  1.00  0.00    -0.550 OA
ATOM      8  O   UNL     1      18.976  38.159  32.723  1.00  0.00    -0.550 OA
ENDBRANCH   5   6
ENDBRANCH   4   5
ENDBRANCH   3   4
ENDBRANCH   2   3
ENDBRANCH   1   2
BRANCH   1   9
ATOM      9  C   UNL     1      19.913  38.636  40.088  1.00  0.00     0.000 C 
BRANCH   9  10
ATOM     10  C   UNL     1      21.368  39.002  39.744  1.00  0.00    -0.000 C 
BRANCH  10  11
ATOM     11  C   UNL     1      22.264  37.767  39.544  1.00  0.00    -0.000 C 
BRANCH  11  12
ATOM     12  C   UNL     1      22.953  37.754  38.170  1.00  0.00    -0.000 C 
BRANCH  12  13
ATOM     13  C   UNL     1      22.680  36.461  37.388  1.00  0.00    -0.003 C 
ATOM     14  C   UNL     1      21.670  35.581  38.116  1.00  0.00     0.004 C 
ENDBRANCH  12  13
ENDBRANCH  11  12
ENDBRANCH  10  11
ENDBRANCH   9  10
ENDBRANCH   1   9
TORSDOF 10
ENDMDL
