MODEL 1
REMARK VINA RESULT:    -4.882      0.000      0.000
REMARK INTER + INTRA:         -13.960
REMARK INTER:                 -10.589
REMARK INTRA:                  -3.371
REMARK UNBOUND:                -3.371
REMARK SMILES CCCCCCCCCCCCCCCCCCCCCC(=O)[O-]
REMARK SMILES IDX 12 1 11 2 10 3 9 4 8 5 7 6 6 7 5 8 4 9 3 10 2 11 1 12 13 13
REMARK SMILES IDX 14 14 15 15 16 16 17 17 18 18 19 19 20 20 21 21 22 22 23 23
REMARK SMILES IDX 24 24
REMARK H PARENT
REMARK Flexibility Score: inf
ROOT
ATOM      1  C   UNL     1      60.987  29.003  11.601  1.00  0.00     0.000 C 
ENDROOT
BRANCH   1   2
ATOM      2  C   UNL     1      60.893  30.207  10.651  1.00  0.00     0.000 C 
BRANCH   2   3
ATOM      3  C   UNL     1      62.093  30.305   9.695  1.00  0.00     0.000 C 
BRANCH   3   4
ATOM      4  C   UNL     1      62.969  29.035   9.677  1.00  0.00    -0.000 C 
BRANCH   4   5
ATOM      5  C   UNL     1      64.444  29.349   9.368  1.00  0.00    -0.000 C 
BRANCH   5   6
ATOM      6  C   UNL     1      64.771  30.830   9.607  1.00  0.00    -0.000 C 
BRANCH   6   7
ATOM      7  C   UNL     1      66.125  31.233   8.984  1.00  0.00    -0.000 C 
BRANCH   7   8
ATOM      8  C   UNL     1      66.763  32.438   9.699  1.00  0.00    -0.000 C 
BRANCH   8   9
ATOM      9  C   UNL     1      65.919  32.955  10.881  1.00  0.00    -0.000 C 
BRANCH   9  10
ATOM     10  C   UNL     1      66.674  33.994  11.728  1.00  0.00    -0.000 C 
BRANCH  10  11
ATOM     11  C   UNL     1      66.268  33.953  13.210  1.00  0.00    -0.003 C 
ATOM     12  C   UNL     1      67.398  34.379  14.148  1.00  0.00     0.004 C 
ENDBRANCH  10  11
ENDBRANCH   9  10
ENDBRANCH   8   9
ENDBRANCH   7   8
ENDBRANCH   6   7
ENDBRANCH   5   6
ENDBRANCH   4   5
ENDBRANCH   3   4
ENDBRANCH   2   3
ENDBRANCH   1   2
BRANCH   1  13
ATOM     13  C   UNL     1      60.609  29.352  13.052  1.00  0.00     0.000 C 
BRANCH  13  14
ATOM     14  C   UNL     1      61.798  29.466  14.023  1.00  0.00     0.000 C 
BRANCH  14  15
ATOM     15  C   UNL     1      63.146  29.128  13.365  1.00  0.00     0.000 C 
BRANCH  15  16
ATOM     16  C   UNL     1      64.023  30.371  13.147  1.00  0.00     0.000 C 
BRANCH  16  17
ATOM     17  C   UNL     1      63.500  31.605  13.902  1.00  0.00     0.000 C 
BRANCH  17  18
ATOM     18  C   UNL     1      62.784  32.604  12.980  1.00  0.00     0.000 C 
BRANCH  18  19
ATOM     19  C   UNL     1      61.861  33.561  13.749  1.00  0.00     0.000 C 
BRANCH  19  20
ATOM     20  C   UNL     1      61.782  33.174  15.233  1.00  0.00     0.006 C 
BRANCH  20  21
ATOM     21  C   UNL     1      61.775  34.400  16.154  1.00  0.00     0.053 C 
BRANCH  21  22
ATOM     22  C   UNL     1      63.050  34.525  16.932  1.00  0.00     0.041 C 
ATOM     23  O   UNL     1      63.080  35.199  17.996  1.00  0.00    -0.550 OA
ATOM     24  O   UNL     1      64.203  33.890  16.488  1.00  0.00    -0.550 OA
ENDBRANCH  21  22
ENDBRANCH  20  21
ENDBRANCH  19  20
ENDBRANCH  18  19
ENDBRANCH  17  18
ENDBRANCH  16  17
ENDBRANCH  15  16
ENDBRANCH  14  15
ENDBRANCH  13  14
ENDBRANCH   1  13
TORSDOF 20
ENDMDL
MODEL 2
REMARK VINA RESULT:    -4.845      1.276      4.307
REMARK INTER + INTRA:         -13.881
REMARK INTER:                 -10.649
REMARK INTRA:                  -3.231
REMARK UNBOUND:                -3.371
REMARK SMILES CCCCCCCCCCCCCCCCCCCCCC(=O)[O-]
REMARK SMILES IDX 12 1 11 2 10 3 9 4 8 5 7 6 6 7 5 8 4 9 3 10 2 11 1 12 13 13
REMARK SMILES IDX 14 14 15 15 16 16 17 17 18 18 19 19 20 20 21 21 22 22 23 23
REMARK SMILES IDX 24 24
REMARK H PARENT
REMARK Flexibility Score: inf
ROOT
ATOM      1  C   UNL     1      63.524  29.020   9.614  1.00  0.00     0.000 C 
ENDROOT
BRANCH   1   2
ATOM      2  C   UNL     1      62.000  28.841   9.525  1.00  0.00     0.000 C 
BRANCH   2   3
ATOM      3  C   UNL     1      61.234  30.161   9.717  1.00  0.00     0.000 C 
BRANCH   3   4
ATOM      4  C   UNL     1      60.679  30.345  11.145  1.00  0.00    -0.000 C 
BRANCH   4   5
ATOM      5  C   UNL     1      60.416  29.001  11.846  1.00  0.00    -0.000 C 
BRANCH   5   6
ATOM      6  C   UNL     1      60.958  28.995  13.283  1.00  0.00    -0.000 C 
BRANCH   6   7
ATOM      7  C   UNL     1      62.500  29.069  13.320  1.00  0.00    -0.000 C 
BRANCH   7   8
ATOM      8  C   UNL     1      63.009  30.400  13.902  1.00  0.00    -0.000 C 
BRANCH   8   9
ATOM      9  C   UNL     1      62.583  30.620  15.367  1.00  0.00    -0.000 C 
BRANCH   9  10
ATOM     10  C   UNL     1      61.723  31.884  15.543  1.00  0.00    -0.000 C 
BRANCH  10  11
ATOM     11  C   UNL     1      61.327  32.519  14.202  1.00  0.00    -0.003 C 
ATOM     12  C   UNL     1      61.595  34.024  14.154  1.00  0.00     0.004 C 
ENDBRANCH  10  11
ENDBRANCH   9  10
ENDBRANCH   8   9
ENDBRANCH   7   8
ENDBRANCH   6   7
ENDBRANCH   5   6
ENDBRANCH   4   5
ENDBRANCH   3   4
ENDBRANCH   2   3
ENDBRANCH   1   2
BRANCH   1  13
ATOM     13  C   UNL     1      63.963  30.491   9.494  1.00  0.00     0.000 C 
BRANCH  13  14
ATOM     14  C   UNL     1      64.799  31.018  10.675  1.00  0.00     0.000 C 
BRANCH  14  15
ATOM     15  C   UNL     1      65.717  32.188  10.285  1.00  0.00     0.000 C 
BRANCH  15  16
ATOM     16  C   UNL     1      65.901  33.199  11.428  1.00  0.00     0.000 C 
BRANCH  16  17
ATOM     17  C   UNL     1      64.798  33.093  12.495  1.00  0.00     0.000 C 
BRANCH  17  18
ATOM     18  C   UNL     1      65.353  33.135  13.927  1.00  0.00     0.000 C 
BRANCH  18  19
ATOM     19  C   UNL     1      65.592  34.568  14.427  1.00  0.00     0.000 C 
BRANCH  19  20
ATOM     20  C   UNL     1      65.714  34.602  15.958  1.00  0.00     0.006 C 
BRANCH  20  21
ATOM     21  C   UNL     1      64.401  34.223  16.653  1.00  0.00     0.053 C 
BRANCH  21  22
ATOM     22  C   UNL     1      64.117  35.100  17.835  1.00  0.00     0.041 C 
ATOM     23  O   UNL     1      62.929  35.366  18.157  1.00  0.00    -0.550 OA
ATOM     24  O   UNL     1      65.164  35.616  18.587  1.00  0.00    -0.550 OA
ENDBRANCH  21  22
ENDBRANCH  20  21
ENDBRANCH  19  20
ENDBRANCH  18  19
ENDBRANCH  17  18
ENDBRANCH  16  17
ENDBRANCH  15  16
ENDBRANCH  14  15
ENDBRANCH  13  14
ENDBRANCH   1  13
TORSDOF 20
ENDMDL
MODEL 3
REMARK VINA RESULT:    -4.616      2.405      6.070
REMARK INTER + INTRA:         -13.383
REMARK INTER:                 -10.304
REMARK INTRA:                  -3.079
REMARK UNBOUND:                -3.371
REMARK SMILES CCCCCCCCCCCCCCCCCCCCCC(=O)[O-]
REMARK SMILES IDX 12 1 11 2 10 3 9 4 8 5 7 6 6 7 5 8 4 9 3 10 2 11 1 12 13 13
REMARK SMILES IDX 14 14 15 15 16 16 17 17 18 18 19 19 20 20 21 21 22 22 23 23
REMARK SMILES IDX 24 24
REMARK H PARENT
REMARK Flexibility Score: inf
ROOT
ATOM      1  C   UNL     1      63.610  31.727  13.523  1.00  0.00     0.000 C 
ENDROOT
BRANCH   1   2
ATOM      2  C   UNL     1      62.676  32.861  13.072  1.00  0.00     0.000 C 
BRANCH   2   3
ATOM      3  C   UNL     1      61.192  32.540  13.318  1.00  0.00     0.000 C 
BRANCH   3   4
ATOM      4  C   UNL     1      60.762  32.712  14.790  1.00  0.00    -0.000 C 
BRANCH   4   5
ATOM      5  C   UNL     1      61.397  33.954  15.441  1.00  0.00    -0.000 C 
BRANCH   5   6
ATOM      6  C   UNL     1      62.312  33.573  16.614  1.00  0.00    -0.000 C 
BRANCH   6   7
ATOM      7  C   UNL     1      62.813  34.814  17.384  1.00  0.00    -0.000 C 
BRANCH   7   8
ATOM      8  C   UNL     1      64.345  34.955  17.335  1.00  0.00    -0.000 C 
BRANCH   8   9
ATOM      9  C   UNL     1      65.012  33.962  16.363  1.00  0.00    -0.000 C 
BRANCH   9  10
ATOM     10  C   UNL     1      65.424  34.627  15.038  1.00  0.00    -0.000 C 
BRANCH  10  11
ATOM     11  C   UNL     1      66.713  34.029  14.454  1.00  0.00    -0.003 C 
ATOM     12  C   UNL     1      67.440  33.109  15.435  1.00  0.00     0.004 C 
ENDBRANCH  10  11
ENDBRANCH   9  10
ENDBRANCH   8   9
ENDBRANCH   7   8
ENDBRANCH   6   7
ENDBRANCH   5   6
ENDBRANCH   4   5
ENDBRANCH   3   4
ENDBRANCH   2   3
ENDBRANCH   1   2
BRANCH   1  13
ATOM     13  C   UNL     1      64.751  31.457  12.525  1.00  0.00     0.000 C 
BRANCH  13  14
ATOM     14  C   UNL     1      65.041  32.607  11.543  1.00  0.00     0.000 C 
BRANCH  14  15
ATOM     15  C   UNL     1      65.889  32.168  10.338  1.00  0.00     0.000 C 
BRANCH  15  16
ATOM     16  C   UNL     1      65.050  31.500   9.238  1.00  0.00     0.000 C 
BRANCH  16  17
ATOM     17  C   UNL     1      65.118  29.965   9.292  1.00  0.00     0.000 C 
BRANCH  17  18
ATOM     18  C   UNL     1      63.735  29.306   9.176  1.00  0.00     0.000 C 
BRANCH  18  19
ATOM     19  C   UNL     1      62.697  29.939  10.114  1.00  0.00     0.000 C 
BRANCH  19  20
ATOM     20  C   UNL     1      61.869  28.859  10.826  1.00  0.00     0.006 C 
BRANCH  20  21
ATOM     21  C   UNL     1      60.615  29.435  11.495  1.00  0.00     0.053 C 
BRANCH  21  22
ATOM     22  C   UNL     1      60.388  28.855  12.858  1.00  0.00     0.041 C 
ATOM     23  O   UNL     1      61.260  28.986  13.757  1.00  0.00    -0.550 OA
ATOM     24  O   UNL     1      59.208  28.177  13.139  1.00  0.00    -0.550 OA
ENDBRANCH  21  22
ENDBRANCH  20  21
ENDBRANCH  19  20
ENDBRANCH  18  19
ENDBRANCH  17  18
ENDBRANCH  16  17
ENDBRANCH  15  16
ENDBRANCH  14  15
ENDBRANCH  13  14
ENDBRANCH   1  13
TORSDOF 20
ENDMDL
MODEL 4
REMARK VINA RESULT:    -4.579      2.395      5.763
REMARK INTER + INTRA:         -13.303
REMARK INTER:                 -10.433
REMARK INTRA:                  -2.870
REMARK UNBOUND:                -3.371
REMARK SMILES CCCCCCCCCCCCCCCCCCCCCC(=O)[O-]
REMARK SMILES IDX 12 1 11 2 10 3 9 4 8 5 7 6 6 7 5 8 4 9 3 10 2 11 1 12 13 13
REMARK SMILES IDX 14 14 15 15 16 16 17 17 18 18 19 19 20 20 21 21 22 22 23 23
REMARK SMILES IDX 24 24
REMARK H PARENT
REMARK Flexibility Score: inf
ROOT
ATOM      1  C   UNL     1      61.966  32.658  12.887  1.00  0.00     0.000 C 
ENDROOT
BRANCH   1   2
ATOM      2  C   UNL     1      61.440  33.590  13.990  1.00  0.00     0.000 C 
BRANCH   2   3
ATOM      3  C   UNL     1      61.173  32.853  15.313  1.00  0.00     0.000 C 
BRANCH   3   4
ATOM      4  C   UNL     1      62.182  33.204  16.426  1.00  0.00    -0.000 C 
BRANCH   4   5
ATOM      5  C   UNL     1      63.167  34.305  15.993  1.00  0.00    -0.000 C 
BRANCH   5   6
ATOM      6  C   UNL     1      64.265  34.528  17.043  1.00  0.00    -0.000 C 
BRANCH   6   7
ATOM      7  C   UNL     1      65.622  34.880  16.396  1.00  0.00    -0.000 C 
BRANCH   7   8
ATOM      8  C   UNL     1      65.651  34.567  14.889  1.00  0.00    -0.000 C 
BRANCH   8   9
ATOM      9  C   UNL     1      66.842  33.676  14.481  1.00  0.00    -0.000 C 
BRANCH   9  10
ATOM     10  C   UNL     1      67.798  34.386  13.507  1.00  0.00    -0.000 C 
BRANCH  10  11
ATOM     11  C   UNL     1      67.094  34.847  12.222  1.00  0.00    -0.003 C 
ATOM     12  C   UNL     1      66.617  33.682  11.354  1.00  0.00     0.004 C 
ENDBRANCH  10  11
ENDBRANCH   9  10
ENDBRANCH   8   9
ENDBRANCH   7   8
ENDBRANCH   6   7
ENDBRANCH   5   6
ENDBRANCH   4   5
ENDBRANCH   3   4
ENDBRANCH   2   3
ENDBRANCH   1   2
BRANCH   1  13
ATOM     13  C   UNL     1      63.503  32.576  12.853  1.00  0.00     0.000 C 
BRANCH  13  14
ATOM     14  C   UNL     1      64.104  31.346  13.557  1.00  0.00     0.000 C 
BRANCH  14  15
ATOM     15  C   UNL     1      64.320  30.156  12.607  1.00  0.00     0.000 C 
BRANCH  15  16
ATOM     16  C   UNL     1      64.597  30.598  11.162  1.00  0.00     0.000 C 
BRANCH  16  17
ATOM     17  C   UNL     1      64.258  29.506  10.133  1.00  0.00     0.000 C 
BRANCH  17  18
ATOM     18  C   UNL     1      62.847  29.662   9.546  1.00  0.00     0.000 C 
BRANCH  18  19
ATOM     19  C   UNL     1      61.931  28.477   9.886  1.00  0.00     0.000 C 
BRANCH  19  20
ATOM     20  C   UNL     1      60.536  28.964  10.306  1.00  0.00     0.006 C 
BRANCH  20  21
ATOM     21  C   UNL     1      60.574  29.798  11.592  1.00  0.00     0.053 C 
BRANCH  21  22
ATOM     22  C   UNL     1      60.365  28.956  12.814  1.00  0.00     0.041 C 
ATOM     23  O   UNL     1      59.257  28.391  13.013  1.00  0.00    -0.550 OA
ATOM     24  O   UNL     1      61.396  28.789  13.730  1.00  0.00    -0.550 OA
ENDBRANCH  21  22
ENDBRANCH  20  21
ENDBRANCH  19  20
ENDBRANCH  18  19
ENDBRANCH  17  18
ENDBRANCH  16  17
ENDBRANCH  15  16
ENDBRANCH  14  15
ENDBRANCH  13  14
ENDBRANCH   1  13
TORSDOF 20
ENDMDL
MODEL 5
REMARK VINA RESULT:    -4.574      1.791      5.172
REMARK INTER + INTRA:         -13.293
REMARK INTER:                 -10.061
REMARK INTRA:                  -3.232
REMARK UNBOUND:                -3.371
REMARK SMILES CCCCCCCCCCCCCCCCCCCCCC(=O)[O-]
REMARK SMILES IDX 12 1 11 2 10 3 9 4 8 5 7 6 6 7 5 8 4 9 3 10 2 11 1 12 13 13
REMARK SMILES IDX 14 14 15 15 16 16 17 17 18 18 19 19 20 20 21 21 22 22 23 23
REMARK SMILES IDX 24 24
REMARK H PARENT
REMARK Flexibility Score: inf
ROOT
ATOM      1  C   UNL     1      60.994  28.946  11.549  1.00  0.00     0.000 C 
ENDROOT
BRANCH   1   2
ATOM      2  C   UNL     1      60.583  29.310  12.985  1.00  0.00     0.000 C 
BRANCH   2   3
ATOM      3  C   UNL     1      61.782  29.704  13.864  1.00  0.00     0.000 C 
BRANCH   3   4
ATOM      4  C   UNL     1      63.147  29.375  13.224  1.00  0.00    -0.000 C 
BRANCH   4   5
ATOM      5  C   UNL     1      64.026  30.627  13.051  1.00  0.00    -0.000 C 
BRANCH   5   6
ATOM      6  C   UNL     1      63.196  31.848  12.629  1.00  0.00    -0.000 C 
BRANCH   6   7
ATOM      7  C   UNL     1      63.546  33.101  13.459  1.00  0.00    -0.000 C 
BRANCH   7   8
ATOM      8  C   UNL     1      63.932  32.755  14.909  1.00  0.00    -0.000 C 
BRANCH   8   9
ATOM      9  C   UNL     1      62.720  32.703  15.860  1.00  0.00    -0.000 C 
BRANCH   9  10
ATOM     10  C   UNL     1      61.668  33.774  15.526  1.00  0.00    -0.000 C 
BRANCH  10  11
ATOM     11  C   UNL     1      61.716  34.969  16.490  1.00  0.00    -0.003 C 
ATOM     12  C   UNL     1      62.262  34.599  17.869  1.00  0.00     0.004 C 
ENDBRANCH  10  11
ENDBRANCH   9  10
ENDBRANCH   8   9
ENDBRANCH   7   8
ENDBRANCH   6   7
ENDBRANCH   5   6
ENDBRANCH   4   5
ENDBRANCH   3   4
ENDBRANCH   2   3
ENDBRANCH   1   2
BRANCH   1  13
ATOM     13  C   UNL     1      60.809  30.111  10.559  1.00  0.00     0.000 C 
BRANCH  13  14
ATOM     14  C   UNL     1      61.901  30.226   9.479  1.00  0.00     0.000 C 
BRANCH  14  15
ATOM     15  C   UNL     1      62.732  28.941   9.327  1.00  0.00     0.000 C 
BRANCH  15  16
ATOM     16  C   UNL     1      64.244  29.210   9.363  1.00  0.00     0.000 C 
BRANCH  16  17
ATOM     17  C   UNL     1      64.589  30.686   9.103  1.00  0.00     0.000 C 
BRANCH  17  18
ATOM     18  C   UNL     1      65.767  31.179   9.958  1.00  0.00     0.000 C 
BRANCH  18  19
ATOM     19  C   UNL     1      66.639  32.210   9.226  1.00  0.00     0.000 C 
BRANCH  19  20
ATOM     20  C   UNL     1      67.323  33.158  10.223  1.00  0.00     0.006 C 
BRANCH  20  21
ATOM     21  C   UNL     1      66.393  33.559  11.374  1.00  0.00     0.053 C 
BRANCH  21  22
ATOM     22  C   UNL     1      66.997  34.624  12.239  1.00  0.00     0.041 C 
ATOM     23  O   UNL     1      67.354  34.358  13.417  1.00  0.00    -0.550 OA
ATOM     24  O   UNL     1      67.174  35.909  11.741  1.00  0.00    -0.550 OA
ENDBRANCH  21  22
ENDBRANCH  20  21
ENDBRANCH  19  20
ENDBRANCH  18  19
ENDBRANCH  17  18
ENDBRANCH  16  17
ENDBRANCH  15  16
ENDBRANCH  14  15
ENDBRANCH  13  14
ENDBRANCH   1  13
TORSDOF 20
ENDMDL
MODEL 6
REMARK VINA RESULT:    -4.542      1.859      5.069
REMARK INTER + INTRA:         -13.224
REMARK INTER:                 -10.164
REMARK INTRA:                  -3.060
REMARK UNBOUND:                -3.371
REMARK SMILES CCCCCCCCCCCCCCCCCCCCCC(=O)[O-]
REMARK SMILES IDX 12 1 11 2 10 3 9 4 8 5 7 6 6 7 5 8 4 9 3 10 2 11 1 12 13 13
REMARK SMILES IDX 14 14 15 15 16 16 17 17 18 18 19 19 20 20 21 21 22 22 23 23
REMARK SMILES IDX 24 24
REMARK H PARENT
REMARK Flexibility Score: inf
ROOT
ATOM      1  C   UNL     1      64.762  33.111  12.618  1.00  0.00     0.000 C 
ENDROOT
BRANCH   1   2
ATOM      2  C   UNL     1      64.546  31.891  11.707  1.00  0.00     0.000 C 
BRANCH   2   3
ATOM      3  C   UNL     1      65.388  31.953  10.422  1.00  0.00     0.000 C 
BRANCH   3   4
ATOM      4  C   UNL     1      65.280  30.681   9.555  1.00  0.00    -0.000 C 
BRANCH   4   5
ATOM      5  C   UNL     1      64.401  29.602  10.212  1.00  0.00    -0.000 C 
BRANCH   5   6
ATOM      6  C   UNL     1      63.222  29.205   9.311  1.00  0.00    -0.000 C 
BRANCH   6   7
ATOM      7  C   UNL     1      62.224  30.366   9.118  1.00  0.00    -0.000 C 
BRANCH   7   8
ATOM      8  C   UNL     1      60.898  30.129   9.863  1.00  0.00    -0.000 C 
BRANCH   8   9
ATOM      9  C   UNL     1      61.022  30.312  11.389  1.00  0.00    -0.000 C 
BRANCH   9  10
ATOM     10  C   UNL     1      60.609  29.049  12.166  1.00  0.00    -0.000 C 
BRANCH  10  11
ATOM     11  C   UNL     1      61.263  28.970  13.553  1.00  0.00    -0.003 C 
ATOM     12  C   UNL     1      62.741  29.359  13.537  1.00  0.00     0.004 C 
ENDBRANCH  10  11
ENDBRANCH   9  10
ENDBRANCH   8   9
ENDBRANCH   7   8
ENDBRANCH   6   7
ENDBRANCH   5   6
ENDBRANCH   4   5
ENDBRANCH   3   4
ENDBRANCH   2   3
ENDBRANCH   1   2
BRANCH   1  13
ATOM     13  C   UNL     1      66.093  33.834  12.346  1.00  0.00     0.000 C 
BRANCH  13  14
ATOM     14  C   UNL     1      67.024  33.962  13.565  1.00  0.00     0.000 C 
BRANCH  14  15
ATOM     15  C   UNL     1      66.482  33.243  14.812  1.00  0.00     0.000 C 
BRANCH  15  16
ATOM     16  C   UNL     1      67.196  33.679  16.101  1.00  0.00     0.000 C 
BRANCH  16  17
ATOM     17  C   UNL     1      66.216  34.130  17.197  1.00  0.00     0.000 C 
BRANCH  17  18
ATOM     18  C   UNL     1      65.008  34.894  16.634  1.00  0.00     0.000 C 
BRANCH  18  19
ATOM     19  C   UNL     1      63.677  34.176  16.902  1.00  0.00     0.000 C 
BRANCH  19  20
ATOM     20  C   UNL     1      62.795  34.168  15.644  1.00  0.00     0.006 C 
BRANCH  20  21
ATOM     21  C   UNL     1      62.249  32.771  15.327  1.00  0.00     0.053 C 
BRANCH  21  22
ATOM     22  C   UNL     1      61.190  32.809  14.267  1.00  0.00     0.041 C 
ATOM     23  O   UNL     1      61.402  33.406  13.179  1.00  0.00    -0.550 OA
ATOM     24  O   UNL     1      59.970  32.177  14.478  1.00  0.00    -0.550 OA
ENDBRANCH  21  22
ENDBRANCH  20  21
ENDBRANCH  19  20
ENDBRANCH  18  19
ENDBRANCH  17  18
ENDBRANCH  16  17
ENDBRANCH  15  16
ENDBRANCH  14  15
ENDBRANCH  13  14
ENDBRANCH   1  13
TORSDOF 20
ENDMDL
MODEL 7
REMARK VINA RESULT:    -4.532      1.793      5.283
REMARK INTER + INTRA:         -13.202
REMARK INTER:                 -10.153
REMARK INTRA:                  -3.049
REMARK UNBOUND:                -3.371
REMARK SMILES CCCCCCCCCCCCCCCCCCCCCC(=O)[O-]
REMARK SMILES IDX 12 1 11 2 10 3 9 4 8 5 7 6 6 7 5 8 4 9 3 10 2 11 1 12 13 13
REMARK SMILES IDX 14 14 15 15 16 16 17 17 18 18 19 19 20 20 21 21 22 22 23 23
REMARK SMILES IDX 24 24
REMARK H PARENT
REMARK Flexibility Score: inf
ROOT
ATOM      1  C   UNL     1      64.778  32.191  13.941  1.00  0.00     0.000 C 
ENDROOT
BRANCH   1   2
ATOM      2  C   UNL     1      64.055  31.264  12.950  1.00  0.00     0.000 C 
BRANCH   2   3
ATOM      3  C   UNL     1      64.370  29.778  13.189  1.00  0.00     0.000 C 
BRANCH   3   4
ATOM      4  C   UNL     1      63.140  28.951  13.615  1.00  0.00    -0.000 C 
BRANCH   4   5
ATOM      5  C   UNL     1      61.825  29.731  13.442  1.00  0.00    -0.000 C 
BRANCH   5   6
ATOM      6  C   UNL     1      60.693  28.829  12.929  1.00  0.00    -0.000 C 
BRANCH   6   7
ATOM      7  C   UNL     1      60.337  29.127  11.457  1.00  0.00    -0.000 C 
BRANCH   7   8
ATOM      8  C   UNL     1      61.038  30.392  10.930  1.00  0.00    -0.000 C 
BRANCH   8   9
ATOM      9  C   UNL     1      61.893  30.129   9.674  1.00  0.00    -0.000 C 
BRANCH   9  10
ATOM     10  C   UNL     1      62.875  28.961   9.868  1.00  0.00    -0.000 C 
BRANCH  10  11
ATOM     11  C   UNL     1      64.320  29.340   9.508  1.00  0.00    -0.003 C 
ATOM     12  C   UNL     1      64.504  30.841   9.290  1.00  0.00     0.004 C 
ENDBRANCH  10  11
ENDBRANCH   9  10
ENDBRANCH   8   9
ENDBRANCH   7   8
ENDBRANCH   6   7
ENDBRANCH   5   6
ENDBRANCH   4   5
ENDBRANCH   3   4
ENDBRANCH   2   3
ENDBRANCH   1   2
BRANCH   1  13
ATOM     13  C   UNL     1      65.229  33.517  13.303  1.00  0.00     0.000 C 
BRANCH  13  14
ATOM     14  C   UNL     1      66.591  34.043  13.791  1.00  0.00     0.000 C 
BRANCH  14  15
ATOM     15  C   UNL     1      66.493  35.413  14.482  1.00  0.00     0.000 C 
BRANCH  15  16
ATOM     16  C   UNL     1      66.827  35.342  15.980  1.00  0.00     0.000 C 
BRANCH  16  17
ATOM     17  C   UNL     1      65.581  35.486  16.872  1.00  0.00     0.000 C 
BRANCH  17  18
ATOM     18  C   UNL     1      64.674  34.247  16.826  1.00  0.00     0.000 C 
BRANCH  18  19
ATOM     19  C   UNL     1      63.270  34.520  17.386  1.00  0.00     0.000 C 
BRANCH  19  20
ATOM     20  C   UNL     1      62.212  33.691  16.644  1.00  0.00     0.006 C 
BRANCH  20  21
ATOM     21  C   UNL     1      61.875  34.276  15.267  1.00  0.00     0.053 C 
BRANCH  21  22
ATOM     22  C   UNL     1      61.154  33.290  14.398  1.00  0.00     0.041 C 
ATOM     23  O   UNL     1      60.312  32.499  14.900  1.00  0.00    -0.550 OA
ATOM     24  O   UNL     1      61.406  33.251  13.033  1.00  0.00    -0.550 OA
ENDBRANCH  21  22
ENDBRANCH  20  21
ENDBRANCH  19  20
ENDBRANCH  18  19
ENDBRANCH  17  18
ENDBRANCH  16  17
ENDBRANCH  15  16
ENDBRANCH  14  15
ENDBRANCH  13  14
ENDBRANCH   1  13
TORSDOF 20
ENDMDL
MODEL 8
REMARK VINA RESULT:    -4.498      1.621      5.035
REMARK INTER + INTRA:         -13.127
REMARK INTER:                 -10.193
REMARK INTRA:                  -2.934
REMARK UNBOUND:                -3.371
REMARK SMILES CCCCCCCCCCCCCCCCCCCCCC(=O)[O-]
REMARK SMILES IDX 12 1 11 2 10 3 9 4 8 5 7 6 6 7 5 8 4 9 3 10 2 11 1 12 13 13
REMARK SMILES IDX 14 14 15 15 16 16 17 17 18 18 19 19 20 20 21 21 22 22 23 23
REMARK SMILES IDX 24 24
REMARK H PARENT
REMARK Flexibility Score: inf
ROOT
ATOM      1  C   UNL     1      60.664  30.165  11.499  1.00  0.00     0.000 C 
ENDROOT
BRANCH   1   2
ATOM      2  C   UNL     1      60.221  29.055  12.466  1.00  0.00     0.000 C 
BRANCH   2   3
ATOM      3  C   UNL     1      61.342  28.620  13.424  1.00  0.00     0.000 C 
BRANCH   3   4
ATOM      4  C   UNL     1      62.651  29.417  13.241  1.00  0.00    -0.000 C 
BRANCH   4   5
ATOM      5  C   UNL     1      62.986  30.277  14.472  1.00  0.00    -0.000 C 
BRANCH   5   6
ATOM      6  C   UNL     1      62.570  31.741  14.271  1.00  0.00    -0.000 C 
BRANCH   6   7
ATOM      7  C   UNL     1      61.483  32.178  15.277  1.00  0.00    -0.000 C 
BRANCH   7   8
ATOM      8  C   UNL     1      61.575  33.674  15.626  1.00  0.00    -0.000 C 
BRANCH   8   9
ATOM      9  C   UNL     1      63.026  34.162  15.813  1.00  0.00    -0.000 C 
BRANCH   9  10
ATOM     10  C   UNL     1      63.339  34.517  17.277  1.00  0.00    -0.000 C 
BRANCH  10  11
ATOM     11  C   UNL     1      62.094  34.977  18.052  1.00  0.00    -0.003 C 
ATOM     12  C   UNL     1      61.982  34.334  19.434  1.00  0.00     0.004 C 
ENDBRANCH  10  11
ENDBRANCH   9  10
ENDBRANCH   8   9
ENDBRANCH   7   8
ENDBRANCH   6   7
ENDBRANCH   5   6
ENDBRANCH   4   5
ENDBRANCH   3   4
ENDBRANCH   2   3
ENDBRANCH   1   2
BRANCH   1  13
ATOM     13  C   UNL     1      60.515  29.765  10.020  1.00  0.00     0.000 C 
BRANCH  13  14
ATOM     14  C   UNL     1      61.807  29.865   9.187  1.00  0.00     0.000 C 
BRANCH  14  15
ATOM     15  C   UNL     1      62.823  28.760   9.520  1.00  0.00     0.000 C 
BRANCH  15  16
ATOM     16  C   UNL     1      64.221  29.317   9.826  1.00  0.00     0.000 C 
BRANCH  16  17
ATOM     17  C   UNL     1      64.215  30.839  10.053  1.00  0.00     0.000 C 
BRANCH  17  18
ATOM     18  C   UNL     1      65.194  31.278  11.153  1.00  0.00     0.000 C 
BRANCH  18  19
ATOM     19  C   UNL     1      64.799  32.614  11.798  1.00  0.00     0.000 C 
BRANCH  19  20
ATOM     20  C   UNL     1      66.043  33.450  12.135  1.00  0.00     0.006 C 
BRANCH  20  21
ATOM     21  C   UNL     1      65.917  34.158  13.489  1.00  0.00     0.053 C 
BRANCH  21  22
ATOM     22  C   UNL     1      66.711  33.472  14.559  1.00  0.00     0.041 C 
ATOM     23  O   UNL     1      66.173  32.595  15.285  1.00  0.00    -0.550 OA
ATOM     24  O   UNL     1      68.050  33.794  14.748  1.00  0.00    -0.550 OA
ENDBRANCH  21  22
ENDBRANCH  20  21
ENDBRANCH  19  20
ENDBRANCH  18  19
ENDBRANCH  17  18
ENDBRANCH  16  17
ENDBRANCH  15  16
ENDBRANCH  14  15
ENDBRANCH  13  14
ENDBRANCH   1  13
TORSDOF 20
ENDMDL
MODEL 9
REMARK VINA RESULT:    -4.453      1.710      4.803
REMARK INTER + INTRA:         -13.030
REMARK INTER:                  -9.930
REMARK INTRA:                  -3.099
REMARK UNBOUND:                -3.371
REMARK SMILES CCCCCCCCCCCCCCCCCCCCCC(=O)[O-]
REMARK SMILES IDX 12 1 11 2 10 3 9 4 8 5 7 6 6 7 5 8 4 9 3 10 2 11 1 12 13 13
REMARK SMILES IDX 14 14 15 15 16 16 17 17 18 18 19 19 20 20 21 21 22 22 23 23
REMARK SMILES IDX 24 24
REMARK H PARENT
REMARK Flexibility Score: inf
ROOT
ATOM      1  C   UNL     1      64.677  31.460  12.646  1.00  0.00     0.000 C 
ENDROOT
BRANCH   1   2
ATOM      2  C   UNL     1      64.624  32.350  11.393  1.00  0.00     0.000 C 
BRANCH   2   3
ATOM      3  C   UNL     1      65.941  32.336  10.599  1.00  0.00     0.000 C 
BRANCH   3   4
ATOM      4  C   UNL     1      65.823  31.643   9.226  1.00  0.00    -0.000 C 
BRANCH   4   5
ATOM      5  C   UNL     1      64.452  30.971   9.029  1.00  0.00    -0.000 C 
BRANCH   5   6
ATOM      6  C   UNL     1      64.515  29.463   9.311  1.00  0.00    -0.000 C 
BRANCH   6   7
ATOM      7  C   UNL     1      63.357  28.995  10.219  1.00  0.00    -0.000 C 
BRANCH   7   8
ATOM      8  C   UNL     1      62.107  28.594   9.414  1.00  0.00    -0.000 C 
BRANCH   8   9
ATOM      9  C   UNL     1      60.891  29.497   9.700  1.00  0.00    -0.000 C 
BRANCH   9  10
ATOM     10  C   UNL     1      60.920  30.086  11.121  1.00  0.00    -0.000 C 
BRANCH  10  11
ATOM     11  C   UNL     1      60.214  29.186  12.147  1.00  0.00    -0.003 C 
ATOM     12  C   UNL     1      61.158  28.663  13.229  1.00  0.00     0.004 C 
ENDBRANCH  10  11
ENDBRANCH   9  10
ENDBRANCH   8   9
ENDBRANCH   7   8
ENDBRANCH   6   7
ENDBRANCH   5   6
ENDBRANCH   4   5
ENDBRANCH   3   4
ENDBRANCH   2   3
ENDBRANCH   1   2
BRANCH   1  13
ATOM     13  C   UNL     1      63.400  31.552  13.501  1.00  0.00     0.000 C 
BRANCH  13  14
ATOM     14  C   UNL     1      62.493  32.756  13.187  1.00  0.00     0.000 C 
BRANCH  14  15
ATOM     15  C   UNL     1      61.078  32.611  13.772  1.00  0.00     0.000 C 
BRANCH  15  16
ATOM     16  C   UNL     1      61.018  32.970  15.264  1.00  0.00     0.000 C 
BRANCH  16  17
ATOM     17  C   UNL     1      61.743  34.288  15.586  1.00  0.00     0.000 C 
BRANCH  17  18
ATOM     18  C   UNL     1      62.300  34.323  17.017  1.00  0.00     0.000 C 
BRANCH  18  19
ATOM     19  C   UNL     1      63.799  34.658  17.061  1.00  0.00     0.000 C 
BRANCH  19  20
ATOM     20  C   UNL     1      64.549  33.964  15.914  1.00  0.00     0.006 C 
BRANCH  20  21
ATOM     21  C   UNL     1      65.882  34.651  15.592  1.00  0.00     0.053 C 
BRANCH  21  22
ATOM     22  C   UNL     1      66.821  33.742  14.858  1.00  0.00     0.041 C 
ATOM     23  O   UNL     1      67.369  32.779  15.456  1.00  0.00    -0.550 OA
ATOM     24  O   UNL     1      67.083  33.953  13.510  1.00  0.00    -0.550 OA
ENDBRANCH  21  22
ENDBRANCH  20  21
ENDBRANCH  19  20
ENDBRANCH  18  19
ENDBRANCH  17  18
ENDBRANCH  16  17
ENDBRANCH  15  16
ENDBRANCH  14  15
ENDBRANCH  13  14
ENDBRANCH   1  13
TORSDOF 20
ENDMDL
