MODEL 1
REMARK VINA RESULT:    -4.622      0.000      0.000
REMARK INTER + INTRA:          -8.466
REMARK INTER:                  -7.864
REMARK INTRA:                  -0.602
REMARK UNBOUND:                -0.602
REMARK SMILES CCCCCCCCCCCCCC(=O)[O-]
REMARK SMILES IDX 8 1 9 2 10 3 11 4 12 5 13 6 14 7 15 8 16 9 7 10 6 11 5 12
REMARK SMILES IDX 4 13 3 14 2 15 1 16
REMARK H PARENT
REMARK Flexibility Score: inf
ROOT
ATOM      1  C   UNL     1       4.360  10.681  83.070  1.00  0.00     0.000 C 
ENDROOT
BRANCH   1   2
ATOM      2  C   UNL     1       5.168  10.233  81.835  1.00  0.00     0.000 C 
BRANCH   2   3
ATOM      3  C   UNL     1       5.597   8.754  81.834  1.00  0.00     0.000 C 
BRANCH   3   4
ATOM      4  C   UNL     1       7.039   8.551  81.339  1.00  0.00     0.000 C 
BRANCH   4   5
ATOM      5  C   UNL     1       7.094   7.922  79.933  1.00  0.00     0.006 C 
BRANCH   5   6
ATOM      6  C   UNL     1       7.289   6.395  79.944  1.00  0.00     0.053 C 
BRANCH   6   7
ATOM      7  C   UNL     1       8.652   6.003  79.462  1.00  0.00     0.041 C 
ATOM      8  O   UNL     1       9.332   6.802  78.766  1.00  0.00    -0.550 OA
ATOM      9  O   UNL     1       9.163   4.747  79.763  1.00  0.00    -0.550 OA
ENDBRANCH   6   7
ENDBRANCH   5   6
ENDBRANCH   4   5
ENDBRANCH   3   4
ENDBRANCH   2   3
ENDBRANCH   1   2
BRANCH   1  10
ATOM     10  C   UNL     1       2.829  10.694  82.879  1.00  0.00     0.000 C 
BRANCH  10  11
ATOM     11  C   UNL     1       2.025  10.034  84.018  1.00  0.00    -0.000 C 
BRANCH  11  12
ATOM     12  C   UNL     1       2.562   8.667  84.485  1.00  0.00    -0.000 C 
BRANCH  12  13
ATOM     13  C   UNL     1       2.473   8.417  86.004  1.00  0.00    -0.000 C 
BRANCH  13  14
ATOM     14  C   UNL     1       2.624   9.676  86.882  1.00  0.00    -0.000 C 
BRANCH  14  15
ATOM     15  C   UNL     1       2.623   9.412  88.398  1.00  0.00    -0.003 C 
ATOM     16  C   UNL     1       1.739  10.390  89.173  1.00  0.00     0.004 C 
ENDBRANCH  14  15
ENDBRANCH  13  14
ENDBRANCH  12  13
ENDBRANCH  11  12
ENDBRANCH  10  11
ENDBRANCH   1  10
TORSDOF 12
ENDMDL
MODEL 2
REMARK VINA RESULT:    -4.388      1.371      2.397
REMARK INTER + INTRA:          -8.069
REMARK INTER:                  -7.340
REMARK INTRA:                  -0.729
REMARK UNBOUND:                -0.602
REMARK SMILES CCCCCCCCCCCCCC(=O)[O-]
REMARK SMILES IDX 8 1 9 2 10 3 11 4 12 5 13 6 14 7 15 8 16 9 7 10 6 11 5 12
REMARK SMILES IDX 4 13 3 14 2 15 1 16
REMARK H PARENT
REMARK Flexibility Score: inf
ROOT
ATOM      1  C   UNL     1       5.416   9.185  82.189  1.00  0.00     0.000 C 
ENDROOT
BRANCH   1   2
ATOM      2  C   UNL     1       6.733   8.625  81.612  1.00  0.00     0.000 C 
BRANCH   2   3
ATOM      3  C   UNL     1       7.178   9.245  80.274  1.00  0.00     0.000 C 
BRANCH   3   4
ATOM      4  C   UNL     1       8.627   8.888  79.902  1.00  0.00     0.000 C 
BRANCH   4   5
ATOM      5  C   UNL     1       8.707   7.693  78.932  1.00  0.00     0.006 C 
BRANCH   5   6
ATOM      6  C   UNL     1       9.744   6.631  79.342  1.00  0.00     0.053 C 
BRANCH   6   7
ATOM      7  C   UNL     1       9.099   5.322  79.679  1.00  0.00     0.041 C 
ATOM      8  O   UNL     1       7.858   5.262  79.886  1.00  0.00    -0.550 OA
ATOM      9  O   UNL     1       9.870   4.172  79.787  1.00  0.00    -0.550 OA
ENDBRANCH   6   7
ENDBRANCH   5   6
ENDBRANCH   4   5
ENDBRANCH   3   4
ENDBRANCH   2   3
ENDBRANCH   1   2
BRANCH   1  10
ATOM     10  C   UNL     1       5.052  10.609  81.723  1.00  0.00     0.000 C 
BRANCH  10  11
ATOM     11  C   UNL     1       3.609  11.051  82.044  1.00  0.00    -0.000 C 
BRANCH  11  12
ATOM     12  C   UNL     1       3.369  11.466  83.509  1.00  0.00    -0.000 C 
BRANCH  12  13
ATOM     13  C   UNL     1       2.240  10.698  84.226  1.00  0.00    -0.000 C 
BRANCH  13  14
ATOM     14  C   UNL     1       2.417   9.166  84.266  1.00  0.00    -0.000 C 
BRANCH  14  15
ATOM     15  C   UNL     1       2.421   8.551  85.678  1.00  0.00    -0.003 C 
ATOM     16  C   UNL     1       3.033   9.478  86.729  1.00  0.00     0.004 C 
ENDBRANCH  14  15
ENDBRANCH  13  14
ENDBRANCH  12  13
ENDBRANCH  11  12
ENDBRANCH  10  11
ENDBRANCH   1  10
TORSDOF 12
ENDMDL
MODEL 3
REMARK VINA RESULT:    -4.368      1.885      2.423
REMARK INTER + INTRA:          -8.034
REMARK INTER:                  -7.650
REMARK INTRA:                  -0.384
REMARK UNBOUND:                -0.602
REMARK SMILES CCCCCCCCCCCCCC(=O)[O-]
REMARK SMILES IDX 8 1 9 2 10 3 11 4 12 5 13 6 14 7 15 8 16 9 7 10 6 11 5 12
REMARK SMILES IDX 4 13 3 14 2 15 1 16
REMARK H PARENT
REMARK Flexibility Score: inf
ROOT
ATOM      1  C   UNL     1       4.661  10.281  82.852  1.00  0.00     0.000 C 
ENDROOT
BRANCH   1   2
ATOM      2  C   UNL     1       5.607   9.965  81.675  1.00  0.00     0.000 C 
BRANCH   2   3
ATOM      3  C   UNL     1       6.226   8.555  81.693  1.00  0.00     0.000 C 
BRANCH   3   4
ATOM      4  C   UNL     1       7.554   8.475  80.920  1.00  0.00     0.000 C 
BRANCH   4   5
ATOM      5  C   UNL     1       7.399   7.774  79.556  1.00  0.00     0.006 C 
BRANCH   5   6
ATOM      6  C   UNL     1       8.682   7.074  79.070  1.00  0.00     0.053 C 
BRANCH   6   7
ATOM      7  C   UNL     1       8.778   5.670  79.580  1.00  0.00     0.041 C 
ATOM      8  O   UNL     1       7.740   5.054  79.940  1.00  0.00    -0.550 OA
ATOM      9  O   UNL     1      10.016   5.048  79.679  1.00  0.00    -0.550 OA
ENDBRANCH   6   7
ENDBRANCH   5   6
ENDBRANCH   4   5
ENDBRANCH   3   4
ENDBRANCH   2   3
ENDBRANCH   1   2
BRANCH   1  10
ATOM     10  C   UNL     1       3.459   9.326  82.998  1.00  0.00     0.000 C 
BRANCH  10  11
ATOM     11  C   UNL     1       2.595   9.554  84.256  1.00  0.00    -0.000 C 
BRANCH  11  12
ATOM     12  C   UNL     1       1.159   9.003  84.166  1.00  0.00    -0.000 C 
BRANCH  12  13
ATOM     13  C   UNL     1       0.655   8.290  85.438  1.00  0.00    -0.000 C 
BRANCH  13  14
ATOM     14  C   UNL     1       0.970   6.782  85.509  1.00  0.00    -0.000 C 
BRANCH  14  15
ATOM     15  C   UNL     1       2.467   6.436  85.603  1.00  0.00    -0.003 C 
ATOM     16  C   UNL     1       2.725   4.933  85.721  1.00  0.00     0.004 C 
ENDBRANCH  14  15
ENDBRANCH  13  14
ENDBRANCH  12  13
ENDBRANCH  11  12
ENDBRANCH  10  11
ENDBRANCH   1  10
TORSDOF 12
ENDMDL
MODEL 4
REMARK VINA RESULT:    -4.354      3.119      5.624
REMARK INTER + INTRA:          -8.011
REMARK INTER:                  -6.662
REMARK INTRA:                  -1.348
REMARK UNBOUND:                -0.602
REMARK SMILES CCCCCCCCCCCCCC(=O)[O-]
REMARK SMILES IDX 8 1 9 2 10 3 11 4 12 5 13 6 14 7 15 8 16 9 7 10 6 11 5 12
REMARK SMILES IDX 4 13 3 14 2 15 1 16
REMARK H PARENT
REMARK Flexibility Score: inf
ROOT
ATOM      1  C   UNL     1       5.057  10.493  82.888  1.00  0.00     0.000 C 
ENDROOT
BRANCH   1   2
ATOM      2  C   UNL     1       4.546   9.146  82.337  1.00  0.00     0.000 C 
BRANCH   2   3
ATOM      3  C   UNL     1       5.623   8.248  81.701  1.00  0.00     0.000 C 
BRANCH   3   4
ATOM      4  C   UNL     1       6.915   9.011  81.366  1.00  0.00     0.000 C 
BRANCH   4   5
ATOM      5  C   UNL     1       7.638   8.431  80.134  1.00  0.00     0.006 C 
BRANCH   5   6
ATOM      6  C   UNL     1       7.244   6.977  79.812  1.00  0.00     0.053 C 
BRANCH   6   7
ATOM      7  C   UNL     1       8.445   6.101  79.634  1.00  0.00     0.041 C 
ATOM      8  O   UNL     1       9.458   6.530  79.021  1.00  0.00    -0.550 OA
ATOM      9  O   UNL     1       8.438   4.801  80.124  1.00  0.00    -0.550 OA
ENDBRANCH   6   7
ENDBRANCH   5   6
ENDBRANCH   4   5
ENDBRANCH   3   4
ENDBRANCH   2   3
ENDBRANCH   1   2
BRANCH   1  10
ATOM     10  C   UNL     1       4.421  11.744  82.249  1.00  0.00     0.000 C 
BRANCH  10  11
ATOM     11  C   UNL     1       4.167  11.643  80.731  1.00  0.00    -0.000 C 
BRANCH  11  12
ATOM     12  C   UNL     1       4.371  12.955  79.949  1.00  0.00    -0.000 C 
BRANCH  12  13
ATOM     13  C   UNL     1       5.305  12.845  78.726  1.00  0.00    -0.000 C 
BRANCH  13  14
ATOM     14  C   UNL     1       6.512  11.903  78.910  1.00  0.00    -0.000 C 
BRANCH  14  15
ATOM     15  C   UNL     1       7.725  12.534  79.617  1.00  0.00    -0.003 C 
ATOM     16  C   UNL     1       9.060  12.105  79.007  1.00  0.00     0.004 C 
ENDBRANCH  14  15
ENDBRANCH  13  14
ENDBRANCH  12  13
ENDBRANCH  11  12
ENDBRANCH  10  11
ENDBRANCH   1  10
TORSDOF 12
ENDMDL
MODEL 5
REMARK VINA RESULT:    -4.350      3.063      5.568
REMARK INTER + INTRA:          -8.005
REMARK INTER:                  -7.546
REMARK INTRA:                  -0.459
REMARK UNBOUND:                -0.602
REMARK SMILES CCCCCCCCCCCCCC(=O)[O-]
REMARK SMILES IDX 8 1 9 2 10 3 11 4 12 5 13 6 14 7 15 8 16 9 7 10 6 11 5 12
REMARK SMILES IDX 4 13 3 14 2 15 1 16
REMARK H PARENT
REMARK Flexibility Score: inf
ROOT
ATOM      1  C   UNL     1       9.310   8.140  79.616  1.00  0.00     0.000 C 
ENDROOT
BRANCH   1   2
ATOM      2  C   UNL     1       9.854   6.741  79.260  1.00  0.00     0.000 C 
BRANCH   2   3
ATOM      3  C   UNL     1       8.907   5.570  79.579  1.00  0.00     0.000 C 
BRANCH   3   4
ATOM      4  C   UNL     1       9.657   4.271  79.920  1.00  0.00     0.000 C 
BRANCH   4   5
ATOM      5  C   UNL     1      11.166   4.369  79.624  1.00  0.00     0.006 C 
BRANCH   5   6
ATOM      6  C   UNL     1      11.814   3.022  79.251  1.00  0.00     0.053 C 
BRANCH   6   7
ATOM      7  C   UNL     1      13.301   3.051  79.425  1.00  0.00     0.041 C 
ATOM      8  O   UNL     1      14.037   3.504  78.510  1.00  0.00    -0.550 OA
ATOM      9  O   UNL     1      13.876   2.556  80.589  1.00  0.00    -0.550 OA
ENDBRANCH   6   7
ENDBRANCH   5   6
ENDBRANCH   4   5
ENDBRANCH   3   4
ENDBRANCH   2   3
ENDBRANCH   1   2
BRANCH   1  10
ATOM     10  C   UNL     1       7.777   8.228  79.761  1.00  0.00     0.000 C 
BRANCH  10  11
ATOM     11  C   UNL     1       7.279   8.752  81.123  1.00  0.00    -0.000 C 
BRANCH  11  12
ATOM     12  C   UNL     1       5.838   8.343  81.490  1.00  0.00    -0.000 C 
BRANCH  12  13
ATOM     13  C   UNL     1       5.032   9.416  82.250  1.00  0.00    -0.000 C 
BRANCH  13  14
ATOM     14  C   UNL     1       3.749   8.903  82.936  1.00  0.00    -0.000 C 
BRANCH  14  15
ATOM     15  C   UNL     1       2.850  10.002  83.532  1.00  0.00    -0.003 C 
ATOM     16  C   UNL     1       2.141  10.836  82.465  1.00  0.00     0.004 C 
ENDBRANCH  14  15
ENDBRANCH  13  14
ENDBRANCH  12  13
ENDBRANCH  11  12
ENDBRANCH  10  11
ENDBRANCH   1  10
TORSDOF 12
ENDMDL
MODEL 6
REMARK VINA RESULT:    -4.347      3.923      6.723
REMARK INTER + INTRA:          -7.998
REMARK INTER:                  -6.994
REMARK INTRA:                  -1.004
REMARK UNBOUND:                -0.602
REMARK SMILES CCCCCCCCCCCCCC(=O)[O-]
REMARK SMILES IDX 8 1 9 2 10 3 11 4 12 5 13 6 14 7 15 8 16 9 7 10 6 11 5 12
REMARK SMILES IDX 4 13 3 14 2 15 1 16
REMARK H PARENT
REMARK Flexibility Score: inf
ROOT
ATOM      1  C   UNL     1       4.674  10.749  82.462  1.00  0.00     0.000 C 
ENDROOT
BRANCH   1   2
ATOM      2  C   UNL     1       3.536  11.760  82.210  1.00  0.00     0.000 C 
BRANCH   2   3
ATOM      3  C   UNL     1       3.283  12.106  80.731  1.00  0.00     0.000 C 
BRANCH   3   4
ATOM      4  C   UNL     1       4.199  13.229  80.215  1.00  0.00     0.000 C 
BRANCH   4   5
ATOM      5  C   UNL     1       4.970  12.821  78.944  1.00  0.00     0.006 C 
BRANCH   5   6
ATOM      6  C   UNL     1       6.190  11.923  79.221  1.00  0.00     0.053 C 
BRANCH   6   7
ATOM      7  C   UNL     1       7.445  12.490  78.632  1.00  0.00     0.041 C 
ATOM      8  O   UNL     1       7.475  12.844  77.424  1.00  0.00    -0.550 OA
ATOM      9  O   UNL     1       8.589  12.607  79.411  1.00  0.00    -0.550 OA
ENDBRANCH   6   7
ENDBRANCH   5   6
ENDBRANCH   4   5
ENDBRANCH   3   4
ENDBRANCH   2   3
ENDBRANCH   1   2
BRANCH   1  10
ATOM     10  C   UNL     1       4.242   9.268  82.469  1.00  0.00     0.000 C 
BRANCH  10  11
ATOM     11  C   UNL     1       5.285   8.283  81.901  1.00  0.00    -0.000 C 
BRANCH  11  12
ATOM     12  C   UNL     1       6.674   8.893  81.629  1.00  0.00    -0.000 C 
BRANCH  12  13
ATOM     13  C   UNL     1       7.446   8.254  80.456  1.00  0.00    -0.000 C 
BRANCH  13  14
ATOM     14  C   UNL     1       6.762   7.031  79.814  1.00  0.00    -0.000 C 
BRANCH  14  15
ATOM     15  C   UNL     1       7.548   5.712  79.933  1.00  0.00    -0.003 C 
ATOM     16  C   UNL     1       8.897   5.756  79.214  1.00  0.00     0.004 C 
ENDBRANCH  14  15
ENDBRANCH  13  14
ENDBRANCH  12  13
ENDBRANCH  11  12
ENDBRANCH  10  11
ENDBRANCH   1  10
TORSDOF 12
ENDMDL
MODEL 7
REMARK VINA RESULT:    -4.323      4.514      8.388
REMARK INTER + INTRA:          -7.958
REMARK INTER:                  -7.241
REMARK INTRA:                  -0.717
REMARK UNBOUND:                -0.602
REMARK SMILES CCCCCCCCCCCCCC(=O)[O-]
REMARK SMILES IDX 8 1 9 2 10 3 11 4 12 5 13 6 14 7 15 8 16 9 7 10 6 11 5 12
REMARK SMILES IDX 4 13 3 14 2 15 1 16
REMARK H PARENT
REMARK Flexibility Score: inf
ROOT
ATOM      1  C   UNL     1       3.970   9.776  82.967  1.00  0.00     0.000 C 
ENDROOT
BRANCH   1   2
ATOM      2  C   UNL     1       2.428   9.714  82.937  1.00  0.00     0.000 C 
BRANCH   2   3
ATOM      3  C   UNL     1       1.735  10.023  84.277  1.00  0.00     0.000 C 
BRANCH   3   4
ATOM      4  C   UNL     1       1.302   8.755  85.032  1.00  0.00     0.000 C 
BRANCH   4   5
ATOM      5  C   UNL     1       2.351   8.299  86.065  1.00  0.00     0.006 C 
BRANCH   5   6
ATOM      6  C   UNL     1       3.063   9.462  86.780  1.00  0.00     0.053 C 
BRANCH   6   7
ATOM      7  C   UNL     1       2.348   9.869  88.032  1.00  0.00     0.041 C 
ATOM      8  O   UNL     1       2.676   9.368  89.140  1.00  0.00    -0.550 OA
ATOM      9  O   UNL     1       1.305  10.783  87.973  1.00  0.00    -0.550 OA
ENDBRANCH   6   7
ENDBRANCH   5   6
ENDBRANCH   4   5
ENDBRANCH   3   4
ENDBRANCH   2   3
ENDBRANCH   1   2
BRANCH   1  10
ATOM     10  C   UNL     1       4.607  10.691  81.902  1.00  0.00     0.000 C 
BRANCH  10  11
ATOM     11  C   UNL     1       5.866  10.118  81.219  1.00  0.00    -0.000 C 
BRANCH  11  12
ATOM     12  C   UNL     1       6.315   8.737  81.738  1.00  0.00    -0.000 C 
BRANCH  12  13
ATOM     13  C   UNL     1       6.697   7.723  80.641  1.00  0.00    -0.000 C 
BRANCH  13  14
ATOM     14  C   UNL     1       7.798   8.195  79.670  1.00  0.00    -0.000 C 
BRANCH  14  15
ATOM     15  C   UNL     1       8.822   7.115  79.278  1.00  0.00    -0.003 C 
ATOM     16  C   UNL     1       8.358   5.700  79.624  1.00  0.00     0.004 C 
ENDBRANCH  14  15
ENDBRANCH  13  14
ENDBRANCH  12  13
ENDBRANCH  11  12
ENDBRANCH  10  11
ENDBRANCH   1  10
TORSDOF 12
ENDMDL
MODEL 8
REMARK VINA RESULT:    -4.270      3.503      5.974
REMARK INTER + INTRA:          -7.869
REMARK INTER:                  -6.900
REMARK INTRA:                  -0.968
REMARK UNBOUND:                -0.602
REMARK SMILES CCCCCCCCCCCCCC(=O)[O-]
REMARK SMILES IDX 8 1 9 2 10 3 11 4 12 5 13 6 14 7 15 8 16 9 7 10 6 11 5 12
REMARK SMILES IDX 4 13 3 14 2 15 1 16
REMARK H PARENT
REMARK Flexibility Score: inf
ROOT
ATOM      1  C   UNL     1       5.050  10.576  82.261  1.00  0.00     0.000 C 
ENDROOT
BRANCH   1   2
ATOM      2  C   UNL     1       5.263   9.093  81.893  1.00  0.00     0.000 C 
BRANCH   2   3
ATOM      3  C   UNL     1       6.733   8.664  81.727  1.00  0.00     0.000 C 
BRANCH   3   4
ATOM      4  C   UNL     1       7.328   9.085  80.373  1.00  0.00     0.000 C 
BRANCH   4   5
ATOM      5  C   UNL     1       7.407   7.913  79.376  1.00  0.00     0.006 C 
BRANCH   5   6
ATOM      6  C   UNL     1       8.724   7.119  79.455  1.00  0.00     0.053 C 
BRANCH   6   7
ATOM      7  C   UNL     1       8.481   5.658  79.675  1.00  0.00     0.041 C 
ATOM      8  O   UNL     1       7.311   5.229  79.851  1.00  0.00    -0.550 OA
ATOM      9  O   UNL     1       9.550   4.771  79.709  1.00  0.00    -0.550 OA
ENDBRANCH   6   7
ENDBRANCH   5   6
ENDBRANCH   4   5
ENDBRANCH   3   4
ENDBRANCH   2   3
ENDBRANCH   1   2
BRANCH   1  10
ATOM     10  C   UNL     1       3.948  11.297  81.458  1.00  0.00     0.000 C 
BRANCH  10  11
ATOM     11  C   UNL     1       4.342  12.686  80.915  1.00  0.00    -0.000 C 
BRANCH  11  12
ATOM     12  C   UNL     1       5.791  12.797  80.402  1.00  0.00    -0.000 C 
BRANCH  12  13
ATOM     13  C   UNL     1       6.092  11.989  79.123  1.00  0.00    -0.000 C 
BRANCH  13  14
ATOM     14  C   UNL     1       6.365  12.837  77.864  1.00  0.00    -0.000 C 
BRANCH  14  15
ATOM     15  C   UNL     1       5.456  14.069  77.703  1.00  0.00    -0.003 C 
ATOM     16  C   UNL     1       4.089  13.727  77.107  1.00  0.00     0.004 C 
ENDBRANCH  14  15
ENDBRANCH  13  14
ENDBRANCH  12  13
ENDBRANCH  11  12
ENDBRANCH  10  11
ENDBRANCH   1  10
TORSDOF 12
ENDMDL
MODEL 9
REMARK VINA RESULT:    -4.261      3.293      7.841
REMARK INTER + INTRA:          -7.852
REMARK INTER:                  -7.277
REMARK INTRA:                  -0.575
REMARK UNBOUND:                -0.602
REMARK SMILES CCCCCCCCCCCCCC(=O)[O-]
REMARK SMILES IDX 8 1 9 2 10 3 11 4 12 5 13 6 14 7 15 8 16 9 7 10 6 11 5 12
REMARK SMILES IDX 4 13 3 14 2 15 1 16
REMARK H PARENT
REMARK Flexibility Score: inf
ROOT
ATOM      1  C   UNL     1       4.044  10.108  83.310  1.00  0.00     0.000 C 
ENDROOT
BRANCH   1   2
ATOM      2  C   UNL     1       2.597   9.614  83.103  1.00  0.00     0.000 C 
BRANCH   2   3
ATOM      3  C   UNL     1       1.509  10.478  83.767  1.00  0.00     0.000 C 
BRANCH   3   4
ATOM      4  C   UNL     1       1.087   9.949  85.148  1.00  0.00     0.000 C 
BRANCH   4   5
ATOM      5  C   UNL     1       0.979   8.412  85.182  1.00  0.00     0.006 C 
BRANCH   5   6
ATOM      6  C   UNL     1       1.969   7.743  86.154  1.00  0.00     0.053 C 
BRANCH   6   7
ATOM      7  C   UNL     1       2.491   6.448  85.612  1.00  0.00     0.041 C 
ATOM      8  O   UNL     1       3.343   6.446  84.685  1.00  0.00    -0.550 OA
ATOM      9  O   UNL     1       2.021   5.242  86.115  1.00  0.00    -0.550 OA
ENDBRANCH   6   7
ENDBRANCH   5   6
ENDBRANCH   4   5
ENDBRANCH   3   4
ENDBRANCH   2   3
ENDBRANCH   1   2
BRANCH   1  10
ATOM     10  C   UNL     1       4.984   9.900  82.105  1.00  0.00     0.000 C 
BRANCH  10  11
ATOM     11  C   UNL     1       5.473   8.451  81.903  1.00  0.00    -0.000 C 
BRANCH  11  12
ATOM     12  C   UNL     1       6.812   8.317  81.151  1.00  0.00    -0.000 C 
BRANCH  12  13
ATOM     13  C   UNL     1       6.842   7.222  80.066  1.00  0.00    -0.000 C 
BRANCH  13  14
ATOM     14  C   UNL     1       7.945   7.388  79.001  1.00  0.00    -0.000 C 
BRANCH  14  15
ATOM     15  C   UNL     1       9.194   6.516  79.221  1.00  0.00    -0.003 C 
ATOM     16  C   UNL     1      10.495   7.321  79.197  1.00  0.00     0.004 C 
ENDBRANCH  14  15
ENDBRANCH  13  14
ENDBRANCH  12  13
ENDBRANCH  11  12
ENDBRANCH  10  11
ENDBRANCH   1  10
TORSDOF 12
ENDMDL
