MODEL 1
REMARK VINA RESULT:    -3.899      0.000      0.000
REMARK INTER + INTRA:         -14.077
REMARK INTER:                  -9.825
REMARK INTRA:                  -4.252
REMARK UNBOUND:                -4.252
REMARK SMILES CCCCCCCCCCCCCCCCCCCCCCCCCCCC(=O)[O-]
REMARK SMILES IDX 15 1 16 2 17 3 18 4 19 5 20 6 21 7 22 8 23 9 24 10 25 11
REMARK SMILES IDX 26 12 27 13 28 14 29 15 30 16 14 17 13 18 12 19 11 20 10 21
REMARK SMILES IDX 9 22 8 23 7 24 6 25 5 26 4 27 3 28 2 29 1 30
REMARK H PARENT
REMARK Flexibility Score: inf
ROOT
ATOM      1  C   UNL     1      13.586  12.698  27.643  1.00  0.00     0.000 C 
ENDROOT
BRANCH   1   2
ATOM      2  C   UNL     1      14.042  11.754  28.774  1.00  0.00     0.000 C 
BRANCH   2   3
ATOM      3  C   UNL     1      13.052  11.609  29.945  1.00  0.00     0.000 C 
BRANCH   3   4
ATOM      4  C   UNL     1      13.524  12.326  31.220  1.00  0.00     0.000 C 
BRANCH   4   5
ATOM      5  C   UNL     1      13.055  13.789  31.238  1.00  0.00     0.000 C 
BRANCH   5   6
ATOM      6  C   UNL     1      11.746  13.986  32.034  1.00  0.00     0.000 C 
BRANCH   6   7
ATOM      7  C   UNL     1      10.642  14.732  31.259  1.00  0.00     0.000 C 
BRANCH   7   8
ATOM      8  C   UNL     1      10.930  14.968  29.765  1.00  0.00     0.000 C 
BRANCH   8   9
ATOM      9  C   UNL     1      10.225  13.995  28.800  1.00  0.00     0.000 C 
BRANCH   9  10
ATOM     10  C   UNL     1       9.942  14.613  27.422  1.00  0.00     0.000 C 
BRANCH  10  11
ATOM     11  C   UNL     1       9.227  15.966  27.567  1.00  0.00     0.000 C 
BRANCH  11  12
ATOM     12  C   UNL     1       8.698  16.508  26.231  1.00  0.00     0.006 C 
BRANCH  12  13
ATOM     13  C   UNL     1       7.238  16.972  26.311  1.00  0.00     0.053 C 
BRANCH  13  14
ATOM     14  C   UNL     1       7.168  18.393  26.779  1.00  0.00     0.041 C 
ATOM     15  O   UNL     1       8.222  19.079  26.884  1.00  0.00    -0.550 OA
ATOM     16  O   UNL     1       5.936  18.981  27.037  1.00  0.00    -0.550 OA
ENDBRANCH  13  14
ENDBRANCH  12  13
ENDBRANCH  11  12
ENDBRANCH  10  11
ENDBRANCH   9  10
ENDBRANCH   8   9
ENDBRANCH   7   8
ENDBRANCH   6   7
ENDBRANCH   5   6
ENDBRANCH   4   5
ENDBRANCH   3   4
ENDBRANCH   2   3
ENDBRANCH   1   2
BRANCH   1  17
ATOM     17  C   UNL     1      14.172  14.122  27.705  1.00  0.00     0.000 C 
BRANCH  17  18
ATOM     18  C   UNL     1      15.514  14.239  28.453  1.00  0.00     0.000 C 
BRANCH  18  19
ATOM     19  C   UNL     1      15.938  15.675  28.811  1.00  0.00     0.000 C 
BRANCH  19  20
ATOM     20  C   UNL     1      16.651  15.765  30.171  1.00  0.00     0.000 C 
BRANCH  20  21
ATOM     21  C   UNL     1      16.708  14.415  30.909  1.00  0.00     0.000 C 
BRANCH  21  22
ATOM     22  C   UNL     1      17.884  14.254  31.896  1.00  0.00    -0.000 C 
BRANCH  22  23
ATOM     23  C   UNL     1      19.083  13.448  31.363  1.00  0.00    -0.000 C 
BRANCH  23  24
ATOM     24  C   UNL     1      19.998  14.200  30.377  1.00  0.00    -0.000 C 
BRANCH  24  25
ATOM     25  C   UNL     1      19.821  13.770  28.905  1.00  0.00    -0.000 C 
BRANCH  25  26
ATOM     26  C   UNL     1      19.499  14.952  27.972  1.00  0.00    -0.000 C 
BRANCH  26  27
ATOM     27  C   UNL     1      18.885  14.509  26.631  1.00  0.00    -0.000 C 
BRANCH  27  28
ATOM     28  C   UNL     1      18.185  15.625  25.834  1.00  0.00    -0.000 C 
BRANCH  28  29
ATOM     29  C   UNL     1      16.944  15.134  25.072  1.00  0.00    -0.003 C 
ATOM     30  C   UNL     1      15.918  16.251  24.909  1.00  0.00     0.004 C 
ENDBRANCH  28  29
ENDBRANCH  27  28
ENDBRANCH  26  27
ENDBRANCH  25  26
ENDBRANCH  24  25
ENDBRANCH  23  24
ENDBRANCH  22  23
ENDBRANCH  21  22
ENDBRANCH  20  21
ENDBRANCH  19  20
ENDBRANCH  18  19
ENDBRANCH  17  18
ENDBRANCH   1  17
TORSDOF 26
ENDMDL
MODEL 2
REMARK VINA RESULT:    -3.869      2.949      5.383
REMARK INTER + INTRA:         -14.001
REMARK INTER:                  -8.597
REMARK INTRA:                  -5.404
REMARK UNBOUND:                -4.252
REMARK SMILES CCCCCCCCCCCCCCCCCCCCCCCCCCCC(=O)[O-]
REMARK SMILES IDX 15 1 16 2 17 3 18 4 19 5 20 6 21 7 22 8 23 9 24 10 25 11
REMARK SMILES IDX 26 12 27 13 28 14 29 15 30 16 14 17 13 18 12 19 11 20 10 21
REMARK SMILES IDX 9 22 8 23 7 24 6 25 5 26 4 27 3 28 2 29 1 30
REMARK H PARENT
REMARK Flexibility Score: inf
ROOT
ATOM      1  C   UNL     1      16.288  15.782  29.589  1.00  0.00     0.000 C 
ENDROOT
BRANCH   1   2
ATOM      2  C   UNL     1      16.772  15.307  28.204  1.00  0.00     0.000 C 
BRANCH   2   3
ATOM      3  C   UNL     1      15.930  15.800  27.012  1.00  0.00     0.000 C 
BRANCH   3   4
ATOM      4  C   UNL     1      16.763  16.017  25.739  1.00  0.00     0.000 C 
BRANCH   4   5
ATOM      5  C   UNL     1      15.880  15.961  24.483  1.00  0.00     0.000 C 
BRANCH   5   6
ATOM      6  C   UNL     1      16.204  14.750  23.581  1.00  0.00     0.000 C 
BRANCH   6   7
ATOM      7  C   UNL     1      15.205  13.583  23.709  1.00  0.00     0.000 C 
BRANCH   7   8
ATOM      8  C   UNL     1      13.742  13.991  23.956  1.00  0.00     0.000 C 
BRANCH   8   9
ATOM      9  C   UNL     1      13.088  13.362  25.201  1.00  0.00     0.000 C 
BRANCH   9  10
ATOM     10  C   UNL     1      14.110  12.780  26.189  1.00  0.00     0.000 C 
BRANCH  10  11
ATOM     11  C   UNL     1      13.480  12.589  27.578  1.00  0.00     0.000 C 
BRANCH  11  12
ATOM     12  C   UNL     1      13.364  13.903  28.366  1.00  0.00     0.006 C 
BRANCH  12  13
ATOM     13  C   UNL     1      12.785  13.705  29.773  1.00  0.00     0.053 C 
BRANCH  13  14
ATOM     14  C   UNL     1      11.411  14.296  29.858  1.00  0.00     0.041 C 
ATOM     15  O   UNL     1      10.457  13.779  29.214  1.00  0.00    -0.550 OA
ATOM     16  O   UNL     1      11.170  15.377  30.696  1.00  0.00    -0.550 OA
ENDBRANCH  13  14
ENDBRANCH  12  13
ENDBRANCH  11  12
ENDBRANCH  10  11
ENDBRANCH   9  10
ENDBRANCH   8   9
ENDBRANCH   7   8
ENDBRANCH   6   7
ENDBRANCH   5   6
ENDBRANCH   4   5
ENDBRANCH   3   4
ENDBRANCH   2   3
ENDBRANCH   1   2
BRANCH   1  17
ATOM     17  C   UNL     1      17.098  15.243  30.784  1.00  0.00     0.000 C 
BRANCH  17  18
ATOM     18  C   UNL     1      16.748  13.803  31.207  1.00  0.00     0.000 C 
BRANCH  18  19
ATOM     19  C   UNL     1      17.675  13.192  32.272  1.00  0.00     0.000 C 
BRANCH  19  20
ATOM     20  C   UNL     1      18.886  14.085  32.593  1.00  0.00     0.000 C 
BRANCH  20  21
ATOM     21  C   UNL     1      20.168  13.638  31.868  1.00  0.00     0.000 C 
BRANCH  21  22
ATOM     22  C   UNL     1      20.143  12.197  31.316  1.00  0.00    -0.000 C 
BRANCH  22  23
ATOM     23  C   UNL     1      20.275  12.077  29.786  1.00  0.00    -0.000 C 
BRANCH  23  24
ATOM     24  C   UNL     1      20.114  13.397  29.006  1.00  0.00    -0.000 C 
BRANCH  24  25
ATOM     25  C   UNL     1      20.675  13.346  27.568  1.00  0.00    -0.000 C 
BRANCH  25  26
ATOM     26  C   UNL     1      19.681  13.882  26.520  1.00  0.00    -0.000 C 
BRANCH  26  27
ATOM     27  C   UNL     1      19.039  12.766  25.676  1.00  0.00    -0.000 C 
BRANCH  27  28
ATOM     28  C   UNL     1      17.613  12.368  26.099  1.00  0.00    -0.000 C 
BRANCH  28  29
ATOM     29  C   UNL     1      17.583  11.165  27.055  1.00  0.00    -0.003 C 
ATOM     30  C   UNL     1      16.953  11.539  28.394  1.00  0.00     0.004 C 
ENDBRANCH  28  29
ENDBRANCH  27  28
ENDBRANCH  26  27
ENDBRANCH  25  26
ENDBRANCH  24  25
ENDBRANCH  23  24
ENDBRANCH  22  23
ENDBRANCH  21  22
ENDBRANCH  20  21
ENDBRANCH  19  20
ENDBRANCH  18  19
ENDBRANCH  17  18
ENDBRANCH   1  17
TORSDOF 26
ENDMDL
MODEL 3
REMARK VINA RESULT:    -3.838      1.477      2.406
REMARK INTER + INTRA:         -13.923
REMARK INTER:                  -8.902
REMARK INTRA:                  -5.022
REMARK UNBOUND:                -4.252
REMARK SMILES CCCCCCCCCCCCCCCCCCCCCCCCCCCC(=O)[O-]
REMARK SMILES IDX 15 1 16 2 17 3 18 4 19 5 20 6 21 7 22 8 23 9 24 10 25 11
REMARK SMILES IDX 26 12 27 13 28 14 29 15 30 16 14 17 13 18 12 19 11 20 10 21
REMARK SMILES IDX 9 22 8 23 7 24 6 25 5 26 4 27 3 28 2 29 1 30
REMARK H PARENT
REMARK Flexibility Score: inf
ROOT
ATOM      1  C   UNL     1      14.056  12.518  26.041  1.00  0.00     0.000 C 
ENDROOT
BRANCH   1   2
ATOM      2  C   UNL     1      13.300  12.958  27.312  1.00  0.00     0.000 C 
BRANCH   2   3
ATOM      3  C   UNL     1      13.002  11.831  28.319  1.00  0.00     0.000 C 
BRANCH   3   4
ATOM      4  C   UNL     1      13.456  12.168  29.748  1.00  0.00     0.000 C 
BRANCH   4   5
ATOM      5  C   UNL     1      12.254  12.467  30.656  1.00  0.00     0.000 C 
BRANCH   5   6
ATOM      6  C   UNL     1      12.366  13.836  31.361  1.00  0.00     0.000 C 
BRANCH   6   7
ATOM      7  C   UNL     1      11.349  14.885  30.870  1.00  0.00     0.000 C 
BRANCH   7   8
ATOM      8  C   UNL     1      11.211  15.004  29.341  1.00  0.00     0.000 C 
BRANCH   8   9
ATOM      9  C   UNL     1       9.767  14.952  28.807  1.00  0.00     0.000 C 
BRANCH   9  10
ATOM     10  C   UNL     1       9.585  13.943  27.663  1.00  0.00     0.000 C 
BRANCH  10  11
ATOM     11  C   UNL     1       9.680  14.642  26.298  1.00  0.00     0.000 C 
BRANCH  11  12
ATOM     12  C   UNL     1       8.448  15.505  25.982  1.00  0.00     0.006 C 
BRANCH  12  13
ATOM     13  C   UNL     1       8.769  17.004  25.919  1.00  0.00     0.053 C 
BRANCH  13  14
ATOM     14  C   UNL     1       7.867  17.769  26.838  1.00  0.00     0.041 C 
ATOM     15  O   UNL     1       7.174  17.160  27.698  1.00  0.00    -0.550 OA
ATOM     16  O   UNL     1       7.839  19.157  26.789  1.00  0.00    -0.550 OA
ENDBRANCH  13  14
ENDBRANCH  12  13
ENDBRANCH  11  12
ENDBRANCH  10  11
ENDBRANCH   9  10
ENDBRANCH   8   9
ENDBRANCH   7   8
ENDBRANCH   6   7
ENDBRANCH   5   6
ENDBRANCH   4   5
ENDBRANCH   3   4
ENDBRANCH   2   3
ENDBRANCH   1   2
BRANCH   1  17
ATOM     17  C   UNL     1      15.028  11.338  26.234  1.00  0.00     0.000 C 
BRANCH  17  18
ATOM     18  C   UNL     1      16.453  11.735  26.666  1.00  0.00     0.000 C 
BRANCH  18  19
ATOM     19  C   UNL     1      16.747  11.578  28.168  1.00  0.00     0.000 C 
BRANCH  19  20
ATOM     20  C   UNL     1      18.216  11.866  28.523  1.00  0.00     0.000 C 
BRANCH  20  21
ATOM     21  C   UNL     1      18.388  12.446  29.938  1.00  0.00     0.000 C 
BRANCH  21  22
ATOM     22  C   UNL     1      17.193  12.222  30.890  1.00  0.00    -0.000 C 
BRANCH  22  23
ATOM     23  C   UNL     1      16.534  13.504  31.430  1.00  0.00    -0.000 C 
BRANCH  23  24
ATOM     24  C   UNL     1      17.360  14.794  31.255  1.00  0.00    -0.000 C 
BRANCH  24  25
ATOM     25  C   UNL     1      16.757  15.792  30.243  1.00  0.00    -0.000 C 
BRANCH  25  26
ATOM     26  C   UNL     1      15.535  15.223  29.499  1.00  0.00    -0.000 C 
BRANCH  26  27
ATOM     27  C   UNL     1      15.624  15.403  27.972  1.00  0.00    -0.000 C 
BRANCH  27  28
ATOM     28  C   UNL     1      17.048  15.330  27.390  1.00  0.00    -0.000 C 
BRANCH  28  29
ATOM     29  C   UNL     1      17.066  15.202  25.858  1.00  0.00    -0.003 C 
ATOM     30  C   UNL     1      16.104  16.193  25.209  1.00  0.00     0.004 C 
ENDBRANCH  28  29
ENDBRANCH  27  28
ENDBRANCH  26  27
ENDBRANCH  25  26
ENDBRANCH  24  25
ENDBRANCH  23  24
ENDBRANCH  22  23
ENDBRANCH  21  22
ENDBRANCH  20  21
ENDBRANCH  19  20
ENDBRANCH  18  19
ENDBRANCH  17  18
ENDBRANCH   1  17
TORSDOF 26
ENDMDL
MODEL 4
REMARK VINA RESULT:    -3.828      1.771      5.241
REMARK INTER + INTRA:         -13.899
REMARK INTER:                  -9.325
REMARK INTRA:                  -4.574
REMARK UNBOUND:                -4.252
REMARK SMILES CCCCCCCCCCCCCCCCCCCCCCCCCCCC(=O)[O-]
REMARK SMILES IDX 15 1 16 2 17 3 18 4 19 5 20 6 21 7 22 8 23 9 24 10 25 11
REMARK SMILES IDX 26 12 27 13 28 14 29 15 30 16 14 17 13 18 12 19 11 20 10 21
REMARK SMILES IDX 9 22 8 23 7 24 6 25 5 26 4 27 3 28 2 29 1 30
REMARK H PARENT
REMARK Flexibility Score: inf
ROOT
ATOM      1  C   UNL     1      17.381  15.039  27.622  1.00  0.00     0.000 C 
ENDROOT
BRANCH   1   2
ATOM      2  C   UNL     1      17.424  15.065  26.080  1.00  0.00     0.000 C 
BRANCH   2   3
ATOM      3  C   UNL     1      16.215  15.737  25.403  1.00  0.00     0.000 C 
BRANCH   3   4
ATOM      4  C   UNL     1      15.929  15.180  23.999  1.00  0.00     0.000 C 
BRANCH   4   5
ATOM      5  C   UNL     1      14.553  14.498  23.944  1.00  0.00     0.000 C 
BRANCH   5   6
ATOM      6  C   UNL     1      14.581  13.054  24.489  1.00  0.00     0.000 C 
BRANCH   6   7
ATOM      7  C   UNL     1      13.196  12.383  24.571  1.00  0.00     0.000 C 
BRANCH   7   8
ATOM      8  C   UNL     1      11.996  13.347  24.590  1.00  0.00     0.000 C 
BRANCH   8   9
ATOM      9  C   UNL     1      11.265  13.455  25.941  1.00  0.00     0.000 C 
BRANCH   9  10
ATOM     10  C   UNL     1       9.735  13.430  25.801  1.00  0.00     0.000 C 
BRANCH  10  11
ATOM     11  C   UNL     1       9.248  14.595  24.924  1.00  0.00     0.000 C 
BRANCH  11  12
ATOM     12  C   UNL     1       8.170  15.448  25.610  1.00  0.00     0.006 C 
BRANCH  12  13
ATOM     13  C   UNL     1       8.750  16.434  26.632  1.00  0.00     0.053 C 
BRANCH  13  14
ATOM     14  C   UNL     1       8.570  17.843  26.158  1.00  0.00     0.041 C 
ATOM     15  O   UNL     1       8.359  18.770  26.987  1.00  0.00    -0.550 OA
ATOM     16  O   UNL     1       8.698  18.144  24.808  1.00  0.00    -0.550 OA
ENDBRANCH  13  14
ENDBRANCH  12  13
ENDBRANCH  11  12
ENDBRANCH  10  11
ENDBRANCH   9  10
ENDBRANCH   8   9
ENDBRANCH   7   8
ENDBRANCH   6   7
ENDBRANCH   5   6
ENDBRANCH   4   5
ENDBRANCH   3   4
ENDBRANCH   2   3
ENDBRANCH   1   2
BRANCH   1  17
ATOM     17  C   UNL     1      16.155  15.727  28.253  1.00  0.00     0.000 C 
BRANCH  17  18
ATOM     18  C   UNL     1      16.261  15.979  29.769  1.00  0.00     0.000 C 
BRANCH  18  19
ATOM     19  C   UNL     1      17.247  15.063  30.516  1.00  0.00     0.000 C 
BRANCH  19  20
ATOM     20  C   UNL     1      16.548  13.904  31.247  1.00  0.00     0.000 C 
BRANCH  20  21
ATOM     21  C   UNL     1      17.245  12.549  31.025  1.00  0.00     0.000 C 
BRANCH  21  22
ATOM     22  C   UNL     1      17.036  11.924  29.629  1.00  0.00    -0.000 C 
BRANCH  22  23
ATOM     23  C   UNL     1      15.585  11.530  29.295  1.00  0.00    -0.000 C 
BRANCH  23  24
ATOM     24  C   UNL     1      15.037  12.094  27.970  1.00  0.00    -0.000 C 
BRANCH  24  25
ATOM     25  C   UNL     1      14.011  13.234  28.150  1.00  0.00    -0.000 C 
BRANCH  25  26
ATOM     26  C   UNL     1      13.051  12.992  29.330  1.00  0.00    -0.000 C 
BRANCH  26  27
ATOM     27  C   UNL     1      13.053  14.144  30.351  1.00  0.00    -0.000 C 
BRANCH  27  28
ATOM     28  C   UNL     1      11.681  14.795  30.602  1.00  0.00    -0.000 C 
BRANCH  28  29
ATOM     29  C   UNL     1      10.842  14.944  29.322  1.00  0.00    -0.003 C 
ATOM     30  C   UNL     1       9.492  14.248  29.462  1.00  0.00     0.004 C 
ENDBRANCH  28  29
ENDBRANCH  27  28
ENDBRANCH  26  27
ENDBRANCH  25  26
ENDBRANCH  24  25
ENDBRANCH  23  24
ENDBRANCH  22  23
ENDBRANCH  21  22
ENDBRANCH  20  21
ENDBRANCH  19  20
ENDBRANCH  18  19
ENDBRANCH  17  18
ENDBRANCH   1  17
TORSDOF 26
ENDMDL
MODEL 5
REMARK VINA RESULT:    -3.817      1.355      4.530
REMARK INTER + INTRA:         -13.870
REMARK INTER:                  -9.144
REMARK INTRA:                  -4.726
REMARK UNBOUND:                -4.252
REMARK SMILES CCCCCCCCCCCCCCCCCCCCCCCCCCCC(=O)[O-]
REMARK SMILES IDX 15 1 16 2 17 3 18 4 19 5 20 6 21 7 22 8 23 9 24 10 25 11
REMARK SMILES IDX 26 12 27 13 28 14 29 15 30 16 14 17 13 18 12 19 11 20 10 21
REMARK SMILES IDX 9 22 8 23 7 24 6 25 5 26 4 27 3 28 2 29 1 30
REMARK H PARENT
REMARK Flexibility Score: inf
ROOT
ATOM      1  C   UNL     1      18.959  12.499  28.770  1.00  0.00     0.000 C 
ENDROOT
BRANCH   1   2
ATOM      2  C   UNL     1      17.608  11.869  28.374  1.00  0.00     0.000 C 
BRANCH   2   3
ATOM      3  C   UNL     1      16.765  11.335  29.547  1.00  0.00     0.000 C 
BRANCH   3   4
ATOM      4  C   UNL     1      15.278  11.181  29.195  1.00  0.00     0.000 C 
BRANCH   4   5
ATOM      5  C   UNL     1      14.453  10.792  30.432  1.00  0.00     0.000 C 
BRANCH   5   6
ATOM      6  C   UNL     1      14.032  12.014  31.276  1.00  0.00     0.000 C 
BRANCH   6   7
ATOM      7  C   UNL     1      12.629  12.558  30.943  1.00  0.00     0.000 C 
BRANCH   7   8
ATOM      8  C   UNL     1      12.223  13.840  31.692  1.00  0.00     0.000 C 
BRANCH   8   9
ATOM      9  C   UNL     1      11.425  14.861  30.859  1.00  0.00     0.000 C 
BRANCH   9  10
ATOM     10  C   UNL     1      10.529  14.204  29.798  1.00  0.00     0.000 C 
BRANCH  10  11
ATOM     11  C   UNL     1      10.896  14.700  28.390  1.00  0.00     0.000 C 
BRANCH  11  12
ATOM     12  C   UNL     1       9.710  14.657  27.414  1.00  0.00     0.006 C 
BRANCH  12  13
ATOM     13  C   UNL     1       8.760  15.850  27.576  1.00  0.00     0.053 C 
BRANCH  13  14
ATOM     14  C   UNL     1       8.763  16.691  26.337  1.00  0.00     0.041 C 
ATOM     15  O   UNL     1       8.738  16.145  25.200  1.00  0.00    -0.550 OA
ATOM     16  O   UNL     1       8.728  18.076  26.436  1.00  0.00    -0.550 OA
ENDBRANCH  13  14
ENDBRANCH  12  13
ENDBRANCH  11  12
ENDBRANCH  10  11
ENDBRANCH   9  10
ENDBRANCH   8   9
ENDBRANCH   7   8
ENDBRANCH   6   7
ENDBRANCH   5   6
ENDBRANCH   4   5
ENDBRANCH   3   4
ENDBRANCH   2   3
ENDBRANCH   1   2
BRANCH   1  17
ATOM     17  C   UNL     1      19.667  13.285  27.650  1.00  0.00     0.000 C 
BRANCH  17  18
ATOM     18  C   UNL     1      19.205  14.747  27.492  1.00  0.00     0.000 C 
BRANCH  18  19
ATOM     19  C   UNL     1      19.147  15.260  26.043  1.00  0.00     0.000 C 
BRANCH  19  20
ATOM     20  C   UNL     1      17.829  15.983  25.717  1.00  0.00     0.000 C 
BRANCH  20  21
ATOM     21  C   UNL     1      16.895  15.150  24.822  1.00  0.00     0.000 C 
BRANCH  21  22
ATOM     22  C   UNL     1      15.513  14.830  25.432  1.00  0.00    -0.000 C 
BRANCH  22  23
ATOM     23  C   UNL     1      15.544  14.039  26.753  1.00  0.00    -0.000 C 
BRANCH  23  24
ATOM     24  C   UNL     1      14.414  14.372  27.747  1.00  0.00    -0.000 C 
BRANCH  24  25
ATOM     25  C   UNL     1      14.915  14.851  29.127  1.00  0.00    -0.000 C 
BRANCH  25  26
ATOM     26  C   UNL     1      16.145  15.772  29.029  1.00  0.00    -0.000 C 
BRANCH  26  27
ATOM     27  C   UNL     1      17.011  15.755  30.303  1.00  0.00    -0.000 C 
BRANCH  27  28
ATOM     28  C   UNL     1      16.869  14.490  31.170  1.00  0.00    -0.000 C 
BRANCH  28  29
ATOM     29  C   UNL     1      18.130  14.178  31.991  1.00  0.00    -0.003 C 
ATOM     30  C   UNL     1      17.996  12.849  32.727  1.00  0.00     0.004 C 
ENDBRANCH  28  29
ENDBRANCH  27  28
ENDBRANCH  26  27
ENDBRANCH  25  26
ENDBRANCH  24  25
ENDBRANCH  23  24
ENDBRANCH  22  23
ENDBRANCH  21  22
ENDBRANCH  20  21
ENDBRANCH  19  20
ENDBRANCH  18  19
ENDBRANCH  17  18
ENDBRANCH   1  17
TORSDOF 26
ENDMDL
MODEL 6
REMARK VINA RESULT:    -3.790      3.112      7.499
REMARK INTER + INTRA:         -13.803
REMARK INTER:                  -8.205
REMARK INTRA:                  -5.598
REMARK UNBOUND:                -4.252
REMARK SMILES CCCCCCCCCCCCCCCCCCCCCCCCCCCC(=O)[O-]
REMARK SMILES IDX 15 1 16 2 17 3 18 4 19 5 20 6 21 7 22 8 23 9 24 10 25 11
REMARK SMILES IDX 26 12 27 13 28 14 29 15 30 16 14 17 13 18 12 19 11 20 10 21
REMARK SMILES IDX 9 22 8 23 7 24 6 25 5 26 4 27 3 28 2 29 1 30
REMARK H PARENT
REMARK Flexibility Score: inf
ROOT
ATOM      1  C   UNL     1      14.954  13.517  28.586  1.00  0.00     0.000 C 
ENDROOT
BRANCH   1   2
ATOM      2  C   UNL     1      14.879  14.851  29.358  1.00  0.00     0.000 C 
BRANCH   2   3
ATOM      3  C   UNL     1      16.100  15.774  29.191  1.00  0.00     0.000 C 
BRANCH   3   4
ATOM      4  C   UNL     1      16.960  15.868  30.461  1.00  0.00     0.000 C 
BRANCH   4   5
ATOM      5  C   UNL     1      17.064  14.504  31.160  1.00  0.00     0.000 C 
BRANCH   5   6
ATOM      6  C   UNL     1      18.519  14.126  31.515  1.00  0.00     0.000 C 
BRANCH   6   7
ATOM      7  C   UNL     1      19.314  13.512  30.346  1.00  0.00     0.000 C 
BRANCH   7   8
ATOM      8  C   UNL     1      18.487  12.673  29.355  1.00  0.00     0.000 C 
BRANCH   8   9
ATOM      9  C   UNL     1      18.562  13.133  27.887  1.00  0.00     0.000 C 
BRANCH   9  10
ATOM     10  C   UNL     1      19.138  14.549  27.727  1.00  0.00     0.000 C 
BRANCH  10  11
ATOM     11  C   UNL     1      18.566  15.234  26.476  1.00  0.00     0.000 C 
BRANCH  11  12
ATOM     12  C   UNL     1      17.385  14.466  25.863  1.00  0.00     0.006 C 
BRANCH  12  13
ATOM     13  C   UNL     1      16.204  15.377  25.501  1.00  0.00     0.053 C 
BRANCH  13  14
ATOM     14  C   UNL     1      15.564  14.919  24.228  1.00  0.00     0.041 C 
ATOM     15  O   UNL     1      14.382  14.477  24.235  1.00  0.00    -0.550 OA
ATOM     16  O   UNL     1      16.246  15.038  23.024  1.00  0.00    -0.550 OA
ENDBRANCH  13  14
ENDBRANCH  12  13
ENDBRANCH  11  12
ENDBRANCH  10  11
ENDBRANCH   9  10
ENDBRANCH   8   9
ENDBRANCH   7   8
ENDBRANCH   6   7
ENDBRANCH   5   6
ENDBRANCH   4   5
ENDBRANCH   3   4
ENDBRANCH   2   3
ENDBRANCH   1   2
BRANCH   1  17
ATOM     17  C   UNL     1      14.674  12.258  29.428  1.00  0.00     0.000 C 
BRANCH  17  18
ATOM     18  C   UNL     1      13.937  12.517  30.756  1.00  0.00     0.000 C 
BRANCH  18  19
ATOM     19  C   UNL     1      14.429  11.678  31.949  1.00  0.00     0.000 C 
BRANCH  19  20
ATOM     20  C   UNL     1      13.279  11.035  32.742  1.00  0.00     0.000 C 
BRANCH  20  21
ATOM     21  C   UNL     1      11.972  10.941  31.933  1.00  0.00     0.000 C 
BRANCH  21  22
ATOM     22  C   UNL     1      10.753  11.643  32.570  1.00  0.00    -0.000 C 
BRANCH  22  23
ATOM     23  C   UNL     1      11.086  12.823  33.501  1.00  0.00    -0.000 C 
BRANCH  23  24
ATOM     24  C   UNL     1      11.336  14.170  32.793  1.00  0.00    -0.000 C 
BRANCH  24  25
ATOM     25  C   UNL     1      10.494  14.371  31.514  1.00  0.00    -0.000 C 
BRANCH  25  26
ATOM     26  C   UNL     1      11.243  15.160  30.424  1.00  0.00    -0.000 C 
BRANCH  26  27
ATOM     27  C   UNL     1      11.278  14.428  29.070  1.00  0.00    -0.000 C 
BRANCH  27  28
ATOM     28  C   UNL     1      10.654  13.020  29.074  1.00  0.00    -0.000 C 
BRANCH  28  29
ATOM     29  C   UNL     1      11.133  12.146  27.904  1.00  0.00    -0.003 C 
ATOM     30  C   UNL     1      11.897  12.972  26.873  1.00  0.00     0.004 C 
ENDBRANCH  28  29
ENDBRANCH  27  28
ENDBRANCH  26  27
ENDBRANCH  25  26
ENDBRANCH  24  25
ENDBRANCH  23  24
ENDBRANCH  22  23
ENDBRANCH  21  22
ENDBRANCH  20  21
ENDBRANCH  19  20
ENDBRANCH  18  19
ENDBRANCH  17  18
ENDBRANCH   1  17
TORSDOF 26
ENDMDL
MODEL 7
REMARK VINA RESULT:    -3.789      2.870      8.077
REMARK INTER + INTRA:         -13.799
REMARK INTER:                  -9.575
REMARK INTRA:                  -4.225
REMARK UNBOUND:                -4.252
REMARK SMILES CCCCCCCCCCCCCCCCCCCCCCCCCCCC(=O)[O-]
REMARK SMILES IDX 15 1 16 2 17 3 18 4 19 5 20 6 21 7 22 8 23 9 24 10 25 11
REMARK SMILES IDX 26 12 27 13 28 14 29 15 30 16 14 17 13 18 12 19 11 20 10 21
REMARK SMILES IDX 9 22 8 23 7 24 6 25 5 26 4 27 3 28 2 29 1 30
REMARK H PARENT
REMARK Flexibility Score: inf
ROOT
ATOM      1  C   UNL     1      14.277  14.059  28.087  1.00  0.00     0.000 C 
ENDROOT
BRANCH   1   2
ATOM      2  C   UNL     1      14.592  14.892  29.346  1.00  0.00     0.000 C 
BRANCH   2   3
ATOM      3  C   UNL     1      15.963  15.593  29.342  1.00  0.00     0.000 C 
BRANCH   3   4
ATOM      4  C   UNL     1      16.836  15.208  30.546  1.00  0.00     0.000 C 
BRANCH   4   5
ATOM      5  C   UNL     1      16.419  13.844  31.119  1.00  0.00     0.000 C 
BRANCH   5   6
ATOM      6  C   UNL     1      17.504  13.222  32.025  1.00  0.00     0.000 C 
BRANCH   6   7
ATOM      7  C   UNL     1      18.650  14.186  32.390  1.00  0.00     0.000 C 
BRANCH   7   8
ATOM      8  C   UNL     1      20.040  13.786  31.865  1.00  0.00     0.000 C 
BRANCH   8   9
ATOM      9  C   UNL     1      20.411  14.363  30.486  1.00  0.00     0.000 C 
BRANCH   9  10
ATOM     10  C   UNL     1      20.115  13.397  29.329  1.00  0.00     0.000 C 
BRANCH  10  11
ATOM     11  C   UNL     1      19.473  14.140  28.146  1.00  0.00     0.000 C 
BRANCH  11  12
ATOM     12  C   UNL     1      18.241  13.415  27.584  1.00  0.00     0.006 C 
BRANCH  12  13
ATOM     13  C   UNL     1      18.136  13.515  26.056  1.00  0.00     0.053 C 
BRANCH  13  14
ATOM     14  C   UNL     1      17.069  14.493  25.671  1.00  0.00     0.041 C 
ATOM     15  O   UNL     1      16.031  14.097  25.072  1.00  0.00    -0.550 OA
ATOM     16  O   UNL     1      17.188  15.829  26.029  1.00  0.00    -0.550 OA
ENDBRANCH  13  14
ENDBRANCH  12  13
ENDBRANCH  11  12
ENDBRANCH  10  11
ENDBRANCH   9  10
ENDBRANCH   8   9
ENDBRANCH   7   8
ENDBRANCH   6   7
ENDBRANCH   5   6
ENDBRANCH   4   5
ENDBRANCH   3   4
ENDBRANCH   2   3
ENDBRANCH   1   2
BRANCH   1  17
ATOM     17  C   UNL     1      14.109  12.546  28.330  1.00  0.00     0.000 C 
BRANCH  17  18
ATOM     18  C   UNL     1      12.979  12.168  29.306  1.00  0.00     0.000 C 
BRANCH  18  19
ATOM     19  C   UNL     1      13.416  11.321  30.514  1.00  0.00     0.000 C 
BRANCH  19  20
ATOM     20  C   UNL     1      13.159  12.022  31.859  1.00  0.00     0.000 C 
BRANCH  20  21
ATOM     21  C   UNL     1      12.767  13.501  31.698  1.00  0.00     0.000 C 
BRANCH  21  22
ATOM     22  C   UNL     1      11.353  13.865  32.203  1.00  0.00    -0.000 C 
BRANCH  22  23
ATOM     23  C   UNL     1      10.356  14.292  31.111  1.00  0.00    -0.000 C 
BRANCH  23  24
ATOM     24  C   UNL     1      10.969  15.058  29.921  1.00  0.00    -0.000 C 
BRANCH  24  25
ATOM     25  C   UNL     1       9.980  15.310  28.762  1.00  0.00    -0.000 C 
BRANCH  25  26
ATOM     26  C   UNL     1      10.130  14.292  27.616  1.00  0.00    -0.000 C 
BRANCH  26  27
ATOM     27  C   UNL     1       9.494  14.772  26.299  1.00  0.00    -0.000 C 
BRANCH  27  28
ATOM     28  C   UNL     1       8.383  15.826  26.459  1.00  0.00    -0.000 C 
BRANCH  28  29
ATOM     29  C   UNL     1       8.762  17.195  25.872  1.00  0.00    -0.003 C 
ATOM     30  C   UNL     1       8.237  18.334  26.742  1.00  0.00     0.004 C 
ENDBRANCH  28  29
ENDBRANCH  27  28
ENDBRANCH  26  27
ENDBRANCH  25  26
ENDBRANCH  24  25
ENDBRANCH  23  24
ENDBRANCH  22  23
ENDBRANCH  21  22
ENDBRANCH  20  21
ENDBRANCH  19  20
ENDBRANCH  18  19
ENDBRANCH  17  18
ENDBRANCH   1  17
TORSDOF 26
ENDMDL
MODEL 8
REMARK VINA RESULT:    -3.787      1.623      4.021
REMARK INTER + INTRA:         -13.794
REMARK INTER:                  -9.577
REMARK INTRA:                  -4.217
REMARK UNBOUND:                -4.252
REMARK SMILES CCCCCCCCCCCCCCCCCCCCCCCCCCCC(=O)[O-]
REMARK SMILES IDX 15 1 16 2 17 3 18 4 19 5 20 6 21 7 22 8 23 9 24 10 25 11
REMARK SMILES IDX 26 12 27 13 28 14 29 15 30 16 14 17 13 18 12 19 11 20 10 21
REMARK SMILES IDX 9 22 8 23 7 24 6 25 5 26 4 27 3 28 2 29 1 30
REMARK H PARENT
REMARK Flexibility Score: inf
ROOT
ATOM      1  C   UNL     1      14.476  12.485  26.791  1.00  0.00     0.000 C 
ENDROOT
BRANCH   1   2
ATOM      2  C   UNL     1      14.075  12.795  28.248  1.00  0.00     0.000 C 
BRANCH   2   3
ATOM      3  C   UNL     1      12.907  13.786  28.409  1.00  0.00     0.000 C 
BRANCH   3   4
ATOM      4  C   UNL     1      12.853  14.427  29.805  1.00  0.00     0.000 C 
BRANCH   4   5
ATOM      5  C   UNL     1      12.747  13.357  30.902  1.00  0.00     0.000 C 
BRANCH   5   6
ATOM      6  C   UNL     1      11.650  13.676  31.941  1.00  0.00     0.000 C 
BRANCH   6   7
ATOM      7  C   UNL     1      10.647  14.754  31.489  1.00  0.00     0.000 C 
BRANCH   7   8
ATOM      8  C   UNL     1       9.209  14.259  31.249  1.00  0.00     0.000 C 
BRANCH   8   9
ATOM      9  C   UNL     1       9.079  13.071  30.277  1.00  0.00     0.000 C 
BRANCH   9  10
ATOM     10  C   UNL     1       9.270  13.473  28.806  1.00  0.00     0.000 C 
BRANCH  10  11
ATOM     11  C   UNL     1       8.530  14.785  28.498  1.00  0.00     0.000 C 
BRANCH  11  12
ATOM     12  C   UNL     1       9.397  15.792  27.727  1.00  0.00     0.006 C 
BRANCH  12  13
ATOM     13  C   UNL     1       9.006  15.906  26.248  1.00  0.00     0.053 C 
BRANCH  13  14
ATOM     14  C   UNL     1       8.598  17.310  25.925  1.00  0.00     0.041 C 
ATOM     15  O   UNL     1       8.641  18.205  26.813  1.00  0.00    -0.550 OA
ATOM     16  O   UNL     1       8.231  17.647  24.628  1.00  0.00    -0.550 OA
ENDBRANCH  13  14
ENDBRANCH  12  13
ENDBRANCH  11  12
ENDBRANCH  10  11
ENDBRANCH   9  10
ENDBRANCH   8   9
ENDBRANCH   7   8
ENDBRANCH   6   7
ENDBRANCH   5   6
ENDBRANCH   4   5
ENDBRANCH   3   4
ENDBRANCH   2   3
ENDBRANCH   1   2
BRANCH   1  17
ATOM     17  C   UNL     1      13.563  13.105  25.716  1.00  0.00     0.000 C 
BRANCH  17  18
ATOM     18  C   UNL     1      14.253  13.401  24.371  1.00  0.00     0.000 C 
BRANCH  18  19
ATOM     19  C   UNL     1      15.726  13.833  24.474  1.00  0.00     0.000 C 
BRANCH  19  20
ATOM     20  C   UNL     1      15.922  15.344  24.268  1.00  0.00     0.000 C 
BRANCH  20  21
ATOM     21  C   UNL     1      16.664  16.018  25.436  1.00  0.00     0.000 C 
BRANCH  21  22
ATOM     22  C   UNL     1      15.873  16.094  26.760  1.00  0.00    -0.000 C 
BRANCH  22  23
ATOM     23  C   UNL     1      16.525  15.376  27.957  1.00  0.00    -0.000 C 
BRANCH  23  24
ATOM     24  C   UNL     1      16.065  15.862  29.346  1.00  0.00    -0.000 C 
BRANCH  24  25
ATOM     25  C   UNL     1      17.150  15.750  30.439  1.00  0.00    -0.000 C 
BRANCH  25  26
ATOM     26  C   UNL     1      17.426  14.296  30.861  1.00  0.00    -0.000 C 
BRANCH  26  27
ATOM     27  C   UNL     1      16.149  13.533  31.258  1.00  0.00    -0.000 C 
BRANCH  27  28
ATOM     28  C   UNL     1      16.366  12.364  32.237  1.00  0.00    -0.000 C 
BRANCH  28  29
ATOM     29  C   UNL     1      15.699  11.059  31.773  1.00  0.00    -0.003 C 
ATOM     30  C   UNL     1      16.217  10.630  30.403  1.00  0.00     0.004 C 
ENDBRANCH  28  29
ENDBRANCH  27  28
ENDBRANCH  26  27
ENDBRANCH  25  26
ENDBRANCH  24  25
ENDBRANCH  23  24
ENDBRANCH  22  23
ENDBRANCH  21  22
ENDBRANCH  20  21
ENDBRANCH  19  20
ENDBRANCH  18  19
ENDBRANCH  17  18
ENDBRANCH   1  17
TORSDOF 26
ENDMDL
MODEL 9
REMARK VINA RESULT:    -3.736      4.331      8.305
REMARK INTER + INTRA:         -13.666
REMARK INTER:                  -8.277
REMARK INTRA:                  -5.389
REMARK UNBOUND:                -4.252
REMARK SMILES CCCCCCCCCCCCCCCCCCCCCCCCCCCC(=O)[O-]
REMARK SMILES IDX 15 1 16 2 17 3 18 4 19 5 20 6 21 7 22 8 23 9 24 10 25 11
REMARK SMILES IDX 26 12 27 13 28 14 29 15 30 16 14 17 13 18 12 19 11 20 10 21
REMARK SMILES IDX 9 22 8 23 7 24 6 25 5 26 4 27 3 28 2 29 1 30
REMARK H PARENT
REMARK Flexibility Score: inf
ROOT
ATOM      1  C   UNL     1      15.962  10.700  28.110  1.00  0.00     0.000 C 
ENDROOT
BRANCH   1   2
ATOM      2  C   UNL     1      17.160  11.602  28.472  1.00  0.00     0.000 C 
BRANCH   2   3
ATOM      3  C   UNL     1      17.704  12.463  27.316  1.00  0.00     0.000 C 
BRANCH   3   4
ATOM      4  C   UNL     1      18.649  13.577  27.792  1.00  0.00     0.000 C 
BRANCH   4   5
ATOM      5  C   UNL     1      18.325  14.910  27.102  1.00  0.00     0.000 C 
BRANCH   5   6
ATOM      6  C   UNL     1      16.883  14.961  26.552  1.00  0.00     0.000 C 
BRANCH   6   7
ATOM      7  C   UNL     1      15.893  15.733  27.446  1.00  0.00     0.000 C 
BRANCH   7   8
ATOM      8  C   UNL     1      14.956  14.859  28.299  1.00  0.00     0.000 C 
BRANCH   8   9
ATOM      9  C   UNL     1      15.336  14.749  29.788  1.00  0.00     0.000 C 
BRANCH   9  10
ATOM     10  C   UNL     1      16.504  15.668  30.180  1.00  0.00     0.000 C 
BRANCH  10  11
ATOM     11  C   UNL     1      17.489  14.934  31.104  1.00  0.00     0.000 C 
BRANCH  11  12
ATOM     12  C   UNL     1      17.055  13.493  31.414  1.00  0.00     0.006 C 
BRANCH  12  13
ATOM     13  C   UNL     1      17.797  12.892  32.615  1.00  0.00     0.053 C 
BRANCH  13  14
ATOM     14  C   UNL     1      19.088  12.274  32.174  1.00  0.00     0.041 C 
ATOM     15  O   UNL     1      19.103  11.103  31.705  1.00  0.00    -0.550 OA
ATOM     16  O   UNL     1      20.264  13.012  32.220  1.00  0.00    -0.550 OA
ENDBRANCH  13  14
ENDBRANCH  12  13
ENDBRANCH  11  12
ENDBRANCH  10  11
ENDBRANCH   9  10
ENDBRANCH   8   9
ENDBRANCH   7   8
ENDBRANCH   6   7
ENDBRANCH   5   6
ENDBRANCH   4   5
ENDBRANCH   3   4
ENDBRANCH   2   3
ENDBRANCH   1   2
BRANCH   1  17
ATOM     17  C   UNL     1      14.606  11.153  28.686  1.00  0.00     0.000 C 
BRANCH  17  18
ATOM     18  C   UNL     1      14.480  11.034  30.217  1.00  0.00     0.000 C 
BRANCH  18  19
ATOM     19  C   UNL     1      13.250  11.729  30.827  1.00  0.00     0.000 C 
BRANCH  19  20
ATOM     20  C   UNL     1      13.564  12.447  32.150  1.00  0.00     0.000 C 
BRANCH  20  21
ATOM     21  C   UNL     1      12.535  12.147  33.254  1.00  0.00     0.000 C 
BRANCH  21  22
ATOM     22  C   UNL     1      11.459  13.235  33.463  1.00  0.00    -0.000 C 
BRANCH  22  23
ATOM     23  C   UNL     1      10.128  12.992  32.728  1.00  0.00    -0.000 C 
BRANCH  23  24
ATOM     24  C   UNL     1       9.952  13.767  31.407  1.00  0.00    -0.000 C 
BRANCH  24  25
ATOM     25  C   UNL     1      10.951  14.930  31.226  1.00  0.00    -0.000 C 
BRANCH  25  26
ATOM     26  C   UNL     1      11.354  15.149  29.756  1.00  0.00    -0.000 C 
BRANCH  26  27
ATOM     27  C   UNL     1      10.172  14.998  28.781  1.00  0.00    -0.000 C 
BRANCH  27  28
ATOM     28  C   UNL     1      10.464  14.147  27.531  1.00  0.00    -0.000 C 
BRANCH  28  29
ATOM     29  C   UNL     1      11.684  13.227  27.700  1.00  0.00    -0.003 C 
ATOM     30  C   UNL     1      12.250  12.805  26.348  1.00  0.00     0.004 C 
ENDBRANCH  28  29
ENDBRANCH  27  28
ENDBRANCH  26  27
ENDBRANCH  25  26
ENDBRANCH  24  25
ENDBRANCH  23  24
ENDBRANCH  22  23
ENDBRANCH  21  22
ENDBRANCH  20  21
ENDBRANCH  19  20
ENDBRANCH  18  19
ENDBRANCH  17  18
ENDBRANCH   1  17
TORSDOF 26
ENDMDL
