MODEL 1
REMARK VINA RESULT:    -5.412      0.000      0.000
REMARK INTER + INTRA:          -6.631
REMARK INTER:                  -6.361
REMARK INTRA:                  -0.271
REMARK UNBOUND:                -0.271
REMARK SMILES O=c1c(O)c(-c2ccc(O)cc2)oc2cc(O)cc(O)c12
REMARK SMILES IDX 5 1 3 2 2 3 1 4 21 5 19 6 18 7 16 8 15 9 14 10 13 11 6 12
REMARK SMILES IDX 7 13 8 14 9 15 12 16 11 17 10 18 4 20 20 22 17 24
REMARK H PARENT 10 19 4 21 20 23 17 25
REMARK Flexibility Score: inf
ROOT
ATOM      1  C   UNL     1     128.344 127.864 132.919  1.00  0.00     0.180 A 
ATOM      2  C   UNL     1     129.737 127.677 132.906  1.00  0.00     0.208 A 
ATOM      3  C   UNL     1     130.575 128.803 132.937  1.00  0.00     0.238 A 
ATOM      4  O   UNL     1     131.820 128.625 133.002  1.00  0.00    -0.285 OA
ATOM      5  C   UNL     1     130.013 130.102 132.923  1.00  0.00     0.111 A 
ATOM      6  C   UNL     1     130.768 131.314 132.907  1.00  0.00     0.134 A 
ATOM      7  C   UNL     1     130.103 132.542 133.000  1.00  0.00     0.093 A 
ATOM      8  C   UNL     1     128.711 132.607 133.045  1.00  0.00     0.123 A 
ATOM      9  C   UNL     1     127.961 131.432 133.006  1.00  0.00     0.094 A 
ATOM     10  C   UNL     1     128.596 130.189 132.951  1.00  0.00     0.146 A 
ATOM     11  O   UNL     1     127.845 129.094 132.937  1.00  0.00    -0.452 OA
ENDROOT
BRANCH   1  12
ATOM     12  C   UNL     1     127.396 126.727 132.901  1.00  0.00     0.021 A 
ATOM     13  C   UNL     1     126.861 126.255 134.111  1.00  0.00     0.016 A 
ATOM     14  C   UNL     1     125.983 125.167 134.121  1.00  0.00     0.047 A 
ATOM     15  C   UNL     1     125.639 124.529 132.926  1.00  0.00     0.115 A 
ATOM     16  C   UNL     1     127.063 126.067 131.703  1.00  0.00     0.016 A 
ATOM     17  C   UNL     1     126.185 124.980 131.717  1.00  0.00     0.047 A 
BRANCH  15  18
ATOM     18  O   UNL     1     124.762 123.446 132.950  1.00  0.00    -0.508 OA
ATOM     19  H   UNL     1     124.031 123.342 132.257  1.00  0.00     0.293 HD
ENDBRANCH  15  18
ENDBRANCH   1  12
BRANCH   2  20
ATOM     20  O   UNL     1     130.273 126.388 132.844  1.00  0.00    -0.502 OA
ATOM     21  H   UNL     1     129.712 125.576 132.614  1.00  0.00     0.293 HD
ENDBRANCH   2  20
BRANCH   6  22
ATOM     22  O   UNL     1     132.159 131.369 132.776  1.00  0.00    -0.507 OA
ATOM     23  H   UNL     1     132.664 132.084 132.274  1.00  0.00     0.293 HD
ENDBRANCH   6  22
BRANCH   8  24
ATOM     24  O   UNL     1     128.083 133.849 133.121  1.00  0.00    -0.508 OA
ATOM     25  H   UNL     1     128.586 134.709 132.934  1.00  0.00     0.293 HD
ENDBRANCH   8  24
TORSDOF 5
ENDMDL
MODEL 2
REMARK VINA RESULT:    -5.317      3.410      6.233
REMARK INTER + INTRA:          -6.520
REMARK INTER:                  -6.233
REMARK INTRA:                  -0.287
REMARK UNBOUND:                -0.271
REMARK SMILES O=c1c(O)c(-c2ccc(O)cc2)oc2cc(O)cc(O)c12
REMARK SMILES IDX 5 1 3 2 2 3 1 4 21 5 19 6 18 7 16 8 15 9 14 10 13 11 6 12
REMARK SMILES IDX 7 13 8 14 9 15 12 16 11 17 10 18 4 20 20 22 17 24
REMARK H PARENT 10 19 4 21 20 23 17 25
REMARK Flexibility Score: inf
ROOT
ATOM      1  C   UNL     1     131.296 132.434 132.759  1.00  0.00     0.180 A 
ATOM      2  C   UNL     1     130.637 133.581 132.281  1.00  0.00     0.208 A 
ATOM      3  C   UNL     1     131.354 134.784 132.177  1.00  0.00     0.238 A 
ATOM      4  O   UNL     1     130.778 135.786 131.678  1.00  0.00    -0.285 OA
ATOM      5  C   UNL     1     132.702 134.841 132.604  1.00  0.00     0.111 A 
ATOM      6  C   UNL     1     133.511 136.017 132.586  1.00  0.00     0.134 A 
ATOM      7  C   UNL     1     134.864 135.930 132.934  1.00  0.00     0.093 A 
ATOM      8  C   UNL     1     135.423 134.726 133.360  1.00  0.00     0.123 A 
ATOM      9  C   UNL     1     134.629 133.582 133.434  1.00  0.00     0.094 A 
ATOM     10  C   UNL     1     133.285 133.627 133.057  1.00  0.00     0.146 A 
ATOM     11  O   UNL     1     132.570 132.511 133.122  1.00  0.00    -0.452 OA
ENDROOT
BRANCH   1  12
ATOM     12  C   UNL     1     130.612 131.127 132.884  1.00  0.00     0.021 A 
ATOM     13  C   UNL     1     130.637 130.227 131.806  1.00  0.00     0.016 A 
ATOM     14  C   UNL     1     129.978 128.998 131.893  1.00  0.00     0.047 A 
ATOM     15  C   UNL     1     129.273 128.658 133.051  1.00  0.00     0.115 A 
ATOM     16  C   UNL     1     129.883 130.788 134.040  1.00  0.00     0.016 A 
ATOM     17  C   UNL     1     129.224 129.558 134.123  1.00  0.00     0.047 A 
BRANCH  15  18
ATOM     18  O   UNL     1     128.621 127.429 133.125  1.00  0.00    -0.508 OA
ATOM     19  H   UNL     1     128.533 126.928 134.001  1.00  0.00     0.293 HD
ENDBRANCH  15  18
ENDBRANCH   1  12
BRANCH   2  20
ATOM     20  O   UNL     1     129.284 133.522 131.936  1.00  0.00    -0.502 OA
ATOM     21  H   UNL     1     128.546 133.777 132.582  1.00  0.00     0.293 HD
ENDBRANCH   2  20
BRANCH   6  22
ATOM     22  O   UNL     1     133.034 137.291 132.262  1.00  0.00    -0.507 OA
ATOM     23  H   UNL     1     132.848 137.618 131.326  1.00  0.00     0.293 HD
ENDBRANCH   6  22
BRANCH   8  24
ATOM     24  O   UNL     1     136.770 134.681 133.715  1.00  0.00    -0.508 OA
ATOM     25  H   UNL     1     137.080 134.213 134.559  1.00  0.00     0.293 HD
ENDBRANCH   8  24
TORSDOF 5
ENDMDL
MODEL 3
REMARK VINA RESULT:    -5.301      1.624      6.749
REMARK INTER + INTRA:          -6.502
REMARK INTER:                  -6.231
REMARK INTRA:                  -0.271
REMARK UNBOUND:                -0.271
REMARK SMILES O=c1c(O)c(-c2ccc(O)cc2)oc2cc(O)cc(O)c12
REMARK SMILES IDX 5 1 3 2 2 3 1 4 21 5 19 6 18 7 16 8 15 9 14 10 13 11 6 12
REMARK SMILES IDX 7 13 8 14 9 15 12 16 11 17 10 18 4 20 20 22 17 24
REMARK H PARENT 10 19 4 21 20 23 17 25
REMARK Flexibility Score: inf
ROOT
ATOM      1  C   UNL     1     128.275 127.488 132.753  1.00  0.00     0.180 A 
ATOM      2  C   UNL     1     128.957 126.371 132.238  1.00  0.00     0.208 A 
ATOM      3  C   UNL     1     128.269 125.155 132.107  1.00  0.00     0.238 A 
ATOM      4  O   UNL     1     128.864 124.181 131.576  1.00  0.00    -0.285 OA
ATOM      5  C   UNL     1     126.926 125.053 132.543  1.00  0.00     0.111 A 
ATOM      6  C   UNL     1     126.145 123.858 132.499  1.00  0.00     0.134 A 
ATOM      7  C   UNL     1     124.794 123.903 132.860  1.00  0.00     0.093 A 
ATOM      8  C   UNL     1     124.210 125.081 133.324  1.00  0.00     0.123 A 
ATOM      9  C   UNL     1     124.977 126.241 133.423  1.00  0.00     0.094 A 
ATOM     10  C   UNL     1     126.318 126.239 133.034  1.00  0.00     0.146 A 
ATOM     11  O   UNL     1     127.006 127.371 133.125  1.00  0.00    -0.452 OA
ENDROOT
BRANCH   1  12
ATOM     12  C   UNL     1     128.929 128.807 132.909  1.00  0.00     0.021 A 
ATOM     13  C   UNL     1     128.774 129.778 131.906  1.00  0.00     0.016 A 
ATOM     14  C   UNL     1     129.401 131.022 132.020  1.00  0.00     0.047 A 
ATOM     15  C   UNL     1     130.203 131.307 133.130  1.00  0.00     0.115 A 
ATOM     16  C   UNL     1     129.754 129.091 134.014  1.00  0.00     0.016 A 
ATOM     17  C   UNL     1     130.380 130.336 134.125  1.00  0.00     0.047 A 
BRANCH  15  18
ATOM     18  O   UNL     1     130.822 132.551 133.232  1.00  0.00    -0.508 OA
ATOM     19  H   UNL     1     131.820 132.634 133.383  1.00  0.00     0.293 HD
ENDBRANCH  15  18
ENDBRANCH   1  12
BRANCH   2  20
ATOM     20  O   UNL     1     130.305 126.472 131.884  1.00  0.00    -0.502 OA
ATOM     21  H   UNL     1     131.032 126.676 132.560  1.00  0.00     0.293 HD
ENDBRANCH   2  20
BRANCH   6  22
ATOM     22  O   UNL     1     126.650 122.606 132.136  1.00  0.00    -0.507 OA
ATOM     23  H   UNL     1     127.628 122.388 132.018  1.00  0.00     0.293 HD
ENDBRANCH   6  22
BRANCH   8  24
ATOM     24  O   UNL     1     122.865 125.084 133.691  1.00  0.00    -0.508 OA
ATOM     25  H   UNL     1     122.270 124.279 133.528  1.00  0.00     0.293 HD
ENDBRANCH   8  24
TORSDOF 5
ENDMDL
MODEL 4
REMARK VINA RESULT:    -5.294      2.110      7.450
REMARK INTER + INTRA:          -6.494
REMARK INTER:                  -6.221
REMARK INTRA:                  -0.273
REMARK UNBOUND:                -0.271
REMARK SMILES O=c1c(O)c(-c2ccc(O)cc2)oc2cc(O)cc(O)c12
REMARK SMILES IDX 5 1 3 2 2 3 1 4 21 5 19 6 18 7 16 8 15 9 14 10 13 11 6 12
REMARK SMILES IDX 7 13 8 14 9 15 12 16 11 17 10 18 4 20 20 22 17 24
REMARK H PARENT 10 19 4 21 20 23 17 25
REMARK Flexibility Score: inf
ROOT
ATOM      1  C   UNL     1     128.555 126.757 133.072  1.00  0.00     0.180 A 
ATOM      2  C   UNL     1     127.168 126.888 132.887  1.00  0.00     0.208 A 
ATOM      3  C   UNL     1     126.358 125.745 132.982  1.00  0.00     0.238 A 
ATOM      4  O   UNL     1     125.110 125.882 132.890  1.00  0.00    -0.285 OA
ATOM      5  C   UNL     1     126.948 124.477 133.204  1.00  0.00     0.111 A 
ATOM      6  C   UNL     1     126.229 123.246 133.273  1.00  0.00     0.134 A 
ATOM      7  C   UNL     1     126.908 122.067 133.602  1.00  0.00     0.093 A 
ATOM      8  C   UNL     1     128.288 122.062 133.802  1.00  0.00     0.123 A 
ATOM      9  C   UNL     1     129.010 123.249 133.683  1.00  0.00     0.094 A 
ATOM     10  C   UNL     1     128.356 124.449 133.393  1.00  0.00     0.146 A 
ATOM     11  O   UNL     1     129.078 125.560 133.310  1.00  0.00    -0.452 OA
ENDROOT
BRANCH   1  12
ATOM     12  C   UNL     1     129.473 127.917 133.001  1.00  0.00     0.021 A 
ATOM     13  C   UNL     1     129.629 128.745 134.125  1.00  0.00     0.016 A 
ATOM     14  C   UNL     1     130.471 129.859 134.073  1.00  0.00     0.047 A 
ATOM     15  C   UNL     1     131.156 130.169 132.894  1.00  0.00     0.115 A 
ATOM     16  C   UNL     1     130.148 128.246 131.811  1.00  0.00     0.016 A 
ATOM     17  C   UNL     1     130.990 129.361 131.762  1.00  0.00     0.047 A 
BRANCH  15  18
ATOM     18  O   UNL     1     131.993 131.283 132.856  1.00  0.00    -0.508 OA
ATOM     19  H   UNL     1     132.980 131.211 133.072  1.00  0.00     0.293 HD
ENDBRANCH  15  18
ENDBRANCH   1  12
BRANCH   2  20
ATOM     20  O   UNL     1     126.612 128.136 132.593  1.00  0.00    -0.502 OA
ATOM     21  H   UNL     1     126.135 128.696 133.290  1.00  0.00     0.293 HD
ENDBRANCH   2  20
BRANCH   6  22
ATOM     22  O   UNL     1     124.862 123.121 133.004  1.00  0.00    -0.507 OA
ATOM     23  H   UNL     1     124.258 123.877 132.716  1.00  0.00     0.293 HD
ENDBRANCH   6  22
BRANCH   8  24
ATOM     24  O   UNL     1     128.933 120.866 134.112  1.00  0.00    -0.508 OA
ATOM     25  H   UNL     1     128.624 120.281 134.880  1.00  0.00     0.293 HD
ENDBRANCH   8  24
TORSDOF 5
ENDMDL
MODEL 5
REMARK VINA RESULT:    -5.140      1.893      6.637
REMARK INTER + INTRA:          -6.312
REMARK INTER:                  -6.290
REMARK INTRA:                  -0.022
REMARK UNBOUND:                -0.271
REMARK SMILES O=c1c(O)c(-c2ccc(O)cc2)oc2cc(O)cc(O)c12
REMARK SMILES IDX 5 1 3 2 2 3 1 4 21 5 19 6 18 7 16 8 15 9 14 10 13 11 6 12
REMARK SMILES IDX 7 13 8 14 9 15 12 16 11 17 10 18 4 20 20 22 17 24
REMARK H PARENT 10 19 4 21 20 23 17 25
REMARK Flexibility Score: inf
ROOT
ATOM      1  C   UNL     1     129.444 127.359 133.387  1.00  0.00     0.180 A 
ATOM      2  C   UNL     1     130.115 126.126 133.463  1.00  0.00     0.208 A 
ATOM      3  C   UNL     1     129.361 124.947 133.574  1.00  0.00     0.238 A 
ATOM      4  O   UNL     1     129.965 123.843 133.565  1.00  0.00    -0.285 OA
ATOM      5  C   UNL     1     127.950 125.017 133.664  1.00  0.00     0.111 A 
ATOM      6  C   UNL     1     127.089 123.890 133.823  1.00  0.00     0.134 A 
ATOM      7  C   UNL     1     125.701 124.072 133.794  1.00  0.00     0.093 A 
ATOM      8  C   UNL     1     125.143 125.344 133.676  1.00  0.00     0.123 A 
ATOM      9  C   UNL     1     125.975 126.459 133.575  1.00  0.00     0.094 A 
ATOM     10  C   UNL     1     127.363 126.307 133.562  1.00  0.00     0.146 A 
ATOM     11  O   UNL     1     128.119 127.392 133.442  1.00  0.00    -0.452 OA
ENDROOT
BRANCH   1  12
ATOM     12  C   UNL     1     130.169 128.643 133.256  1.00  0.00     0.021 A 
ATOM     13  C   UNL     1     129.861 129.703 134.125  1.00  0.00     0.016 A 
ATOM     14  C   UNL     1     130.515 130.932 134.004  1.00  0.00     0.047 A 
ATOM     15  C   UNL     1     131.475 131.124 133.005  1.00  0.00     0.115 A 
ATOM     16  C   UNL     1     131.120 128.848 132.239  1.00  0.00     0.016 A 
ATOM     17  C   UNL     1     131.773 130.079 132.120  1.00  0.00     0.047 A 
BRANCH  15  18
ATOM     18  O   UNL     1     132.120 132.354 132.895  1.00  0.00    -0.508 OA
ATOM     19  H   UNL     1     132.957 132.464 132.335  1.00  0.00     0.293 HD
ENDBRANCH  15  18
ENDBRANCH   1  12
BRANCH   2  20
ATOM     20  O   UNL     1     131.512 126.082 133.449  1.00  0.00    -0.502 OA
ATOM     21  H   UNL     1     132.075 126.815 133.033  1.00  0.00     0.293 HD
ENDBRANCH   2  20
BRANCH   6  22
ATOM     22  O   UNL     1     127.539 122.583 134.037  1.00  0.00    -0.507 OA
ATOM     23  H   UNL     1     128.246 122.118 133.487  1.00  0.00     0.293 HD
ENDBRANCH   6  22
BRANCH   8  24
ATOM     24  O   UNL     1     123.757 125.489 133.668  1.00  0.00    -0.508 OA
ATOM     25  H   UNL     1     123.319 126.387 133.499  1.00  0.00     0.293 HD
ENDBRANCH   8  24
TORSDOF 5
ENDMDL
MODEL 6
REMARK VINA RESULT:    -5.084      3.144      5.574
REMARK INTER + INTRA:          -6.247
REMARK INTER:                  -6.002
REMARK INTRA:                  -0.245
REMARK UNBOUND:                -0.271
REMARK SMILES O=c1c(O)c(-c2ccc(O)cc2)oc2cc(O)cc(O)c12
REMARK SMILES IDX 5 1 3 2 2 3 1 4 21 5 19 6 18 7 16 8 15 9 14 10 13 11 6 12
REMARK SMILES IDX 7 13 8 14 9 15 12 16 11 17 10 18 4 20 20 22 17 24
REMARK H PARENT 10 19 4 21 20 23 17 25
REMARK Flexibility Score: inf
ROOT
ATOM      1  C   UNL     1     130.827 132.749 132.970  1.00  0.00     0.180 A 
ATOM      2  C   UNL     1     132.221 132.807 132.798  1.00  0.00     0.208 A 
ATOM      3  C   UNL     1     132.855 134.060 132.800  1.00  0.00     0.238 A 
ATOM      4  O   UNL     1     134.110 134.099 132.721  1.00  0.00    -0.285 OA
ATOM      5  C   UNL     1     132.083 135.241 132.915  1.00  0.00     0.111 A 
ATOM      6  C   UNL     1     132.615 136.565 132.883  1.00  0.00     0.134 A 
ATOM      7  C   UNL     1     131.768 137.656 133.112  1.00  0.00     0.093 A 
ATOM      8  C   UNL     1     130.399 137.476 133.309  1.00  0.00     0.123 A 
ATOM      9  C   UNL     1     129.859 136.190 133.287  1.00  0.00     0.094 A 
ATOM     10  C   UNL     1     130.684 135.079 133.099  1.00  0.00     0.146 A 
ATOM     11  O   UNL     1     130.133 133.872 133.107  1.00  0.00    -0.452 OA
ENDROOT
BRANCH   1  12
ATOM     12  C   UNL     1     130.089 131.465 132.993  1.00  0.00     0.021 A 
ATOM     13  C   UNL     1     129.286 131.109 131.897  1.00  0.00     0.016 A 
ATOM     14  C   UNL     1     128.561 129.914 131.908  1.00  0.00     0.047 A 
ATOM     15  C   UNL     1     128.617 129.066 133.019  1.00  0.00     0.115 A 
ATOM     16  C   UNL     1     130.125 130.619 134.118  1.00  0.00     0.016 A 
ATOM     17  C   UNL     1     129.398 129.424 134.125  1.00  0.00     0.047 A 
BRANCH  15  18
ATOM     18  O   UNL     1     127.891 127.878 133.016  1.00  0.00    -0.508 OA
ATOM     19  H   UNL     1     128.329 126.990 132.801  1.00  0.00     0.293 HD
ENDBRANCH  15  18
ENDBRANCH   1  12
BRANCH   2  20
ATOM     20  O   UNL     1     132.956 131.633 132.610  1.00  0.00    -0.502 OA
ATOM     21  H   UNL     1     133.926 131.549 132.890  1.00  0.00     0.293 HD
ENDBRANCH   2  20
BRANCH   6  22
ATOM     22  O   UNL     1     133.953 136.866 132.607  1.00  0.00    -0.507 OA
ATOM     23  H   UNL     1     134.460 137.649 132.991  1.00  0.00     0.293 HD
ENDBRANCH   6  22
BRANCH   8  24
ATOM     24  O   UNL     1     129.583 138.587 133.517  1.00  0.00    -0.508 OA
ATOM     25  H   UNL     1     129.293 139.183 132.750  1.00  0.00     0.293 HD
ENDBRANCH   8  24
TORSDOF 5
ENDMDL
MODEL 7
REMARK VINA RESULT:    -5.072      2.445      6.843
REMARK INTER + INTRA:          -6.232
REMARK INTER:                  -5.946
REMARK INTRA:                  -0.286
REMARK UNBOUND:                -0.271
REMARK SMILES O=c1c(O)c(-c2ccc(O)cc2)oc2cc(O)cc(O)c12
REMARK SMILES IDX 5 1 3 2 2 3 1 4 21 5 19 6 18 7 16 8 15 9 14 10 13 11 6 12
REMARK SMILES IDX 7 13 8 14 9 15 12 16 11 17 10 18 4 20 20 22 17 24
REMARK H PARENT 10 19 4 21 20 23 17 25
REMARK Flexibility Score: inf
ROOT
ATOM      1  C   UNL     1     130.585 128.166 132.630  1.00  0.00     0.180 A 
ATOM      2  C   UNL     1     131.212 127.073 133.254  1.00  0.00     0.208 A 
ATOM      3  C   UNL     1     130.701 125.783 133.040  1.00  0.00     0.238 A 
ATOM      4  O   UNL     1     131.311 124.803 133.541  1.00  0.00    -0.285 OA
ATOM      5  C   UNL     1     129.538 125.606 132.252  1.00  0.00     0.111 A 
ATOM      6  C   UNL     1     128.907 124.350 132.005  1.00  0.00     0.134 A 
ATOM      7  C   UNL     1     127.821 124.283 131.123  1.00  0.00     0.093 A 
ATOM      8  C   UNL     1     127.304 125.434 130.529  1.00  0.00     0.123 A 
ATOM      9  C   UNL     1     127.878 126.674 130.806  1.00  0.00     0.094 A 
ATOM     10  C   UNL     1     128.986 126.769 131.651  1.00  0.00     0.146 A 
ATOM     11  O   UNL     1     129.515 127.966 131.871  1.00  0.00    -0.452 OA
ENDROOT
BRANCH   1  12
ATOM     12  C   UNL     1     131.074 129.554 132.796  1.00  0.00     0.021 A 
ATOM     13  C   UNL     1     132.091 130.034 131.955  1.00  0.00     0.016 A 
ATOM     14  C   UNL     1     132.585 131.333 132.110  1.00  0.00     0.047 A 
ATOM     15  C   UNL     1     132.078 132.163 133.114  1.00  0.00     0.115 A 
ATOM     16  C   UNL     1     130.583 130.387 133.819  1.00  0.00     0.016 A 
ATOM     17  C   UNL     1     131.079 131.685 133.971  1.00  0.00     0.047 A 
BRANCH  15  18
ATOM     18  O   UNL     1     132.579 133.456 133.257  1.00  0.00    -0.508 OA
ATOM     19  H   UNL     1     132.143 134.246 132.796  1.00  0.00     0.293 HD
ENDBRANCH  15  18
ENDBRANCH   1  12
BRANCH   2  20
ATOM     20  O   UNL     1     132.313 127.276 134.089  1.00  0.00    -0.502 OA
ATOM     21  H   UNL     1     132.354 128.033 134.762  1.00  0.00     0.293 HD
ENDBRANCH   2  20
BRANCH   6  22
ATOM     22  O   UNL     1     129.285 123.149 132.615  1.00  0.00    -0.507 OA
ATOM     23  H   UNL     1     129.192 122.946 133.599  1.00  0.00     0.293 HD
ENDBRANCH   6  22
BRANCH   8  24
ATOM     24  O   UNL     1     126.212 125.332 129.669  1.00  0.00    -0.508 OA
ATOM     25  H   UNL     1     125.271 125.537 129.982  1.00  0.00     0.293 HD
ENDBRANCH   8  24
TORSDOF 5
ENDMDL
MODEL 8
REMARK VINA RESULT:    -4.600      2.892      5.711
REMARK INTER + INTRA:          -5.678
REMARK INTER:                  -5.651
REMARK INTRA:                  -0.027
REMARK UNBOUND:                -0.271
REMARK SMILES O=c1c(O)c(-c2ccc(O)cc2)oc2cc(O)cc(O)c12
REMARK SMILES IDX 5 1 3 2 2 3 1 4 21 5 19 6 18 7 16 8 15 9 14 10 13 11 6 12
REMARK SMILES IDX 7 13 8 14 9 15 12 16 11 17 10 18 4 20 20 22 17 24
REMARK H PARENT 10 19 4 21 20 23 17 25
REMARK Flexibility Score: inf
ROOT
ATOM      1  C   UNL     1     130.214 132.445 133.399  1.00  0.00     0.180 A 
ATOM      2  C   UNL     1     129.541 133.674 133.506  1.00  0.00     0.208 A 
ATOM      3  C   UNL     1     130.293 134.853 133.632  1.00  0.00     0.238 A 
ATOM      4  O   UNL     1     129.686 135.955 133.651  1.00  0.00    -0.285 OA
ATOM      5  C   UNL     1     131.705 134.784 133.708  1.00  0.00     0.111 A 
ATOM      6  C   UNL     1     132.566 135.910 133.881  1.00  0.00     0.134 A 
ATOM      7  C   UNL     1     133.954 135.733 133.835  1.00  0.00     0.093 A 
ATOM      8  C   UNL     1     134.513 134.464 133.687  1.00  0.00     0.123 A 
ATOM      9  C   UNL     1     133.683 133.350 133.572  1.00  0.00     0.094 A 
ATOM     10  C   UNL     1     132.294 133.499 133.575  1.00  0.00     0.146 A 
ATOM     11  O   UNL     1     131.540 132.414 133.441  1.00  0.00    -0.452 OA
ENDROOT
BRANCH   1  12
ATOM     12  C   UNL     1     129.491 131.161 133.249  1.00  0.00     0.021 A 
ATOM     13  C   UNL     1     129.808 130.086 134.097  1.00  0.00     0.016 A 
ATOM     14  C   UNL     1     129.155 128.858 133.958  1.00  0.00     0.047 A 
ATOM     15  C   UNL     1     128.189 128.683 132.962  1.00  0.00     0.115 A 
ATOM     16  C   UNL     1     128.533 130.972 132.235  1.00  0.00     0.016 A 
ATOM     17  C   UNL     1     127.882 129.743 132.099  1.00  0.00     0.047 A 
BRANCH  15  18
ATOM     18  O   UNL     1     127.546 127.454 132.835  1.00  0.00    -0.508 OA
ATOM     19  H   UNL     1     126.710 127.349 132.273  1.00  0.00     0.293 HD
ENDBRANCH  15  18
ENDBRANCH   1  12
BRANCH   2  20
ATOM     20  O   UNL     1     128.144 133.714 133.506  1.00  0.00    -0.502 OA
ATOM     21  H   UNL     1     127.615 134.229 132.812  1.00  0.00     0.293 HD
ENDBRANCH   2  20
BRANCH   6  22
ATOM     22  O   UNL     1     132.114 137.211 134.125  1.00  0.00    -0.507 OA
ATOM     23  H   UNL     1     131.482 137.474 134.866  1.00  0.00     0.293 HD
ENDBRANCH   6  22
BRANCH   8  24
ATOM     24  O   UNL     1     135.900 134.324 133.662  1.00  0.00    -0.508 OA
ATOM     25  H   UNL     1     136.351 133.633 133.074  1.00  0.00     0.293 HD
ENDBRANCH   8  24
TORSDOF 5
ENDMDL
