MODEL 1
REMARK VINA RESULT:    -4.830      0.000      0.000
REMARK INTER + INTRA:          -5.318
REMARK INTER:                  -5.253
REMARK INTRA:                  -0.065
REMARK UNBOUND:                -0.065
REMARK SMILES COc1cc2ccc(=O)oc2cc1O
REMARK SMILES IDX 3 1 13 2 12 3 11 4 5 5 4 6 6 7 7 8 8 9 9 10 10 11 2 12 1 13
REMARK SMILES IDX 14 14
REMARK H PARENT 14 15
REMARK Flexibility Score: inf
ROOT
ATOM      1  C   UNL     1      37.507 -44.056  23.049  1.00  0.00     0.161 A 
ATOM      2  C   UNL     1      37.820 -44.714  21.849  1.00  0.00     0.161 A 
ATOM      3  C   UNL     1      38.379 -44.002  20.776  1.00  0.00     0.098 A 
ATOM      4  C   UNL     1      38.627 -42.633  20.893  1.00  0.00     0.142 A 
ATOM      5  C   UNL     1      38.315 -41.964  22.095  1.00  0.00     0.022 A 
ATOM      6  C   UNL     1      37.757 -42.674  23.168  1.00  0.00     0.062 A 
ATOM      7  C   UNL     1      38.575 -40.592  22.181  1.00  0.00     0.019 A 
ATOM      8  C   UNL     1      39.130 -39.930  21.087  1.00  0.00     0.094 A 
ATOM      9  C   UNL     1      39.414 -40.659  19.927  1.00  0.00     0.336 A 
ATOM     10  O   UNL     1      39.915 -40.080  18.927  1.00  0.00    -0.246 OA
ATOM     11  O   UNL     1      39.157 -41.964  19.872  1.00  0.00    -0.423 OA
ENDROOT
BRANCH   1  12
ATOM     12  O   UNL     1      36.950 -44.807  24.096  1.00  0.00    -0.493 OA
ATOM     13  C   UNL     1      37.672 -45.253  25.240  1.00  0.00     0.278 C 
ENDBRANCH   1  12
BRANCH   2  14
ATOM     14  O   UNL     1      37.574 -46.080  21.730  1.00  0.00    -0.504 OA
ATOM     15  H   UNL     1      36.634 -46.455  21.755  1.00  0.00     0.293 HD
ENDBRANCH   2  14
TORSDOF 2
ENDMDL
MODEL 2
REMARK VINA RESULT:    -4.689      1.499      2.249
REMARK INTER + INTRA:          -5.165
REMARK INTER:                  -5.113
REMARK INTRA:                  -0.052
REMARK UNBOUND:                -0.065
REMARK SMILES COc1cc2ccc(=O)oc2cc1O
REMARK SMILES IDX 3 1 13 2 12 3 11 4 5 5 4 6 6 7 7 8 8 9 9 10 10 11 2 12 1 13
REMARK SMILES IDX 14 14
REMARK H PARENT 14 15
REMARK Flexibility Score: inf
ROOT
ATOM      1  C   UNL     1      38.377 -43.383  21.279  1.00  0.00     0.161 A 
ATOM      2  C   UNL     1      38.757 -43.248  19.935  1.00  0.00     0.161 A 
ATOM      3  C   UNL     1      39.134 -41.995  19.428  1.00  0.00     0.098 A 
ATOM      4  C   UNL     1      39.134 -40.871  20.258  1.00  0.00     0.142 A 
ATOM      5  C   UNL     1      38.753 -40.998  21.610  1.00  0.00     0.022 A 
ATOM      6  C   UNL     1      38.377 -42.250  22.117  1.00  0.00     0.062 A 
ATOM      7  C   UNL     1      38.763 -39.855  22.415  1.00  0.00     0.019 A 
ATOM      8  C   UNL     1      39.145 -38.632  21.865  1.00  0.00     0.094 A 
ATOM      9  C   UNL     1      39.510 -38.582  20.515  1.00  0.00     0.336 A 
ATOM     10  O   UNL     1      39.858 -37.488  19.998  1.00  0.00    -0.246 OA
ATOM     11  O   UNL     1      39.493 -39.685  19.771  1.00  0.00    -0.423 OA
ENDROOT
BRANCH   1  12
ATOM     12  O   UNL     1      38.008 -44.656  21.743  1.00  0.00    -0.493 OA
ATOM     13  C   UNL     1      36.875 -44.917  22.566  1.00  0.00     0.278 C 
ENDBRANCH   1  12
BRANCH   2  14
ATOM     14  O   UNL     1      38.759 -44.367  19.105  1.00  0.00    -0.504 OA
ATOM     15  H   UNL     1      39.610 -44.880  18.906  1.00  0.00     0.293 HD
ENDBRANCH   2  14
TORSDOF 2
ENDMDL
MODEL 3
REMARK VINA RESULT:    -4.684      2.044      5.660
REMARK INTER + INTRA:          -5.160
REMARK INTER:                  -5.165
REMARK INTRA:                   0.006
REMARK UNBOUND:                -0.065
REMARK SMILES COc1cc2ccc(=O)oc2cc1O
REMARK SMILES IDX 3 1 13 2 12 3 11 4 5 5 4 6 6 7 7 8 8 9 9 10 10 11 2 12 1 13
REMARK SMILES IDX 14 14
REMARK H PARENT 14 15
REMARK Flexibility Score: inf
ROOT
ATOM      1  C   UNL     1      39.499 -38.899  20.348  1.00  0.00     0.161 A 
ATOM      2  C   UNL     1      39.006 -39.031  21.656  1.00  0.00     0.161 A 
ATOM      3  C   UNL     1      38.614 -40.288  22.140  1.00  0.00     0.098 A 
ATOM      4  C   UNL     1      38.709 -41.418  21.325  1.00  0.00     0.142 A 
ATOM      5  C   UNL     1      39.203 -41.294  20.009  1.00  0.00     0.022 A 
ATOM      6  C   UNL     1      39.596 -40.038  19.524  1.00  0.00     0.062 A 
ATOM      7  C   UNL     1      39.286 -42.443  19.218  1.00  0.00     0.019 A 
ATOM      8  C   UNL     1      38.882 -43.669  19.745  1.00  0.00     0.094 A 
ATOM      9  C   UNL     1      38.403 -43.717  21.059  1.00  0.00     0.336 A 
ATOM     10  O   UNL     1      38.033 -44.814  21.554  1.00  0.00    -0.246 OA
ATOM     11  O   UNL     1      38.334 -42.608  21.791  1.00  0.00    -0.423 OA
ENDROOT
BRANCH   1  12
ATOM     12  O   UNL     1      39.881 -37.622  19.905  1.00  0.00    -0.493 OA
ATOM     13  C   UNL     1      41.146 -37.024  20.167  1.00  0.00     0.278 C 
ENDBRANCH   1  12
BRANCH   2  14
ATOM     14  O   UNL     1      38.911 -37.906  22.472  1.00  0.00    -0.504 OA
ATOM     15  H   UNL     1      38.364 -37.912  23.324  1.00  0.00     0.293 HD
ENDBRANCH   2  14
TORSDOF 2
ENDMDL
MODEL 4
REMARK VINA RESULT:    -4.574      1.179      4.757
REMARK INTER + INTRA:          -5.040
REMARK INTER:                  -4.994
REMARK INTRA:                  -0.046
REMARK UNBOUND:                -0.065
REMARK SMILES COc1cc2ccc(=O)oc2cc1O
REMARK SMILES IDX 3 1 13 2 12 3 11 4 5 5 4 6 6 7 7 8 8 9 9 10 10 11 2 12 1 13
REMARK SMILES IDX 14 14
REMARK H PARENT 14 15
REMARK Flexibility Score: inf
ROOT
ATOM      1  C   UNL     1      38.794 -42.139  20.435  1.00  0.00     0.161 A 
ATOM      2  C   UNL     1      38.719 -43.531  20.270  1.00  0.00     0.161 A 
ATOM      3  C   UNL     1      38.326 -44.350  21.339  1.00  0.00     0.098 A 
ATOM      4  C   UNL     1      38.006 -43.788  22.576  1.00  0.00     0.142 A 
ATOM      5  C   UNL     1      38.078 -42.390  22.751  1.00  0.00     0.022 A 
ATOM      6  C   UNL     1      38.470 -41.570  21.683  1.00  0.00     0.062 A 
ATOM      7  C   UNL     1      37.752 -41.857  24.002  1.00  0.00     0.019 A 
ATOM      8  C   UNL     1      37.368 -42.713  25.033  1.00  0.00     0.094 A 
ATOM      9  C   UNL     1      37.319 -44.090  24.787  1.00  0.00     0.336 A 
ATOM     10  O   UNL     1      36.975 -44.880  25.704  1.00  0.00    -0.246 OA
ATOM     11  O   UNL     1      37.634 -44.571  23.587  1.00  0.00    -0.423 OA
ENDROOT
BRANCH   1  12
ATOM     12  O   UNL     1      39.191 -41.358  19.338  1.00  0.00    -0.493 OA
ATOM     13  C   UNL     1      39.654 -40.014  19.431  1.00  0.00     0.278 C 
ENDBRANCH   1  12
BRANCH   2  14
ATOM     14  O   UNL     1      39.037 -44.095  19.036  1.00  0.00    -0.504 OA
ATOM     15  H   UNL     1      39.989 -44.345  18.796  1.00  0.00     0.293 HD
ENDBRANCH   2  14
TORSDOF 2
ENDMDL
MODEL 5
REMARK VINA RESULT:    -4.512      1.577      2.547
REMARK INTER + INTRA:          -4.973
REMARK INTER:                  -4.924
REMARK INTRA:                  -0.049
REMARK UNBOUND:                -0.065
REMARK SMILES COc1cc2ccc(=O)oc2cc1O
REMARK SMILES IDX 3 1 13 2 12 3 11 4 5 5 4 6 6 7 7 8 8 9 9 10 10 11 2 12 1 13
REMARK SMILES IDX 14 14
REMARK H PARENT 14 15
REMARK Flexibility Score: inf
ROOT
ATOM      1  C   UNL     1      37.972 -43.528  22.484  1.00  0.00     0.161 A 
ATOM      2  C   UNL     1      37.902 -42.468  23.401  1.00  0.00     0.161 A 
ATOM      3  C   UNL     1      38.287 -41.174  23.018  1.00  0.00     0.098 A 
ATOM      4  C   UNL     1      38.744 -40.931  21.721  1.00  0.00     0.142 A 
ATOM      5  C   UNL     1      38.818 -41.991  20.793  1.00  0.00     0.022 A 
ATOM      6  C   UNL     1      38.433 -43.284  21.174  1.00  0.00     0.062 A 
ATOM      7  C   UNL     1      39.279 -41.715  19.502  1.00  0.00     0.019 A 
ATOM      8  C   UNL     1      39.651 -40.413  19.171  1.00  0.00     0.094 A 
ATOM      9  C   UNL     1      39.551 -39.412  20.143  1.00  0.00     0.336 A 
ATOM     10  O   UNL     1      39.882 -38.229  19.864  1.00  0.00    -0.246 OA
ATOM     11  O   UNL     1      39.108 -39.701  21.364  1.00  0.00    -0.423 OA
ENDROOT
BRANCH   1  12
ATOM     12  O   UNL     1      37.576 -44.806  22.910  1.00  0.00    -0.493 OA
ATOM     13  C   UNL     1      36.900 -45.755  22.091  1.00  0.00     0.278 C 
ENDBRANCH   1  12
BRANCH   2  14
ATOM     14  O   UNL     1      37.446 -42.708  24.696  1.00  0.00    -0.504 OA
ATOM     15  H   UNL     1      37.303 -43.649  25.043  1.00  0.00     0.293 HD
ENDBRANCH   2  14
TORSDOF 2
ENDMDL
MODEL 6
REMARK VINA RESULT:    -4.337      2.008      4.126
REMARK INTER + INTRA:          -4.782
REMARK INTER:                  -4.730
REMARK INTRA:                  -0.053
REMARK UNBOUND:                -0.065
REMARK SMILES COc1cc2ccc(=O)oc2cc1O
REMARK SMILES IDX 3 1 13 2 12 3 11 4 5 5 4 6 6 7 7 8 8 9 9 10 10 11 2 12 1 13
REMARK SMILES IDX 14 14
REMARK H PARENT 14 15
REMARK Flexibility Score: inf
ROOT
ATOM      1  C   UNL     1      38.402 -43.495  21.169  1.00  0.00     0.161 A 
ATOM      2  C   UNL     1      37.926 -44.438  22.093  1.00  0.00     0.161 A 
ATOM      3  C   UNL     1      37.564 -44.039  23.389  1.00  0.00     0.098 A 
ATOM      4  C   UNL     1      37.674 -42.700  23.770  1.00  0.00     0.142 A 
ATOM      5  C   UNL     1      38.151 -41.746  22.846  1.00  0.00     0.022 A 
ATOM      6  C   UNL     1      38.512 -42.143  21.552  1.00  0.00     0.062 A 
ATOM      7  C   UNL     1      38.250 -40.413  23.258  1.00  0.00     0.019 A 
ATOM      8  C   UNL     1      37.878 -40.067  24.556  1.00  0.00     0.094 A 
ATOM      9  C   UNL     1      37.414 -41.067  25.417  1.00  0.00     0.336 A 
ATOM     10  O   UNL     1      37.073 -40.776  26.594  1.00  0.00    -0.246 OA
ATOM     11  O   UNL     1      37.329 -42.328  25.000  1.00  0.00    -0.423 OA
ENDROOT
BRANCH   1  12
ATOM     12  O   UNL     1      38.751 -43.939  19.884  1.00  0.00    -0.493 OA
ATOM     13  C   UNL     1      39.937 -43.556  19.194  1.00  0.00     0.278 C 
ENDBRANCH   1  12
BRANCH   2  14
ATOM     14  O   UNL     1      37.815 -45.775  21.716  1.00  0.00    -0.504 OA
ATOM     15  H   UNL     1      37.819 -46.522  22.400  1.00  0.00     0.293 HD
ENDBRANCH   2  14
TORSDOF 2
ENDMDL
MODEL 7
REMARK VINA RESULT:    -4.292      1.678      2.503
REMARK INTER + INTRA:          -4.734
REMARK INTER:                  -4.669
REMARK INTRA:                  -0.065
REMARK UNBOUND:                -0.065
REMARK SMILES COc1cc2ccc(=O)oc2cc1O
REMARK SMILES IDX 3 1 13 2 12 3 11 4 5 5 4 6 6 7 7 8 8 9 9 10 10 11 2 12 1 13
REMARK SMILES IDX 14 14
REMARK H PARENT 14 15
REMARK Flexibility Score: inf
ROOT
ATOM      1  C   UNL     1      37.280 -43.216  24.659  1.00  0.00     0.161 A 
ATOM      2  C   UNL     1      37.280 -44.567  24.278  1.00  0.00     0.161 A 
ATOM      3  C   UNL     1      37.678 -44.937  22.984  1.00  0.00     0.098 A 
ATOM      4  C   UNL     1      38.078 -43.965  22.065  1.00  0.00     0.142 A 
ATOM      5  C   UNL     1      38.081 -42.604  22.441  1.00  0.00     0.022 A 
ATOM      6  C   UNL     1      37.684 -42.234  23.733  1.00  0.00     0.062 A 
ATOM      7  C   UNL     1      38.486 -41.654  21.498  1.00  0.00     0.019 A 
ATOM      8  C   UNL     1      38.872 -42.073  20.225  1.00  0.00     0.094 A 
ATOM      9  C   UNL     1      38.843 -43.439  19.924  1.00  0.00     0.336 A 
ATOM     10  O   UNL     1      39.187 -43.838  18.780  1.00  0.00    -0.246 OA
ATOM     11  O   UNL     1      38.454 -44.322  20.840  1.00  0.00    -0.423 OA
ENDROOT
BRANCH   1  12
ATOM     12  O   UNL     1      36.875 -42.892  25.964  1.00  0.00    -0.493 OA
ATOM     13  C   UNL     1      37.760 -42.496  27.008  1.00  0.00     0.278 C 
ENDBRANCH   1  12
BRANCH   2  14
ATOM     14  O   UNL     1      36.882 -45.540  25.193  1.00  0.00    -0.504 OA
ATOM     15  H   UNL     1      36.019 -46.057  25.076  1.00  0.00     0.293 HD
ENDBRANCH   2  14
TORSDOF 2
ENDMDL
MODEL 8
REMARK VINA RESULT:    -4.291      2.523      5.114
REMARK INTER + INTRA:          -4.733
REMARK INTER:                  -4.668
REMARK INTRA:                  -0.065
REMARK UNBOUND:                -0.065
REMARK SMILES COc1cc2ccc(=O)oc2cc1O
REMARK SMILES IDX 3 1 13 2 12 3 11 4 5 5 4 6 6 7 7 8 8 9 9 10 10 11 2 12 1 13
REMARK SMILES IDX 14 14
REMARK H PARENT 14 15
REMARK Flexibility Score: inf
ROOT
ATOM      1  C   UNL     1      38.993 -38.664  21.928  1.00  0.00     0.161 A 
ATOM      2  C   UNL     1      39.452 -38.445  20.619  1.00  0.00     0.161 A 
ATOM      3  C   UNL     1      39.568 -39.516  19.721  1.00  0.00     0.098 A 
ATOM      4  C   UNL     1      39.227 -40.810  20.120  1.00  0.00     0.142 A 
ATOM      5  C   UNL     1      38.765 -41.039  21.433  1.00  0.00     0.022 A 
ATOM      6  C   UNL     1      38.649 -39.969  22.332  1.00  0.00     0.062 A 
ATOM      7  C   UNL     1      38.432 -42.346  21.803  1.00  0.00     0.019 A 
ATOM      8  C   UNL     1      38.565 -43.377  20.874  1.00  0.00     0.094 A 
ATOM      9  C   UNL     1      39.030 -43.075  19.589  1.00  0.00     0.336 A 
ATOM     10  O   UNL     1      39.157 -43.990  18.735  1.00  0.00    -0.246 OA
ATOM     11  O   UNL     1      39.339 -41.822  19.263  1.00  0.00    -0.423 OA
ENDROOT
BRANCH   1  12
ATOM     12  O   UNL     1      38.893 -37.563  22.792  1.00  0.00    -0.493 OA
ATOM     13  C   UNL     1      39.813 -37.275  23.841  1.00  0.00     0.278 C 
ENDBRANCH   1  12
BRANCH   2  14
ATOM     14  O   UNL     1      39.793 -37.154  20.217  1.00  0.00    -0.504 OA
ATOM     15  H   UNL     1      40.223 -36.974  19.318  1.00  0.00     0.293 HD
ENDBRANCH   2  14
TORSDOF 2
ENDMDL
MODEL 9
REMARK VINA RESULT:    -4.243      9.593     10.887
REMARK INTER + INTRA:          -4.681
REMARK INTER:                  -4.635
REMARK INTRA:                  -0.045
REMARK UNBOUND:                -0.065
REMARK SMILES COc1cc2ccc(=O)oc2cc1O
REMARK SMILES IDX 3 1 13 2 12 3 11 4 5 5 4 6 6 7 7 8 8 9 9 10 10 11 2 12 1 13
REMARK SMILES IDX 14 14
REMARK H PARENT 14 15
REMARK Flexibility Score: inf
ROOT
ATOM      1  C   UNL     1      42.537 -44.601  30.824  1.00  0.00     0.161 A 
ATOM      2  C   UNL     1      41.665 -44.053  31.777  1.00  0.00     0.161 A 
ATOM      3  C   UNL     1      41.850 -42.740  32.234  1.00  0.00     0.098 A 
ATOM      4  C   UNL     1      42.905 -41.966  31.745  1.00  0.00     0.142 A 
ATOM      5  C   UNL     1      43.787 -42.509  30.786  1.00  0.00     0.022 A 
ATOM      6  C   UNL     1      43.601 -43.821  30.328  1.00  0.00     0.062 A 
ATOM      7  C   UNL     1      44.833 -41.710  30.315  1.00  0.00     0.019 A 
ATOM      8  C   UNL     1      44.976 -40.411  30.801  1.00  0.00     0.094 A 
ATOM      9  C   UNL     1      44.063 -39.940  31.752  1.00  0.00     0.336 A 
ATOM     10  O   UNL     1      44.175 -38.770  32.204  1.00  0.00    -0.246 OA
ATOM     11  O   UNL     1      43.076 -40.721  32.183  1.00  0.00    -0.423 OA
ENDROOT
BRANCH   1  12
ATOM     12  O   UNL     1      42.313 -45.918  30.394  1.00  0.00    -0.493 OA
ATOM     13  C   UNL     1      41.520 -46.275  29.265  1.00  0.00     0.278 C 
ENDBRANCH   1  12
BRANCH   2  14
ATOM     14  O   UNL     1      40.611 -44.822  32.267  1.00  0.00    -0.504 OA
ATOM     15  H   UNL     1      40.582 -45.826  32.139  1.00  0.00     0.293 HD
ENDBRANCH   2  14
TORSDOF 2
ENDMDL
