MODEL 1
REMARK VINA RESULT:    -6.403      0.000      0.000
REMARK INTER + INTRA:          -7.490
REMARK INTER:                  -7.338
REMARK INTRA:                  -0.152
REMARK UNBOUND:                -0.152
REMARK SMILES O=C([O-])C=Cc1ccc(O)cc1
REMARK SMILES IDX 6 1 7 2 12 3 8 4 11 5 9 6 5 7 4 8 2 9 1 10 3 11 10 12
REMARK H PARENT 10 13
REMARK Flexibility Score: inf
ROOT
ATOM      1  C   UNL     1      13.405 -12.350  28.977  1.00  0.00    -0.025 A 
ATOM      2  C   UNL     1      13.984 -11.930  30.188  1.00  0.00     0.012 A 
ATOM      3  C   UNL     1      12.342 -11.599  28.436  1.00  0.00     0.012 A 
ATOM      4  C   UNL     1      13.530 -10.774  30.830  1.00  0.00     0.047 A 
ATOM      5  C   UNL     1      11.890 -10.445  29.083  1.00  0.00     0.047 A 
ATOM      6  C   UNL     1      12.485 -10.028  30.280  1.00  0.00     0.115 A 
ENDROOT
BRANCH   1   7
ATOM      7  C   UNL     1      13.916 -13.589  28.339  1.00  0.00     0.010 C 
ATOM      8  C   UNL     1      14.878 -14.358  28.870  1.00  0.00     0.025 C 
BRANCH   8   9
ATOM      9  C   UNL     1      15.353 -15.587  28.214  1.00  0.00     0.064 C 
ATOM     10  O   UNL     1      15.781 -15.570  27.028  1.00  0.00    -0.545 OA
ATOM     11  O   UNL     1      15.332 -16.786  28.913  1.00  0.00    -0.545 OA
ENDBRANCH   8   9
ENDBRANCH   1   7
BRANCH   6  12
ATOM     12  O   UNL     1      12.044  -8.878  30.932  1.00  0.00    -0.508 OA
ATOM     13  H   UNL     1      12.023  -7.979  30.463  1.00  0.00     0.293 HD
ENDBRANCH   6  12
TORSDOF 3
ENDMDL
MODEL 2
REMARK VINA RESULT:    -6.115      1.455      1.606
REMARK INTER + INTRA:          -7.161
REMARK INTER:                  -7.009
REMARK INTRA:                  -0.152
REMARK UNBOUND:                -0.152
REMARK SMILES O=C([O-])C=Cc1ccc(O)cc1
REMARK SMILES IDX 6 1 7 2 12 3 8 4 11 5 9 6 5 7 4 8 2 9 1 10 3 11 10 12
REMARK H PARENT 10 13
REMARK Flexibility Score: inf
ROOT
ATOM      1  C   UNL     1      12.496 -12.872  28.285  1.00  0.00    -0.025 A 
ATOM      2  C   UNL     1      12.641 -12.465  29.623  1.00  0.00     0.012 A 
ATOM      3  C   UNL     1      11.373 -12.429  27.557  1.00  0.00     0.012 A 
ATOM      4  C   UNL     1      11.701 -11.616  30.213  1.00  0.00     0.047 A 
ATOM      5  C   UNL     1      10.435 -11.581  28.154  1.00  0.00     0.047 A 
ATOM      6  C   UNL     1      10.597 -11.170  29.482  1.00  0.00     0.115 A 
ENDROOT
BRANCH   1   7
ATOM      7  C   UNL     1      13.516 -13.782  27.706  1.00  0.00     0.010 C 
ATOM      8  C   UNL     1      14.375 -14.503  28.443  1.00  0.00     0.025 C 
BRANCH   8   9
ATOM      9  C   UNL     1      15.367 -15.405  27.835  1.00  0.00     0.064 C 
ATOM     10  O   UNL     1      15.985 -15.082  26.784  1.00  0.00    -0.545 OA
ATOM     11  O   UNL     1      15.630 -16.631  28.430  1.00  0.00    -0.545 OA
ENDBRANCH   8   9
ENDBRANCH   1   7
BRANCH   6  12
ATOM     12  O   UNL     1       9.669 -10.324  30.084  1.00  0.00    -0.508 OA
ATOM     13  H   UNL     1       9.606 -10.239  31.092  1.00  0.00     0.293 HD
ENDBRANCH   6  12
TORSDOF 3
ENDMDL
MODEL 3
REMARK VINA RESULT:    -6.084      1.424      5.813
REMARK INTER + INTRA:          -7.125
REMARK INTER:                  -6.989
REMARK INTRA:                  -0.136
REMARK UNBOUND:                -0.152
REMARK SMILES O=C([O-])C=Cc1ccc(O)cc1
REMARK SMILES IDX 6 1 7 2 12 3 8 4 11 5 9 6 5 7 4 8 2 9 1 10 3 11 10 12
REMARK H PARENT 10 13
REMARK Flexibility Score: inf
ROOT
ATOM      1  C   UNL     1      13.700 -12.927  28.972  1.00  0.00    -0.025 A 
ATOM      2  C   UNL     1      13.836 -13.542  27.715  1.00  0.00     0.012 A 
ATOM      3  C   UNL     1      14.344 -13.507  30.084  1.00  0.00     0.012 A 
ATOM      4  C   UNL     1      14.617 -14.692  27.565  1.00  0.00     0.047 A 
ATOM      5  C   UNL     1      15.122 -14.658  29.930  1.00  0.00     0.047 A 
ATOM      6  C   UNL     1      15.263 -15.252  28.670  1.00  0.00     0.115 A 
ENDROOT
BRANCH   1   7
ATOM      7  C   UNL     1      12.853 -11.713  29.080  1.00  0.00     0.010 C 
ATOM      8  C   UNL     1      11.658 -11.691  29.688  1.00  0.00     0.025 C 
BRANCH   8   9
ATOM      9  C   UNL     1      10.849 -10.465  29.787  1.00  0.00     0.064 C 
ATOM     10  O   UNL     1      11.351  -9.383  30.194  1.00  0.00    -0.545 OA
ATOM     11  O   UNL     1       9.510 -10.500  29.422  1.00  0.00    -0.545 OA
ENDBRANCH   8   9
ENDBRANCH   1   7
BRANCH   6  12
ATOM     12  O   UNL     1      16.037 -16.398  28.506  1.00  0.00    -0.508 OA
ATOM     13  H   UNL     1      16.624 -16.752  29.253  1.00  0.00     0.293 HD
ENDBRANCH   6  12
TORSDOF 3
ENDMDL
MODEL 4
REMARK VINA RESULT:    -6.073      1.365      5.679
REMARK INTER + INTRA:          -7.112
REMARK INTER:                  -6.970
REMARK INTRA:                  -0.142
REMARK UNBOUND:                -0.152
REMARK SMILES O=C([O-])C=Cc1ccc(O)cc1
REMARK SMILES IDX 6 1 7 2 12 3 8 4 11 5 9 6 5 7 4 8 2 9 1 10 3 11 10 12
REMARK H PARENT 10 13
REMARK Flexibility Score: inf
ROOT
ATOM      1  C   UNL     1      13.638 -13.043  28.710  1.00  0.00    -0.025 A 
ATOM      2  C   UNL     1      14.208 -13.562  29.886  1.00  0.00     0.012 A 
ATOM      3  C   UNL     1      13.937 -13.662  27.479  1.00  0.00     0.012 A 
ATOM      4  C   UNL     1      15.035 -14.688  29.838  1.00  0.00     0.047 A 
ATOM      5  C   UNL     1      14.767 -14.787  27.437  1.00  0.00     0.047 A 
ATOM      6  C   UNL     1      15.316 -15.304  28.617  1.00  0.00     0.115 A 
ENDROOT
BRANCH   1   7
ATOM      7  C   UNL     1      12.773 -11.841  28.812  1.00  0.00     0.010 C 
ATOM      8  C   UNL     1      11.754 -11.727  29.677  1.00  0.00     0.025 C 
BRANCH   8   9
ATOM      9  C   UNL     1      10.924 -10.515  29.758  1.00  0.00     0.064 C 
ATOM     10  O   UNL     1       9.709 -10.532  29.420  1.00  0.00    -0.545 OA
ATOM     11  O   UNL     1      11.487  -9.331  30.217  1.00  0.00    -0.545 OA
ENDBRANCH   8   9
ENDBRANCH   1   7
BRANCH   6  12
ATOM     12  O   UNL     1      16.143 -16.425  28.585  1.00  0.00    -0.508 OA
ATOM     13  H   UNL     1      16.017 -17.193  29.234  1.00  0.00     0.293 HD
ENDBRANCH   6  12
TORSDOF 3
ENDMDL
MODEL 5
REMARK VINA RESULT:    -5.929     11.534     14.138
REMARK INTER + INTRA:          -6.948
REMARK INTER:                  -6.814
REMARK INTRA:                  -0.134
REMARK UNBOUND:                -0.152
REMARK SMILES O=C([O-])C=Cc1ccc(O)cc1
REMARK SMILES IDX 6 1 7 2 12 3 8 4 11 5 9 6 5 7 4 8 2 9 1 10 3 11 10 12
REMARK H PARENT 10 13
REMARK Flexibility Score: inf
ROOT
ATOM      1  C   UNL     1      16.924  -0.821  26.156  1.00  0.00    -0.025 A 
ATOM      2  C   UNL     1      18.181  -0.791  25.528  1.00  0.00     0.012 A 
ATOM      3  C   UNL     1      16.665  -1.824  27.113  1.00  0.00     0.012 A 
ATOM      4  C   UNL     1      19.167  -1.723  25.865  1.00  0.00     0.047 A 
ATOM      5  C   UNL     1      17.655  -2.755  27.445  1.00  0.00     0.047 A 
ATOM      6  C   UNL     1      18.909  -2.705  26.824  1.00  0.00     0.115 A 
ENDROOT
BRANCH   1   7
ATOM      7  C   UNL     1      15.907   0.185  25.757  1.00  0.00     0.010 C 
ATOM      8  C   UNL     1      15.752   1.369  26.366  1.00  0.00     0.025 C 
BRANCH   8   9
ATOM      9  C   UNL     1      14.740   2.347  25.936  1.00  0.00     0.064 C 
ATOM     10  O   UNL     1      14.191   3.125  26.762  1.00  0.00    -0.545 OA
ATOM     11  O   UNL     1      14.385   2.417  24.596  1.00  0.00    -0.545 OA
ENDBRANCH   8   9
ENDBRANCH   1   7
BRANCH   6  12
ATOM     12  O   UNL     1      19.901  -3.627  27.150  1.00  0.00    -0.508 OA
ATOM     13  H   UNL     1      20.299  -3.669  28.081  1.00  0.00     0.293 HD
ENDBRANCH   6  12
TORSDOF 3
ENDMDL
MODEL 6
REMARK VINA RESULT:    -5.843     10.423     13.073
REMARK INTER + INTRA:          -6.849
REMARK INTER:                  -6.702
REMARK INTRA:                  -0.146
REMARK UNBOUND:                -0.152
REMARK SMILES O=C([O-])C=Cc1ccc(O)cc1
REMARK SMILES IDX 6 1 7 2 12 3 8 4 11 5 9 6 5 7 4 8 2 9 1 10 3 11 10 12
REMARK H PARENT 10 13
REMARK Flexibility Score: inf
ROOT
ATOM      1  C   UNL     1      16.419  -1.535  27.466  1.00  0.00    -0.025 A 
ATOM      2  C   UNL     1      15.934  -1.534  28.785  1.00  0.00     0.012 A 
ATOM      3  C   UNL     1      17.484  -2.398  27.134  1.00  0.00     0.012 A 
ATOM      4  C   UNL     1      16.480  -2.391  29.745  1.00  0.00     0.047 A 
ATOM      5  C   UNL     1      18.028  -3.252  28.098  1.00  0.00     0.047 A 
ATOM      6  C   UNL     1      17.526  -3.253  29.405  1.00  0.00     0.115 A 
ENDROOT
BRANCH   1   7
ATOM      7  C   UNL     1      15.812  -0.600  26.486  1.00  0.00     0.010 C 
ATOM      8  C   UNL     1      15.569   0.694  26.743  1.00  0.00     0.025 C 
BRANCH   8   9
ATOM      9  C   UNL     1      14.975   1.595  25.742  1.00  0.00     0.064 C 
ATOM     10  O   UNL     1      14.557   1.158  24.636  1.00  0.00    -0.545 OA
ATOM     11  O   UNL     1      14.870   2.951  26.022  1.00  0.00    -0.545 OA
ENDBRANCH   8   9
ENDBRANCH   1   7
BRANCH   6  12
ATOM     12  O   UNL     1      18.060  -4.101  30.372  1.00  0.00    -0.508 OA
ATOM     13  H   UNL     1      18.794  -4.764  30.147  1.00  0.00     0.293 HD
ENDBRANCH   6  12
TORSDOF 3
ENDMDL
MODEL 7
REMARK VINA RESULT:    -5.744     11.244     13.493
REMARK INTER + INTRA:          -6.735
REMARK INTER:                  -6.594
REMARK INTRA:                  -0.141
REMARK UNBOUND:                -0.152
REMARK SMILES O=C([O-])C=Cc1ccc(O)cc1
REMARK SMILES IDX 6 1 7 2 12 3 8 4 11 5 9 6 5 7 4 8 2 9 1 10 3 11 10 12
REMARK H PARENT 10 13
REMARK Flexibility Score: inf
ROOT
ATOM      1  C   UNL     1      17.578  -1.605  26.728  1.00  0.00    -0.025 A 
ATOM      2  C   UNL     1      18.864  -1.288  26.257  1.00  0.00     0.012 A 
ATOM      3  C   UNL     1      17.442  -2.592  27.725  1.00  0.00     0.012 A 
ATOM      4  C   UNL     1      19.991  -1.922  26.787  1.00  0.00     0.047 A 
ATOM      5  C   UNL     1      18.574  -3.224  28.251  1.00  0.00     0.047 A 
ATOM      6  C   UNL     1      19.851  -2.889  27.785  1.00  0.00     0.115 A 
ENDROOT
BRANCH   1   7
ATOM      7  C   UNL     1      16.412  -0.910  26.126  1.00  0.00     0.010 C 
ATOM      8  C   UNL     1      16.235   0.419  26.165  1.00  0.00     0.025 C 
BRANCH   8   9
ATOM      9  C   UNL     1      15.071   1.075  25.547  1.00  0.00     0.064 C 
ATOM     10  O   UNL     1      14.345   0.468  24.714  1.00  0.00    -0.545 OA
ATOM     11  O   UNL     1      14.765   2.385  25.890  1.00  0.00    -0.545 OA
ENDBRANCH   8   9
ENDBRANCH   1   7
BRANCH   6  12
ATOM     12  O   UNL     1      20.983  -3.513  28.304  1.00  0.00    -0.508 OA
ATOM     13  H   UNL     1      21.894  -3.070  28.268  1.00  0.00     0.293 HD
ENDBRANCH   6  12
TORSDOF 3
ENDMDL
MODEL 8
REMARK VINA RESULT:    -5.633     11.220     12.797
REMARK INTER + INTRA:          -6.608
REMARK INTER:                  -6.474
REMARK INTRA:                  -0.135
REMARK UNBOUND:                -0.152
REMARK SMILES O=C([O-])C=Cc1ccc(O)cc1
REMARK SMILES IDX 6 1 7 2 12 3 8 4 11 5 9 6 5 7 4 8 2 9 1 10 3 11 10 12
REMARK H PARENT 10 13
REMARK Flexibility Score: inf
ROOT
ATOM      1  C   UNL     1      16.078  -0.463  26.614  1.00  0.00    -0.025 A 
ATOM      2  C   UNL     1      16.020   0.617  27.512  1.00  0.00     0.012 A 
ATOM      3  C   UNL     1      15.453  -0.336  25.356  1.00  0.00     0.012 A 
ATOM      4  C   UNL     1      15.375   1.805  27.154  1.00  0.00     0.047 A 
ATOM      5  C   UNL     1      14.808   0.854  25.005  1.00  0.00     0.047 A 
ATOM      6  C   UNL     1      14.770   1.928  25.902  1.00  0.00     0.115 A 
ENDROOT
BRANCH   1   7
ATOM      7  C   UNL     1      16.766  -1.706  27.044  1.00  0.00     0.010 C 
ATOM      8  C   UNL     1      18.047  -1.985  26.761  1.00  0.00     0.025 C 
BRANCH   8   9
ATOM      9  C   UNL     1      18.700  -3.224  27.213  1.00  0.00     0.064 C 
ATOM     10  O   UNL     1      18.088  -4.326  27.202  1.00  0.00    -0.545 OA
ATOM     11  O   UNL     1      20.015  -3.179  27.658  1.00  0.00    -0.545 OA
ENDBRANCH   8   9
ENDBRANCH   1   7
BRANCH   6  12
ATOM     12  O   UNL     1      14.131   3.118  25.559  1.00  0.00    -0.508 OA
ATOM     13  H   UNL     1      14.516   4.019  25.820  1.00  0.00     0.293 HD
ENDBRANCH   6  12
TORSDOF 3
ENDMDL
MODEL 9
REMARK VINA RESULT:    -5.599     10.973     12.680
REMARK INTER + INTRA:          -6.569
REMARK INTER:                  -6.435
REMARK INTRA:                  -0.134
REMARK UNBOUND:                -0.152
REMARK SMILES O=C([O-])C=Cc1ccc(O)cc1
REMARK SMILES IDX 6 1 7 2 12 3 8 4 11 5 9 6 5 7 4 8 2 9 1 10 3 11 10 12
REMARK H PARENT 10 13
REMARK Flexibility Score: inf
ROOT
ATOM      1  C   UNL     1      15.770  -0.517  26.753  1.00  0.00    -0.025 A 
ATOM      2  C   UNL     1      15.241  -0.437  25.453  1.00  0.00     0.012 A 
ATOM      3  C   UNL     1      15.818   0.651  27.541  1.00  0.00     0.012 A 
ATOM      4  C   UNL     1      14.748   0.774  24.959  1.00  0.00     0.047 A 
ATOM      5  C   UNL     1      15.325   1.861  27.041  1.00  0.00     0.047 A 
ATOM      6  C   UNL     1      14.786   1.925  25.750  1.00  0.00     0.115 A 
ENDROOT
BRANCH   1   7
ATOM      7  C   UNL     1      16.290  -1.824  27.228  1.00  0.00     0.010 C 
ATOM      8  C   UNL     1      17.586  -2.166  27.197  1.00  0.00     0.025 C 
BRANCH   8   9
ATOM      9  C   UNL     1      18.067  -3.467  27.687  1.00  0.00     0.064 C 
ATOM     10  O   UNL     1      17.748  -4.541  27.109  1.00  0.00    -0.545 OA
ATOM     11  O   UNL     1      18.890  -3.514  28.805  1.00  0.00    -0.545 OA
ENDBRANCH   8   9
ENDBRANCH   1   7
BRANCH   6  12
ATOM     12  O   UNL     1      14.291   3.125  25.245  1.00  0.00    -0.508 OA
ATOM     13  H   UNL     1      14.299   3.324  24.251  1.00  0.00     0.293 HD
ENDBRANCH   6  12
TORSDOF 3
ENDMDL
