MODEL 1
REMARK VINA RESULT:    -7.052      0.000      0.000
REMARK INTER + INTRA:          -8.811
REMARK INTER:                  -8.495
REMARK INTRA:                  -0.316
REMARK UNBOUND:                -0.316
REMARK SMILES O=c1c(O)c(-c2ccc(O)c(O)c2)oc2cc(O)cc(O)c12
REMARK SMILES IDX 5 1 3 2 2 3 1 4 22 5 20 6 19 7 17 8 16 9 15 10 14 11 6 12
REMARK SMILES IDX 7 13 8 14 9 15 13 16 11 17 10 18 12 20 4 22 21 24 18 26
REMARK H PARENT 10 19 12 21 4 23 21 25 18 27
REMARK Flexibility Score: inf
ROOT
ATOM      1  C   UNL     1     -24.639 -18.978 -13.878  1.00  0.00     0.180 A 
ATOM      2  C   UNL     1     -25.272 -19.229 -12.647  1.00  0.00     0.208 A 
ATOM      3  C   UNL     1     -25.757 -20.520 -12.383  1.00  0.00     0.238 A 
ATOM      4  O   UNL     1     -26.274 -20.752 -11.258  1.00  0.00    -0.285 OA
ATOM      5  C   UNL     1     -25.620 -21.538 -13.356  1.00  0.00     0.111 A 
ATOM      6  C   UNL     1     -26.112 -22.870 -13.210  1.00  0.00     0.134 A 
ATOM      7  C   UNL     1     -25.804 -23.830 -14.183  1.00  0.00     0.093 A 
ATOM      8  C   UNL     1     -25.079 -23.489 -15.328  1.00  0.00     0.123 A 
ATOM      9  C   UNL     1     -24.647 -22.177 -15.507  1.00  0.00     0.094 A 
ATOM     10  C   UNL     1     -24.907 -21.206 -14.537  1.00  0.00     0.146 A 
ATOM     11  O   UNL     1     -24.468 -19.970 -14.743  1.00  0.00    -0.452 OA
ENDROOT
BRANCH   1  12
ATOM     12  C   UNL     1     -24.124 -17.638 -14.239  1.00  0.00     0.025 A 
ATOM     13  C   UNL     1     -24.975 -16.635 -14.734  1.00  0.00     0.016 A 
ATOM     14  C   UNL     1     -24.462 -15.386 -15.092  1.00  0.00     0.051 A 
ATOM     15  C   UNL     1     -23.090 -15.123 -14.971  1.00  0.00     0.157 A 
ATOM     16  C   UNL     1     -22.747 -17.377 -14.140  1.00  0.00     0.062 A 
ATOM     17  C   UNL     1     -22.230 -16.126 -14.496  1.00  0.00     0.158 A 
BRANCH  15  18
ATOM     18  O   UNL     1     -22.582 -13.875 -15.326  1.00  0.00    -0.504 OA
ATOM     19  H   UNL     1     -22.980 -13.337 -16.088  1.00  0.00     0.293 HD
ENDBRANCH  15  18
BRANCH  17  20
ATOM     20  O   UNL     1     -20.859 -15.900 -14.371  1.00  0.00    -0.504 OA
ATOM     21  H   UNL     1     -20.486 -14.999 -14.098  1.00  0.00     0.293 HD
ENDBRANCH  17  20
ENDBRANCH   1  12
BRANCH   2  22
ATOM     22  O   UNL     1     -25.377 -18.216 -11.691  1.00  0.00    -0.502 OA
ATOM     23  H   UNL     1     -26.069 -17.478 -11.754  1.00  0.00     0.293 HD
ENDBRANCH   2  22
BRANCH   6  24
ATOM     24  O   UNL     1     -26.922 -23.292 -12.152  1.00  0.00    -0.507 OA
ATOM     25  H   UNL     1     -27.491 -22.682 -11.586  1.00  0.00     0.293 HD
ENDBRANCH   6  24
BRANCH   8  26
ATOM     26  O   UNL     1     -24.792 -24.446 -16.299  1.00  0.00    -0.508 OA
ATOM     27  H   UNL     1     -25.528 -24.947 -16.782  1.00  0.00     0.293 HD
ENDBRANCH   8  26
TORSDOF 6
ENDMDL
MODEL 2
REMARK VINA RESULT:    -6.779      1.663      6.737
REMARK INTER + INTRA:          -8.482
REMARK INTER:                  -8.197
REMARK INTRA:                  -0.285
REMARK UNBOUND:                -0.316
REMARK SMILES O=c1c(O)c(-c2ccc(O)c(O)c2)oc2cc(O)cc(O)c12
REMARK SMILES IDX 5 1 3 2 2 3 1 4 22 5 20 6 19 7 17 8 16 9 15 10 14 11 6 12
REMARK SMILES IDX 7 13 8 14 9 15 13 16 11 17 10 18 12 20 4 22 21 24 18 26
REMARK H PARENT 10 19 12 21 4 23 21 25 18 27
REMARK Flexibility Score: inf
ROOT
ATOM      1  C   UNL     1     -24.278 -20.327 -13.715  1.00  0.00     0.180 A 
ATOM      2  C   UNL     1     -24.429 -19.813 -12.415  1.00  0.00     0.208 A 
ATOM      3  C   UNL     1     -24.285 -18.431 -12.210  1.00  0.00     0.238 A 
ATOM      4  O   UNL     1     -24.475 -17.969 -11.054  1.00  0.00    -0.285 OA
ATOM      5  C   UNL     1     -23.976 -17.584 -13.301  1.00  0.00     0.111 A 
ATOM      6  C   UNL     1     -23.767 -16.176 -13.200  1.00  0.00     0.134 A 
ATOM      7  C   UNL     1     -23.595 -15.418 -14.366  1.00  0.00     0.093 A 
ATOM      8  C   UNL     1     -23.559 -16.027 -15.622  1.00  0.00     0.123 A 
ATOM      9  C   UNL     1     -23.702 -17.409 -15.725  1.00  0.00     0.094 A 
ATOM     10  C   UNL     1     -23.911 -18.187 -14.584  1.00  0.00     0.146 A 
ATOM     11  O   UNL     1     -24.053 -19.499 -14.728  1.00  0.00    -0.452 OA
ENDROOT
BRANCH   1  12
ATOM     12  C   UNL     1     -24.391 -21.775 -14.006  1.00  0.00     0.025 A 
ATOM     13  C   UNL     1     -23.357 -22.669 -13.683  1.00  0.00     0.016 A 
ATOM     14  C   UNL     1     -23.476 -24.027 -13.990  1.00  0.00     0.051 A 
ATOM     15  C   UNL     1     -24.622 -24.509 -14.635  1.00  0.00     0.157 A 
ATOM     16  C   UNL     1     -25.530 -22.258 -14.673  1.00  0.00     0.062 A 
ATOM     17  C   UNL     1     -25.652 -23.618 -14.980  1.00  0.00     0.158 A 
BRANCH  15  18
ATOM     18  O   UNL     1     -24.739 -25.865 -14.938  1.00  0.00    -0.504 OA
ATOM     19  H   UNL     1     -25.578 -26.244 -15.360  1.00  0.00     0.293 HD
ENDBRANCH  15  18
BRANCH  17  20
ATOM     20  O   UNL     1     -26.804 -24.064 -15.629  1.00  0.00    -0.504 OA
ATOM     21  H   UNL     1     -26.961 -25.044 -15.830  1.00  0.00     0.293 HD
ENDBRANCH  17  20
ENDBRANCH   1  12
BRANCH   2  22
ATOM     22  O   UNL     1     -24.756 -20.662 -11.356  1.00  0.00    -0.502 OA
ATOM     23  H   UNL     1     -24.079 -20.950 -10.659  1.00  0.00     0.293 HD
ENDBRANCH   2  22
BRANCH   6  24
ATOM     24  O   UNL     1     -23.693 -15.483 -11.988  1.00  0.00    -0.507 OA
ATOM     25  H   UNL     1     -23.431 -14.514 -11.895  1.00  0.00     0.293 HD
ENDBRANCH   6  24
BRANCH   8  26
ATOM     26  O   UNL     1     -23.372 -15.268 -16.775  1.00  0.00    -0.508 OA
ATOM     27  H   UNL     1     -22.447 -14.985 -17.078  1.00  0.00     0.293 HD
ENDBRANCH   8  26
TORSDOF 6
ENDMDL
MODEL 3
REMARK VINA RESULT:    -6.296      1.955      7.047
REMARK INTER + INTRA:          -7.900
REMARK INTER:                  -8.063
REMARK INTRA:                   0.163
REMARK UNBOUND:                -0.316
REMARK SMILES O=c1c(O)c(-c2ccc(O)c(O)c2)oc2cc(O)cc(O)c12
REMARK SMILES IDX 5 1 3 2 2 3 1 4 22 5 20 6 19 7 17 8 16 9 15 10 14 11 6 12
REMARK SMILES IDX 7 13 8 14 9 15 13 16 11 17 10 18 12 20 4 22 21 24 18 26
REMARK H PARENT 10 19 12 21 4 23 21 25 18 27
REMARK Flexibility Score: inf
ROOT
ATOM      1  C   UNL     1     -24.205 -18.948 -14.364  1.00  0.00     0.180 A 
ATOM      2  C   UNL     1     -25.356 -18.270 -14.804  1.00  0.00     0.208 A 
ATOM      3  C   UNL     1     -25.304 -16.876 -14.965  1.00  0.00     0.238 A 
ATOM      4  O   UNL     1     -26.321 -16.282 -15.412  1.00  0.00    -0.285 OA
ATOM      5  C   UNL     1     -24.111 -16.176 -14.669  1.00  0.00     0.111 A 
ATOM      6  C   UNL     1     -23.959 -14.759 -14.758  1.00  0.00     0.134 A 
ATOM      7  C   UNL     1     -22.695 -14.187 -14.567  1.00  0.00     0.093 A 
ATOM      8  C   UNL     1     -21.592 -14.973 -14.226  1.00  0.00     0.123 A 
ATOM      9  C   UNL     1     -21.744 -16.350 -14.078  1.00  0.00     0.094 A 
ATOM     10  C   UNL     1     -22.983 -16.954 -14.298  1.00  0.00     0.146 A 
ATOM     11  O   UNL     1     -23.082 -18.270 -14.157  1.00  0.00    -0.452 OA
ENDROOT
BRANCH   1  12
ATOM     12  C   UNL     1     -24.189 -20.412 -14.146  1.00  0.00     0.025 A 
ATOM     13  C   UNL     1     -23.523 -20.982 -13.048  1.00  0.00     0.016 A 
ATOM     14  C   UNL     1     -23.501 -22.368 -12.876  1.00  0.00     0.051 A 
ATOM     15  C   UNL     1     -24.133 -23.206 -13.806  1.00  0.00     0.157 A 
ATOM     16  C   UNL     1     -24.803 -21.257 -15.087  1.00  0.00     0.062 A 
ATOM     17  C   UNL     1     -24.783 -22.646 -14.917  1.00  0.00     0.158 A 
BRANCH  15  18
ATOM     18  O   UNL     1     -24.111 -24.589 -13.631  1.00  0.00    -0.504 OA
ATOM     19  H   UNL     1     -23.258 -25.080 -13.385  1.00  0.00     0.293 HD
ENDBRANCH  15  18
BRANCH  17  20
ATOM     20  O   UNL     1     -25.415 -23.452 -15.864  1.00  0.00    -0.504 OA
ATOM     21  H   UNL     1     -25.911 -24.296 -15.606  1.00  0.00     0.293 HD
ENDBRANCH  17  20
ENDBRANCH   1  12
BRANCH   2  22
ATOM     22  O   UNL     1     -26.517 -18.983 -15.112  1.00  0.00    -0.502 OA
ATOM     23  H   UNL     1     -27.345 -18.538 -15.490  1.00  0.00     0.293 HD
ENDBRANCH   2  22
BRANCH   6  24
ATOM     24  O   UNL     1     -25.014 -13.875 -15.002  1.00  0.00    -0.507 OA
ATOM     25  H   UNL     1     -25.979 -14.053 -14.770  1.00  0.00     0.293 HD
ENDBRANCH   6  24
BRANCH   8  26
ATOM     26  O   UNL     1     -20.342 -14.394 -14.021  1.00  0.00    -0.508 OA
ATOM     27  H   UNL     1     -20.051 -13.567 -14.530  1.00  0.00     0.293 HD
ENDBRANCH   8  26
TORSDOF 6
ENDMDL
MODEL 4
REMARK VINA RESULT:    -6.010      1.891      2.136
REMARK INTER + INTRA:          -7.555
REMARK INTER:                  -7.637
REMARK INTRA:                   0.082
REMARK UNBOUND:                -0.316
REMARK SMILES O=c1c(O)c(-c2ccc(O)c(O)c2)oc2cc(O)cc(O)c12
REMARK SMILES IDX 5 1 3 2 2 3 1 4 22 5 20 6 19 7 17 8 16 9 15 10 14 11 6 12
REMARK SMILES IDX 7 13 8 14 9 15 13 16 11 17 10 18 12 20 4 22 21 24 18 26
REMARK H PARENT 10 19 12 21 4 23 21 25 18 27
REMARK Flexibility Score: inf
ROOT
ATOM      1  C   UNL     1     -24.478 -20.355 -13.994  1.00  0.00     0.180 A 
ATOM      2  C   UNL     1     -23.685 -20.846 -12.941  1.00  0.00     0.208 A 
ATOM      3  C   UNL     1     -23.666 -22.227 -12.691  1.00  0.00     0.238 A 
ATOM      4  O   UNL     1     -22.913 -22.666 -11.782  1.00  0.00    -0.285 OA
ATOM      5  C   UNL     1     -24.450 -23.099 -13.484  1.00  0.00     0.111 A 
ATOM      6  C   UNL     1     -24.538 -24.511 -13.293  1.00  0.00     0.134 A 
ATOM      7  C   UNL     1     -25.242 -25.290 -14.219  1.00  0.00     0.093 A 
ATOM      8  C   UNL     1     -25.916 -24.702 -15.292  1.00  0.00     0.123 A 
ATOM      9  C   UNL     1     -25.886 -23.318 -15.452  1.00  0.00     0.094 A 
ATOM     10  C   UNL     1     -25.162 -22.518 -14.566  1.00  0.00     0.146 A 
ATOM     11  O   UNL     1     -25.151 -21.205 -14.761  1.00  0.00    -0.452 OA
ENDROOT
BRANCH   1  12
ATOM     12  C   UNL     1     -24.570 -18.910 -14.302  1.00  0.00     0.025 A 
ATOM     13  C   UNL     1     -25.807 -18.290 -14.546  1.00  0.00     0.016 A 
ATOM     14  C   UNL     1     -25.867 -16.930 -14.859  1.00  0.00     0.051 A 
ATOM     15  C   UNL     1     -24.692 -16.172 -14.947  1.00  0.00     0.157 A 
ATOM     16  C   UNL     1     -23.393 -18.151 -14.412  1.00  0.00     0.062 A 
ATOM     17  C   UNL     1     -23.449 -16.788 -14.724  1.00  0.00     0.158 A 
BRANCH  15  18
ATOM     18  O   UNL     1     -24.755 -14.815 -15.257  1.00  0.00    -0.504 OA
ATOM     19  H   UNL     1     -25.638 -14.354 -15.446  1.00  0.00     0.293 HD
ENDBRANCH  15  18
BRANCH  17  20
ATOM     20  O   UNL     1     -22.260 -16.063 -14.811  1.00  0.00    -0.504 OA
ATOM     21  H   UNL     1     -21.422 -16.346 -14.318  1.00  0.00     0.293 HD
ENDBRANCH  17  20
ENDBRANCH   1  12
BRANCH   2  22
ATOM     22  O   UNL     1     -22.903 -19.971 -12.184  1.00  0.00    -0.502 OA
ATOM     23  H   UNL     1     -22.998 -18.964 -12.244  1.00  0.00     0.293 HD
ENDBRANCH   2  22
BRANCH   6  24
ATOM     24  O   UNL     1     -23.978 -25.187 -12.205  1.00  0.00    -0.507 OA
ATOM     25  H   UNL     1     -23.444 -26.039 -12.270  1.00  0.00     0.293 HD
ENDBRANCH   6  24
BRANCH   8  26
ATOM     26  O   UNL     1     -26.628 -25.483 -16.199  1.00  0.00    -0.508 OA
ATOM     27  H   UNL     1     -26.727 -25.210 -17.170  1.00  0.00     0.293 HD
ENDBRANCH   8  26
TORSDOF 6
ENDMDL
MODEL 5
REMARK VINA RESULT:    -5.812      1.681      7.127
REMARK INTER + INTRA:          -7.317
REMARK INTER:                  -7.265
REMARK INTRA:                  -0.052
REMARK UNBOUND:                -0.316
REMARK SMILES O=c1c(O)c(-c2ccc(O)c(O)c2)oc2cc(O)cc(O)c12
REMARK SMILES IDX 5 1 3 2 2 3 1 4 22 5 20 6 19 7 17 8 16 9 15 10 14 11 6 12
REMARK SMILES IDX 7 13 8 14 9 15 13 16 11 17 10 18 12 20 4 22 21 24 18 26
REMARK H PARENT 10 19 12 21 4 23 21 25 18 27
REMARK Flexibility Score: inf
ROOT
ATOM      1  C   UNL     1     -23.918 -19.116 -14.223  1.00  0.00     0.180 A 
ATOM      2  C   UNL     1     -22.574 -18.715 -14.120  1.00  0.00     0.208 A 
ATOM      3  C   UNL     1     -22.245 -17.373 -14.369  1.00  0.00     0.238 A 
ATOM      4  O   UNL     1     -21.049 -17.008 -14.222  1.00  0.00    -0.285 OA
ATOM      5  C   UNL     1     -23.257 -16.454 -14.732  1.00  0.00     0.111 A 
ATOM      6  C   UNL     1     -23.030 -15.080 -15.047  1.00  0.00     0.134 A 
ATOM      7  C   UNL     1     -24.123 -14.232 -15.266  1.00  0.00     0.093 A 
ATOM      8  C   UNL     1     -25.431 -14.723 -15.248  1.00  0.00     0.123 A 
ATOM      9  C   UNL     1     -25.658 -16.075 -15.001  1.00  0.00     0.094 A 
ATOM     10  C   UNL     1     -24.592 -16.937 -14.743  1.00  0.00     0.146 A 
ATOM     11  O   UNL     1     -24.854 -18.216 -14.502  1.00  0.00    -0.452 OA
ENDROOT
BRANCH   1  12
ATOM     12  C   UNL     1     -24.340 -20.518 -14.000  1.00  0.00     0.025 A 
ATOM     13  C   UNL     1     -24.038 -21.193 -12.805  1.00  0.00     0.016 A 
ATOM     14  C   UNL     1     -24.425 -22.524 -12.628  1.00  0.00     0.051 A 
ATOM     15  C   UNL     1     -25.108 -23.204 -13.646  1.00  0.00     0.157 A 
ATOM     16  C   UNL     1     -25.006 -21.210 -15.026  1.00  0.00     0.062 A 
ATOM     17  C   UNL     1     -25.396 -22.543 -14.851  1.00  0.00     0.158 A 
BRANCH  15  18
ATOM     18  O   UNL     1     -25.495 -24.530 -13.465  1.00  0.00    -0.504 OA
ATOM     19  H   UNL     1     -24.832 -25.293 -13.548  1.00  0.00     0.293 HD
ENDBRANCH  15  18
BRANCH  17  20
ATOM     20  O   UNL     1     -26.068 -23.193 -15.886  1.00  0.00    -0.504 OA
ATOM     21  H   UNL     1     -26.622 -24.025 -15.728  1.00  0.00     0.293 HD
ENDBRANCH  17  20
ENDBRANCH   1  12
BRANCH   2  22
ATOM     22  O   UNL     1     -21.594 -19.633 -13.738  1.00  0.00    -0.502 OA
ATOM     23  H   UNL     1     -21.714 -20.262 -12.952  1.00  0.00     0.293 HD
ENDBRANCH   2  22
BRANCH   6  24
ATOM     24  O   UNL     1     -21.761 -14.510 -15.181  1.00  0.00    -0.507 OA
ATOM     25  H   UNL     1     -21.070 -14.797 -15.856  1.00  0.00     0.293 HD
ENDBRANCH   6  24
BRANCH   8  26
ATOM     26  O   UNL     1     -26.512 -13.876 -15.483  1.00  0.00    -0.508 OA
ATOM     27  H   UNL     1     -26.858 -13.247 -14.768  1.00  0.00     0.293 HD
ENDBRANCH   8  26
TORSDOF 6
ENDMDL
MODEL 6
REMARK VINA RESULT:    -5.227      1.597      6.855
REMARK INTER + INTRA:          -6.612
REMARK INTER:                  -6.853
REMARK INTRA:                   0.242
REMARK UNBOUND:                -0.316
REMARK SMILES O=c1c(O)c(-c2ccc(O)c(O)c2)oc2cc(O)cc(O)c12
REMARK SMILES IDX 5 1 3 2 2 3 1 4 22 5 20 6 19 7 17 8 16 9 15 10 14 11 6 12
REMARK SMILES IDX 7 13 8 14 9 15 13 16 11 17 10 18 12 20 4 22 21 24 18 26
REMARK H PARENT 10 19 12 21 4 23 21 25 18 27
REMARK Flexibility Score: inf
ROOT
ATOM      1  C   UNL     1     -24.549 -18.645 -13.968  1.00  0.00     0.180 A 
ATOM      2  C   UNL     1     -23.970 -18.021 -12.848  1.00  0.00     0.208 A 
ATOM      3  C   UNL     1     -23.575 -16.677 -12.947  1.00  0.00     0.238 A 
ATOM      4  O   UNL     1     -23.108 -16.108 -11.925  1.00  0.00    -0.285 OA
ATOM      5  C   UNL     1     -23.748 -15.979 -14.166  1.00  0.00     0.111 A 
ATOM      6  C   UNL     1     -23.346 -14.627 -14.390  1.00  0.00     0.134 A 
ATOM      7  C   UNL     1     -23.685 -13.997 -15.594  1.00  0.00     0.093 A 
ATOM      8  C   UNL     1     -24.353 -14.690 -16.607  1.00  0.00     0.123 A 
ATOM      9  C   UNL     1     -24.695 -16.027 -16.420  1.00  0.00     0.094 A 
ATOM     10  C   UNL     1     -24.404 -16.672 -15.216  1.00  0.00     0.146 A 
ATOM     11  O   UNL     1     -24.757 -17.944 -15.076  1.00  0.00    -0.452 OA
ENDROOT
BRANCH   1  12
ATOM     12  C   UNL     1     -24.967 -20.065 -13.949  1.00  0.00     0.025 A 
ATOM     13  C   UNL     1     -25.463 -20.667 -12.780  1.00  0.00     0.016 A 
ATOM     14  C   UNL     1     -25.829 -22.015 -12.780  1.00  0.00     0.051 A 
ATOM     15  C   UNL     1     -25.692 -22.786 -13.943  1.00  0.00     0.157 A 
ATOM     16  C   UNL     1     -24.812 -20.846 -15.106  1.00  0.00     0.062 A 
ATOM     17  C   UNL     1     -25.178 -22.197 -15.110  1.00  0.00     0.158 A 
BRANCH  15  18
ATOM     18  O   UNL     1     -26.060 -24.130 -13.940  1.00  0.00    -0.504 OA
ATOM     19  H   UNL     1     -25.752 -24.763 -13.211  1.00  0.00     0.293 HD
ENDBRANCH  15  18
BRANCH  17  20
ATOM     20  O   UNL     1     -25.023 -22.937 -16.282  1.00  0.00    -0.504 OA
ATOM     21  H   UNL     1     -24.815 -22.499 -17.171  1.00  0.00     0.293 HD
ENDBRANCH  17  20
ENDBRANCH   1  12
BRANCH   2  22
ATOM     22  O   UNL     1     -23.830 -18.721 -11.648  1.00  0.00    -0.502 OA
ATOM     23  H   UNL     1     -23.987 -19.720 -11.579  1.00  0.00     0.293 HD
ENDBRANCH   2  22
BRANCH   6  24
ATOM     24  O   UNL     1     -22.597 -13.875 -13.480  1.00  0.00    -0.507 OA
ATOM     25  H   UNL     1     -22.012 -14.264 -12.757  1.00  0.00     0.293 HD
ENDBRANCH   6  24
BRANCH   8  26
ATOM     26  O   UNL     1     -24.671 -14.060 -17.808  1.00  0.00    -0.508 OA
ATOM     27  H   UNL     1     -24.928 -14.590 -18.632  1.00  0.00     0.293 HD
ENDBRANCH   8  26
TORSDOF 6
ENDMDL
