MODEL 1
REMARK VINA RESULT:    25.938      0.000      0.000
REMARK INTER + INTRA:          30.933
REMARK INTER:                  31.245
REMARK INTRA:                  -0.312
REMARK UNBOUND:                -0.312
REMARK SMILES O=c1c(O)c(-c2ccc(O)cc2O)oc2cc(O)cc(O)c12
REMARK SMILES IDX 5 1 3 2 2 3 1 4 22 5 20 6 19 7 17 8 16 9 15 10 14 11 6 12
REMARK SMILES IDX 8 13 7 14 9 15 11 16 12 17 10 18 13 20 4 22 21 24 18 26
REMARK H PARENT 10 19 13 21 4 23 21 25 18 27
REMARK Flexibility Score: inf
ROOT
ATOM      1  C   UNL     1      28.612 -13.881 -24.506  1.00  0.00     0.184 A 
ATOM      2  C   UNL     1      27.619 -13.140 -25.169  1.00  0.00     0.208 A 
ATOM      3  C   UNL     1      27.331 -11.839 -24.728  1.00  0.00     0.238 A 
ATOM      4  O   UNL     1      26.401 -11.202 -25.290  1.00  0.00    -0.285 OA
ATOM      5  C   UNL     1      28.054 -11.287 -23.643  1.00  0.00     0.111 A 
ATOM      6  C   UNL     1      27.873  -9.964 -23.138  1.00  0.00     0.134 A 
ATOM      7  C   UNL     1      28.553  -9.569 -21.979  1.00  0.00     0.093 A 
ATOM      8  C   UNL     1      29.455 -10.423 -21.345  1.00  0.00     0.123 A 
ATOM      9  C   UNL     1      29.683 -11.698 -21.865  1.00  0.00     0.094 A 
ATOM     10  C   UNL     1      28.992 -12.135 -22.999  1.00  0.00     0.146 A 
ATOM     11  O   UNL     1      29.230 -13.359 -23.453  1.00  0.00    -0.451 OA
ENDROOT
BRANCH   1  12
ATOM     12  C   UNL     1      28.982 -15.249 -24.934  1.00  0.00     0.063 A 
ATOM     13  C   UNL     1      29.745 -16.785 -26.662  1.00  0.00     0.047 A 
ATOM     14  C   UNL     1      29.369 -15.501 -26.263  1.00  0.00     0.020 A 
ATOM     15  C   UNL     1      29.751 -17.836 -25.736  1.00  0.00     0.119 A 
ATOM     16  C   UNL     1      29.381 -17.594 -24.410  1.00  0.00     0.093 A 
ATOM     17  C   UNL     1      29.000 -16.307 -24.002  1.00  0.00     0.130 A 
BRANCH  15  18
ATOM     18  O   UNL     1      30.124 -19.121 -26.123  1.00  0.00    -0.508 OA
ATOM     19  H   UNL     1      31.069 -19.331 -26.422  1.00  0.00     0.293 HD
ENDBRANCH  15  18
BRANCH  17  20
ATOM     20  O   UNL     1      28.626 -16.082 -22.676  1.00  0.00    -0.507 OA
ATOM     21  H   UNL     1      29.079 -16.563 -21.908  1.00  0.00     0.293 HD
ENDBRANCH  17  20
ENDBRANCH   1  12
BRANCH   2  22
ATOM     22  O   UNL     1      26.909 -13.711 -26.229  1.00  0.00    -0.502 OA
ATOM     23  H   UNL     1      27.367 -14.194 -26.992  1.00  0.00     0.293 HD
ENDBRANCH   2  22
BRANCH   6  24
ATOM     24  O   UNL     1      27.066  -8.999 -23.747  1.00  0.00    -0.507 OA
ATOM     25  H   UNL     1      26.936  -8.060 -23.407  1.00  0.00     0.293 HD
ENDBRANCH   6  24
BRANCH   8  26
ATOM     26  O   UNL     1      30.125  -9.991 -20.204  1.00  0.00    -0.508 OA
ATOM     27  H   UNL     1      31.135 -10.038 -20.131  1.00  0.00     0.293 HD
ENDBRANCH   8  26
TORSDOF 6
ENDMDL
