MODEL 1
REMARK VINA RESULT:    -6.706      0.000      0.000
REMARK INTER + INTRA:         -10.696
REMARK INTER:                  -9.843
REMARK INTRA:                  -0.854
REMARK UNBOUND:                -0.854
REMARK SMILES O=c1c(O[C@@H]2O[C@H](CO)[C@@H](O)[C@@H](O)[C@@H]2O)c(-c2ccc(O)c(O)c2)oc2cc(O)cc(O)c12
REMARK SMILES IDX 4 1 3 2 16 3 25 4 2 5 26 6 1 7 33 8 27 9 31 10 28 11 30 12
REMARK SMILES IDX 17 13 18 14 19 15 20 16 24 17 22 18 21 19 23 21 32 23 29 25
REMARK SMILES IDX 5 27 14 28 6 29 12 30 7 31 10 32 15 33 13 35 8 37 9 38 11 40
REMARK H PARENT 21 20 23 22 32 24 29 26 15 34 13 36 9 39 11 41
REMARK Flexibility Score: inf
ROOT
ATOM      1  O   UNL     1      11.696   1.521   0.705  1.00  0.00    -0.454 OA
ENDROOT
BRANCH   1   2
ATOM      2  C   UNL     1      13.070   1.721   0.409  1.00  0.00     0.214 A 
ATOM      3  C   UNL     1      14.037   2.185   1.323  1.00  0.00     0.180 A 
ATOM      4  O   UNL     1      15.274   2.455   0.889  1.00  0.00    -0.452 OA
ATOM      5  C   UNL     1      13.550   1.255  -0.832  1.00  0.00     0.239 A 
ATOM      6  C   UNL     1      15.736   2.058  -0.296  1.00  0.00     0.146 A 
ATOM      7  O   UNL     1      12.782   0.577  -1.542  1.00  0.00    -0.285 OA
ATOM      8  C   UNL     1      14.883   1.392  -1.201  1.00  0.00     0.111 A 
ATOM      9  C   UNL     1      17.105   2.164  -0.568  1.00  0.00     0.094 A 
ATOM     10  C   UNL     1      15.423   0.731  -2.318  1.00  0.00     0.134 A 
ATOM     11  C   UNL     1      17.645   1.489  -1.666  1.00  0.00     0.123 A 
ATOM     12  C   UNL     1      16.811   0.758  -2.525  1.00  0.00     0.093 A 
BRANCH   3  13
ATOM     13  C   UNL     1      13.897   1.917   2.769  1.00  0.00     0.025 A 
ATOM     14  C   UNL     1      13.127   0.868   3.313  1.00  0.00     0.016 A 
ATOM     15  C   UNL     1      13.470   0.312   4.558  1.00  0.00     0.051 A 
ATOM     16  C   UNL     1      14.657   0.731   5.209  1.00  0.00     0.157 A 
ATOM     17  C   UNL     1      14.901   2.504   3.573  1.00  0.00     0.062 A 
ATOM     18  C   UNL     1      15.363   1.833   4.714  1.00  0.00     0.158 A 
BRANCH  16  19
ATOM     19  O   UNL     1      15.168   0.007   6.300  1.00  0.00    -0.504 OA
ATOM     20  H   UNL     1      15.838  -0.748   6.151  1.00  0.00     0.293 HD
ENDBRANCH  16  19
BRANCH  18  21
ATOM     21  O   UNL     1      16.554   2.240   5.326  1.00  0.00    -0.504 OA
ATOM     22  H   UNL     1      16.735   3.225   5.534  1.00  0.00     0.293 HD
ENDBRANCH  18  21
ENDBRANCH   3  13
BRANCH  10  23
ATOM     23  O   UNL     1      14.614   0.010  -3.195  1.00  0.00    -0.507 OA
ATOM     24  H   UNL     1      14.902  -0.187  -4.142  1.00  0.00     0.293 HD
ENDBRANCH  10  23
BRANCH  11  25
ATOM     25  O   UNL     1      19.019   1.552  -1.885  1.00  0.00    -0.508 OA
ATOM     26  H   UNL     1      19.542   0.719  -2.079  1.00  0.00     0.293 HD
ENDBRANCH  11  25
ENDBRANCH   1   2
BRANCH   1  27
ATOM     27  C   UNL     1      10.731   2.490   1.191  1.00  0.00     0.339 C 
ATOM     28  C   UNL     1      10.779   3.902   0.541  1.00  0.00     0.214 C 
ATOM     29  O   UNL     1       9.409   1.934   1.141  1.00  0.00    -0.332 OA
ATOM     30  C   UNL     1      10.280   3.894  -0.904  1.00  0.00     0.180 C 
ATOM     31  C   UNL     1       8.889   1.819  -0.179  1.00  0.00     0.179 C 
ATOM     32  C   UNL     1       8.918   3.165  -0.981  1.00  0.00     0.177 C 
BRANCH  28  33
ATOM     33  O   UNL     1      12.045   4.507   0.678  1.00  0.00    -0.384 OA
ATOM     34  H   UNL     1      12.339   4.429   1.613  1.00  0.00     0.211 HD
ENDBRANCH  28  33
BRANCH  30  35
ATOM     35  O   UNL     1      10.158   5.220  -1.381  1.00  0.00    -0.387 OA
ATOM     36  H   UNL     1       9.929   5.782  -0.583  1.00  0.00     0.211 HD
ENDBRANCH  30  35
BRANCH  31  37
ATOM     37  C   UNL     1       9.461   0.613  -0.956  1.00  0.00     0.191 C 
BRANCH  37  38
ATOM     38  O   UNL     1      10.114   1.042  -2.126  1.00  0.00    -0.394 OA
ATOM     39  H   UNL     1      10.580   0.249  -2.519  1.00  0.00     0.210 HD
ENDBRANCH  37  38
ENDBRANCH  31  37
BRANCH  32  40
ATOM     40  O   UNL     1       7.886   3.996  -0.503  1.00  0.00    -0.387 OA
ATOM     41  H   UNL     1       8.231   4.929  -0.511  1.00  0.00     0.211 HD
ENDBRANCH  32  40
ENDBRANCH   1  27
TORSDOF 12
ENDMDL
MODEL 2
REMARK VINA RESULT:    -6.056      2.577      5.838
REMARK INTER + INTRA:          -9.742
REMARK INTER:                  -8.944
REMARK INTRA:                  -0.798
REMARK UNBOUND:                -0.854
REMARK SMILES O=c1c(O[C@@H]2O[C@H](CO)[C@@H](O)[C@@H](O)[C@@H]2O)c(-c2ccc(O)c(O)c2)oc2cc(O)cc(O)c12
REMARK SMILES IDX 4 1 3 2 16 3 25 4 2 5 26 6 1 7 33 8 27 9 31 10 28 11 30 12
REMARK SMILES IDX 17 13 18 14 19 15 20 16 24 17 22 18 21 19 23 21 32 23 29 25
REMARK SMILES IDX 5 27 14 28 6 29 12 30 7 31 10 32 15 33 13 35 8 37 9 38 11 40
REMARK H PARENT 21 20 23 22 32 24 29 26 15 34 13 36 9 39 11 41
REMARK Flexibility Score: inf
ROOT
ATOM      1  O   UNL     1      12.929   1.094   1.087  1.00  0.00    -0.454 OA
ENDROOT
BRANCH   1   2
ATOM      2  C   UNL     1      12.303   0.524   2.227  1.00  0.00     0.214 A 
ATOM      3  C   UNL     1      12.980   0.003   3.349  1.00  0.00     0.180 A 
ATOM      4  O   UNL     1      12.283  -0.624   4.303  1.00  0.00    -0.452 OA
ATOM      5  C   UNL     1      10.903   0.646   2.339  1.00  0.00     0.239 A 
ATOM      6  C   UNL     1      10.956  -0.555   4.404  1.00  0.00     0.146 A 
ATOM      7  O   UNL     1      10.307   1.358   1.507  1.00  0.00    -0.285 OA
ATOM      8  C   UNL     1      10.206   0.134   3.427  1.00  0.00     0.111 A 
ATOM      9  C   UNL     1      10.331  -1.029   5.564  1.00  0.00     0.094 A 
ATOM     10  C   UNL     1       8.858   0.448   3.669  1.00  0.00     0.134 A 
ATOM     11  C   UNL     1       8.997  -0.699   5.814  1.00  0.00     0.123 A 
ATOM     12  C   UNL     1       8.270   0.055   4.881  1.00  0.00     0.093 A 
BRANCH   3  13
ATOM     13  C   UNL     1      14.299   0.537   3.748  1.00  0.00     0.025 A 
ATOM     14  C   UNL     1      14.554   1.894   4.034  1.00  0.00     0.016 A 
ATOM     15  C   UNL     1      15.584   2.247   4.922  1.00  0.00     0.051 A 
ATOM     16  C   UNL     1      16.287   1.232   5.619  1.00  0.00     0.157 A 
ATOM     17  C   UNL     1      15.201  -0.436   4.234  1.00  0.00     0.062 A 
ATOM     18  C   UNL     1      16.095  -0.107   5.263  1.00  0.00     0.158 A 
BRANCH  16  19
ATOM     19  O   UNL     1      17.117   1.553   6.706  1.00  0.00    -0.504 OA
ATOM     20  H   UNL     1      17.034   2.458   7.170  1.00  0.00     0.293 HD
ENDBRANCH  16  19
BRANCH  18  21
ATOM     21  O   UNL     1      16.758  -1.124   5.960  1.00  0.00    -0.504 OA
ATOM     22  H   UNL     1      16.890  -2.051   5.550  1.00  0.00     0.293 HD
ENDBRANCH  18  21
ENDBRANCH   3  13
BRANCH  10  23
ATOM     23  O   UNL     1       8.109   1.183   2.751  1.00  0.00    -0.507 OA
ATOM     24  H   UNL     1       7.944   2.171   2.872  1.00  0.00     0.293 HD
ENDBRANCH  10  23
BRANCH  11  25
ATOM     25  O   UNL     1       8.410  -1.125   7.004  1.00  0.00    -0.508 OA
ATOM     26  H   UNL     1       7.414  -1.101   7.116  1.00  0.00     0.293 HD
ENDBRANCH  11  25
ENDBRANCH   1   2
BRANCH   1  27
ATOM     27  C   UNL     1      13.124   2.498   0.777  1.00  0.00     0.339 C 
ATOM     28  C   UNL     1      14.511   2.895   0.198  1.00  0.00     0.214 C 
ATOM     29  O   UNL     1      12.053   2.970  -0.054  1.00  0.00    -0.332 OA
ATOM     30  C   UNL     1      14.711   2.388  -1.230  1.00  0.00     0.180 C 
ATOM     31  C   UNL     1      12.116   2.487  -1.392  1.00  0.00     0.179 C 
ATOM     32  C   UNL     1      13.487   2.773  -2.095  1.00  0.00     0.177 C 
BRANCH  28  33
ATOM     33  O   UNL     1      15.568   2.533   1.057  1.00  0.00    -0.384 OA
ATOM     34  H   UNL     1      15.210   1.998   1.800  1.00  0.00     0.211 HD
ENDBRANCH  28  33
BRANCH  30  35
ATOM     35  O   UNL     1      15.894   2.937  -1.778  1.00  0.00    -0.387 OA
ATOM     36  H   UNL     1      16.060   3.791  -1.278  1.00  0.00     0.211 HD
ENDBRANCH  30  35
BRANCH  31  37
ATOM     37  C   UNL     1      11.629   1.028  -1.537  1.00  0.00     0.191 C 
BRANCH  37  38
ATOM     38  O   UNL     1      10.596   0.943  -2.489  1.00  0.00    -0.394 OA
ATOM     39  H   UNL     1      10.562  -0.003  -2.811  1.00  0.00     0.210 HD
ENDBRANCH  37  38
ENDBRANCH  31  37
BRANCH  32  40
ATOM     40  O   UNL     1      13.539   4.137  -2.444  1.00  0.00    -0.387 OA
ATOM     41  H   UNL     1      13.398   4.660  -1.610  1.00  0.00     0.211 HD
ENDBRANCH  32  40
ENDBRANCH   1  27
TORSDOF 12
ENDMDL
MODEL 3
REMARK VINA RESULT:    -5.975      2.085      5.576
REMARK INTER + INTRA:          -9.624
REMARK INTER:                  -8.599
REMARK INTRA:                  -1.024
REMARK UNBOUND:                -0.854
REMARK SMILES O=c1c(O[C@@H]2O[C@H](CO)[C@@H](O)[C@@H](O)[C@@H]2O)c(-c2ccc(O)c(O)c2)oc2cc(O)cc(O)c12
REMARK SMILES IDX 4 1 3 2 16 3 25 4 2 5 26 6 1 7 33 8 27 9 31 10 28 11 30 12
REMARK SMILES IDX 17 13 18 14 19 15 20 16 24 17 22 18 21 19 23 21 32 23 29 25
REMARK SMILES IDX 5 27 14 28 6 29 12 30 7 31 10 32 15 33 13 35 8 37 9 38 11 40
REMARK H PARENT 21 20 23 22 32 24 29 26 15 34 13 36 9 39 11 41
REMARK Flexibility Score: inf
ROOT
ATOM      1  O   UNL     1      11.279   0.356   1.841  1.00  0.00    -0.454 OA
ENDROOT
BRANCH   1   2
ATOM      2  C   UNL     1      12.415   0.200   2.678  1.00  0.00     0.214 A 
ATOM      3  C   UNL     1      13.721   0.625   2.360  1.00  0.00     0.180 A 
ATOM      4  O   UNL     1      14.731   0.305   3.176  1.00  0.00    -0.452 OA
ATOM      5  C   UNL     1      12.203  -0.245   3.999  1.00  0.00     0.239 A 
ATOM      6  C   UNL     1      14.554  -0.155   4.415  1.00  0.00     0.146 A 
ATOM      7  O   UNL     1      11.027  -0.349   4.403  1.00  0.00    -0.285 OA
ATOM      8  C   UNL     1      13.252  -0.412   4.894  1.00  0.00     0.111 A 
ATOM      9  C   UNL     1      15.650  -0.227   5.283  1.00  0.00     0.094 A 
ATOM     10  C   UNL     1      13.039  -0.624   6.267  1.00  0.00     0.134 A 
ATOM     11  C   UNL     1      15.437  -0.418   6.650  1.00  0.00     0.123 A 
ATOM     12  C   UNL     1      14.136  -0.594   7.143  1.00  0.00     0.093 A 
BRANCH   3  13
ATOM     13  C   UNL     1      13.941   1.784   1.472  1.00  0.00     0.025 A 
ATOM     14  C   UNL     1      13.888   3.129   1.892  1.00  0.00     0.016 A 
ATOM     15  C   UNL     1      14.635   4.110   1.217  1.00  0.00     0.051 A 
ATOM     16  C   UNL     1      15.531   3.725   0.188  1.00  0.00     0.157 A 
ATOM     17  C   UNL     1      14.616   1.480   0.268  1.00  0.00     0.062 A 
ATOM     18  C   UNL     1      15.509   2.408  -0.285  1.00  0.00     0.158 A 
BRANCH  16  19
ATOM     19  O   UNL     1      16.484   4.629  -0.307  1.00  0.00    -0.504 OA
ATOM     20  H   UNL     1      16.192   5.450  -0.838  1.00  0.00     0.293 HD
ENDBRANCH  16  19
BRANCH  18  21
ATOM     21  O   UNL     1      16.408   2.002  -1.279  1.00  0.00    -0.504 OA
ATOM     22  H   UNL     1      16.503   2.522  -2.154  1.00  0.00     0.293 HD
ENDBRANCH  18  21
ENDBRANCH   3  13
BRANCH  10  23
ATOM     23  O   UNL     1      11.757  -0.817   6.781  1.00  0.00    -0.507 OA
ATOM     24  H   UNL     1      11.497  -0.479   7.695  1.00  0.00     0.293 HD
ENDBRANCH  10  23
BRANCH  11  25
ATOM     25  O   UNL     1      16.535  -0.423   7.508  1.00  0.00    -0.508 OA
ATOM     26  H   UNL     1      17.467  -0.399   7.141  1.00  0.00     0.293 HD
ENDBRANCH  11  25
ENDBRANCH   1   2
BRANCH   1  27
ATOM     27  C   UNL     1      10.972   1.449   0.938  1.00  0.00     0.339 C 
ATOM     28  C   UNL     1      10.715   1.070  -0.548  1.00  0.00     0.214 C 
ATOM     29  O   UNL     1       9.900   2.240   1.471  1.00  0.00    -0.332 OA
ATOM     30  C   UNL     1       9.390   0.332  -0.738  1.00  0.00     0.180 C 
ATOM     31  C   UNL     1       8.631   1.598   1.403  1.00  0.00     0.179 C 
ATOM     32  C   UNL     1       8.253   1.113  -0.037  1.00  0.00     0.177 C 
BRANCH  28  33
ATOM     33  O   UNL     1      11.807   0.386  -1.118  1.00  0.00    -0.384 OA
ATOM     34  H   UNL     1      11.759  -0.563  -0.866  1.00  0.00     0.211 HD
ENDBRANCH  28  33
BRANCH  30  35
ATOM     35  O   UNL     1       9.110   0.185  -2.117  1.00  0.00    -0.387 OA
ATOM     36  H   UNL     1       8.786  -0.757  -2.236  1.00  0.00     0.211 HD
ENDBRANCH  30  35
BRANCH  31  37
ATOM     37  C   UNL     1       8.429   0.529   2.499  1.00  0.00     0.191 C 
BRANCH  37  38
ATOM     38  O   UNL     1       8.274   1.133   3.760  1.00  0.00    -0.394 OA
ATOM     39  H   UNL     1       8.953   0.729   4.373  1.00  0.00     0.210 HD
ENDBRANCH  37  38
ENDBRANCH  31  37
BRANCH  32  40
ATOM     40  O   UNL     1       7.877   2.232  -0.806  1.00  0.00    -0.387 OA
ATOM     41  H   UNL     1       7.097   1.961  -1.360  1.00  0.00     0.211 HD
ENDBRANCH  32  40
ENDBRANCH   1  27
TORSDOF 12
ENDMDL
MODEL 4
REMARK VINA RESULT:    -5.906      1.669      6.664
REMARK INTER + INTRA:          -9.522
REMARK INTER:                  -8.381
REMARK INTRA:                  -1.141
REMARK UNBOUND:                -0.854
REMARK SMILES O=c1c(O[C@@H]2O[C@H](CO)[C@@H](O)[C@@H](O)[C@@H]2O)c(-c2ccc(O)c(O)c2)oc2cc(O)cc(O)c12
REMARK SMILES IDX 4 1 3 2 16 3 25 4 2 5 26 6 1 7 33 8 27 9 31 10 28 11 30 12
REMARK SMILES IDX 17 13 18 14 19 15 20 16 24 17 22 18 21 19 23 21 32 23 29 25
REMARK SMILES IDX 5 27 14 28 6 29 12 30 7 31 10 32 15 33 13 35 8 37 9 38 11 40
REMARK H PARENT 21 20 23 22 32 24 29 26 15 34 13 36 9 39 11 41
REMARK Flexibility Score: inf
ROOT
ATOM      1  O   UNL     1      12.369   0.968   2.610  1.00  0.00    -0.454 OA
ENDROOT
BRANCH   1   2
ATOM      2  C   UNL     1      11.993   1.884   1.592  1.00  0.00     0.214 A 
ATOM      3  C   UNL     1      12.791   2.238   0.485  1.00  0.00     0.180 A 
ATOM      4  O   UNL     1      12.378   3.210  -0.336  1.00  0.00    -0.452 OA
ATOM      5  C   UNL     1      10.660   2.343   1.579  1.00  0.00     0.239 A 
ATOM      6  C   UNL     1      11.133   3.687  -0.340  1.00  0.00     0.146 A 
ATOM      7  O   UNL     1       9.851   1.821   2.372  1.00  0.00    -0.285 OA
ATOM      8  C   UNL     1      10.198   3.228   0.613  1.00  0.00     0.111 A 
ATOM      9  C   UNL     1      10.719   4.518  -1.387  1.00  0.00     0.094 A 
ATOM     10  C   UNL     1       8.831   3.507   0.445  1.00  0.00     0.134 A 
ATOM     11  C   UNL     1       9.358   4.779  -1.566  1.00  0.00     0.123 A 
ATOM     12  C   UNL     1       8.416   4.258  -0.666  1.00  0.00     0.093 A 
BRANCH   3  13
ATOM     13  C   UNL     1      13.771   1.284  -0.074  1.00  0.00     0.025 A 
ATOM     14  C   UNL     1      13.427   0.089  -0.739  1.00  0.00     0.016 A 
ATOM     15  C   UNL     1      14.288  -0.451  -1.710  1.00  0.00     0.051 A 
ATOM     16  C   UNL     1      15.444   0.270  -2.101  1.00  0.00     0.157 A 
ATOM     17  C   UNL     1      15.061   1.824  -0.279  1.00  0.00     0.062 A 
ATOM     18  C   UNL     1      15.827   1.403  -1.375  1.00  0.00     0.158 A 
BRANCH  16  19
ATOM     19  O   UNL     1      16.163  -0.100  -3.249  1.00  0.00    -0.504 OA
ATOM     20  H   UNL     1      15.981  -0.993  -3.709  1.00  0.00     0.293 HD
ENDBRANCH  16  19
BRANCH  18  21
ATOM     21  O   UNL     1      16.948   2.144  -1.766  1.00  0.00    -0.504 OA
ATOM     22  H   UNL     1      17.077   2.442  -2.736  1.00  0.00     0.293 HD
ENDBRANCH  18  21
ENDBRANCH   3  13
BRANCH  10  23
ATOM     23  O   UNL     1       7.875   3.014   1.333  1.00  0.00    -0.507 OA
ATOM     24  H   UNL     1       6.959   3.430   1.410  1.00  0.00     0.293 HD
ENDBRANCH  10  23
BRANCH  11  25
ATOM     25  O   UNL     1       8.959   5.556  -2.651  1.00  0.00    -0.508 OA
ATOM     26  H   UNL     1       9.593   5.738  -3.406  1.00  0.00     0.293 HD
ENDBRANCH  11  25
ENDBRANCH   1   2
BRANCH   1  27
ATOM     27  C   UNL     1      13.678   0.396   2.864  1.00  0.00     0.339 C 
ATOM     28  C   UNL     1      14.648   1.242   3.736  1.00  0.00     0.214 C 
ATOM     29  O   UNL     1      13.539  -0.938   3.377  1.00  0.00    -0.332 OA
ATOM     30  C   UNL     1      14.213   1.299   5.200  1.00  0.00     0.180 C 
ATOM     31  C   UNL     1      13.065  -0.985   4.719  1.00  0.00     0.179 C 
ATOM     32  C   UNL     1      13.923  -0.131   5.713  1.00  0.00     0.177 C 
BRANCH  28  33
ATOM     33  O   UNL     1      14.879   2.519   3.186  1.00  0.00    -0.384 OA
ATOM     34  H   UNL     1      14.015   2.941   2.980  1.00  0.00     0.211 HD
ENDBRANCH  28  33
BRANCH  30  35
ATOM     35  O   UNL     1      15.222   1.909   5.982  1.00  0.00    -0.387 OA
ATOM     36  H   UNL     1      16.058   1.379   5.817  1.00  0.00     0.211 HD
ENDBRANCH  30  35
BRANCH  31  37
ATOM     37  C   UNL     1      11.544  -0.747   4.837  1.00  0.00     0.191 C 
BRANCH  37  38
ATOM     38  O   UNL     1      10.895  -1.077   3.633  1.00  0.00    -0.394 OA
ATOM     39  H   UNL     1      10.057  -0.533   3.583  1.00  0.00     0.210 HD
ENDBRANCH  37  38
ENDBRANCH  31  37
BRANCH  32  40
ATOM     40  O   UNL     1      15.126  -0.815   5.973  1.00  0.00    -0.387 OA
ATOM     41  H   UNL     1      14.922  -1.789   5.960  1.00  0.00     0.211 HD
ENDBRANCH  32  40
ENDBRANCH   1  27
TORSDOF 12
ENDMDL
MODEL 5
REMARK VINA RESULT:    -5.887      2.233      5.659
REMARK INTER + INTRA:          -9.494
REMARK INTER:                  -8.814
REMARK INTRA:                  -0.680
REMARK UNBOUND:                -0.854
REMARK SMILES O=c1c(O[C@@H]2O[C@H](CO)[C@@H](O)[C@@H](O)[C@@H]2O)c(-c2ccc(O)c(O)c2)oc2cc(O)cc(O)c12
REMARK SMILES IDX 4 1 3 2 16 3 25 4 2 5 26 6 1 7 33 8 27 9 31 10 28 11 30 12
REMARK SMILES IDX 17 13 18 14 19 15 20 16 24 17 22 18 21 19 23 21 32 23 29 25
REMARK SMILES IDX 5 27 14 28 6 29 12 30 7 31 10 32 15 33 13 35 8 37 9 38 11 40
REMARK H PARENT 21 20 23 22 32 24 29 26 15 34 13 36 9 39 11 41
REMARK Flexibility Score: inf
ROOT
ATOM      1  O   UNL     1      11.945   0.776   1.183  1.00  0.00    -0.454 OA
ENDROOT
BRANCH   1   2
ATOM      2  C   UNL     1      12.982   0.722   2.151  1.00  0.00     0.214 A 
ATOM      3  C   UNL     1      14.263   1.291   1.998  1.00  0.00     0.180 A 
ATOM      4  O   UNL     1      15.197   1.062   2.929  1.00  0.00    -0.452 OA
ATOM      5  C   UNL     1      12.663   0.225   3.430  1.00  0.00     0.239 A 
ATOM      6  C   UNL     1      14.924   0.556   4.131  1.00  0.00     0.146 A 
ATOM      7  O   UNL     1      11.466  -0.013   3.687  1.00  0.00    -0.285 OA
ATOM      8  C   UNL     1      13.609   0.150   4.446  1.00  0.00     0.111 A 
ATOM      9  C   UNL     1      15.908   0.581   5.126  1.00  0.00     0.094 A 
ATOM     10  C   UNL     1      13.257  -0.117   5.780  1.00  0.00     0.134 A 
ATOM     11  C   UNL     1      15.554   0.336   6.455  1.00  0.00     0.123 A 
ATOM     12  C   UNL     1      14.231   0.009   6.784  1.00  0.00     0.093 A 
BRANCH   3  13
ATOM     13  C   UNL     1      14.461   2.489   1.157  1.00  0.00     0.025 A 
ATOM     14  C   UNL     1      15.643   2.773   0.443  1.00  0.00     0.016 A 
ATOM     15  C   UNL     1      15.591   3.543  -0.732  1.00  0.00     0.051 A 
ATOM     16  C   UNL     1      14.335   3.935  -1.258  1.00  0.00     0.157 A 
ATOM     17  C   UNL     1      13.265   3.133   0.765  1.00  0.00     0.062 A 
ATOM     18  C   UNL     1      13.177   3.732  -0.499  1.00  0.00     0.158 A 
BRANCH  16  19
ATOM     19  O   UNL     1      14.234   4.456  -2.559  1.00  0.00    -0.504 OA
ATOM     20  H   UNL     1      14.640   3.955  -3.349  1.00  0.00     0.293 HD
ENDBRANCH  16  19
BRANCH  18  21
ATOM     21  O   UNL     1      11.924   4.084  -1.016  1.00  0.00    -0.504 OA
ATOM     22  H   UNL     1      11.134   4.290  -0.401  1.00  0.00     0.293 HD
ENDBRANCH  18  21
ENDBRANCH   3  13
BRANCH  10  23
ATOM     23  O   UNL     1      11.951  -0.458   6.132  1.00  0.00    -0.507 OA
ATOM     24  H   UNL     1      11.468  -1.226   5.692  1.00  0.00     0.293 HD
ENDBRANCH  10  23
BRANCH  11  25
ATOM     25  O   UNL     1      16.535   0.427   7.440  1.00  0.00    -0.508 OA
ATOM     26  H   UNL     1      17.502   0.301   7.208  1.00  0.00     0.293 HD
ENDBRANCH  11  25
ENDBRANCH   1   2
BRANCH   1  27
ATOM     27  C   UNL     1      10.913  -0.209   0.917  1.00  0.00     0.339 C 
ATOM     28  C   UNL     1       9.463   0.331   0.757  1.00  0.00     0.214 C 
ATOM     29  O   UNL     1      11.293  -1.029  -0.198  1.00  0.00    -0.332 OA
ATOM     30  C   UNL     1       9.275   1.113  -0.543  1.00  0.00     0.180 C 
ATOM     31  C   UNL     1      11.219  -0.358  -1.451  1.00  0.00     0.179 C 
ATOM     32  C   UNL     1       9.818   0.286  -1.732  1.00  0.00     0.177 C 
BRANCH  28  33
ATOM     33  O   UNL     1       9.036   1.049   1.892  1.00  0.00    -0.384 OA
ATOM     34  H   UNL     1       8.798   1.964   1.623  1.00  0.00     0.211 HD
ENDBRANCH  28  33
BRANCH  30  35
ATOM     35  O   UNL     1       7.905   1.411  -0.735  1.00  0.00    -0.387 OA
ATOM     36  H   UNL     1       7.440   0.527  -0.830  1.00  0.00     0.211 HD
ENDBRANCH  30  35
BRANCH  31  37
ATOM     37  C   UNL     1      12.409   0.594  -1.704  1.00  0.00     0.191 C 
BRANCH  37  38
ATOM     38  O   UNL     1      12.113   1.492  -2.746  1.00  0.00    -0.394 OA
ATOM     39  H   UNL     1      11.356   1.103  -3.272  1.00  0.00     0.210 HD
ENDBRANCH  37  38
ENDBRANCH  31  37
BRANCH  32  40
ATOM     40  O   UNL     1       8.913  -0.738  -2.076  1.00  0.00    -0.387 OA
ATOM     41  H   UNL     1       8.172  -0.711  -1.413  1.00  0.00     0.211 HD
ENDBRANCH  32  40
ENDBRANCH   1  27
TORSDOF 12
ENDMDL
MODEL 6
REMARK VINA RESULT:    -5.829      1.760      5.156
REMARK INTER + INTRA:          -9.409
REMARK INTER:                  -8.769
REMARK INTRA:                  -0.640
REMARK UNBOUND:                -0.854
REMARK SMILES O=c1c(O[C@@H]2O[C@H](CO)[C@@H](O)[C@@H](O)[C@@H]2O)c(-c2ccc(O)c(O)c2)oc2cc(O)cc(O)c12
REMARK SMILES IDX 4 1 3 2 16 3 25 4 2 5 26 6 1 7 33 8 27 9 31 10 28 11 30 12
REMARK SMILES IDX 17 13 18 14 19 15 20 16 24 17 22 18 21 19 23 21 32 23 29 25
REMARK SMILES IDX 5 27 14 28 6 29 12 30 7 31 10 32 15 33 13 35 8 37 9 38 11 40
REMARK H PARENT 21 20 23 22 32 24 29 26 15 34 13 36 9 39 11 41
REMARK Flexibility Score: inf
ROOT
ATOM      1  O   UNL     1      11.170   0.682   1.200  1.00  0.00    -0.454 OA
ENDROOT
BRANCH   1   2
ATOM      2  C   UNL     1      12.215   0.449   2.132  1.00  0.00     0.214 A 
ATOM      3  C   UNL     1      13.562   0.826   1.952  1.00  0.00     0.180 A 
ATOM      4  O   UNL     1      14.477   0.437   2.847  1.00  0.00    -0.452 OA
ATOM      5  C   UNL     1      11.862  -0.030   3.410  1.00  0.00     0.239 A 
ATOM      6  C   UNL     1      14.166  -0.056   4.046  1.00  0.00     0.146 A 
ATOM      7  O   UNL     1      10.651  -0.096   3.699  1.00  0.00    -0.285 OA
ATOM      8  C   UNL     1      12.815  -0.271   4.393  1.00  0.00     0.111 A 
ATOM      9  C   UNL     1      15.171  -0.204   5.008  1.00  0.00     0.094 A 
ATOM     10  C   UNL     1      12.465  -0.519   5.731  1.00  0.00     0.134 A 
ATOM     11  C   UNL     1      14.822  -0.430   6.342  1.00  0.00     0.123 A 
ATOM     12  C   UNL     1      13.474  -0.565   6.706  1.00  0.00     0.093 A 
BRANCH   3  13
ATOM     13  C   UNL     1      13.911   2.004   1.132  1.00  0.00     0.025 A 
ATOM     14  C   UNL     1      13.953   3.328   1.617  1.00  0.00     0.016 A 
ATOM     15  C   UNL     1      14.804   4.272   1.019  1.00  0.00     0.051 A 
ATOM     16  C   UNL     1      15.704   3.862   0.003  1.00  0.00     0.157 A 
ATOM     17  C   UNL     1      14.605   1.701  -0.061  1.00  0.00     0.062 A 
ATOM     18  C   UNL     1      15.592   2.575  -0.536  1.00  0.00     0.158 A 
BRANCH  16  19
ATOM     19  O   UNL     1      16.747   4.705  -0.413  1.00  0.00    -0.504 OA
ATOM     20  H   UNL     1      17.667   4.321  -0.630  1.00  0.00     0.293 HD
ENDBRANCH  16  19
BRANCH  18  21
ATOM     21  O   UNL     1      16.492   2.142  -1.518  1.00  0.00    -0.504 OA
ATOM     22  H   UNL     1      16.477   1.181  -1.866  1.00  0.00     0.293 HD
ENDBRANCH  18  21
ENDBRANCH   3  13
BRANCH  10  23
ATOM     23  O   UNL     1      11.134  -0.673   6.117  1.00  0.00    -0.507 OA
ATOM     24  H   UNL     1      10.424  -0.008   5.848  1.00  0.00     0.293 HD
ENDBRANCH  10  23
BRANCH  11  25
ATOM     25  O   UNL     1      15.833  -0.510   7.298  1.00  0.00    -0.508 OA
ATOM     26  H   UNL     1      15.893  -1.303   7.908  1.00  0.00     0.293 HD
ENDBRANCH  11  25
ENDBRANCH   1   2
BRANCH   1  27
ATOM     27  C   UNL     1       9.977   1.490   1.370  1.00  0.00     0.339 C 
ATOM     28  C   UNL     1      10.157   3.029   1.236  1.00  0.00     0.214 C 
ATOM     29  O   UNL     1       8.931   1.006   0.515  1.00  0.00    -0.332 OA
ATOM     30  C   UNL     1      10.434   3.457  -0.205  1.00  0.00     0.180 C 
ATOM     31  C   UNL     1       9.142   1.297  -0.863  1.00  0.00     0.179 C 
ATOM     32  C   UNL     1       9.388   2.818  -1.149  1.00  0.00     0.177 C 
BRANCH  28  33
ATOM     33  O   UNL     1      11.105   3.533   2.148  1.00  0.00    -0.384 OA
ATOM     34  H   UNL     1      11.769   2.834   2.341  1.00  0.00     0.211 HD
ENDBRANCH  28  33
BRANCH  30  35
ATOM     35  O   UNL     1      10.393   4.868  -0.306  1.00  0.00    -0.387 OA
ATOM     36  H   UNL     1       9.822   5.072  -1.105  1.00  0.00     0.211 HD
ENDBRANCH  30  35
BRANCH  31  37
ATOM     37  C   UNL     1      10.169   0.359  -1.534  1.00  0.00     0.191 C 
BRANCH  37  38
ATOM     38  O   UNL     1      10.855   1.029  -2.563  1.00  0.00    -0.394 OA
ATOM     39  H   UNL     1      10.171   1.470  -3.144  1.00  0.00     0.210 HD
ENDBRANCH  37  38
ENDBRANCH  31  37
BRANCH  32  40
ATOM     40  O   UNL     1       8.159   3.499  -1.056  1.00  0.00    -0.387 OA
ATOM     41  H   UNL     1       7.520   2.894  -0.593  1.00  0.00     0.211 HD
ENDBRANCH  32  40
ENDBRANCH   1  27
TORSDOF 12
ENDMDL
MODEL 7
REMARK VINA RESULT:    -5.594      1.159      2.278
REMARK INTER + INTRA:          -9.064
REMARK INTER:                  -8.670
REMARK INTRA:                  -0.394
REMARK UNBOUND:                -0.854
REMARK SMILES O=c1c(O[C@@H]2O[C@H](CO)[C@@H](O)[C@@H](O)[C@@H]2O)c(-c2ccc(O)c(O)c2)oc2cc(O)cc(O)c12
REMARK SMILES IDX 4 1 3 2 16 3 25 4 2 5 26 6 1 7 33 8 27 9 31 10 28 11 30 12
REMARK SMILES IDX 17 13 18 14 19 15 20 16 24 17 22 18 21 19 23 21 32 23 29 25
REMARK SMILES IDX 5 27 14 28 6 29 12 30 7 31 10 32 15 33 13 35 8 37 9 38 11 40
REMARK H PARENT 21 20 23 22 32 24 29 26 15 34 13 36 9 39 11 41
REMARK Flexibility Score: inf
ROOT
ATOM      1  O   UNL     1      12.113   1.405   0.897  1.00  0.00    -0.454 OA
ENDROOT
BRANCH   1   2
ATOM      2  C   UNL     1      13.468   1.642   0.543  1.00  0.00     0.214 A 
ATOM      3  C   UNL     1      14.454   2.155   1.410  1.00  0.00     0.180 A 
ATOM      4  O   UNL     1      15.663   2.456   0.922  1.00  0.00    -0.452 OA
ATOM      5  C   UNL     1      13.914   1.167  -0.707  1.00  0.00     0.239 A 
ATOM      6  C   UNL     1      16.092   2.050  -0.273  1.00  0.00     0.146 A 
ATOM      7  O   UNL     1      13.141   0.451  -1.373  1.00  0.00    -0.285 OA
ATOM      8  C   UNL     1      15.226   1.339  -1.131  1.00  0.00     0.111 A 
ATOM      9  C   UNL     1      17.445   2.194  -0.601  1.00  0.00     0.094 A 
ATOM     10  C   UNL     1      15.744   0.673  -2.255  1.00  0.00     0.134 A 
ATOM     11  C   UNL     1      17.964   1.515  -1.707  1.00  0.00     0.123 A 
ATOM     12  C   UNL     1      17.121   0.741  -2.518  1.00  0.00     0.093 A 
BRANCH   3  13
ATOM     13  C   UNL     1      14.380   1.912   2.865  1.00  0.00     0.025 A 
ATOM     14  C   UNL     1      13.813   0.760   3.451  1.00  0.00     0.016 A 
ATOM     15  C   UNL     1      14.262   0.313   4.705  1.00  0.00     0.051 A 
ATOM     16  C   UNL     1      15.363   0.955   5.326  1.00  0.00     0.157 A 
ATOM     17  C   UNL     1      15.272   2.691   3.635  1.00  0.00     0.062 A 
ATOM     18  C   UNL     1      15.858   2.148   4.787  1.00  0.00     0.158 A 
BRANCH  16  19
ATOM     19  O   UNL     1      16.006   0.367   6.428  1.00  0.00    -0.504 OA
ATOM     20  H   UNL     1      15.786  -0.590   6.705  1.00  0.00     0.293 HD
ENDBRANCH  16  19
BRANCH  18  21
ATOM     21  O   UNL     1      16.964   2.778   5.369  1.00  0.00    -0.504 OA
ATOM     22  H   UNL     1      17.916   2.450   5.192  1.00  0.00     0.293 HD
ENDBRANCH  18  21
ENDBRANCH   3  13
BRANCH  10  23
ATOM     23  O   UNL     1      14.925  -0.091  -3.087  1.00  0.00    -0.507 OA
ATOM     24  H   UNL     1      15.174  -1.030  -3.357  1.00  0.00     0.293 HD
ENDBRANCH  10  23
BRANCH  11  25
ATOM     25  O   UNL     1      19.326   1.617  -1.981  1.00  0.00    -0.508 OA
ATOM     26  H   UNL     1      19.845   2.423  -1.686  1.00  0.00     0.293 HD
ENDBRANCH  11  25
ENDBRANCH   1   2
BRANCH   1  27
ATOM     27  C   UNL     1      10.919   1.700   0.127  1.00  0.00     0.339 C 
ATOM     28  C   UNL     1       9.563   1.286   0.766  1.00  0.00     0.214 C 
ATOM     29  O   UNL     1      10.916   3.080  -0.264  1.00  0.00    -0.332 OA
ATOM     30  C   UNL     1       9.196   2.158   1.966  1.00  0.00     0.180 C 
ATOM     31  C   UNL     1      10.655   3.976   0.811  1.00  0.00     0.179 C 
ATOM     32  C   UNL     1       9.333   3.652   1.587  1.00  0.00     0.177 C 
BRANCH  28  33
ATOM     33  O   UNL     1       9.511  -0.092   1.056  1.00  0.00    -0.384 OA
ATOM     34  H   UNL     1      10.056  -0.580   0.399  1.00  0.00     0.211 HD
ENDBRANCH  28  33
BRANCH  30  35
ATOM     35  O   UNL     1       7.875   1.875   2.386  1.00  0.00    -0.387 OA
ATOM     36  H   UNL     1       7.277   2.464   1.837  1.00  0.00     0.211 HD
ENDBRANCH  30  35
BRANCH  31  37
ATOM     37  C   UNL     1      11.878   4.205   1.725  1.00  0.00     0.191 C 
BRANCH  37  38
ATOM     38  O   UNL     1      12.688   5.239   1.220  1.00  0.00    -0.394 OA
ATOM     39  H   UNL     1      12.158   6.085   1.263  1.00  0.00     0.210 HD
ENDBRANCH  37  38
ENDBRANCH  31  37
BRANCH  32  40
ATOM     40  O   UNL     1       8.237   4.063   0.802  1.00  0.00    -0.387 OA
ATOM     41  H   UNL     1       7.806   4.826   1.273  1.00  0.00     0.211 HD
ENDBRANCH  32  40
ENDBRANCH   1  27
TORSDOF 12
ENDMDL
MODEL 8
REMARK VINA RESULT:    -4.917      2.629      6.272
REMARK INTER + INTRA:          -8.070
REMARK INTER:                  -7.229
REMARK INTRA:                  -0.841
REMARK UNBOUND:                -0.854
REMARK SMILES O=c1c(O[C@@H]2O[C@H](CO)[C@@H](O)[C@@H](O)[C@@H]2O)c(-c2ccc(O)c(O)c2)oc2cc(O)cc(O)c12
REMARK SMILES IDX 4 1 3 2 16 3 25 4 2 5 26 6 1 7 33 8 27 9 31 10 28 11 30 12
REMARK SMILES IDX 17 13 18 14 19 15 20 16 24 17 22 18 21 19 23 21 32 23 29 25
REMARK SMILES IDX 5 27 14 28 6 29 12 30 7 31 10 32 15 33 13 35 8 37 9 38 11 40
REMARK H PARENT 21 20 23 22 32 24 29 26 15 34 13 36 9 39 11 41
REMARK Flexibility Score: inf
ROOT
ATOM      1  O   UNL     1      13.425   0.683   3.352  1.00  0.00    -0.454 OA
ENDROOT
BRANCH   1   2
ATOM      2  C   UNL     1      13.271   1.010   1.979  1.00  0.00     0.214 A 
ATOM      3  C   UNL     1      12.307   0.449   1.116  1.00  0.00     0.180 A 
ATOM      4  O   UNL     1      12.346   0.744  -0.189  1.00  0.00    -0.452 OA
ATOM      5  C   UNL     1      14.007   2.102   1.476  1.00  0.00     0.239 A 
ATOM      6  C   UNL     1      13.066   1.747  -0.692  1.00  0.00     0.146 A 
ATOM      7  O   UNL     1      14.646   2.802   2.285  1.00  0.00    -0.285 OA
ATOM      8  C   UNL     1      13.908   2.505   0.150  1.00  0.00     0.111 A 
ATOM      9  C   UNL     1      12.858   2.141  -2.019  1.00  0.00     0.094 A 
ATOM     10  C   UNL     1      14.446   3.720  -0.306  1.00  0.00     0.134 A 
ATOM     11  C   UNL     1      13.376   3.360  -2.466  1.00  0.00     0.123 A 
ATOM     12  C   UNL     1      14.148   4.156  -1.607  1.00  0.00     0.093 A 
BRANCH   3  13
ATOM     13  C   UNL     1      11.010  -0.024   1.640  1.00  0.00     0.025 A 
ATOM     14  C   UNL     1      10.863  -1.078   2.566  1.00  0.00     0.016 A 
ATOM     15  C   UNL     1       9.758  -1.105   3.434  1.00  0.00     0.051 A 
ATOM     16  C   UNL     1       8.856  -0.012   3.456  1.00  0.00     0.157 A 
ATOM     17  C   UNL     1       9.947   0.895   1.489  1.00  0.00     0.062 A 
ATOM     18  C   UNL     1       8.954   0.981   2.474  1.00  0.00     0.158 A 
BRANCH  16  19
ATOM     19  O   UNL     1       7.916   0.121   4.491  1.00  0.00    -0.504 OA
ATOM     20  H   UNL     1       7.935  -0.512   5.291  1.00  0.00     0.293 HD
ENDBRANCH  16  19
BRANCH  18  21
ATOM     21  O   UNL     1       8.091   2.084   2.499  1.00  0.00    -0.504 OA
ATOM     22  H   UNL     1       7.870   2.566   3.373  1.00  0.00     0.293 HD
ENDBRANCH  18  21
ENDBRANCH   3  13
BRANCH  10  23
ATOM     23  O   UNL     1      15.229   4.524   0.522  1.00  0.00    -0.507 OA
ATOM     24  H   UNL     1      15.830   4.129   1.229  1.00  0.00     0.293 HD
ENDBRANCH  10  23
BRANCH  11  25
ATOM     25  O   UNL     1      13.106   3.767  -3.770  1.00  0.00    -0.508 OA
ATOM     26  H   UNL     1      12.213   4.157  -4.007  1.00  0.00     0.293 HD
ENDBRANCH  11  25
ENDBRANCH   1   2
BRANCH   1  27
ATOM     27  C   UNL     1      14.510  -0.041   3.987  1.00  0.00     0.339 C 
ATOM     28  C   UNL     1      15.528   0.807   4.801  1.00  0.00     0.214 C 
ATOM     29  O   UNL     1      13.985  -1.125   4.768  1.00  0.00    -0.332 OA
ATOM     30  C   UNL     1      14.925   1.353   6.095  1.00  0.00     0.180 C 
ATOM     31  C   UNL     1      13.337  -0.703   5.963  1.00  0.00     0.179 C 
ATOM     32  C   UNL     1      14.232   0.208   6.871  1.00  0.00     0.177 C 
BRANCH  28  33
ATOM     33  O   UNL     1      16.132   1.808   4.016  1.00  0.00    -0.384 OA
ATOM     34  H   UNL     1      15.431   2.358   3.600  1.00  0.00     0.211 HD
ENDBRANCH  28  33
BRANCH  30  35
ATOM     35  O   UNL     1      15.936   1.945   6.888  1.00  0.00    -0.387 OA
ATOM     36  H   UNL     1      15.644   2.891   7.048  1.00  0.00     0.211 HD
ENDBRANCH  30  35
BRANCH  31  37
ATOM     37  C   UNL     1      11.916  -0.147   5.722  1.00  0.00     0.191 C 
BRANCH  37  38
ATOM     38  O   UNL     1      11.003  -0.705   6.636  1.00  0.00    -0.394 OA
ATOM     39  H   UNL     1      11.458  -1.475   7.083  1.00  0.00     0.210 HD
ENDBRANCH  37  38
ENDBRANCH  31  37
BRANCH  32  40
ATOM     40  O   UNL     1      15.188  -0.600   7.517  1.00  0.00    -0.387 OA
ATOM     41  H   UNL     1      15.354  -1.387   6.932  1.00  0.00     0.211 HD
ENDBRANCH  32  40
ENDBRANCH   1  27
TORSDOF 12
ENDMDL
