MODEL 1
REMARK VINA RESULT:    -4.331      0.000      0.000
REMARK INTER + INTRA:          -4.782
REMARK INTER:                  -4.585
REMARK INTRA:                  -0.197
REMARK UNBOUND:                -0.197
REMARK SMILES CC1=CC[C@@H](C(C)C)C=C1
REMARK SMILES IDX 1 1 2 2 3 3 4 4 5 5 9 6 10 7 6 8 7 9 8 10
REMARK H PARENT
REMARK Flexibility Score: inf
ROOT
ATOM      1  C   UNL     1     162.085 168.673 199.343  1.00  0.00     0.044 C 
ATOM      2  C   UNL     1     163.553 168.929 199.520  1.00  0.00    -0.055 C 
ATOM      3  C   UNL     1     164.029 169.360 200.697  1.00  0.00    -0.023 C 
ATOM      4  C   UNL     1     165.514 169.486 200.928  1.00  0.00     0.035 C 
ATOM      5  C   UNL     1     166.253 169.895 199.628  1.00  0.00     0.018 C 
ATOM      6  C   UNL     1     165.768 169.020 198.485  1.00  0.00    -0.023 C 
ATOM      7  C   UNL     1     164.492 168.627 198.418  1.00  0.00    -0.001 C 
ENDROOT
BRANCH   5   8
ATOM      8  C   UNL     1     167.808 169.843 199.767  1.00  0.00    -0.010 C 
ATOM      9  C   UNL     1     168.251 168.633 200.611  1.00  0.00     0.008 C 
ATOM     10  C   UNL     1     168.521 169.777 198.404  1.00  0.00     0.008 C 
ENDBRANCH   5   8
TORSDOF 1
ENDMDL
MODEL 2
REMARK VINA RESULT:    -4.329      6.093      7.698
REMARK INTER + INTRA:          -4.779
REMARK INTER:                  -4.582
REMARK INTRA:                  -0.198
REMARK UNBOUND:                -0.197
REMARK SMILES CC1=CC[C@@H](C(C)C)C=C1
REMARK SMILES IDX 1 1 2 2 3 3 4 4 5 5 9 6 10 7 6 8 7 9 8 10
REMARK H PARENT
REMARK Flexibility Score: inf
ROOT
ATOM      1  C   UNL     1     169.921 163.321 199.292  1.00  0.00     0.044 C 
ATOM      2  C   UNL     1     168.454 163.075 199.486  1.00  0.00    -0.055 C 
ATOM      3  C   UNL     1     167.991 162.631 200.663  1.00  0.00    -0.023 C 
ATOM      4  C   UNL     1     166.509 162.514 200.914  1.00  0.00     0.035 C 
ATOM      5  C   UNL     1     165.748 162.130 199.619  1.00  0.00     0.018 C 
ATOM      6  C   UNL     1     166.223 163.017 198.482  1.00  0.00    -0.023 C 
ATOM      7  C   UNL     1     167.502 163.401 198.403  1.00  0.00    -0.001 C 
ENDROOT
BRANCH   5   8
ATOM      8  C   UNL     1     164.195 162.193 199.781  1.00  0.00    -0.010 C 
ATOM      9  C   UNL     1     163.776 163.381 200.668  1.00  0.00     0.008 C 
ATOM     10  C   UNL     1     163.465 162.308 198.431  1.00  0.00     0.008 C 
ENDBRANCH   5   8
TORSDOF 1
ENDMDL
MODEL 3
REMARK VINA RESULT:    -4.272      1.057      4.454
REMARK INTER + INTRA:          -4.719
REMARK INTER:                  -4.519
REMARK INTRA:                  -0.199
REMARK UNBOUND:                -0.197
REMARK SMILES CC1=CC[C@@H](C(C)C)C=C1
REMARK SMILES IDX 1 1 2 2 3 3 4 4 5 5 9 6 10 7 6 8 7 9 8 10
REMARK H PARENT
REMARK Flexibility Score: inf
ROOT
ATOM      1  C   UNL     1     169.859 168.529 198.031  1.00  0.00     0.044 C 
ATOM      2  C   UNL     1     168.480 168.880 198.505  1.00  0.00    -0.055 C 
ATOM      3  C   UNL     1     167.507 169.150 197.622  1.00  0.00    -0.023 C 
ATOM      4  C   UNL     1     166.088 169.367 198.080  1.00  0.00     0.035 C 
ATOM      5  C   UNL     1     166.044 170.050 199.471  1.00  0.00     0.018 C 
ATOM      6  C   UNL     1     167.008 169.338 200.405  1.00  0.00    -0.023 C 
ATOM      7  C   UNL     1     168.166 168.850 199.949  1.00  0.00    -0.001 C 
ENDROOT
BRANCH   5   8
ATOM      8  C   UNL     1     164.605 170.113 200.076  1.00  0.00    -0.010 C 
ATOM      9  C   UNL     1     163.628 169.226 199.282  1.00  0.00     0.008 C 
ATOM     10  C   UNL     1     164.566 169.683 201.554  1.00  0.00     0.008 C 
ENDBRANCH   5   8
TORSDOF 1
ENDMDL
MODEL 4
REMARK VINA RESULT:    -4.251      6.375      6.913
REMARK INTER + INTRA:          -4.697
REMARK INTER:                  -4.497
REMARK INTRA:                  -0.200
REMARK UNBOUND:                -0.197
REMARK SMILES CC1=CC[C@@H](C(C)C)C=C1
REMARK SMILES IDX 1 1 2 2 3 3 4 4 5 5 9 6 10 7 6 8 7 9 8 10
REMARK H PARENT
REMARK Flexibility Score: inf
ROOT
ATOM      1  C   UNL     1     162.113 163.392 198.027  1.00  0.00     0.044 C 
ATOM      2  C   UNL     1     163.501 163.071 198.497  1.00  0.00    -0.055 C 
ATOM      3  C   UNL     1     164.470 162.793 197.612  1.00  0.00    -0.023 C 
ATOM      4  C   UNL     1     165.896 162.606 198.064  1.00  0.00     0.035 C 
ATOM      5  C   UNL     1     165.961 161.958 199.471  1.00  0.00     0.018 C 
ATOM      6  C   UNL     1     164.996 162.680 200.395  1.00  0.00    -0.023 C 
ATOM      7  C   UNL     1     163.827 163.141 199.937  1.00  0.00    -0.001 C 
ENDROOT
BRANCH   5   8
ATOM      8  C   UNL     1     167.406 161.930 200.064  1.00  0.00    -0.010 C 
ATOM      9  C   UNL     1     168.368 162.793 199.228  1.00  0.00     0.008 C 
ATOM     10  C   UNL     1     167.454 162.415 201.524  1.00  0.00     0.008 C 
ENDBRANCH   5   8
TORSDOF 1
ENDMDL
MODEL 5
REMARK VINA RESULT:    -4.231      6.435      7.651
REMARK INTER + INTRA:          -4.676
REMARK INTER:                  -4.477
REMARK INTRA:                  -0.198
REMARK UNBOUND:                -0.197
REMARK SMILES CC1=CC[C@@H](C(C)C)C=C1
REMARK SMILES IDX 1 1 2 2 3 3 4 4 5 5 9 6 10 7 6 8 7 9 8 10
REMARK H PARENT
REMARK Flexibility Score: inf
ROOT
ATOM      1  C   UNL     1     167.351 162.543 202.734  1.00  0.00     0.044 C 
ATOM      2  C   UNL     1     166.379 162.573 201.591  1.00  0.00    -0.055 C 
ATOM      3  C   UNL     1     165.155 163.094 201.756  1.00  0.00    -0.023 C 
ATOM      4  C   UNL     1     164.221 163.256 200.584  1.00  0.00     0.035 C 
ATOM      5  C   UNL     1     164.416 162.119 199.548  1.00  0.00     0.018 C 
ATOM      6  C   UNL     1     165.900 161.944 199.276  1.00  0.00    -0.023 C 
ATOM      7  C   UNL     1     166.798 162.102 200.254  1.00  0.00    -0.001 C 
ENDROOT
BRANCH   5   8
ATOM      8  C   UNL     1     163.617 162.353 198.226  1.00  0.00    -0.010 C 
ATOM      9  C   UNL     1     162.739 163.615 198.322  1.00  0.00     0.008 C 
ATOM     10  C   UNL     1     164.535 162.488 196.997  1.00  0.00     0.008 C 
ENDBRANCH   5   8
TORSDOF 1
ENDMDL
MODEL 6
REMARK VINA RESULT:    -4.209      6.380      6.991
REMARK INTER + INTRA:          -4.652
REMARK INTER:                  -4.502
REMARK INTRA:                  -0.151
REMARK UNBOUND:                -0.197
REMARK SMILES CC1=CC[C@@H](C(C)C)C=C1
REMARK SMILES IDX 1 1 2 2 3 3 4 4 5 5 9 6 10 7 6 8 7 9 8 10
REMARK H PARENT
REMARK Flexibility Score: inf
ROOT
ATOM      1  C   UNL     1     163.361 162.413 198.517  1.00  0.00     0.044 C 
ATOM      2  C   UNL     1     164.481 162.466 199.513  1.00  0.00    -0.055 C 
ATOM      3  C   UNL     1     164.286 163.005 200.725  1.00  0.00    -0.023 C 
ATOM      4  C   UNL     1     165.360 162.939 201.781  1.00  0.00     0.035 C 
ATOM      5  C   UNL     1     166.774 163.012 201.150  1.00  0.00     0.018 C 
ATOM      6  C   UNL     1     166.846 162.047 199.979  1.00  0.00    -0.023 C 
ATOM      7  C   UNL     1     165.785 161.848 199.191  1.00  0.00    -0.001 C 
ENDROOT
BRANCH   5   8
ATOM      8  C   UNL     1     167.917 162.745 202.181  1.00  0.00    -0.010 C 
ATOM      9  C   UNL     1     168.458 164.063 202.767  1.00  0.00     0.008 C 
ATOM     10  C   UNL     1     167.466 161.841 203.343  1.00  0.00     0.008 C 
ENDBRANCH   5   8
TORSDOF 1
ENDMDL
MODEL 7
REMARK VINA RESULT:    -4.200      1.594      4.216
REMARK INTER + INTRA:          -4.643
REMARK INTER:                  -4.490
REMARK INTRA:                  -0.154
REMARK UNBOUND:                -0.197
REMARK SMILES CC1=CC[C@@H](C(C)C)C=C1
REMARK SMILES IDX 1 1 2 2 3 3 4 4 5 5 9 6 10 7 6 8 7 9 8 10
REMARK H PARENT
REMARK Flexibility Score: inf
ROOT
ATOM      1  C   UNL     1     168.606 169.651 198.515  1.00  0.00     0.044 C 
ATOM      2  C   UNL     1     167.506 169.569 199.533  1.00  0.00    -0.055 C 
ATOM      3  C   UNL     1     167.736 169.024 200.736  1.00  0.00    -0.023 C 
ATOM      4  C   UNL     1     166.682 169.061 201.813  1.00  0.00     0.035 C 
ATOM      5  C   UNL     1     165.257 168.968 201.210  1.00  0.00     0.018 C 
ATOM      6  C   UNL     1     165.144 169.941 200.050  1.00  0.00    -0.023 C 
ATOM      7  C   UNL     1     166.185 170.166 199.242  1.00  0.00    -0.001 C 
ENDROOT
BRANCH   5   8
ATOM      8  C   UNL     1     164.130 169.205 202.266  1.00  0.00    -0.010 C 
ATOM      9  C   UNL     1     163.697 167.882 202.926  1.00  0.00     0.008 C 
ATOM     10  C   UNL     1     164.554 170.188 203.372  1.00  0.00     0.008 C 
ENDBRANCH   5   8
TORSDOF 1
ENDMDL
MODEL 8
REMARK VINA RESULT:    -4.188      1.520      2.360
REMARK INTER + INTRA:          -4.630
REMARK INTER:                  -4.432
REMARK INTRA:                  -0.198
REMARK UNBOUND:                -0.197
REMARK SMILES CC1=CC[C@@H](C(C)C)C=C1
REMARK SMILES IDX 1 1 2 2 3 3 4 4 5 5 9 6 10 7 6 8 7 9 8 10
REMARK H PARENT
REMARK Flexibility Score: inf
ROOT
ATOM      1  C   UNL     1     164.329 169.379 202.651  1.00  0.00     0.044 C 
ATOM      2  C   UNL     1     165.349 169.371 201.551  1.00  0.00    -0.055 C 
ATOM      3  C   UNL     1     166.571 168.861 201.764  1.00  0.00    -0.023 C 
ATOM      4  C   UNL     1     167.555 168.721 200.631  1.00  0.00     0.035 C 
ATOM      5  C   UNL     1     167.393 169.866 199.598  1.00  0.00     0.018 C 
ATOM      6  C   UNL     1     165.920 170.028 199.264  1.00  0.00    -0.023 C 
ATOM      7  C   UNL     1     164.982 169.851 200.202  1.00  0.00    -0.001 C 
ENDROOT
BRANCH   5   8
ATOM      8  C   UNL     1     168.250 169.654 198.310  1.00  0.00    -0.010 C 
ATOM      9  C   UNL     1     169.171 168.427 198.449  1.00  0.00     0.008 C 
ATOM     10  C   UNL     1     167.385 169.476 197.048  1.00  0.00     0.008 C 
ENDBRANCH   5   8
TORSDOF 1
ENDMDL
MODEL 9
REMARK VINA RESULT:    -4.169      5.888      6.719
REMARK INTER + INTRA:          -4.610
REMARK INTER:                  -4.472
REMARK INTRA:                  -0.138
REMARK UNBOUND:                -0.197
REMARK SMILES CC1=CC[C@@H](C(C)C)C=C1
REMARK SMILES IDX 1 1 2 2 3 3 4 4 5 5 9 6 10 7 6 8 7 9 8 10
REMARK H PARENT
REMARK Flexibility Score: inf
ROOT
ATOM      1  C   UNL     1     162.340 164.977 203.835  1.00  0.00     0.044 C 
ATOM      2  C   UNL     1     163.036 164.459 202.611  1.00  0.00    -0.055 C 
ATOM      3  C   UNL     1     162.596 164.791 201.389  1.00  0.00    -0.023 C 
ATOM      4  C   UNL     1     163.367 164.392 200.157  1.00  0.00     0.035 C 
ATOM      5  C   UNL     1     164.069 163.024 200.351  1.00  0.00     0.018 C 
ATOM      6  C   UNL     1     164.787 163.020 201.690  1.00  0.00    -0.023 C 
ATOM      7  C   UNL     1     164.262 163.645 202.749  1.00  0.00    -0.001 C 
ENDROOT
BRANCH   5   8
ATOM      8  C   UNL     1     165.040 162.664 199.182  1.00  0.00    -0.010 C 
ATOM      9  C   UNL     1     166.342 162.035 199.712  1.00  0.00     0.008 C 
ATOM     10  C   UNL     1     164.407 161.697 198.165  1.00  0.00     0.008 C 
ENDBRANCH   5   8
TORSDOF 1
ENDMDL
