MODEL 1
REMARK VINA RESULT:    -6.458      0.000      0.000
REMARK INTER + INTRA:          -7.884
REMARK INTER:                  -7.591
REMARK INTRA:                  -0.293
REMARK UNBOUND:                -0.293
REMARK SMILES O=c1cc(-c2ccc(O)c(O)c2)oc2cc(O)cc(O)c12
REMARK SMILES IDX 4 1 3 2 2 3 1 4 21 5 19 6 18 7 16 8 15 9 14 10 13 11 5 12
REMARK SMILES IDX 6 13 7 14 8 15 12 16 10 17 9 18 11 20 20 22 17 24
REMARK H PARENT 9 19 11 21 20 23 17 25
REMARK Flexibility Score: inf
ROOT
ATOM      1  C   UNL     1      27.203  48.090  60.787  1.00  0.00     0.138 A 
ATOM      2  C   UNL     1      26.886  46.736  60.610  1.00  0.00     0.100 A 
ATOM      3  C   UNL     1      27.507  45.773  61.406  1.00  0.00     0.197 A 
ATOM      4  O   UNL     1      27.250  44.563  61.182  1.00  0.00    -0.289 OA
ATOM      5  C   UNL     1      28.427  46.172  62.404  1.00  0.00     0.107 A 
ATOM      6  C   UNL     1      29.090  45.281  63.301  1.00  0.00     0.134 A 
ATOM      7  C   UNL     1      30.068  45.779  64.171  1.00  0.00     0.093 A 
ATOM      8  C   UNL     1      30.364  47.144  64.218  1.00  0.00     0.123 A 
ATOM      9  C   UNL     1      29.683  48.028  63.385  1.00  0.00     0.094 A 
ATOM     10  C   UNL     1      28.727  47.558  62.482  1.00  0.00     0.146 A 
ATOM     11  O   UNL     1      28.110  48.434  61.695  1.00  0.00    -0.456 OA
ENDROOT
BRANCH   1  12
ATOM     12  C   UNL     1      26.571  49.157  59.969  1.00  0.00     0.021 A 
ATOM     13  C   UNL     1      26.698  50.519  60.305  1.00  0.00     0.016 A 
ATOM     14  C   UNL     1      26.101  51.502  59.511  1.00  0.00     0.051 A 
ATOM     15  C   UNL     1      25.377  51.144  58.367  1.00  0.00     0.157 A 
ATOM     16  C   UNL     1      25.854  48.808  58.811  1.00  0.00     0.062 A 
ATOM     17  C   UNL     1      25.254  49.795  58.016  1.00  0.00     0.158 A 
BRANCH  15  18
ATOM     18  O   UNL     1      24.780  52.124  57.575  1.00  0.00    -0.504 OA
ATOM     19  H   UNL     1      25.178  52.403  56.686  1.00  0.00     0.293 HD
ENDBRANCH  15  18
BRANCH  17  20
ATOM     20  O   UNL     1      24.535  49.442  56.875  1.00  0.00    -0.504 OA
ATOM     21  H   UNL     1      24.733  48.589  56.367  1.00  0.00     0.293 HD
ENDBRANCH  17  20
ENDBRANCH   1  12
BRANCH   6  22
ATOM     22  O   UNL     1      28.810  43.915  63.393  1.00  0.00    -0.507 OA
ATOM     23  H   UNL     1      27.891  43.508  63.314  1.00  0.00     0.293 HD
ENDBRANCH   6  22
BRANCH   8  24
ATOM     24  O   UNL     1      31.327  47.632  65.098  1.00  0.00    -0.508 OA
ATOM     25  H   UNL     1      31.403  47.285  66.047  1.00  0.00     0.293 HD
ENDBRANCH   8  24
TORSDOF 5
ENDMDL
MODEL 2
REMARK VINA RESULT:    -6.239      1.095      2.665
REMARK INTER + INTRA:          -7.626
REMARK INTER:                  -7.315
REMARK INTRA:                  -0.311
REMARK UNBOUND:                -0.293
REMARK SMILES O=c1cc(-c2ccc(O)c(O)c2)oc2cc(O)cc(O)c12
REMARK SMILES IDX 4 1 3 2 2 3 1 4 21 5 19 6 18 7 16 8 15 9 14 10 13 11 5 12
REMARK SMILES IDX 6 13 7 14 8 15 12 16 10 17 9 18 11 20 20 22 17 24
REMARK H PARENT 9 19 11 21 20 23 17 25
REMARK Flexibility Score: inf
ROOT
ATOM      1  C   UNL     1      27.711  48.860  61.234  1.00  0.00     0.138 A 
ATOM      2  C   UNL     1      28.453  49.633  62.138  1.00  0.00     0.100 A 
ATOM      3  C   UNL     1      29.229  49.002  63.110  1.00  0.00     0.197 A 
ATOM      4  O   UNL     1      29.833  49.722  63.946  1.00  0.00    -0.289 OA
ATOM      5  C   UNL     1      29.286  47.590  63.158  1.00  0.00     0.107 A 
ATOM      6  C   UNL     1      30.074  46.838  64.080  1.00  0.00     0.134 A 
ATOM      7  C   UNL     1      29.961  45.442  64.108  1.00  0.00     0.093 A 
ATOM      8  C   UNL     1      29.132  44.768  63.207  1.00  0.00     0.123 A 
ATOM      9  C   UNL     1      28.400  45.490  62.268  1.00  0.00     0.094 A 
ATOM     10  C   UNL     1      28.465  46.884  62.237  1.00  0.00     0.146 A 
ATOM     11  O   UNL     1      27.739  47.536  61.334  1.00  0.00    -0.456 OA
ENDROOT
BRANCH   1  12
ATOM     12  C   UNL     1      26.870  49.480  60.178  1.00  0.00     0.021 A 
ATOM     13  C   UNL     1      26.408  50.806  60.284  1.00  0.00     0.016 A 
ATOM     14  C   UNL     1      25.626  51.367  59.270  1.00  0.00     0.051 A 
ATOM     15  C   UNL     1      25.300  50.617  58.133  1.00  0.00     0.157 A 
ATOM     16  C   UNL     1      26.548  48.740  59.026  1.00  0.00     0.062 A 
ATOM     17  C   UNL     1      25.763  49.303  58.011  1.00  0.00     0.158 A 
BRANCH  15  18
ATOM     18  O   UNL     1      24.519  51.175  57.121  1.00  0.00    -0.504 OA
ATOM     19  H   UNL     1      24.653  50.923  56.149  1.00  0.00     0.293 HD
ENDBRANCH  15  18
BRANCH  17  20
ATOM     20  O   UNL     1      25.439  48.560  56.876  1.00  0.00    -0.504 OA
ATOM     21  H   UNL     1      24.654  48.810  56.286  1.00  0.00     0.293 HD
ENDBRANCH  17  20
ENDBRANCH   1  12
BRANCH   6  22
ATOM     22  O   UNL     1      30.995  47.407  64.964  1.00  0.00    -0.507 OA
ATOM     23  H   UNL     1      31.715  48.064  64.704  1.00  0.00     0.293 HD
ENDBRANCH   6  22
BRANCH   8  24
ATOM     24  O   UNL     1      29.038  43.378  63.232  1.00  0.00    -0.508 OA
ATOM     25  H   UNL     1      29.863  42.790  63.213  1.00  0.00     0.293 HD
ENDBRANCH   8  24
TORSDOF 5
ENDMDL
MODEL 3
REMARK VINA RESULT:    -4.757      1.772      7.131
REMARK INTER + INTRA:          -5.884
REMARK INTER:                  -5.575
REMARK INTRA:                  -0.309
REMARK UNBOUND:                -0.293
REMARK SMILES O=c1cc(-c2ccc(O)c(O)c2)oc2cc(O)cc(O)c12
REMARK SMILES IDX 4 1 3 2 2 3 1 4 21 5 19 6 18 7 16 8 15 9 14 10 13 11 5 12
REMARK SMILES IDX 6 13 7 14 8 15 12 16 10 17 9 18 11 20 20 22 17 24
REMARK H PARENT 9 19 11 21 20 23 17 25
REMARK Flexibility Score: inf
ROOT
ATOM      1  C   UNL     1      28.262  47.513  61.370  1.00  0.00     0.138 A 
ATOM      2  C   UNL     1      29.231  48.527  61.354  1.00  0.00     0.100 A 
ATOM      3  C   UNL     1      29.020  49.669  60.581  1.00  0.00     0.197 A 
ATOM      4  O   UNL     1      29.935  50.531  60.536  1.00  0.00    -0.289 OA
ATOM      5  C   UNL     1      27.820  49.809  59.845  1.00  0.00     0.107 A 
ATOM      6  C   UNL     1      27.480  50.947  59.054  1.00  0.00     0.134 A 
ATOM      7  C   UNL     1      26.315  50.925  58.276  1.00  0.00     0.093 A 
ATOM      8  C   UNL     1      25.448  49.829  58.308  1.00  0.00     0.123 A 
ATOM      9  C   UNL     1      25.745  48.736  59.119  1.00  0.00     0.094 A 
ATOM     10  C   UNL     1      26.916  48.714  59.879  1.00  0.00     0.146 A 
ATOM     11  O   UNL     1      27.168  47.645  60.628  1.00  0.00    -0.456 OA
ENDROOT
BRANCH   1  12
ATOM     12  C   UNL     1      28.434  46.278  62.177  1.00  0.00     0.021 A 
ATOM     13  C   UNL     1      29.198  46.267  63.360  1.00  0.00     0.016 A 
ATOM     14  C   UNL     1      29.334  45.092  64.104  1.00  0.00     0.051 A 
ATOM     15  C   UNL     1      28.704  43.913  63.686  1.00  0.00     0.157 A 
ATOM     16  C   UNL     1      27.793  45.093  61.773  1.00  0.00     0.062 A 
ATOM     17  C   UNL     1      27.932  43.914  62.519  1.00  0.00     0.158 A 
BRANCH  15  18
ATOM     18  O   UNL     1      28.840  42.740  64.427  1.00  0.00    -0.504 OA
ATOM     19  H   UNL     1      28.112  42.035  64.441  1.00  0.00     0.293 HD
ENDBRANCH  15  18
BRANCH  17  20
ATOM     20  O   UNL     1      27.303  42.740  62.108  1.00  0.00    -0.504 OA
ATOM     21  H   UNL     1      27.003  42.038  62.774  1.00  0.00     0.293 HD
ENDBRANCH  17  20
ENDBRANCH   1  12
BRANCH   6  22
ATOM     22  O   UNL     1      28.232  52.125  59.016  1.00  0.00    -0.507 OA
ATOM     23  H   UNL     1      29.094  52.243  58.505  1.00  0.00     0.293 HD
ENDBRANCH   6  22
BRANCH   8  24
ATOM     24  O   UNL     1      24.284  49.822  57.543  1.00  0.00    -0.508 OA
ATOM     25  H   UNL     1      23.865  50.682  57.207  1.00  0.00     0.293 HD
ENDBRANCH   8  24
TORSDOF 5
ENDMDL
MODEL 4
REMARK VINA RESULT:    -4.617      1.841      2.747
REMARK INTER + INTRA:          -5.719
REMARK INTER:                  -5.446
REMARK INTRA:                  -0.273
REMARK UNBOUND:                -0.293
REMARK SMILES O=c1cc(-c2ccc(O)c(O)c2)oc2cc(O)cc(O)c12
REMARK SMILES IDX 4 1 3 2 2 3 1 4 21 5 19 6 18 7 16 8 15 9 14 10 13 11 5 12
REMARK SMILES IDX 6 13 7 14 8 15 12 16 10 17 9 18 11 20 20 22 17 24
REMARK H PARENT 9 19 11 21 20 23 17 25
REMARK Flexibility Score: inf
ROOT
ATOM      1  C   UNL     1      27.818  49.020  61.466  1.00  0.00     0.138 A 
ATOM      2  C   UNL     1      27.329  49.283  62.753  1.00  0.00     0.100 A 
ATOM      3  C   UNL     1      27.862  48.600  63.847  1.00  0.00     0.197 A 
ATOM      4  O   UNL     1      27.359  48.811  64.980  1.00  0.00    -0.289 OA
ATOM      5  C   UNL     1      28.911  47.671  63.652  1.00  0.00     0.107 A 
ATOM      6  C   UNL     1      29.558  46.946  64.697  1.00  0.00     0.134 A 
ATOM      7  C   UNL     1      30.507  45.967  64.374  1.00  0.00     0.093 A 
ATOM      8  C   UNL     1      30.873  45.730  63.046  1.00  0.00     0.123 A 
ATOM      9  C   UNL     1      30.286  46.471  62.023  1.00  0.00     0.094 A 
ATOM     10  C   UNL     1      29.313  47.430  62.311  1.00  0.00     0.146 A 
ATOM     11  O   UNL     1      28.767  48.104  61.305  1.00  0.00    -0.456 OA
ENDROOT
BRANCH   1  12
ATOM     12  C   UNL     1      27.288  49.720  60.267  1.00  0.00     0.021 A 
ATOM     13  C   UNL     1      25.950  49.568  59.854  1.00  0.00     0.016 A 
ATOM     14  C   UNL     1      25.476  50.247  58.728  1.00  0.00     0.051 A 
ATOM     15  C   UNL     1      26.325  51.091  58.002  1.00  0.00     0.157 A 
ATOM     16  C   UNL     1      28.129  50.581  59.540  1.00  0.00     0.062 A 
ATOM     17  C   UNL     1      27.653  51.260  58.410  1.00  0.00     0.158 A 
BRANCH  15  18
ATOM     18  O   UNL     1      25.854  51.768  56.878  1.00  0.00    -0.504 OA
ATOM     19  H   UNL     1      26.146  52.715  56.668  1.00  0.00     0.293 HD
ENDBRANCH  15  18
BRANCH  17  20
ATOM     20  O   UNL     1      28.494  52.105  57.687  1.00  0.00    -0.504 OA
ATOM     21  H   UNL     1      28.723  53.035  58.018  1.00  0.00     0.293 HD
ENDBRANCH  17  20
ENDBRANCH   1  12
BRANCH   6  22
ATOM     22  O   UNL     1      29.327  47.165  66.058  1.00  0.00    -0.507 OA
ATOM     23  H   UNL     1      29.126  46.442  66.732  1.00  0.00     0.293 HD
ENDBRANCH   6  22
BRANCH   8  24
ATOM     24  O   UNL     1      31.829  44.765  62.735  1.00  0.00    -0.508 OA
ATOM     25  H   UNL     1      32.811  44.998  62.655  1.00  0.00     0.293 HD
ENDBRANCH   8  24
TORSDOF 5
ENDMDL
MODEL 5
REMARK VINA RESULT:    -4.531      1.928      7.307
REMARK INTER + INTRA:          -5.619
REMARK INTER:                  -5.356
REMARK INTRA:                  -0.263
REMARK UNBOUND:                -0.293
REMARK SMILES O=c1cc(-c2ccc(O)c(O)c2)oc2cc(O)cc(O)c12
REMARK SMILES IDX 4 1 3 2 2 3 1 4 21 5 19 6 18 7 16 8 15 9 14 10 13 11 5 12
REMARK SMILES IDX 6 13 7 14 8 15 12 16 10 17 9 18 11 20 20 22 17 24
REMARK H PARENT 9 19 11 21 20 23 17 25
REMARK Flexibility Score: inf
ROOT
ATOM      1  C   UNL     1      28.315  49.010  60.988  1.00  0.00     0.138 A 
ATOM      2  C   UNL     1      29.244  49.890  60.417  1.00  0.00     0.100 A 
ATOM      3  C   UNL     1      28.913  50.583  59.252  1.00  0.00     0.197 A 
ATOM      4  O   UNL     1      29.790  51.317  58.728  1.00  0.00    -0.289 OA
ATOM      5  C   UNL     1      27.632  50.417  58.675  1.00  0.00     0.107 A 
ATOM      6  C   UNL     1      27.169  51.102  57.512  1.00  0.00     0.134 A 
ATOM      7  C   UNL     1      25.923  50.770  56.965  1.00  0.00     0.093 A 
ATOM      8  C   UNL     1      25.098  49.820  57.574  1.00  0.00     0.123 A 
ATOM      9  C   UNL     1      25.519  49.185  58.741  1.00  0.00     0.094 A 
ATOM     10  C   UNL     1      26.770  49.470  59.291  1.00  0.00     0.146 A 
ATOM     11  O   UNL     1      27.139  48.831  60.397  1.00  0.00    -0.456 OA
ENDROOT
BRANCH   1  12
ATOM     12  C   UNL     1      28.615  48.249  62.228  1.00  0.00     0.021 A 
ATOM     13  C   UNL     1      28.272  48.744  63.501  1.00  0.00     0.016 A 
ATOM     14  C   UNL     1      28.557  48.002  64.650  1.00  0.00     0.051 A 
ATOM     15  C   UNL     1      29.180  46.751  64.547  1.00  0.00     0.157 A 
ATOM     16  C   UNL     1      29.226  46.986  62.134  1.00  0.00     0.062 A 
ATOM     17  C   UNL     1      29.513  46.242  63.287  1.00  0.00     0.158 A 
BRANCH  15  18
ATOM     18  O   UNL     1      29.466  46.009  65.693  1.00  0.00    -0.504 OA
ATOM     19  H   UNL     1      28.857  45.264  66.008  1.00  0.00     0.293 HD
ENDBRANCH  15  18
BRANCH  17  20
ATOM     20  O   UNL     1      30.129  44.996  63.188  1.00  0.00    -0.504 OA
ATOM     21  H   UNL     1      29.903  44.240  63.825  1.00  0.00     0.293 HD
ENDBRANCH  17  20
ENDBRANCH   1  12
BRANCH   6  22
ATOM     22  O   UNL     1      27.877  52.125  56.875  1.00  0.00    -0.507 OA
ATOM     23  H   UNL     1      27.599  53.094  56.859  1.00  0.00     0.293 HD
ENDBRANCH   6  22
BRANCH   8  24
ATOM     24  O   UNL     1      23.854  49.508  57.031  1.00  0.00    -0.508 OA
ATOM     25  H   UNL     1      23.029  50.056  57.245  1.00  0.00     0.293 HD
ENDBRANCH   8  24
TORSDOF 5
ENDMDL
MODEL 6
REMARK VINA RESULT:    -4.296      2.480      6.590
REMARK INTER + INTRA:          -5.342
REMARK INTER:                  -5.067
REMARK INTRA:                  -0.275
REMARK UNBOUND:                -0.293
REMARK SMILES O=c1cc(-c2ccc(O)c(O)c2)oc2cc(O)cc(O)c12
REMARK SMILES IDX 4 1 3 2 2 3 1 4 21 5 19 6 18 7 16 8 15 9 14 10 13 11 5 12
REMARK SMILES IDX 6 13 7 14 8 15 12 16 10 17 9 18 11 20 20 22 17 24
REMARK H PARENT 9 19 11 21 20 23 17 25
REMARK Flexibility Score: inf
ROOT
ATOM      1  C   UNL     1      28.485  47.727  61.592  1.00  0.00     0.138 A 
ATOM      2  C   UNL     1      27.255  48.238  61.155  1.00  0.00     0.100 A 
ATOM      3  C   UNL     1      27.215  49.455  60.476  1.00  0.00     0.197 A 
ATOM      4  O   UNL     1      26.091  49.918  60.153  1.00  0.00    -0.289 OA
ATOM      5  C   UNL     1      28.418  50.150  60.206  1.00  0.00     0.107 A 
ATOM      6  C   UNL     1      28.503  51.379  59.486  1.00  0.00     0.134 A 
ATOM      7  C   UNL     1      29.736  52.034  59.381  1.00  0.00     0.093 A 
ATOM      8  C   UNL     1      30.898  51.473  59.918  1.00  0.00     0.123 A 
ATOM      9  C   UNL     1      30.834  50.247  60.575  1.00  0.00     0.094 A 
ATOM     10  C   UNL     1      29.614  49.586  60.727  1.00  0.00     0.146 A 
ATOM     11  O   UNL     1      29.594  48.425  61.373  1.00  0.00    -0.456 OA
ENDROOT
BRANCH   1  12
ATOM     12  C   UNL     1      28.586  46.435  62.318  1.00  0.00     0.021 A 
ATOM     13  C   UNL     1      29.346  46.307  63.497  1.00  0.00     0.016 A 
ATOM     14  C   UNL     1      29.414  45.081  64.165  1.00  0.00     0.051 A 
ATOM     15  C   UNL     1      28.721  43.968  63.673  1.00  0.00     0.157 A 
ATOM     16  C   UNL     1      27.881  45.316  61.840  1.00  0.00     0.062 A 
ATOM     17  C   UNL     1      27.952  44.086  62.510  1.00  0.00     0.158 A 
BRANCH  15  18
ATOM     18  O   UNL     1      28.788  42.744  64.338  1.00  0.00    -0.504 OA
ATOM     19  H   UNL     1      28.064  42.450  64.982  1.00  0.00     0.293 HD
ENDBRANCH  15  18
BRANCH  17  20
ATOM     20  O   UNL     1      27.259  42.978  62.025  1.00  0.00    -0.504 OA
ATOM     21  H   UNL     1      26.818  42.985  61.113  1.00  0.00     0.293 HD
ENDBRANCH  17  20
ENDBRANCH   1  12
BRANCH   6  22
ATOM     22  O   UNL     1      27.419  51.982  58.841  1.00  0.00    -0.507 OA
ATOM     23  H   UNL     1      26.493  51.589  58.780  1.00  0.00     0.293 HD
ENDBRANCH   6  22
BRANCH   8  24
ATOM     24  O   UNL     1      32.123  52.125  59.795  1.00  0.00    -0.508 OA
ATOM     25  H   UNL     1      32.236  52.933  59.194  1.00  0.00     0.293 HD
ENDBRANCH   8  24
TORSDOF 5
ENDMDL
