MODEL 1
REMARK VINA RESULT:    -4.977      0.000      0.000
REMARK INTER + INTRA:          -6.294
REMARK INTER:                  -5.996
REMARK INTRA:                  -0.299
REMARK UNBOUND:                -0.299
REMARK SMILES O=c1c(O)c(-c2ccc(O)c(O)c2)oc2cc(O)cc(O)c12
REMARK SMILES IDX 5 1 3 2 2 3 1 4 22 5 20 6 19 7 17 8 16 9 15 10 14 11 6 12
REMARK SMILES IDX 7 13 8 14 9 15 13 16 11 17 10 18 12 20 4 22 21 24 18 26
REMARK H PARENT 10 19 12 21 4 23 21 25 18 27
REMARK Flexibility Score: inf
ROOT
ATOM      1  C   UNL     1      -6.155  -0.993 -12.520  1.00  0.00     0.180 A 
ATOM      2  C   UNL     1      -6.490  -2.358 -12.576  1.00  0.00     0.208 A 
ATOM      3  C   UNL     1      -6.624  -3.076 -11.377  1.00  0.00     0.238 A 
ATOM      4  O   UNL     1      -6.977  -4.283 -11.430  1.00  0.00    -0.285 OA
ATOM      5  C   UNL     1      -6.403  -2.426 -10.138  1.00  0.00     0.111 A 
ATOM      6  C   UNL     1      -6.472  -3.065  -8.864  1.00  0.00     0.134 A 
ATOM      7  C   UNL     1      -6.365  -2.296  -7.699  1.00  0.00     0.093 A 
ATOM      8  C   UNL     1      -6.127  -0.923  -7.761  1.00  0.00     0.123 A 
ATOM      9  C   UNL     1      -5.999  -0.297  -9.002  1.00  0.00     0.094 A 
ATOM     10  C   UNL     1      -6.137  -1.032 -10.182  1.00  0.00     0.146 A 
ATOM     11  O   UNL     1      -6.019  -0.397 -11.342  1.00  0.00    -0.452 OA
ENDROOT
BRANCH   1  12
ATOM     12  C   UNL     1      -5.972  -0.177 -13.741  1.00  0.00     0.025 A 
ATOM     13  C   UNL     1      -4.690   0.120 -14.239  1.00  0.00     0.016 A 
ATOM     14  C   UNL     1      -4.542   0.912 -15.380  1.00  0.00     0.051 A 
ATOM     15  C   UNL     1      -5.668   1.431 -16.033  1.00  0.00     0.157 A 
ATOM     16  C   UNL     1      -7.097   0.363 -14.386  1.00  0.00     0.062 A 
ATOM     17  C   UNL     1      -6.951   1.157 -15.531  1.00  0.00     0.158 A 
BRANCH  15  18
ATOM     18  O   UNL     1      -5.517   2.220 -17.172  1.00  0.00    -0.504 OA
ATOM     19  H   UNL     1      -4.949   1.918 -17.955  1.00  0.00     0.293 HD
ENDBRANCH  15  18
BRANCH  17  20
ATOM     20  O   UNL     1      -8.092   1.664 -16.152  1.00  0.00    -0.504 OA
ATOM     21  H   UNL     1      -8.440   1.288 -17.026  1.00  0.00     0.293 HD
ENDBRANCH  17  20
ENDBRANCH   1  12
BRANCH   2  22
ATOM     22  O   UNL     1      -6.725  -2.975 -13.808  1.00  0.00    -0.502 OA
ATOM     23  H   UNL     1      -7.639  -3.314 -14.081  1.00  0.00     0.293 HD
ENDBRANCH   2  22
BRANCH   6  24
ATOM     24  O   UNL     1      -6.615  -4.445  -8.690  1.00  0.00    -0.507 OA
ATOM     25  H   UNL     1      -6.948  -4.886  -7.846  1.00  0.00     0.293 HD
ENDBRANCH   6  24
BRANCH   8  26
ATOM     26  O   UNL     1      -6.010  -0.192  -6.581  1.00  0.00    -0.508 OA
ATOM     27  H   UNL     1      -5.996  -0.648  -5.675  1.00  0.00     0.293 HD
ENDBRANCH   8  26
TORSDOF 6
ENDMDL
MODEL 2
REMARK VINA RESULT:    -4.956     12.133     13.474
REMARK INTER + INTRA:          -6.269
REMARK INTER:                  -5.964
REMARK INTRA:                  -0.305
REMARK UNBOUND:                -0.299
REMARK SMILES O=c1c(O)c(-c2ccc(O)c(O)c2)oc2cc(O)cc(O)c12
REMARK SMILES IDX 5 1 3 2 2 3 1 4 22 5 20 6 19 7 17 8 16 9 15 10 14 11 6 12
REMARK SMILES IDX 7 13 8 14 9 15 13 16 11 17 10 18 12 20 4 22 21 24 18 26
REMARK H PARENT 10 19 12 21 4 23 21 25 18 27
REMARK Flexibility Score: inf
ROOT
ATOM      1  C   UNL     1       6.359   0.999 -12.522  1.00  0.00     0.180 A 
ATOM      2  C   UNL     1       6.701   2.363 -12.561  1.00  0.00     0.208 A 
ATOM      3  C   UNL     1       6.833   3.067 -11.354  1.00  0.00     0.238 A 
ATOM      4  O   UNL     1       7.192   4.273 -11.393  1.00  0.00    -0.285 OA
ATOM      5  C   UNL     1       6.605   2.405 -10.123  1.00  0.00     0.111 A 
ATOM      6  C   UNL     1       6.672   3.030  -8.842  1.00  0.00     0.134 A 
ATOM      7  C   UNL     1       6.556   2.249  -7.686  1.00  0.00     0.093 A 
ATOM      8  C   UNL     1       6.312   0.878  -7.763  1.00  0.00     0.123 A 
ATOM      9  C   UNL     1       6.187   0.266  -9.011  1.00  0.00     0.094 A 
ATOM     10  C   UNL     1       6.332   1.013 -10.183  1.00  0.00     0.146 A 
ATOM     11  O   UNL     1       6.216   0.391 -11.350  1.00  0.00    -0.452 OA
ENDROOT
BRANCH   1  12
ATOM     12  C   UNL     1       6.178   0.197 -13.752  1.00  0.00     0.025 A 
ATOM     13  C   UNL     1       4.898  -0.058 -14.278  1.00  0.00     0.016 A 
ATOM     14  C   UNL     1       4.750  -0.838 -15.427  1.00  0.00     0.051 A 
ATOM     15  C   UNL     1       5.873  -1.386 -16.061  1.00  0.00     0.157 A 
ATOM     16  C   UNL     1       7.298  -0.372 -14.378  1.00  0.00     0.062 A 
ATOM     17  C   UNL     1       7.153  -1.153 -15.531  1.00  0.00     0.158 A 
BRANCH  15  18
ATOM     18  O   UNL     1       5.722  -2.162 -17.209  1.00  0.00    -0.504 OA
ATOM     19  H   UNL     1       5.732  -1.749 -18.134  1.00  0.00     0.293 HD
ENDBRANCH  15  18
BRANCH  17  20
ATOM     20  O   UNL     1       8.291  -1.689 -16.133  1.00  0.00    -0.504 OA
ATOM     21  H   UNL     1       8.233  -2.350 -16.899  1.00  0.00     0.293 HD
ENDBRANCH  17  20
ENDBRANCH   1  12
BRANCH   2  22
ATOM     22  O   UNL     1       6.944   2.992 -13.785  1.00  0.00    -0.502 OA
ATOM     23  H   UNL     1       6.363   2.839 -14.600  1.00  0.00     0.293 HD
ENDBRANCH   2  22
BRANCH   6  24
ATOM     24  O   UNL     1       6.820   4.408  -8.652  1.00  0.00    -0.507 OA
ATOM     25  H   UNL     1       6.357   4.942  -7.933  1.00  0.00     0.293 HD
ENDBRANCH   6  24
BRANCH   8  26
ATOM     26  O   UNL     1       6.188   0.135  -6.592  1.00  0.00    -0.508 OA
ATOM     27  H   UNL     1       6.803  -0.645  -6.392  1.00  0.00     0.293 HD
ENDBRANCH   8  26
TORSDOF 6
ENDMDL
MODEL 3
REMARK VINA RESULT:    -4.859      7.581      9.071
REMARK INTER + INTRA:          -6.152
REMARK INTER:                  -5.829
REMARK INTRA:                  -0.323
REMARK UNBOUND:                -0.299
REMARK SMILES O=c1c(O)c(-c2ccc(O)c(O)c2)oc2cc(O)cc(O)c12
REMARK SMILES IDX 5 1 3 2 2 3 1 4 22 5 20 6 19 7 17 8 16 9 15 10 14 11 6 12
REMARK SMILES IDX 7 13 8 14 9 15 13 16 11 17 10 18 12 20 4 22 21 24 18 26
REMARK H PARENT 10 19 12 21 4 23 21 25 18 27
REMARK Flexibility Score: inf
ROOT
ATOM      1  C   UNL     1       1.111  -0.851  -8.447  1.00  0.00     0.180 A 
ATOM      2  C   UNL     1       0.866  -2.189  -8.806  1.00  0.00     0.208 A 
ATOM      3  C   UNL     1      -0.443  -2.689  -8.718  1.00  0.00     0.238 A 
ATOM      4  O   UNL     1      -0.665  -3.871  -9.092  1.00  0.00    -0.285 OA
ATOM      5  C   UNL     1      -1.488  -1.852  -8.257  1.00  0.00     0.111 A 
ATOM      6  C   UNL     1      -2.843  -2.266  -8.091  1.00  0.00     0.134 A 
ATOM      7  C   UNL     1      -3.817  -1.318  -7.753  1.00  0.00     0.093 A 
ATOM      8  C   UNL     1      -3.476   0.012  -7.512  1.00  0.00     0.123 A 
ATOM      9  C   UNL     1      -2.144   0.415  -7.615  1.00  0.00     0.094 A 
ATOM     10  C   UNL     1      -1.154  -0.499  -7.985  1.00  0.00     0.146 A 
ATOM     11  O   UNL     1       0.099  -0.073  -8.081  1.00  0.00    -0.452 OA
ENDROOT
BRANCH   1  12
ATOM     12  C   UNL     1       2.467  -0.260  -8.489  1.00  0.00     0.025 A 
ATOM     13  C   UNL     1       2.969   0.338  -9.659  1.00  0.00     0.016 A 
ATOM     14  C   UNL     1       4.262   0.868  -9.682  1.00  0.00     0.051 A 
ATOM     15  C   UNL     1       5.076   0.798  -8.544  1.00  0.00     0.157 A 
ATOM     16  C   UNL     1       3.295  -0.347  -7.358  1.00  0.00     0.062 A 
ATOM     17  C   UNL     1       4.590   0.185  -7.377  1.00  0.00     0.158 A 
BRANCH  15  18
ATOM     18  O   UNL     1       6.364   1.330  -8.570  1.00  0.00    -0.504 OA
ATOM     19  H   UNL     1       7.005   1.132  -9.330  1.00  0.00     0.293 HD
ENDBRANCH  15  18
BRANCH  17  20
ATOM     20  O   UNL     1       5.377   0.092  -6.230  1.00  0.00    -0.504 OA
ATOM     21  H   UNL     1       5.160   0.610  -5.387  1.00  0.00     0.293 HD
ENDBRANCH  17  20
ENDBRANCH   1  12
BRANCH   2  22
ATOM     22  O   UNL     1       1.908  -2.992  -9.279  1.00  0.00    -0.502 OA
ATOM     23  H   UNL     1       2.420  -3.628  -8.681  1.00  0.00     0.293 HD
ENDBRANCH   2  22
BRANCH   6  24
ATOM     24  O   UNL     1      -3.277  -3.589  -8.216  1.00  0.00    -0.507 OA
ATOM     25  H   UNL     1      -3.142  -4.307  -7.520  1.00  0.00     0.293 HD
ENDBRANCH   6  24
BRANCH   8  26
ATOM     26  O   UNL     1      -4.469   0.924  -7.163  1.00  0.00    -0.508 OA
ATOM     27  H   UNL     1      -4.305   1.924  -7.195  1.00  0.00     0.293 HD
ENDBRANCH   8  26
TORSDOF 6
ENDMDL
MODEL 4
REMARK VINA RESULT:    -4.845      8.494     10.427
REMARK INTER + INTRA:          -6.134
REMARK INTER:                  -5.813
REMARK INTRA:                  -0.321
REMARK UNBOUND:                -0.299
REMARK SMILES O=c1c(O)c(-c2ccc(O)c(O)c2)oc2cc(O)cc(O)c12
REMARK SMILES IDX 5 1 3 2 2 3 1 4 22 5 20 6 19 7 17 8 16 9 15 10 14 11 6 12
REMARK SMILES IDX 7 13 8 14 9 15 13 16 11 17 10 18 12 20 4 22 21 24 18 26
REMARK H PARENT 10 19 12 21 4 23 21 25 18 27
REMARK Flexibility Score: inf
ROOT
ATOM      1  C   UNL     1       1.956   0.516  -7.494  1.00  0.00     0.180 A 
ATOM      2  C   UNL     1       1.237   1.592  -8.046  1.00  0.00     0.208 A 
ATOM      3  C   UNL     1      -0.164   1.511  -8.114  1.00  0.00     0.238 A 
ATOM      4  O   UNL     1      -0.806   2.498  -8.558  1.00  0.00    -0.285 OA
ATOM      5  C   UNL     1      -0.826   0.350  -7.645  1.00  0.00     0.111 A 
ATOM      6  C   UNL     1      -2.237   0.144  -7.701  1.00  0.00     0.134 A 
ATOM      7  C   UNL     1      -2.795  -0.985  -7.090  1.00  0.00     0.093 A 
ATOM      8  C   UNL     1      -1.989  -1.947  -6.482  1.00  0.00     0.123 A 
ATOM      9  C   UNL     1      -0.603  -1.785  -6.472  1.00  0.00     0.094 A 
ATOM     10  C   UNL     1      -0.019  -0.651  -7.043  1.00  0.00     0.146 A 
ATOM     11  O   UNL     1       1.302  -0.530  -7.004  1.00  0.00    -0.452 OA
ENDROOT
BRANCH   1  12
ATOM     12  C   UNL     1       3.434   0.518  -7.412  1.00  0.00     0.025 A 
ATOM     13  C   UNL     1       4.103   0.999  -6.272  1.00  0.00     0.016 A 
ATOM     14  C   UNL     1       5.500   1.012  -6.227  1.00  0.00     0.051 A 
ATOM     15  C   UNL     1       6.248   0.559  -7.321  1.00  0.00     0.157 A 
ATOM     16  C   UNL     1       4.188   0.084  -8.514  1.00  0.00     0.062 A 
ATOM     17  C   UNL     1       5.588   0.096  -8.472  1.00  0.00     0.158 A 
BRANCH  15  18
ATOM     18  O   UNL     1       7.641   0.572  -7.272  1.00  0.00    -0.504 OA
ATOM     19  H   UNL     1       8.192   1.038  -7.983  1.00  0.00     0.293 HD
ENDBRANCH  15  18
BRANCH  17  20
ATOM     20  O   UNL     1       6.302  -0.356  -9.581  1.00  0.00    -0.504 OA
ATOM     21  H   UNL     1       7.246  -0.717  -9.501  1.00  0.00     0.293 HD
ENDBRANCH  17  20
ENDBRANCH   1  12
BRANCH   2  22
ATOM     22  O   UNL     1       1.908   2.737  -8.482  1.00  0.00    -0.502 OA
ATOM     23  H   UNL     1       1.583   3.672  -8.271  1.00  0.00     0.293 HD
ENDBRANCH   2  22
BRANCH   6  24
ATOM     24  O   UNL     1      -3.125   0.997  -8.365  1.00  0.00    -0.507 OA
ATOM     25  H   UNL     1      -3.786   1.606  -7.908  1.00  0.00     0.293 HD
ENDBRANCH   6  24
BRANCH   8  26
ATOM     26  O   UNL     1      -2.578  -3.066  -5.897  1.00  0.00    -0.508 OA
ATOM     27  H   UNL     1      -3.403  -3.500  -6.295  1.00  0.00     0.293 HD
ENDBRANCH   8  26
TORSDOF 6
ENDMDL
MODEL 5
REMARK VINA RESULT:    -4.810      6.185      8.446
REMARK INTER + INTRA:          -6.093
REMARK INTER:                  -5.776
REMARK INTRA:                  -0.317
REMARK UNBOUND:                -0.299
REMARK SMILES O=c1c(O)c(-c2ccc(O)c(O)c2)oc2cc(O)cc(O)c12
REMARK SMILES IDX 5 1 3 2 2 3 1 4 22 5 20 6 19 7 17 8 16 9 15 10 14 11 6 12
REMARK SMILES IDX 7 13 8 14 9 15 13 16 11 17 10 18 12 20 4 22 21 24 18 26
REMARK H PARENT 10 19 12 21 4 23 21 25 18 27
REMARK Flexibility Score: inf
ROOT
ATOM      1  C   UNL     1      -1.556  -0.601  -7.450  1.00  0.00     0.180 A 
ATOM      2  C   UNL     1      -0.878  -1.661  -8.078  1.00  0.00     0.208 A 
ATOM      3  C   UNL     1       0.519  -1.600  -8.198  1.00  0.00     0.238 A 
ATOM      4  O   UNL     1       1.125  -2.576  -8.712  1.00  0.00    -0.285 OA
ATOM      5  C   UNL     1       1.221  -0.473  -7.704  1.00  0.00     0.111 A 
ATOM      6  C   UNL     1       2.632  -0.288  -7.808  1.00  0.00     0.134 A 
ATOM      7  C   UNL     1       3.233   0.803  -7.169  1.00  0.00     0.093 A 
ATOM      8  C   UNL     1       2.470   1.749  -6.486  1.00  0.00     0.123 A 
ATOM      9  C   UNL     1       1.082   1.609  -6.428  1.00  0.00     0.094 A 
ATOM     10  C   UNL     1       0.456   0.512  -7.026  1.00  0.00     0.146 A 
ATOM     11  O   UNL     1      -0.864   0.411  -6.940  1.00  0.00    -0.452 OA
ENDROOT
BRANCH   1  12
ATOM     12  C   UNL     1      -3.029  -0.581  -7.309  1.00  0.00     0.025 A 
ATOM     13  C   UNL     1      -3.660  -1.073  -6.151  1.00  0.00     0.016 A 
ATOM     14  C   UNL     1      -5.054  -1.066  -6.050  1.00  0.00     0.051 A 
ATOM     15  C   UNL     1      -5.838  -0.583  -7.106  1.00  0.00     0.157 A 
ATOM     16  C   UNL     1      -3.820  -0.118  -8.372  1.00  0.00     0.062 A 
ATOM     17  C   UNL     1      -5.217  -0.109  -8.274  1.00  0.00     0.158 A 
BRANCH  15  18
ATOM     18  O   UNL     1      -7.228  -0.576  -7.001  1.00  0.00    -0.504 OA
ATOM     19  H   UNL     1      -7.777   0.228  -7.282  1.00  0.00     0.293 HD
ENDBRANCH  15  18
BRANCH  17  20
ATOM     20  O   UNL     1      -5.968   0.372  -9.346  1.00  0.00    -0.504 OA
ATOM     21  H   UNL     1      -5.732   1.233  -9.823  1.00  0.00     0.293 HD
ENDBRANCH  17  20
ENDBRANCH   1  12
BRANCH   2  22
ATOM     22  O   UNL     1      -1.587  -2.774  -8.538  1.00  0.00    -0.502 OA
ATOM     23  H   UNL     1      -2.577  -2.898  -8.367  1.00  0.00     0.293 HD
ENDBRANCH   2  22
BRANCH   6  24
ATOM     24  O   UNL     1       3.477  -1.124  -8.544  1.00  0.00    -0.507 OA
ATOM     25  H   UNL     1       3.244  -1.537  -9.434  1.00  0.00     0.293 HD
ENDBRANCH   6  24
BRANCH   8  26
ATOM     26  O   UNL     1       3.101   2.830  -5.875  1.00  0.00    -0.508 OA
ATOM     27  H   UNL     1       3.066   3.760  -6.278  1.00  0.00     0.293 HD
ENDBRANCH   8  26
TORSDOF 6
ENDMDL
MODEL 6
REMARK VINA RESULT:    -4.783      6.894      9.190
REMARK INTER + INTRA:          -6.060
REMARK INTER:                  -5.744
REMARK INTRA:                  -0.316
REMARK UNBOUND:                -0.299
REMARK SMILES O=c1c(O)c(-c2ccc(O)c(O)c2)oc2cc(O)cc(O)c12
REMARK SMILES IDX 5 1 3 2 2 3 1 4 22 5 20 6 19 7 17 8 16 9 15 10 14 11 6 12
REMARK SMILES IDX 7 13 8 14 9 15 13 16 11 17 10 18 12 20 4 22 21 24 18 26
REMARK H PARENT 10 19 12 21 4 23 21 25 18 27
REMARK Flexibility Score: inf
ROOT
ATOM      1  C   UNL     1      -0.795   0.864  -8.391  1.00  0.00     0.180 A 
ATOM      2  C   UNL     1      -0.574   2.223  -8.676  1.00  0.00     0.208 A 
ATOM      3  C   UNL     1       0.731   2.735  -8.586  1.00  0.00     0.238 A 
ATOM      4  O   UNL     1       0.931   3.938  -8.894  1.00  0.00    -0.285 OA
ATOM      5  C   UNL     1       1.795   1.886  -8.194  1.00  0.00     0.111 A 
ATOM      6  C   UNL     1       3.148   2.307  -8.031  1.00  0.00     0.134 A 
ATOM      7  C   UNL     1       4.141   1.354  -7.768  1.00  0.00     0.093 A 
ATOM      8  C   UNL     1       3.820   0.008  -7.598  1.00  0.00     0.123 A 
ATOM      9  C   UNL     1       2.491  -0.406  -7.697  1.00  0.00     0.094 A 
ATOM     10  C   UNL     1       1.483   0.515  -7.994  1.00  0.00     0.146 A 
ATOM     11  O   UNL     1       0.233   0.079  -8.091  1.00  0.00    -0.452 OA
ENDROOT
BRANCH   1  12
ATOM     12  C   UNL     1      -2.144   0.258  -8.441  1.00  0.00     0.025 A 
ATOM     13  C   UNL     1      -2.620  -0.376  -9.603  1.00  0.00     0.016 A 
ATOM     14  C   UNL     1      -3.907  -0.920  -9.634  1.00  0.00     0.051 A 
ATOM     15  C   UNL     1      -4.742  -0.827  -8.513  1.00  0.00     0.157 A 
ATOM     16  C   UNL     1      -2.993   0.367  -7.327  1.00  0.00     0.062 A 
ATOM     17  C   UNL     1      -4.282  -0.178  -7.355  1.00  0.00     0.158 A 
BRANCH  15  18
ATOM     18  O   UNL     1      -6.024  -1.372  -8.547  1.00  0.00    -0.504 OA
ATOM     19  H   UNL     1      -6.186  -2.359  -8.380  1.00  0.00     0.293 HD
ENDBRANCH  15  18
BRANCH  17  20
ATOM     20  O   UNL     1      -5.090  -0.062  -6.224  1.00  0.00    -0.504 OA
ATOM     21  H   UNL     1      -5.078  -0.751  -5.482  1.00  0.00     0.293 HD
ENDBRANCH  17  20
ENDBRANCH   1  12
BRANCH   2  22
ATOM     22  O   UNL     1      -1.634   3.038  -9.082  1.00  0.00    -0.502 OA
ATOM     23  H   UNL     1      -1.672   4.027  -8.871  1.00  0.00     0.293 HD
ENDBRANCH   2  22
BRANCH   6  24
ATOM     24  O   UNL     1       3.564   3.641  -8.088  1.00  0.00    -0.507 OA
ATOM     25  H   UNL     1       2.965   4.437  -7.929  1.00  0.00     0.293 HD
ENDBRANCH   6  24
BRANCH   8  26
ATOM     26  O   UNL     1       4.831  -0.909  -7.322  1.00  0.00    -0.508 OA
ATOM     27  H   UNL     1       5.025  -1.214  -6.375  1.00  0.00     0.293 HD
ENDBRANCH   8  26
TORSDOF 6
ENDMDL
MODEL 7
REMARK VINA RESULT:    -4.756      6.333      8.694
REMARK INTER + INTRA:          -6.027
REMARK INTER:                  -5.693
REMARK INTRA:                  -0.335
REMARK UNBOUND:                -0.299
REMARK SMILES O=c1c(O)c(-c2ccc(O)c(O)c2)oc2cc(O)cc(O)c12
REMARK SMILES IDX 5 1 3 2 2 3 1 4 22 5 20 6 19 7 17 8 16 9 15 10 14 11 6 12
REMARK SMILES IDX 7 13 8 14 9 15 13 16 11 17 10 18 12 20 4 22 21 24 18 26
REMARK H PARENT 10 19 12 21 4 23 21 25 18 27
REMARK Flexibility Score: inf
ROOT
ATOM      1  C   UNL     1      -1.312   0.460  -8.167  1.00  0.00     0.180 A 
ATOM      2  C   UNL     1      -0.248  -0.443  -7.993  1.00  0.00     0.208 A 
ATOM      3  C   UNL     1       1.066   0.052  -7.955  1.00  0.00     0.238 A 
ATOM      4  O   UNL     1       2.010  -0.754  -7.745  1.00  0.00    -0.285 OA
ATOM      5  C   UNL     1       1.300   1.440  -8.107  1.00  0.00     0.111 A 
ATOM      6  C   UNL     1       2.592   2.047  -8.125  1.00  0.00     0.134 A 
ATOM      7  C   UNL     1       2.699   3.443  -8.150  1.00  0.00     0.093 A 
ATOM      8  C   UNL     1       1.565   4.251  -8.225  1.00  0.00     0.123 A 
ATOM      9  C   UNL     1       0.299   3.667  -8.268  1.00  0.00     0.094 A 
ATOM     10  C   UNL     1       0.158   2.278  -8.208  1.00  0.00     0.146 A 
ATOM     11  O   UNL     1      -1.065   1.762  -8.241  1.00  0.00    -0.452 OA
ENDROOT
BRANCH   1  12
ATOM     12  C   UNL     1      -2.721   0.011  -8.242  1.00  0.00     0.025 A 
ATOM     13  C   UNL     1      -3.305  -0.365  -9.465  1.00  0.00     0.016 A 
ATOM     14  C   UNL     1      -4.644  -0.762  -9.515  1.00  0.00     0.051 A 
ATOM     15  C   UNL     1      -5.422  -0.777  -8.351  1.00  0.00     0.157 A 
ATOM     16  C   UNL     1      -3.511   0.014  -7.081  1.00  0.00     0.062 A 
ATOM     17  C   UNL     1      -4.852  -0.384  -7.128  1.00  0.00     0.158 A 
BRANCH  15  18
ATOM     18  O   UNL     1      -6.756  -1.176  -8.404  1.00  0.00    -0.504 OA
ATOM     19  H   UNL     1      -7.046  -1.989  -8.936  1.00  0.00     0.293 HD
ENDBRANCH  15  18
BRANCH  17  20
ATOM     20  O   UNL     1      -5.601  -0.381  -5.952  1.00  0.00    -0.504 OA
ATOM     21  H   UNL     1      -5.211  -0.681  -5.066  1.00  0.00     0.293 HD
ENDBRANCH  17  20
ENDBRANCH   1  12
BRANCH   2  22
ATOM     22  O   UNL     1      -0.503  -1.806  -7.822  1.00  0.00    -0.502 OA
ATOM     23  H   UNL     1      -0.053  -2.358  -7.102  1.00  0.00     0.293 HD
ENDBRANCH   2  22
BRANCH   6  24
ATOM     24  O   UNL     1       3.791   1.328  -8.146  1.00  0.00    -0.507 OA
ATOM     25  H   UNL     1       4.673   1.672  -7.798  1.00  0.00     0.293 HD
ENDBRANCH   6  24
BRANCH   8  26
ATOM     26  O   UNL     1       1.711   5.636  -8.265  1.00  0.00    -0.508 OA
ATOM     27  H   UNL     1       2.548   6.090  -7.919  1.00  0.00     0.293 HD
ENDBRANCH   8  26
TORSDOF 6
ENDMDL
MODEL 8
REMARK VINA RESULT:    -4.710      8.087      9.909
REMARK INTER + INTRA:          -5.972
REMARK INTER:                  -5.660
REMARK INTRA:                  -0.312
REMARK UNBOUND:                -0.299
REMARK SMILES O=c1c(O)c(-c2ccc(O)c(O)c2)oc2cc(O)cc(O)c12
REMARK SMILES IDX 5 1 3 2 2 3 1 4 22 5 20 6 19 7 17 8 16 9 15 10 14 11 6 12
REMARK SMILES IDX 7 13 8 14 9 15 13 16 11 17 10 18 12 20 4 22 21 24 18 26
REMARK H PARENT 10 19 12 21 4 23 21 25 18 27
REMARK Flexibility Score: inf
ROOT
ATOM      1  C   UNL     1       1.597  -0.460  -8.297  1.00  0.00     0.180 A 
ATOM      2  C   UNL     1       0.559   0.441  -8.002  1.00  0.00     0.208 A 
ATOM      3  C   UNL     1      -0.765  -0.026  -7.991  1.00  0.00     0.238 A 
ATOM      4  O   UNL     1      -1.686   0.772  -7.674  1.00  0.00    -0.285 OA
ATOM      5  C   UNL     1      -1.037  -1.383  -8.293  1.00  0.00     0.111 A 
ATOM      6  C   UNL     1      -2.343  -1.955  -8.351  1.00  0.00     0.134 A 
ATOM      7  C   UNL     1      -2.484  -3.336  -8.530  1.00  0.00     0.093 A 
ATOM      8  C   UNL     1      -1.372  -4.156  -8.718  1.00  0.00     0.123 A 
ATOM      9  C   UNL     1      -0.093  -3.599  -8.722  1.00  0.00     0.094 A 
ATOM     10  C   UNL     1       0.083  -2.229  -8.510  1.00  0.00     0.146 A 
ATOM     11  O   UNL     1       1.317  -1.740  -8.511  1.00  0.00    -0.452 OA
ENDROOT
BRANCH   1  12
ATOM     12  C   UNL     1       3.015  -0.037  -8.351  1.00  0.00     0.025 A 
ATOM     13  C   UNL     1       3.639   0.277  -9.572  1.00  0.00     0.016 A 
ATOM     14  C   UNL     1       4.985   0.650  -9.601  1.00  0.00     0.051 A 
ATOM     15  C   UNL     1       5.731   0.704  -8.416  1.00  0.00     0.157 A 
ATOM     16  C   UNL     1       3.772  -0.003  -7.169  1.00  0.00     0.062 A 
ATOM     17  C   UNL     1       5.120   0.373  -7.194  1.00  0.00     0.158 A 
BRANCH  15  18
ATOM     18  O   UNL     1       7.073   1.079  -8.448  1.00  0.00    -0.504 OA
ATOM     19  H   UNL     1       7.816   0.390  -8.439  1.00  0.00     0.293 HD
ENDBRANCH  15  18
BRANCH  17  20
ATOM     20  O   UNL     1       5.836   0.409  -5.998  1.00  0.00    -0.504 OA
ATOM     21  H   UNL     1       6.786   0.756  -5.950  1.00  0.00     0.293 HD
ENDBRANCH  17  20
ENDBRANCH   1  12
BRANCH   2  22
ATOM     22  O   UNL     1       0.849   1.771  -7.685  1.00  0.00    -0.502 OA
ATOM     23  H   UNL     1       0.425   2.551  -8.170  1.00  0.00     0.293 HD
ENDBRANCH   2  22
BRANCH   6  24
ATOM     24  O   UNL     1      -3.525  -1.212  -8.268  1.00  0.00    -0.507 OA
ATOM     25  H   UNL     1      -3.626  -0.349  -7.755  1.00  0.00     0.293 HD
ENDBRANCH   6  24
BRANCH   8  26
ATOM     26  O   UNL     1      -1.552  -5.524  -8.908  1.00  0.00    -0.508 OA
ATOM     27  H   UNL     1      -1.222  -6.201  -8.230  1.00  0.00     0.293 HD
ENDBRANCH   8  26
TORSDOF 6
ENDMDL
