MODEL 1
REMARK VINA RESULT:    -4.894      0.000      0.000
REMARK INTER + INTRA:         -14.830
REMARK INTER:                 -11.189
REMARK INTRA:                  -3.641
REMARK UNBOUND:                -3.641
REMARK SMILES CCCCCCCCCCCCCCCCCCCCCCCC(=O)[O-]
REMARK SMILES IDX 13 1 14 2 15 3 16 4 17 5 18 6 19 7 20 8 21 9 22 10 23 11
REMARK SMILES IDX 24 12 25 13 26 14 12 15 11 16 10 17 9 18 8 19 7 20 6 21 5 22
REMARK SMILES IDX 4 23 3 24 2 25 1 26
REMARK H PARENT
REMARK Flexibility Score: inf
ROOT
ATOM      1  C   UNL     1       7.869 -13.817  -2.438  1.00  0.00     0.000 C 
ENDROOT
BRANCH   1   2
ATOM      2  C   UNL     1       7.266 -13.390  -3.789  1.00  0.00     0.000 C 
BRANCH   2   3
ATOM      3  C   UNL     1       5.767 -13.042  -3.753  1.00  0.00     0.000 C 
BRANCH   3   4
ATOM      4  C   UNL     1       5.168 -12.826  -5.151  1.00  0.00     0.000 C 
BRANCH   4   5
ATOM      5  C   UNL     1       3.779 -13.469  -5.258  1.00  0.00     0.000 C 
BRANCH   5   6
ATOM      6  C   UNL     1       2.682 -12.482  -4.839  1.00  0.00     0.000 C 
BRANCH   6   7
ATOM      7  C   UNL     1       3.003 -11.064  -5.333  1.00  0.00     0.000 C 
BRANCH   7   8
ATOM      8  C   UNL     1       2.505 -10.803  -6.765  1.00  0.00     0.000 C 
BRANCH   8   9
ATOM      9  C   UNL     1       3.275  -9.712  -7.537  1.00  0.00     0.000 C 
BRANCH   9  10
ATOM     10  C   UNL     1       2.467  -8.437  -7.852  1.00  0.00     0.006 C 
BRANCH  10  11
ATOM     11  C   UNL     1       2.171  -7.556  -6.628  1.00  0.00     0.053 C 
BRANCH  11  12
ATOM     12  C   UNL     1       3.358  -6.735  -6.228  1.00  0.00     0.041 C 
ATOM     13  O   UNL     1       3.525  -6.407  -5.024  1.00  0.00    -0.550 OA
ATOM     14  O   UNL     1       4.297  -6.359  -7.180  1.00  0.00    -0.550 OA
ENDBRANCH  11  12
ENDBRANCH  10  11
ENDBRANCH   9  10
ENDBRANCH   8   9
ENDBRANCH   7   8
ENDBRANCH   6   7
ENDBRANCH   5   6
ENDBRANCH   4   5
ENDBRANCH   3   4
ENDBRANCH   2   3
ENDBRANCH   1   2
BRANCH   1  15
ATOM     15  C   UNL     1       7.289 -13.032  -1.249  1.00  0.00     0.000 C 
BRANCH  15  16
ATOM     16  C   UNL     1       8.376 -12.301  -0.444  1.00  0.00     0.000 C 
BRANCH  16  17
ATOM     17  C   UNL     1       8.140 -10.781  -0.392  1.00  0.00     0.000 C 
BRANCH  17  18
ATOM     18  C   UNL     1       7.654 -10.203  -1.734  1.00  0.00    -0.000 C 
BRANCH  18  19
ATOM     19  C   UNL     1       6.454  -9.242  -1.637  1.00  0.00    -0.000 C 
BRANCH  19  20
ATOM     20  C   UNL     1       5.249  -9.698  -2.476  1.00  0.00    -0.000 C 
BRANCH  20  21
ATOM     21  C   UNL     1       4.007  -9.985  -1.617  1.00  0.00    -0.000 C 
BRANCH  21  22
ATOM     22  C   UNL     1       4.152 -11.262  -0.772  1.00  0.00    -0.000 C 
BRANCH  22  23
ATOM     23  C   UNL     1       3.190 -12.378  -1.232  1.00  0.00    -0.000 C 
BRANCH  23  24
ATOM     24  C   UNL     1       3.636 -13.792  -0.812  1.00  0.00    -0.000 C 
BRANCH  24  25
ATOM     25  C   UNL     1       3.210 -14.912  -1.776  1.00  0.00    -0.003 C 
ATOM     26  C   UNL     1       2.428 -16.027  -1.082  1.00  0.00     0.004 C 
ENDBRANCH  24  25
ENDBRANCH  23  24
ENDBRANCH  22  23
ENDBRANCH  21  22
ENDBRANCH  20  21
ENDBRANCH  19  20
ENDBRANCH  18  19
ENDBRANCH  17  18
ENDBRANCH  16  17
ENDBRANCH  15  16
ENDBRANCH   1  15
TORSDOF 22
ENDMDL
MODEL 2
REMARK VINA RESULT:    -4.793      1.491      3.301
REMARK INTER + INTRA:         -14.599
REMARK INTER:                 -11.179
REMARK INTRA:                  -3.420
REMARK UNBOUND:                -3.641
REMARK SMILES CCCCCCCCCCCCCCCCCCCCCCCC(=O)[O-]
REMARK SMILES IDX 13 1 14 2 15 3 16 4 17 5 18 6 19 7 20 8 21 9 22 10 23 11
REMARK SMILES IDX 24 12 25 13 26 14 12 15 11 16 10 17 9 18 8 19 7 20 6 21 5 22
REMARK SMILES IDX 4 23 3 24 2 25 1 26
REMARK H PARENT
REMARK Flexibility Score: inf
ROOT
ATOM      1  C   UNL     1       8.606 -11.134  -0.802  1.00  0.00     0.000 C 
ENDROOT
BRANCH   1   2
ATOM      2  C   UNL     1       8.211 -12.582  -0.461  1.00  0.00     0.000 C 
BRANCH   2   3
ATOM      3  C   UNL     1       7.582 -13.378  -1.618  1.00  0.00     0.000 C 
BRANCH   3   4
ATOM      4  C   UNL     1       7.237 -12.502  -2.832  1.00  0.00     0.000 C 
BRANCH   4   5
ATOM      5  C   UNL     1       7.095 -13.352  -4.100  1.00  0.00     0.000 C 
BRANCH   5   6
ATOM      6  C   UNL     1       5.704 -13.183  -4.723  1.00  0.00     0.000 C 
BRANCH   6   7
ATOM      7  C   UNL     1       5.357 -11.697  -4.896  1.00  0.00     0.000 C 
BRANCH   7   8
ATOM      8  C   UNL     1       4.739 -11.384  -6.270  1.00  0.00     0.000 C 
BRANCH   8   9
ATOM      9  C   UNL     1       3.950 -10.061  -6.345  1.00  0.00     0.000 C 
BRANCH   9  10
ATOM     10  C   UNL     1       2.774 -10.056  -7.343  1.00  0.00     0.006 C 
BRANCH  10  11
ATOM     11  C   UNL     1       2.073  -8.696  -7.489  1.00  0.00     0.053 C 
BRANCH  11  12
ATOM     12  C   UNL     1       1.329  -8.312  -6.248  1.00  0.00     0.041 C 
ATOM     13  O   UNL     1       1.713  -7.332  -5.557  1.00  0.00    -0.550 OA
ATOM     14  O   UNL     1       0.192  -9.016  -5.872  1.00  0.00    -0.550 OA
ENDBRANCH  11  12
ENDBRANCH  10  11
ENDBRANCH   9  10
ENDBRANCH   8   9
ENDBRANCH   7   8
ENDBRANCH   6   7
ENDBRANCH   5   6
ENDBRANCH   4   5
ENDBRANCH   3   4
ENDBRANCH   2   3
ENDBRANCH   1   2
BRANCH   1  15
ATOM     15  C   UNL     1       7.804 -10.091  -0.005  1.00  0.00     0.000 C 
BRANCH  15  16
ATOM     16  C   UNL     1       6.830  -9.298  -0.892  1.00  0.00     0.000 C 
BRANCH  16  17
ATOM     17  C   UNL     1       5.361  -9.526  -0.495  1.00  0.00     0.000 C 
BRANCH  17  18
ATOM     18  C   UNL     1       4.638 -10.525  -1.418  1.00  0.00    -0.000 C 
BRANCH  18  19
ATOM     19  C   UNL     1       4.171 -11.825  -0.738  1.00  0.00    -0.000 C 
BRANCH  19  20
ATOM     20  C   UNL     1       3.407 -12.760  -1.691  1.00  0.00    -0.000 C 
BRANCH  20  21
ATOM     21  C   UNL     1       3.998 -14.178  -1.725  1.00  0.00    -0.000 C 
BRANCH  21  22
ATOM     22  C   UNL     1       2.996 -15.250  -1.261  1.00  0.00    -0.000 C 
BRANCH  22  23
ATOM     23  C   UNL     1       2.477 -16.110  -2.435  1.00  0.00    -0.000 C 
BRANCH  23  24
ATOM     24  C   UNL     1       1.582 -15.336  -3.421  1.00  0.00    -0.000 C 
BRANCH  24  25
ATOM     25  C   UNL     1       2.168 -15.183  -4.835  1.00  0.00    -0.003 C 
ATOM     26  C   UNL     1       2.118 -13.743  -5.345  1.00  0.00     0.004 C 
ENDBRANCH  24  25
ENDBRANCH  23  24
ENDBRANCH  22  23
ENDBRANCH  21  22
ENDBRANCH  20  21
ENDBRANCH  19  20
ENDBRANCH  18  19
ENDBRANCH  17  18
ENDBRANCH  16  17
ENDBRANCH  15  16
ENDBRANCH   1  15
TORSDOF 22
ENDMDL
MODEL 3
REMARK VINA RESULT:    -4.779      2.444      5.122
REMARK INTER + INTRA:         -14.566
REMARK INTER:                 -10.468
REMARK INTRA:                  -4.098
REMARK UNBOUND:                -3.641
REMARK SMILES CCCCCCCCCCCCCCCCCCCCCCCC(=O)[O-]
REMARK SMILES IDX 13 1 14 2 15 3 16 4 17 5 18 6 19 7 20 8 21 9 22 10 23 11
REMARK SMILES IDX 24 12 25 13 26 14 12 15 11 16 10 17 9 18 8 19 7 20 6 21 5 22
REMARK SMILES IDX 4 23 3 24 2 25 1 26
REMARK H PARENT
REMARK Flexibility Score: inf
ROOT
ATOM      1  C   UNL     1       3.594 -11.027  -5.552  1.00  0.00     0.000 C 
ENDROOT
BRANCH   1   2
ATOM      2  C   UNL     1       4.702 -10.177  -6.199  1.00  0.00     0.000 C 
BRANCH   2   3
ATOM      3  C   UNL     1       4.355  -9.593  -7.580  1.00  0.00     0.000 C 
BRANCH   3   4
ATOM      4  C   UNL     1       4.903  -8.172  -7.786  1.00  0.00     0.000 C 
BRANCH   4   5
ATOM      5  C   UNL     1       4.890  -7.383  -6.471  1.00  0.00     0.000 C 
BRANCH   5   6
ATOM      6  C   UNL     1       3.562  -6.638  -6.289  1.00  0.00     0.000 C 
BRANCH   6   7
ATOM      7  C   UNL     1       2.829  -7.122  -5.029  1.00  0.00     0.000 C 
BRANCH   7   8
ATOM      8  C   UNL     1       1.552  -7.918  -5.349  1.00  0.00     0.000 C 
BRANCH   8   9
ATOM      9  C   UNL     1       1.224  -8.052  -6.850  1.00  0.00     0.000 C 
BRANCH   9  10
ATOM     10  C   UNL     1       0.605  -9.401  -7.268  1.00  0.00     0.006 C 
BRANCH  10  11
ATOM     11  C   UNL     1       0.051 -10.233  -6.100  1.00  0.00     0.053 C 
BRANCH  11  12
ATOM     12  C   UNL     1      -0.248 -11.642  -6.508  1.00  0.00     0.041 C 
ATOM     13  O   UNL     1       0.644 -12.347  -7.048  1.00  0.00    -0.550 OA
ATOM     14  O   UNL     1      -1.502 -12.187  -6.261  1.00  0.00    -0.550 OA
ENDBRANCH  11  12
ENDBRANCH  10  11
ENDBRANCH   9  10
ENDBRANCH   8   9
ENDBRANCH   7   8
ENDBRANCH   6   7
ENDBRANCH   5   6
ENDBRANCH   4   5
ENDBRANCH   3   4
ENDBRANCH   2   3
ENDBRANCH   1   2
BRANCH   1  15
ATOM     15  C   UNL     1       3.856 -12.539  -5.664  1.00  0.00     0.000 C 
BRANCH  15  16
ATOM     16  C   UNL     1       3.533 -13.287  -4.360  1.00  0.00     0.000 C 
BRANCH  16  17
ATOM     17  C   UNL     1       4.793 -13.575  -3.524  1.00  0.00     0.000 C 
BRANCH  17  18
ATOM     18  C   UNL     1       6.097 -13.216  -4.261  1.00  0.00    -0.000 C 
BRANCH  18  19
ATOM     19  C   UNL     1       7.347 -13.111  -3.368  1.00  0.00    -0.000 C 
BRANCH  19  20
ATOM     20  C   UNL     1       7.073 -13.494  -1.904  1.00  0.00    -0.000 C 
BRANCH  20  21
ATOM     21  C   UNL     1       7.823 -12.593  -0.910  1.00  0.00    -0.000 C 
BRANCH  21  22
ATOM     22  C   UNL     1       8.012 -11.159  -1.433  1.00  0.00    -0.000 C 
BRANCH  22  23
ATOM     23  C   UNL     1       6.913 -10.202  -0.922  1.00  0.00    -0.000 C 
BRANCH  23  24
ATOM     24  C   UNL     1       5.973  -9.690  -2.031  1.00  0.00    -0.000 C 
BRANCH  24  25
ATOM     25  C   UNL     1       4.564 -10.307  -2.013  1.00  0.00    -0.003 C 
ATOM     26  C   UNL     1       4.284 -11.109  -0.743  1.00  0.00     0.004 C 
ENDBRANCH  24  25
ENDBRANCH  23  24
ENDBRANCH  22  23
ENDBRANCH  21  22
ENDBRANCH  20  21
ENDBRANCH  19  20
ENDBRANCH  18  19
ENDBRANCH  17  18
ENDBRANCH  16  17
ENDBRANCH  15  16
ENDBRANCH   1  15
TORSDOF 22
ENDMDL
MODEL 4
REMARK VINA RESULT:    -4.743      2.782      6.701
REMARK INTER + INTRA:         -14.484
REMARK INTER:                 -10.388
REMARK INTRA:                  -4.096
REMARK UNBOUND:                -3.641
REMARK SMILES CCCCCCCCCCCCCCCCCCCCCCCC(=O)[O-]
REMARK SMILES IDX 13 1 14 2 15 3 16 4 17 5 18 6 19 7 20 8 21 9 22 10 23 11
REMARK SMILES IDX 24 12 25 13 26 14 12 15 11 16 10 17 9 18 8 19 7 20 6 21 5 22
REMARK SMILES IDX 4 23 3 24 2 25 1 26
REMARK H PARENT
REMARK Flexibility Score: inf
ROOT
ATOM      1  C   UNL     1       7.338 -13.627  -2.355  1.00  0.00     0.000 C 
ENDROOT
BRANCH   1   2
ATOM      2  C   UNL     1       7.434 -12.913  -0.995  1.00  0.00     0.000 C 
BRANCH   2   3
ATOM      3  C   UNL     1       8.864 -12.587  -0.529  1.00  0.00     0.000 C 
BRANCH   3   4
ATOM      4  C   UNL     1       9.041 -11.117  -0.118  1.00  0.00     0.000 C 
BRANCH   4   5
ATOM      5  C   UNL     1       7.708 -10.510   0.339  1.00  0.00     0.000 C 
BRANCH   5   6
ATOM      6  C   UNL     1       7.385  -9.235  -0.448  1.00  0.00     0.000 C 
BRANCH   6   7
ATOM      7  C   UNL     1       5.872  -9.091  -0.663  1.00  0.00     0.000 C 
BRANCH   7   8
ATOM      8  C   UNL     1       5.363  -9.882  -1.880  1.00  0.00     0.000 C 
BRANCH   8   9
ATOM      9  C   UNL     1       4.050 -10.659  -1.653  1.00  0.00     0.000 C 
BRANCH   9  10
ATOM     10  C   UNL     1       4.208 -12.020  -0.945  1.00  0.00     0.006 C 
BRANCH  10  11
ATOM     11  C   UNL     1       2.963 -12.918  -1.014  1.00  0.00     0.053 C 
BRANCH  11  12
ATOM     12  C   UNL     1       3.301 -14.313  -1.441  1.00  0.00     0.041 C 
ATOM     13  O   UNL     1       3.738 -14.531  -2.601  1.00  0.00    -0.550 OA
ATOM     14  O   UNL     1       3.164 -15.367  -0.547  1.00  0.00    -0.550 OA
ENDBRANCH  11  12
ENDBRANCH  10  11
ENDBRANCH   9  10
ENDBRANCH   8   9
ENDBRANCH   7   8
ENDBRANCH   6   7
ENDBRANCH   5   6
ENDBRANCH   4   5
ENDBRANCH   3   4
ENDBRANCH   2   3
ENDBRANCH   1   2
BRANCH   1  15
ATOM     15  C   UNL     1       7.213 -12.650  -3.537  1.00  0.00     0.000 C 
BRANCH  15  16
ATOM     16  C   UNL     1       6.209 -13.136  -4.594  1.00  0.00     0.000 C 
BRANCH  16  17
ATOM     17  C   UNL     1       5.256 -12.017  -5.052  1.00  0.00     0.000 C 
BRANCH  17  18
ATOM     18  C   UNL     1       3.851 -12.536  -5.413  1.00  0.00    -0.000 C 
BRANCH  18  19
ATOM     19  C   UNL     1       2.688 -11.839  -4.684  1.00  0.00    -0.000 C 
BRANCH  19  20
ATOM     20  C   UNL     1       1.560 -11.402  -5.633  1.00  0.00    -0.000 C 
BRANCH  20  21
ATOM     21  C   UNL     1       2.068 -11.094  -7.051  1.00  0.00    -0.000 C 
BRANCH  21  22
ATOM     22  C   UNL     1       2.320  -9.594  -7.279  1.00  0.00    -0.000 C 
BRANCH  22  23
ATOM     23  C   UNL     1       3.813  -9.283  -7.524  1.00  0.00    -0.000 C 
BRANCH  23  24
ATOM     24  C   UNL     1       4.377  -8.186  -6.602  1.00  0.00    -0.000 C 
BRANCH  24  25
ATOM     25  C   UNL     1       4.260  -8.489  -5.098  1.00  0.00    -0.003 C 
ATOM     26  C   UNL     1       3.131  -7.710  -4.423  1.00  0.00     0.004 C 
ENDBRANCH  24  25
ENDBRANCH  23  24
ENDBRANCH  22  23
ENDBRANCH  21  22
ENDBRANCH  20  21
ENDBRANCH  19  20
ENDBRANCH  18  19
ENDBRANCH  17  18
ENDBRANCH  16  17
ENDBRANCH  15  16
ENDBRANCH   1  15
TORSDOF 22
ENDMDL
MODEL 5
REMARK VINA RESULT:    -4.741      2.482      5.666
REMARK INTER + INTRA:         -14.479
REMARK INTER:                 -11.240
REMARK INTRA:                  -3.239
REMARK UNBOUND:                -3.641
REMARK SMILES CCCCCCCCCCCCCCCCCCCCCCCC(=O)[O-]
REMARK SMILES IDX 13 1 14 2 15 3 16 4 17 5 18 6 19 7 20 8 21 9 22 10 23 11
REMARK SMILES IDX 24 12 25 13 26 14 12 15 11 16 10 17 9 18 8 19 7 20 6 21 5 22
REMARK SMILES IDX 4 23 3 24 2 25 1 26
REMARK H PARENT
REMARK Flexibility Score: inf
ROOT
ATOM      1  C   UNL     1       1.485  -7.981  -3.872  1.00  0.00     0.000 C 
ENDROOT
BRANCH   1   2
ATOM      2  C   UNL     1       1.656  -7.546  -5.339  1.00  0.00     0.000 C 
BRANCH   2   3
ATOM      3  C   UNL     1       1.014  -8.482  -6.377  1.00  0.00     0.000 C 
BRANCH   3   4
ATOM      4  C   UNL     1       1.743  -8.470  -7.729  1.00  0.00     0.000 C 
BRANCH   4   5
ATOM      5  C   UNL     1       2.489  -9.790  -7.963  1.00  0.00     0.000 C 
BRANCH   5   6
ATOM      6  C   UNL     1       4.007  -9.579  -7.922  1.00  0.00     0.000 C 
BRANCH   6   7
ATOM      7  C   UNL     1       4.385  -8.204  -8.490  1.00  0.00     0.000 C 
BRANCH   7   8
ATOM      8  C   UNL     1       5.346  -7.423  -7.576  1.00  0.00     0.000 C 
BRANCH   8   9
ATOM      9  C   UNL     1       4.779  -6.108  -7.004  1.00  0.00     0.000 C 
BRANCH   9  10
ATOM     10  C   UNL     1       5.534  -5.546  -5.782  1.00  0.00     0.006 C 
BRANCH  10  11
ATOM     11  C   UNL     1       5.411  -4.024  -5.606  1.00  0.00     0.053 C 
BRANCH  11  12
ATOM     12  C   UNL     1       6.736  -3.382  -5.332  1.00  0.00     0.041 C 
ATOM     13  O   UNL     1       7.324  -2.733  -6.237  1.00  0.00    -0.550 OA
ATOM     14  O   UNL     1       7.305  -3.473  -4.068  1.00  0.00    -0.550 OA
ENDBRANCH  11  12
ENDBRANCH  10  11
ENDBRANCH   9  10
ENDBRANCH   8   9
ENDBRANCH   7   8
ENDBRANCH   6   7
ENDBRANCH   5   6
ENDBRANCH   4   5
ENDBRANCH   3   4
ENDBRANCH   2   3
ENDBRANCH   1   2
BRANCH   1  15
ATOM     15  C   UNL     1       2.806  -8.432  -3.224  1.00  0.00     0.000 C 
BRANCH  15  16
ATOM     16  C   UNL     1       3.921  -8.652  -4.259  1.00  0.00     0.000 C 
BRANCH  16  17
ATOM     17  C   UNL     1       4.666  -9.980  -4.041  1.00  0.00     0.000 C 
BRANCH  17  18
ATOM     18  C   UNL     1       3.913 -11.192  -4.622  1.00  0.00    -0.000 C 
BRANCH  18  19
ATOM     19  C   UNL     1       4.791 -12.209  -5.376  1.00  0.00    -0.000 C 
BRANCH  19  20
ATOM     20  C   UNL     1       5.342 -13.319  -4.466  1.00  0.00    -0.000 C 
BRANCH  20  21
ATOM     21  C   UNL     1       6.870 -13.250  -4.312  1.00  0.00    -0.000 C 
BRANCH  21  22
ATOM     22  C   UNL     1       7.328 -13.411  -2.853  1.00  0.00    -0.000 C 
BRANCH  22  23
ATOM     23  C   UNL     1       6.779 -12.291  -1.942  1.00  0.00    -0.000 C 
BRANCH  23  24
ATOM     24  C   UNL     1       7.583 -10.979  -2.023  1.00  0.00    -0.000 C 
BRANCH  24  25
ATOM     25  C   UNL     1       8.085 -10.450  -0.669  1.00  0.00    -0.003 C 
ATOM     26  C   UNL     1       8.971 -11.454   0.068  1.00  0.00     0.004 C 
ENDBRANCH  24  25
ENDBRANCH  23  24
ENDBRANCH  22  23
ENDBRANCH  21  22
ENDBRANCH  20  21
ENDBRANCH  19  20
ENDBRANCH  18  19
ENDBRANCH  17  18
ENDBRANCH  16  17
ENDBRANCH  15  16
ENDBRANCH   1  15
TORSDOF 22
ENDMDL
MODEL 6
REMARK VINA RESULT:    -4.737      1.536      4.216
REMARK INTER + INTRA:         -14.469
REMARK INTER:                 -10.382
REMARK INTRA:                  -4.088
REMARK UNBOUND:                -3.641
REMARK SMILES CCCCCCCCCCCCCCCCCCCCCCCC(=O)[O-]
REMARK SMILES IDX 13 1 14 2 15 3 16 4 17 5 18 6 19 7 20 8 21 9 22 10 23 11
REMARK SMILES IDX 24 12 25 13 26 14 12 15 11 16 10 17 9 18 8 19 7 20 6 21 5 22
REMARK SMILES IDX 4 23 3 24 2 25 1 26
REMARK H PARENT
REMARK Flexibility Score: inf
ROOT
ATOM      1  C   UNL     1       7.685 -13.791  -2.541  1.00  0.00     0.000 C 
ENDROOT
BRANCH   1   2
ATOM      2  C   UNL     1       7.332 -13.077  -1.224  1.00  0.00     0.000 C 
BRANCH   2   3
ATOM      3  C   UNL     1       8.529 -12.480  -0.463  1.00  0.00     0.000 C 
BRANCH   3   4
ATOM      4  C   UNL     1       8.360 -10.984  -0.156  1.00  0.00     0.000 C 
BRANCH   4   5
ATOM      5  C   UNL     1       6.916 -10.532  -0.408  1.00  0.00     0.000 C 
BRANCH   5   6
ATOM      6  C   UNL     1       6.827  -9.641  -1.652  1.00  0.00     0.000 C 
BRANCH   6   7
ATOM      7  C   UNL     1       5.860  -8.471  -1.422  1.00  0.00     0.000 C 
BRANCH   7   8
ATOM      8  C   UNL     1       4.700  -8.447  -2.432  1.00  0.00     0.000 C 
BRANCH   8   9
ATOM      9  C   UNL     1       4.781  -9.509  -3.547  1.00  0.00     0.000 C 
BRANCH   9  10
ATOM     10  C   UNL     1       3.887  -9.241  -4.774  1.00  0.00     0.006 C 
BRANCH  10  11
ATOM     11  C   UNL     1       4.430  -8.168  -5.732  1.00  0.00     0.053 C 
BRANCH  11  12
ATOM     12  C   UNL     1       4.697  -8.719  -7.098  1.00  0.00     0.041 C 
ATOM     13  O   UNL     1       4.996  -7.944  -8.045  1.00  0.00    -0.550 OA
ATOM     14  O   UNL     1       4.647 -10.089  -7.318  1.00  0.00    -0.550 OA
ENDBRANCH  11  12
ENDBRANCH  10  11
ENDBRANCH   9  10
ENDBRANCH   8   9
ENDBRANCH   7   8
ENDBRANCH   6   7
ENDBRANCH   5   6
ENDBRANCH   4   5
ENDBRANCH   3   4
ENDBRANCH   2   3
ENDBRANCH   1   2
BRANCH   1  15
ATOM     15  C   UNL     1       7.161 -13.050  -3.783  1.00  0.00     0.000 C 
BRANCH  15  16
ATOM     16  C   UNL     1       5.624 -13.013  -3.837  1.00  0.00     0.000 C 
BRANCH  16  17
ATOM     17  C   UNL     1       5.091 -13.011  -5.280  1.00  0.00     0.000 C 
BRANCH  17  18
ATOM     18  C   UNL     1       3.593 -13.360  -5.367  1.00  0.00    -0.000 C 
BRANCH  18  19
ATOM     19  C   UNL     1       2.955 -13.838  -4.050  1.00  0.00    -0.000 C 
BRANCH  19  20
ATOM     20  C   UNL     1       1.628 -13.128  -3.733  1.00  0.00    -0.000 C 
BRANCH  20  21
ATOM     21  C   UNL     1       1.837 -11.744  -3.100  1.00  0.00    -0.000 C 
BRANCH  21  22
ATOM     22  C   UNL     1       1.973 -11.805  -1.569  1.00  0.00    -0.000 C 
BRANCH  22  23
ATOM     23  C   UNL     1       3.449 -11.817  -1.114  1.00  0.00    -0.000 C 
BRANCH  23  24
ATOM     24  C   UNL     1       3.872 -13.125  -0.419  1.00  0.00    -0.000 C 
BRANCH  24  25
ATOM     25  C   UNL     1       2.717 -14.097  -0.124  1.00  0.00    -0.003 C 
ATOM     26  C   UNL     1       2.913 -15.466  -0.775  1.00  0.00     0.004 C 
ENDBRANCH  24  25
ENDBRANCH  23  24
ENDBRANCH  22  23
ENDBRANCH  21  22
ENDBRANCH  20  21
ENDBRANCH  19  20
ENDBRANCH  18  19
ENDBRANCH  17  18
ENDBRANCH  16  17
ENDBRANCH  15  16
ENDBRANCH   1  15
TORSDOF 22
ENDMDL
MODEL 7
REMARK VINA RESULT:    -4.717      1.295      2.323
REMARK INTER + INTRA:         -14.424
REMARK INTER:                  -9.897
REMARK INTRA:                  -4.527
REMARK UNBOUND:                -3.641
REMARK SMILES CCCCCCCCCCCCCCCCCCCCCCCC(=O)[O-]
REMARK SMILES IDX 13 1 14 2 15 3 16 4 17 5 18 6 19 7 20 8 21 9 22 10 23 11
REMARK SMILES IDX 24 12 25 13 26 14 12 15 11 16 10 17 9 18 8 19 7 20 6 21 5 22
REMARK SMILES IDX 4 23 3 24 2 25 1 26
REMARK H PARENT
REMARK Flexibility Score: inf
ROOT
ATOM      1  C   UNL     1       6.785 -12.817  -4.196  1.00  0.00     0.000 C 
ENDROOT
BRANCH   1   2
ATOM      2  C   UNL     1       5.390 -13.350  -4.572  1.00  0.00     0.000 C 
BRANCH   2   3
ATOM      3  C   UNL     1       4.614 -12.489  -5.584  1.00  0.00     0.000 C 
BRANCH   3   4
ATOM      4  C   UNL     1       5.126 -11.043  -5.660  1.00  0.00     0.000 C 
BRANCH   4   5
ATOM      5  C   UNL     1       4.628 -10.350  -6.935  1.00  0.00     0.000 C 
BRANCH   5   6
ATOM      6  C   UNL     1       3.095 -10.328  -6.986  1.00  0.00     0.000 C 
BRANCH   6   7
ATOM      7  C   UNL     1       2.598  -9.418  -8.119  1.00  0.00     0.000 C 
BRANCH   7   8
ATOM      8  C   UNL     1       1.607  -8.346  -7.633  1.00  0.00     0.000 C 
BRANCH   8   9
ATOM      9  C   UNL     1       1.671  -8.033  -6.124  1.00  0.00     0.000 C 
BRANCH   9  10
ATOM     10  C   UNL     1       2.506  -6.793  -5.746  1.00  0.00     0.006 C 
BRANCH  10  11
ATOM     11  C   UNL     1       3.938  -7.109  -5.287  1.00  0.00     0.053 C 
BRANCH  11  12
ATOM     12  C   UNL     1       4.964  -6.492  -6.186  1.00  0.00     0.041 C 
ATOM     13  O   UNL     1       5.800  -5.672  -5.723  1.00  0.00    -0.550 OA
ATOM     14  O   UNL     1       5.018  -6.846  -7.528  1.00  0.00    -0.550 OA
ENDBRANCH  11  12
ENDBRANCH  10  11
ENDBRANCH   9  10
ENDBRANCH   8   9
ENDBRANCH   7   8
ENDBRANCH   6   7
ENDBRANCH   5   6
ENDBRANCH   4   5
ENDBRANCH   3   4
ENDBRANCH   2   3
ENDBRANCH   1   2
BRANCH   1  15
ATOM     15  C   UNL     1       7.330 -13.432  -2.895  1.00  0.00     0.000 C 
BRANCH  15  16
ATOM     16  C   UNL     1       7.169 -12.490  -1.691  1.00  0.00     0.000 C 
BRANCH  16  17
ATOM     17  C   UNL     1       7.598 -11.049  -2.015  1.00  0.00     0.000 C 
BRANCH  17  18
ATOM     18  C   UNL     1       6.508 -10.011  -1.690  1.00  0.00    -0.000 C 
BRANCH  18  19
ATOM     19  C   UNL     1       5.079 -10.575  -1.574  1.00  0.00    -0.000 C 
BRANCH  19  20
ATOM     20  C   UNL     1       4.094  -9.918  -2.555  1.00  0.00    -0.000 C 
BRANCH  20  21
ATOM     21  C   UNL     1       2.638 -10.338  -2.296  1.00  0.00    -0.000 C 
BRANCH  21  22
ATOM     22  C   UNL     1       1.903 -10.756  -3.582  1.00  0.00    -0.000 C 
BRANCH  22  23
ATOM     23  C   UNL     1       1.567 -12.264  -3.596  1.00  0.00    -0.000 C 
BRANCH  23  24
ATOM     24  C   UNL     1       1.800 -12.963  -2.243  1.00  0.00    -0.000 C 
BRANCH  24  25
ATOM     25  C   UNL     1       2.737 -14.181  -2.304  1.00  0.00    -0.003 C 
ATOM     26  C   UNL     1       3.871 -14.108  -1.281  1.00  0.00     0.004 C 
ENDBRANCH  24  25
ENDBRANCH  23  24
ENDBRANCH  22  23
ENDBRANCH  21  22
ENDBRANCH  20  21
ENDBRANCH  19  20
ENDBRANCH  18  19
ENDBRANCH  17  18
ENDBRANCH  16  17
ENDBRANCH  15  16
ENDBRANCH   1  15
TORSDOF 22
ENDMDL
MODEL 8
REMARK VINA RESULT:    -4.701      1.612      4.214
REMARK INTER + INTRA:         -14.388
REMARK INTER:                 -11.564
REMARK INTRA:                  -2.824
REMARK UNBOUND:                -3.641
REMARK SMILES CCCCCCCCCCCCCCCCCCCCCCCC(=O)[O-]
REMARK SMILES IDX 13 1 14 2 15 3 16 4 17 5 18 6 19 7 20 8 21 9 22 10 23 11
REMARK SMILES IDX 24 12 25 13 26 14 12 15 11 16 10 17 9 18 8 19 7 20 6 21 5 22
REMARK SMILES IDX 4 23 3 24 2 25 1 26
REMARK H PARENT
REMARK Flexibility Score: inf
ROOT
ATOM      1  C   UNL     1       3.227 -12.511  -4.039  1.00  0.00     0.000 C 
ENDROOT
BRANCH   1   2
ATOM      2  C   UNL     1       3.068 -12.250  -5.548  1.00  0.00     0.000 C 
BRANCH   2   3
ATOM      3  C   UNL     1       1.625 -12.337  -6.076  1.00  0.00     0.000 C 
BRANCH   3   4
ATOM      4  C   UNL     1       1.214 -11.110  -6.904  1.00  0.00     0.000 C 
BRANCH   4   5
ATOM      5  C   UNL     1       2.113  -9.908  -6.588  1.00  0.00     0.000 C 
BRANCH   5   6
ATOM      6  C   UNL     1       1.550  -8.623  -7.206  1.00  0.00     0.000 C 
BRANCH   6   7
ATOM      7  C   UNL     1       1.940  -8.510  -8.687  1.00  0.00     0.000 C 
BRANCH   7   8
ATOM      8  C   UNL     1       3.417  -8.855  -8.945  1.00  0.00     0.000 C 
BRANCH   8   9
ATOM      9  C   UNL     1       4.385  -7.655  -8.906  1.00  0.00     0.000 C 
BRANCH   9  10
ATOM     10  C   UNL     1       5.406  -7.675  -7.751  1.00  0.00     0.006 C 
BRANCH  10  11
ATOM     11  C   UNL     1       4.833  -7.247  -6.391  1.00  0.00     0.053 C 
BRANCH  11  12
ATOM     12  C   UNL     1       4.377  -5.821  -6.398  1.00  0.00     0.041 C 
ATOM     13  O   UNL     1       3.151  -5.548  -6.309  1.00  0.00    -0.550 OA
ATOM     14  O   UNL     1       5.308  -4.792  -6.471  1.00  0.00    -0.550 OA
ENDBRANCH  11  12
ENDBRANCH  10  11
ENDBRANCH   9  10
ENDBRANCH   8   9
ENDBRANCH   7   8
ENDBRANCH   6   7
ENDBRANCH   5   6
ENDBRANCH   4   5
ENDBRANCH   3   4
ENDBRANCH   2   3
ENDBRANCH   1   2
BRANCH   1  15
ATOM     15  C   UNL     1       4.432 -13.410  -3.711  1.00  0.00     0.000 C 
BRANCH  15  16
ATOM     16  C   UNL     1       5.640 -13.124  -4.619  1.00  0.00     0.000 C 
BRANCH  16  17
ATOM     17  C   UNL     1       6.950 -12.990  -3.823  1.00  0.00     0.000 C 
BRANCH  17  18
ATOM     18  C   UNL     1       6.792 -13.373  -2.340  1.00  0.00    -0.000 C 
BRANCH  18  19
ATOM     19  C   UNL     1       8.109 -13.654  -1.592  1.00  0.00    -0.000 C 
BRANCH  19  20
ATOM     20  C   UNL     1       8.383 -12.651  -0.459  1.00  0.00    -0.000 C 
BRANCH  20  21
ATOM     21  C   UNL     1       8.393 -11.195  -0.952  1.00  0.00    -0.000 C 
BRANCH  21  22
ATOM     22  C   UNL     1       7.999 -10.193   0.147  1.00  0.00    -0.000 C 
BRANCH  22  23
ATOM     23  C   UNL     1       6.948  -9.173  -0.343  1.00  0.00    -0.000 C 
BRANCH  23  24
ATOM     24  C   UNL     1       6.490  -9.406  -1.795  1.00  0.00    -0.000 C 
BRANCH  24  25
ATOM     25  C   UNL     1       5.155 -10.157  -1.933  1.00  0.00    -0.003 C 
ATOM     26  C   UNL     1       4.366 -10.211  -0.625  1.00  0.00     0.004 C 
ENDBRANCH  24  25
ENDBRANCH  23  24
ENDBRANCH  22  23
ENDBRANCH  21  22
ENDBRANCH  20  21
ENDBRANCH  19  20
ENDBRANCH  18  19
ENDBRANCH  17  18
ENDBRANCH  16  17
ENDBRANCH  15  16
ENDBRANCH   1  15
TORSDOF 22
ENDMDL
MODEL 9
REMARK VINA RESULT:    -4.697      1.894      3.693
REMARK INTER + INTRA:         -14.378
REMARK INTER:                 -10.289
REMARK INTRA:                  -4.088
REMARK UNBOUND:                -3.641
REMARK SMILES CCCCCCCCCCCCCCCCCCCCCCCC(=O)[O-]
REMARK SMILES IDX 13 1 14 2 15 3 16 4 17 5 18 6 19 7 20 8 21 9 22 10 23 11
REMARK SMILES IDX 24 12 25 13 26 14 12 15 11 16 10 17 9 18 8 19 7 20 6 21 5 22
REMARK SMILES IDX 4 23 3 24 2 25 1 26
REMARK H PARENT
REMARK Flexibility Score: inf
ROOT
ATOM      1  C   UNL     1       5.726 -13.257  -4.830  1.00  0.00     0.000 C 
ENDROOT
BRANCH   1   2
ATOM      2  C   UNL     1       5.332 -11.831  -5.257  1.00  0.00     0.000 C 
BRANCH   2   3
ATOM      3  C   UNL     1       3.863 -11.658  -5.678  1.00  0.00     0.000 C 
BRANCH   3   4
ATOM      4  C   UNL     1       3.002 -10.992  -4.593  1.00  0.00     0.000 C 
BRANCH   4   5
ATOM      5  C   UNL     1       1.567 -10.774  -5.088  1.00  0.00     0.000 C 
BRANCH   5   6
ATOM      6  C   UNL     1       1.497 -10.835  -6.619  1.00  0.00     0.000 C 
BRANCH   6   7
ATOM      7  C   UNL     1       0.744  -9.621  -7.183  1.00  0.00     0.000 C 
BRANCH   7   8
ATOM      8  C   UNL     1       1.674  -8.608  -7.872  1.00  0.00     0.000 C 
BRANCH   8   9
ATOM      9  C   UNL     1       2.763  -9.226  -8.771  1.00  0.00     0.000 C 
BRANCH   9  10
ATOM     10  C   UNL     1       4.207  -9.075  -8.251  1.00  0.00     0.006 C 
BRANCH  10  11
ATOM     11  C   UNL     1       4.356  -8.105  -7.068  1.00  0.00     0.053 C 
BRANCH  11  12
ATOM     12  C   UNL     1       4.891  -6.775  -7.499  1.00  0.00     0.041 C 
ATOM     13  O   UNL     1       5.279  -5.940  -6.639  1.00  0.00    -0.550 OA
ATOM     14  O   UNL     1       4.991  -6.469  -8.850  1.00  0.00    -0.550 OA
ENDBRANCH  11  12
ENDBRANCH  10  11
ENDBRANCH   9  10
ENDBRANCH   8   9
ENDBRANCH   7   8
ENDBRANCH   6   7
ENDBRANCH   5   6
ENDBRANCH   4   5
ENDBRANCH   3   4
ENDBRANCH   2   3
ENDBRANCH   1   2
BRANCH   1  15
ATOM     15  C   UNL     1       7.145 -13.336  -4.242  1.00  0.00     0.000 C 
BRANCH  15  16
ATOM     16  C   UNL     1       7.237 -12.698  -2.846  1.00  0.00     0.000 C 
BRANCH  16  17
ATOM     17  C   UNL     1       6.294 -13.372  -1.834  1.00  0.00     0.000 C 
BRANCH  17  18
ATOM     18  C   UNL     1       5.263 -12.398  -1.233  1.00  0.00    -0.000 C 
BRANCH  18  19
ATOM     19  C   UNL     1       3.790 -12.797  -1.435  1.00  0.00    -0.000 C 
BRANCH  19  20
ATOM     20  C   UNL     1       3.624 -14.216  -2.003  1.00  0.00    -0.000 C 
BRANCH  20  21
ATOM     21  C   UNL     1       2.450 -14.323  -2.989  1.00  0.00    -0.000 C 
BRANCH  21  22
ATOM     22  C   UNL     1       2.196 -15.767  -3.456  1.00  0.00    -0.000 C 
BRANCH  22  23
ATOM     23  C   UNL     1       2.054 -15.867  -4.991  1.00  0.00    -0.000 C 
BRANCH  23  24
ATOM     24  C   UNL     1       1.683 -14.532  -5.666  1.00  0.00    -0.000 C 
BRANCH  24  25
ATOM     25  C   UNL     1       0.297 -14.514  -6.333  1.00  0.00    -0.003 C 
ATOM     26  C   UNL     1      -0.723 -13.679  -5.559  1.00  0.00     0.004 C 
ENDBRANCH  24  25
ENDBRANCH  23  24
ENDBRANCH  22  23
ENDBRANCH  21  22
ENDBRANCH  20  21
ENDBRANCH  19  20
ENDBRANCH  18  19
ENDBRANCH  17  18
ENDBRANCH  16  17
ENDBRANCH  15  16
ENDBRANCH   1  15
TORSDOF 22
ENDMDL
