MODEL 1
REMARK VINA RESULT:    30.158      0.000      0.000
REMARK INTER + INTRA:          36.072
REMARK INTER:                  36.328
REMARK INTRA:                  -0.256
REMARK UNBOUND:                -0.256
REMARK SMILES O=c1c(O)c(-c2ccc(O)c(O)c2)oc2cc(O)cc(O)c12
REMARK SMILES IDX 5 1 3 2 2 3 1 4 22 5 20 6 19 7 17 8 16 9 15 10 14 11 6 12
REMARK SMILES IDX 7 13 8 14 9 15 13 16 11 17 10 18 12 20 4 22 21 24 18 26
REMARK H PARENT 10 19 12 21 4 23 21 25 18 27
REMARK Flexibility Score: inf
ROOT
ATOM      1  C   UNL     1      20.082 -12.610 -16.305  1.00  0.00     0.180 A 
ATOM      2  C   UNL     1      19.973 -12.978 -17.657  1.00  0.00     0.208 A 
ATOM      3  C   UNL     1      21.032 -12.681 -18.531  1.00  0.00     0.238 A 
ATOM      4  O   UNL     1      20.953 -13.061 -19.729  1.00  0.00    -0.285 OA
ATOM      5  C   UNL     1      22.177 -12.005 -18.045  1.00  0.00     0.111 A 
ATOM      6  C   UNL     1      23.292 -11.618 -18.849  1.00  0.00     0.134 A 
ATOM      7  C   UNL     1      24.427 -11.071 -18.238  1.00  0.00     0.093 A 
ATOM      8  C   UNL     1      24.462 -10.838 -16.861  1.00  0.00     0.123 A 
ATOM      9  C   UNL     1      23.357 -11.157 -16.077  1.00  0.00     0.094 A 
ATOM     10  C   UNL     1      22.223 -11.737 -16.652  1.00  0.00     0.146 A 
ATOM     11  O   UNL     1      21.196 -12.037 -15.866  1.00  0.00    -0.452 OA
ENDROOT
BRANCH   1  12
ATOM     12  C   UNL     1      18.997 -12.868 -15.330  1.00  0.00     0.025 A 
ATOM     13  C   UNL     1      18.743 -14.162 -14.843  1.00  0.00     0.016 A 
ATOM     14  C   UNL     1      17.700 -14.385 -13.942  1.00  0.00     0.051 A 
ATOM     15  C   UNL     1      16.885 -13.324 -13.525  1.00  0.00     0.157 A 
ATOM     16  C   UNL     1      18.165 -11.811 -14.926  1.00  0.00     0.062 A 
ATOM     17  C   UNL     1      17.119 -12.031 -14.024  1.00  0.00     0.158 A 
BRANCH  15  18
ATOM     18  O   UNL     1      15.845 -13.550 -12.625  1.00  0.00    -0.504 OA
ATOM     19  H   UNL     1      15.674 -12.927 -11.843  1.00  0.00     0.293 HD
ENDBRANCH  15  18
BRANCH  17  20
ATOM     20  O   UNL     1      16.322 -10.955 -13.635  1.00  0.00    -0.504 OA
ATOM     21  H   UNL     1      15.824 -10.944 -12.752  1.00  0.00     0.293 HD
ENDBRANCH  17  20
ENDBRANCH   1  12
BRANCH   2  22
ATOM     22  O   UNL     1      18.843 -13.664 -18.112  1.00  0.00    -0.502 OA
ATOM     23  H   UNL     1      18.289 -14.258 -17.507  1.00  0.00     0.293 HD
ENDBRANCH   2  22
BRANCH   6  24
ATOM     24  O   UNL     1      23.321 -11.722 -20.243  1.00  0.00    -0.507 OA
ATOM     25  H   UNL     1      23.335 -12.590 -20.755  1.00  0.00     0.293 HD
ENDBRANCH   6  24
BRANCH   8  26
ATOM     26  O   UNL     1      25.589 -10.279 -16.264  1.00  0.00    -0.508 OA
ATOM     27  H   UNL     1      26.411 -10.036 -16.805  1.00  0.00     0.293 HD
ENDBRANCH   8  26
TORSDOF 6
ENDMDL
MODEL 2
REMARK VINA RESULT:    30.862      1.390      3.217
REMARK INTER + INTRA:          36.920
REMARK INTER:                  37.162
REMARK INTRA:                  -0.242
REMARK UNBOUND:                -0.256
REMARK SMILES O=c1c(O)c(-c2ccc(O)c(O)c2)oc2cc(O)cc(O)c12
REMARK SMILES IDX 5 1 3 2 2 3 1 4 22 5 20 6 19 7 17 8 16 9 15 10 14 11 6 12
REMARK SMILES IDX 7 13 8 14 9 15 13 16 11 17 10 18 12 20 4 22 21 24 18 26
REMARK H PARENT 10 19 12 21 4 23 21 25 18 27
REMARK Flexibility Score: inf
ROOT
ATOM      1  C   UNL     1      20.200 -12.613 -15.625  1.00  0.00     0.180 A 
ATOM      2  C   UNL     1      21.328 -12.108 -14.956  1.00  0.00     0.208 A 
ATOM      3  C   UNL     1      22.478 -11.797 -15.700  1.00  0.00     0.238 A 
ATOM      4  O   UNL     1      23.467 -11.294 -15.103  1.00  0.00    -0.285 OA
ATOM      5  C   UNL     1      22.491 -12.010 -17.099  1.00  0.00     0.111 A 
ATOM      6  C   UNL     1      23.616 -11.767 -17.945  1.00  0.00     0.134 A 
ATOM      7  C   UNL     1      23.473 -11.889 -19.333  1.00  0.00     0.093 A 
ATOM      8  C   UNL     1      22.268 -12.307 -19.900  1.00  0.00     0.123 A 
ATOM      9  C   UNL     1      21.183 -12.603 -19.079  1.00  0.00     0.094 A 
ATOM     10  C   UNL     1      21.282 -12.457 -17.693  1.00  0.00     0.146 A 
ATOM     11  O   UNL     1      20.220 -12.739 -16.947  1.00  0.00    -0.452 OA
ENDROOT
BRANCH   1  12
ATOM     12  C   UNL     1      18.960 -12.987 -14.907  1.00  0.00     0.025 A 
ATOM     13  C   UNL     1      18.099 -12.010 -14.378  1.00  0.00     0.016 A 
ATOM     14  C   UNL     1      16.946 -12.387 -13.683  1.00  0.00     0.051 A 
ATOM     15  C   UNL     1      16.646 -13.743 -13.493  1.00  0.00     0.157 A 
ATOM     16  C   UNL     1      18.666 -14.343 -14.696  1.00  0.00     0.062 A 
ATOM     17  C   UNL     1      17.513 -14.725 -14.000  1.00  0.00     0.158 A 
BRANCH  15  18
ATOM     18  O   UNL     1      15.495 -14.115 -12.800  1.00  0.00    -0.504 OA
ATOM     19  H   UNL     1      14.585 -13.739 -13.041  1.00  0.00     0.293 HD
ENDBRANCH  15  18
BRANCH  17  20
ATOM     20  O   UNL     1      17.247 -16.081 -13.822  1.00  0.00    -0.504 OA
ATOM     21  H   UNL     1      17.145 -16.718 -14.603  1.00  0.00     0.293 HD
ENDBRANCH  17  20
ENDBRANCH   1  12
BRANCH   2  22
ATOM     22  O   UNL     1      21.287 -11.886 -13.577  1.00  0.00    -0.502 OA
ATOM     23  H   UNL     1      20.725 -11.153 -13.161  1.00  0.00     0.293 HD
ENDBRANCH   2  22
BRANCH   6  24
ATOM     24  O   UNL     1      24.889 -11.436 -17.474  1.00  0.00    -0.507 OA
ATOM     25  H   UNL     1      25.357 -11.896 -16.709  1.00  0.00     0.293 HD
ENDBRANCH   6  24
BRANCH   8  26
ATOM     26  O   UNL     1      22.140 -12.440 -21.281  1.00  0.00    -0.508 OA
ATOM     27  H   UNL     1      22.866 -12.871 -21.841  1.00  0.00     0.293 HD
ENDBRANCH   8  26
TORSDOF 6
ENDMDL
MODEL 3
REMARK VINA RESULT:    31.477      4.488      7.524
REMARK INTER + INTRA:          37.662
REMARK INTER:                  37.955
REMARK INTRA:                  -0.293
REMARK UNBOUND:                -0.256
REMARK SMILES O=c1c(O)c(-c2ccc(O)c(O)c2)oc2cc(O)cc(O)c12
REMARK SMILES IDX 5 1 3 2 2 3 1 4 22 5 20 6 19 7 17 8 16 9 15 10 14 11 6 12
REMARK SMILES IDX 7 13 8 14 9 15 13 16 11 17 10 18 12 20 4 22 21 24 18 26
REMARK H PARENT 10 19 12 21 4 23 21 25 18 27
REMARK Flexibility Score: inf
ROOT
ATOM      1  C   UNL     1      22.413  -8.285 -18.426  1.00  0.00     0.180 A 
ATOM      2  C   UNL     1      23.054  -8.586 -17.212  1.00  0.00     0.208 A 
ATOM      3  C   UNL     1      23.301  -9.929 -16.887  1.00  0.00     0.238 A 
ATOM      4  O   UNL     1      23.924 -10.190 -15.824  1.00  0.00    -0.285 OA
ATOM      5  C   UNL     1      22.890 -10.955 -17.772  1.00  0.00     0.111 A 
ATOM      6  C   UNL     1      23.054 -12.352 -17.525  1.00  0.00     0.134 A 
ATOM      7  C   UNL     1      22.728 -13.273 -18.529  1.00  0.00     0.093 A 
ATOM      8  C   UNL     1      22.184 -12.851 -19.744  1.00  0.00     0.123 A 
ATOM      9  C   UNL     1      21.965 -11.495 -19.971  1.00  0.00     0.094 A 
ATOM     10  C   UNL     1      22.314 -10.549 -19.004  1.00  0.00     0.146 A 
ATOM     11  O   UNL     1      22.099  -9.265 -19.265  1.00  0.00    -0.452 OA
ENDROOT
BRANCH   1  12
ATOM     12  C   UNL     1      22.096  -6.895 -18.826  1.00  0.00     0.025 A 
ATOM     13  C   UNL     1      20.798  -6.373 -18.694  1.00  0.00     0.016 A 
ATOM     14  C   UNL     1      20.516  -5.067 -19.100  1.00  0.00     0.051 A 
ATOM     15  C   UNL     1      21.523  -4.266 -19.658  1.00  0.00     0.157 A 
ATOM     16  C   UNL     1      23.097  -6.097 -19.404  1.00  0.00     0.062 A 
ATOM     17  C   UNL     1      22.819  -4.788 -19.813  1.00  0.00     0.158 A 
BRANCH  15  18
ATOM     18  O   UNL     1      21.240  -2.963 -20.061  1.00  0.00    -0.504 OA
ATOM     19  H   UNL     1      21.721  -2.532 -20.842  1.00  0.00     0.293 HD
ENDBRANCH  15  18
BRANCH  17  20
ATOM     20  O   UNL     1      23.841  -4.020 -20.370  1.00  0.00    -0.504 OA
ATOM     21  H   UNL     1      24.456  -3.448 -19.804  1.00  0.00     0.293 HD
ENDBRANCH  17  20
ENDBRANCH   1  12
BRANCH   2  22
ATOM     22  O   UNL     1      23.470  -7.556 -16.363  1.00  0.00    -0.502 OA
ATOM     23  H   UNL     1      22.869  -7.163 -15.650  1.00  0.00     0.293 HD
ENDBRANCH   2  22
BRANCH   6  24
ATOM     24  O   UNL     1      23.501 -12.882 -16.312  1.00  0.00    -0.507 OA
ATOM     25  H   UNL     1      23.851 -12.336 -15.539  1.00  0.00     0.293 HD
ENDBRANCH   6  24
BRANCH   8  26
ATOM     26  O   UNL     1      21.849 -13.775 -20.731  1.00  0.00    -0.508 OA
ATOM     27  H   UNL     1      22.446 -13.934 -21.534  1.00  0.00     0.293 HD
ENDBRANCH   8  26
TORSDOF 6
ENDMDL
