MODEL 1
REMARK VINA RESULT:     1.500      0.000      0.000
REMARK INTER + INTRA:           2.433
REMARK INTER:                   3.956
REMARK INTRA:                  -1.523
REMARK UNBOUND:                -1.523
REMARK SMILES CCCCCCCCCCCCCCCCCCCCCCCCCCCCCC(=O)[O-]
REMARK SMILES IDX 16 1 17 2 18 3 19 4 20 5 21 6 22 7 23 8 24 9 25 10 26 11
REMARK SMILES IDX 27 12 28 13 29 14 30 15 31 16 32 17 15 18 14 19 13 20 12 21
REMARK SMILES IDX 11 22 10 23 9 24 8 25 7 26 6 27 5 28 4 29 3 30 2 31 1 32
REMARK H PARENT
REMARK Flexibility Score: inf
ROOT
ATOM      1  C   UNL     1      10.993 -31.461  13.763  1.00  0.00     0.000 C 
ENDROOT
BRANCH   1   2
ATOM      2  C   UNL     1      10.757 -32.960  13.509  1.00  0.00     0.000 C 
BRANCH   2   3
ATOM      3  C   UNL     1       9.377 -33.306  12.914  1.00  0.00     0.000 C 
BRANCH   3   4
ATOM      4  C   UNL     1       8.295 -32.229  13.115  1.00  0.00     0.000 C 
BRANCH   4   5
ATOM      5  C   UNL     1       6.871 -32.773  12.922  1.00  0.00     0.000 C 
BRANCH   5   6
ATOM      6  C   UNL     1       6.668 -34.081  13.700  1.00  0.00     0.000 C 
BRANCH   6   7
ATOM      7  C   UNL     1       5.939 -35.154  12.875  1.00  0.00     0.000 C 
BRANCH   7   8
ATOM      8  C   UNL     1       6.314 -36.584  13.301  1.00  0.00     0.000 C 
BRANCH   8   9
ATOM      9  C   UNL     1       7.273 -36.616  14.501  1.00  0.00     0.000 C 
BRANCH   9  10
ATOM     10  C   UNL     1       6.544 -36.455  15.847  1.00  0.00     0.000 C 
BRANCH  10  11
ATOM     11  C   UNL     1       7.364 -35.627  16.860  1.00  0.00     0.000 C 
BRANCH  11  12
ATOM     12  C   UNL     1       7.759 -34.232  16.345  1.00  0.00     0.000 C 
BRANCH  12  13
ATOM     13  C   UNL     1       8.956 -33.632  17.097  1.00  0.00     0.006 C 
BRANCH  13  14
ATOM     14  C   UNL     1       8.916 -32.100  17.060  1.00  0.00     0.053 C 
BRANCH  14  15
ATOM     15  C   UNL     1       8.771 -31.527  18.436  1.00  0.00     0.041 C 
ATOM     16  O   UNL     1       9.730 -31.578  19.253  1.00  0.00    -0.550 OA
ATOM     17  O   UNL     1       7.555 -30.987  18.840  1.00  0.00    -0.550 OA
ENDBRANCH  14  15
ENDBRANCH  13  14
ENDBRANCH  12  13
ENDBRANCH  11  12
ENDBRANCH  10  11
ENDBRANCH   9  10
ENDBRANCH   8   9
ENDBRANCH   7   8
ENDBRANCH   6   7
ENDBRANCH   5   6
ENDBRANCH   4   5
ENDBRANCH   3   4
ENDBRANCH   2   3
ENDBRANCH   1   2
BRANCH   1  18
ATOM     18  C   UNL     1      12.083 -31.204  14.817  1.00  0.00     0.000 C 
BRANCH  18  19
ATOM     19  C   UNL     1      13.460 -30.934  14.190  1.00  0.00     0.000 C 
BRANCH  19  20
ATOM     20  C   UNL     1      13.786 -29.432  14.108  1.00  0.00     0.000 C 
BRANCH  20  21
ATOM     21  C   UNL     1      15.273 -29.132  14.364  1.00  0.00     0.000 C 
BRANCH  21  22
ATOM     22  C   UNL     1      15.498 -27.733  14.963  1.00  0.00     0.000 C 
BRANCH  22  23
ATOM     23  C   UNL     1      15.884 -27.774  16.454  1.00  0.00     0.000 C 
BRANCH  23  24
ATOM     24  C   UNL     1      16.744 -26.590  16.938  1.00  0.00    -0.000 C 
BRANCH  24  25
ATOM     25  C   UNL     1      17.482 -25.820  15.825  1.00  0.00    -0.000 C 
BRANCH  25  26
ATOM     26  C   UNL     1      18.556 -24.831  16.320  1.00  0.00    -0.000 C 
BRANCH  26  27
ATOM     27  C   UNL     1      18.625 -23.501  15.546  1.00  0.00    -0.000 C 
BRANCH  27  28
ATOM     28  C   UNL     1      19.923 -22.720  15.816  1.00  0.00    -0.000 C 
BRANCH  28  29
ATOM     29  C   UNL     1      19.974 -21.383  15.060  1.00  0.00    -0.000 C 
BRANCH  29  30
ATOM     30  C   UNL     1      19.239 -20.256  15.806  1.00  0.00    -0.000 C 
BRANCH  30  31
ATOM     31  C   UNL     1      19.591 -18.862  15.262  1.00  0.00    -0.003 C 
ATOM     32  C   UNL     1      19.223 -17.738  16.230  1.00  0.00     0.004 C 
ENDBRANCH  30  31
ENDBRANCH  29  30
ENDBRANCH  28  29
ENDBRANCH  27  28
ENDBRANCH  26  27
ENDBRANCH  25  26
ENDBRANCH  24  25
ENDBRANCH  23  24
ENDBRANCH  22  23
ENDBRANCH  21  22
ENDBRANCH  20  21
ENDBRANCH  19  20
ENDBRANCH  18  19
ENDBRANCH   1  18
TORSDOF 28
ENDMDL
MODEL 2
REMARK VINA RESULT:     1.582      1.214      3.628
REMARK INTER + INTRA:           2.648
REMARK INTER:                   4.099
REMARK INTRA:                  -1.451
REMARK UNBOUND:                -1.523
REMARK SMILES CCCCCCCCCCCCCCCCCCCCCCCCCCCCCC(=O)[O-]
REMARK SMILES IDX 16 1 17 2 18 3 19 4 20 5 21 6 22 7 23 8 24 9 25 10 26 11
REMARK SMILES IDX 27 12 28 13 29 14 30 15 31 16 32 17 15 18 14 19 13 20 12 21
REMARK SMILES IDX 11 22 10 23 9 24 8 25 7 26 6 27 5 28 4 29 3 30 2 31 1 32
REMARK H PARENT
REMARK Flexibility Score: inf
ROOT
ATOM      1  C   UNL     1      14.272 -29.280  13.969  1.00  0.00     0.000 C 
ENDROOT
BRANCH   1   2
ATOM      2  C   UNL     1      13.977 -30.647  14.613  1.00  0.00     0.000 C 
BRANCH   2   3
ATOM      3  C   UNL     1      13.989 -31.838  13.635  1.00  0.00     0.000 C 
BRANCH   3   4
ATOM      4  C   UNL     1      12.676 -32.639  13.569  1.00  0.00     0.000 C 
BRANCH   4   5
ATOM      5  C   UNL     1      11.431 -31.756  13.743  1.00  0.00     0.000 C 
BRANCH   5   6
ATOM      6  C   UNL     1      10.145 -32.588  13.653  1.00  0.00     0.000 C 
BRANCH   6   7
ATOM      7  C   UNL     1       9.029 -31.873  12.875  1.00  0.00     0.000 C 
BRANCH   7   8
ATOM      8  C   UNL     1       7.686 -31.875  13.627  1.00  0.00     0.000 C 
BRANCH   8   9
ATOM      9  C   UNL     1       6.760 -33.019  13.188  1.00  0.00     0.000 C 
BRANCH   9  10
ATOM     10  C   UNL     1       6.223 -33.837  14.376  1.00  0.00     0.000 C 
BRANCH  10  11
ATOM     11  C   UNL     1       6.669 -35.314  14.317  1.00  0.00     0.000 C 
BRANCH  11  12
ATOM     12  C   UNL     1       7.553 -35.743  15.502  1.00  0.00     0.000 C 
BRANCH  12  13
ATOM     13  C   UNL     1       7.625 -34.685  16.612  1.00  0.00     0.006 C 
BRANCH  13  14
ATOM     14  C   UNL     1       8.789 -33.717  16.374  1.00  0.00     0.053 C 
BRANCH  14  15
ATOM     15  C   UNL     1       8.798 -32.618  17.393  1.00  0.00     0.041 C 
ATOM     16  O   UNL     1       8.415 -32.839  18.573  1.00  0.00    -0.550 OA
ATOM     17  O   UNL     1       9.175 -31.332  17.023  1.00  0.00    -0.550 OA
ENDBRANCH  14  15
ENDBRANCH  13  14
ENDBRANCH  12  13
ENDBRANCH  11  12
ENDBRANCH  10  11
ENDBRANCH   9  10
ENDBRANCH   8   9
ENDBRANCH   7   8
ENDBRANCH   6   7
ENDBRANCH   5   6
ENDBRANCH   4   5
ENDBRANCH   3   4
ENDBRANCH   2   3
ENDBRANCH   1   2
BRANCH   1  18
ATOM     18  C   UNL     1      15.607 -28.679  14.440  1.00  0.00     0.000 C 
BRANCH  18  19
ATOM     19  C   UNL     1      15.487 -27.960  15.792  1.00  0.00     0.000 C 
BRANCH  19  20
ATOM     20  C   UNL     1      16.063 -26.534  15.755  1.00  0.00     0.000 C 
BRANCH  20  21
ATOM     21  C   UNL     1      16.991 -26.236  16.945  1.00  0.00     0.000 C 
BRANCH  21  22
ATOM     22  C   UNL     1      18.433 -25.928  16.505  1.00  0.00     0.000 C 
BRANCH  22  23
ATOM     23  C   UNL     1      18.576 -24.546  15.841  1.00  0.00     0.000 C 
BRANCH  23  24
ATOM     24  C   UNL     1      19.822 -23.743  16.263  1.00  0.00    -0.000 C 
BRANCH  24  25
ATOM     25  C   UNL     1      19.847 -22.278  15.785  1.00  0.00    -0.000 C 
BRANCH  25  26
ATOM     26  C   UNL     1      18.550 -21.792  15.108  1.00  0.00    -0.000 C 
BRANCH  26  27
ATOM     27  C   UNL     1      18.303 -20.274  15.182  1.00  0.00    -0.000 C 
BRANCH  27  28
ATOM     28  C   UNL     1      19.553 -19.487  15.612  1.00  0.00    -0.000 C 
BRANCH  28  29
ATOM     29  C   UNL     1      19.363 -17.967  15.489  1.00  0.00    -0.000 C 
BRANCH  29  30
ATOM     30  C   UNL     1      19.415 -17.255  16.852  1.00  0.00    -0.000 C 
BRANCH  30  31
ATOM     31  C   UNL     1      18.017 -17.017  17.445  1.00  0.00    -0.003 C 
ATOM     32  C   UNL     1      17.987 -17.154  18.967  1.00  0.00     0.004 C 
ENDBRANCH  30  31
ENDBRANCH  29  30
ENDBRANCH  28  29
ENDBRANCH  27  28
ENDBRANCH  26  27
ENDBRANCH  25  26
ENDBRANCH  24  25
ENDBRANCH  23  24
ENDBRANCH  22  23
ENDBRANCH  21  22
ENDBRANCH  20  21
ENDBRANCH  19  20
ENDBRANCH  18  19
ENDBRANCH   1  18
TORSDOF 28
ENDMDL
MODEL 3
REMARK VINA RESULT:     1.850      1.198      2.213
REMARK INTER + INTRA:           3.356
REMARK INTER:                   5.567
REMARK INTRA:                  -2.211
REMARK UNBOUND:                -1.523
REMARK SMILES CCCCCCCCCCCCCCCCCCCCCCCCCCCCCC(=O)[O-]
REMARK SMILES IDX 16 1 17 2 18 3 19 4 20 5 21 6 22 7 23 8 24 9 25 10 26 11
REMARK SMILES IDX 27 12 28 13 29 14 30 15 31 16 32 17 15 18 14 19 13 20 12 21
REMARK SMILES IDX 11 22 10 23 9 24 8 25 7 26 6 27 5 28 4 29 3 30 2 31 1 32
REMARK H PARENT
REMARK Flexibility Score: inf
ROOT
ATOM      1  C   UNL     1      11.014 -32.436  13.577  1.00  0.00     0.000 C 
ENDROOT
BRANCH   1   2
ATOM      2  C   UNL     1      12.069 -33.448  13.096  1.00  0.00     0.000 C 
BRANCH   2   3
ATOM      3  C   UNL     1      11.628 -34.923  13.165  1.00  0.00     0.000 C 
BRANCH   3   4
ATOM      4  C   UNL     1      10.279 -35.167  13.865  1.00  0.00     0.000 C 
BRANCH   4   5
ATOM      5  C   UNL     1       9.132 -35.419  12.875  1.00  0.00     0.000 C 
BRANCH   5   6
ATOM      6  C   UNL     1       7.851 -35.840  13.608  1.00  0.00     0.000 C 
BRANCH   6   7
ATOM      7  C   UNL     1       6.576 -35.338  12.911  1.00  0.00     0.000 C 
BRANCH   7   8
ATOM      8  C   UNL     1       6.092 -33.986  13.462  1.00  0.00     0.000 C 
BRANCH   8   9
ATOM      9  C   UNL     1       6.953 -32.807  12.987  1.00  0.00     0.000 C 
BRANCH   9  10
ATOM     10  C   UNL     1       7.649 -32.075  14.149  1.00  0.00     0.000 C 
BRANCH  10  11
ATOM     11  C   UNL     1       7.289 -32.682  15.522  1.00  0.00     0.000 C 
BRANCH  11  12
ATOM     12  C   UNL     1       8.379 -33.601  16.100  1.00  0.00     0.000 C 
BRANCH  12  13
ATOM     13  C   UNL     1       8.496 -33.507  17.628  1.00  0.00     0.006 C 
BRANCH  13  14
ATOM     14  C   UNL     1       8.026 -32.138  18.132  1.00  0.00     0.053 C 
BRANCH  14  15
ATOM     15  C   UNL     1       9.178 -31.314  18.620  1.00  0.00     0.041 C 
ATOM     16  O   UNL     1       9.392 -31.186  19.855  1.00  0.00    -0.550 OA
ATOM     17  O   UNL     1       9.982 -30.635  17.711  1.00  0.00    -0.550 OA
ENDBRANCH  14  15
ENDBRANCH  13  14
ENDBRANCH  12  13
ENDBRANCH  11  12
ENDBRANCH  10  11
ENDBRANCH   9  10
ENDBRANCH   8   9
ENDBRANCH   7   8
ENDBRANCH   6   7
ENDBRANCH   5   6
ENDBRANCH   4   5
ENDBRANCH   3   4
ENDBRANCH   2   3
ENDBRANCH   1   2
BRANCH   1  18
ATOM     18  C   UNL     1      11.562 -31.001  13.655  1.00  0.00     0.000 C 
BRANCH  18  19
ATOM     19  C   UNL     1      12.366 -30.744  14.939  1.00  0.00     0.000 C 
BRANCH  19  20
ATOM     20  C   UNL     1      13.863 -31.057  14.769  1.00  0.00     0.000 C 
BRANCH  20  21
ATOM     21  C   UNL     1      14.531 -30.192  13.686  1.00  0.00     0.000 C 
BRANCH  21  22
ATOM     22  C   UNL     1      14.508 -28.693  14.031  1.00  0.00     0.000 C 
BRANCH  22  23
ATOM     23  C   UNL     1      15.796 -28.218  14.729  1.00  0.00     0.000 C 
BRANCH  23  24
ATOM     24  C   UNL     1      15.586 -27.188  15.857  1.00  0.00    -0.000 C 
BRANCH  24  25
ATOM     25  C   UNL     1      16.625 -27.245  16.994  1.00  0.00    -0.000 C 
BRANCH  25  26
ATOM     26  C   UNL     1      17.890 -26.393  16.764  1.00  0.00    -0.000 C 
BRANCH  26  27
ATOM     27  C   UNL     1      17.632 -24.895  16.520  1.00  0.00    -0.000 C 
BRANCH  27  28
ATOM     28  C   UNL     1      18.810 -24.192  15.823  1.00  0.00    -0.000 C 
BRANCH  28  29
ATOM     29  C   UNL     1      18.841 -22.680  16.101  1.00  0.00    -0.000 C 
BRANCH  29  30
ATOM     30  C   UNL     1      19.688 -21.911  15.072  1.00  0.00    -0.000 C 
BRANCH  30  31
ATOM     31  C   UNL     1      20.200 -20.568  15.616  1.00  0.00    -0.003 C 
ATOM     32  C   UNL     1      19.313 -19.389  15.218  1.00  0.00     0.004 C 
ENDBRANCH  30  31
ENDBRANCH  29  30
ENDBRANCH  28  29
ENDBRANCH  27  28
ENDBRANCH  26  27
ENDBRANCH  25  26
ENDBRANCH  24  25
ENDBRANCH  23  24
ENDBRANCH  22  23
ENDBRANCH  21  22
ENDBRANCH  20  21
ENDBRANCH  19  20
ENDBRANCH  18  19
ENDBRANCH   1  18
TORSDOF 28
ENDMDL
MODEL 4
REMARK VINA RESULT:     2.240      4.288     14.791
REMARK INTER + INTRA:           4.383
REMARK INTER:                   6.230
REMARK INTRA:                  -1.847
REMARK UNBOUND:                -1.523
REMARK SMILES CCCCCCCCCCCCCCCCCCCCCCCCCCCCCC(=O)[O-]
REMARK SMILES IDX 16 1 17 2 18 3 19 4 20 5 21 6 22 7 23 8 24 9 25 10 26 11
REMARK SMILES IDX 27 12 28 13 29 14 30 15 31 16 32 17 15 18 14 19 13 20 12 21
REMARK SMILES IDX 11 22 10 23 9 24 8 25 7 26 6 27 5 28 4 29 3 30 2 31 1 32
REMARK H PARENT
REMARK Flexibility Score: inf
ROOT
ATOM      1  C   UNL     1      14.682 -29.176  15.143  1.00  0.00     0.000 C 
ENDROOT
BRANCH   1   2
ATOM      2  C   UNL     1      15.562 -27.968  14.777  1.00  0.00     0.000 C 
BRANCH   2   3
ATOM      3  C   UNL     1      16.094 -27.167  15.982  1.00  0.00     0.000 C 
BRANCH   3   4
ATOM      4  C   UNL     1      16.899 -25.905  15.619  1.00  0.00     0.000 C 
BRANCH   4   5
ATOM      5  C   UNL     1      17.795 -25.420  16.768  1.00  0.00     0.000 C 
BRANCH   5   6
ATOM      6  C   UNL     1      19.090 -24.794  16.234  1.00  0.00     0.000 C 
BRANCH   6   7
ATOM      7  C   UNL     1      19.044 -23.258  16.218  1.00  0.00     0.000 C 
BRANCH   7   8
ATOM      8  C   UNL     1      20.076 -22.643  15.256  1.00  0.00     0.000 C 
BRANCH   8   9
ATOM      9  C   UNL     1      20.319 -21.150  15.520  1.00  0.00     0.000 C 
BRANCH   9  10
ATOM     10  C   UNL     1      19.015 -20.331  15.545  1.00  0.00     0.000 C 
BRANCH  10  11
ATOM     11  C   UNL     1      19.199 -18.922  14.941  1.00  0.00     0.000 C 
BRANCH  11  12
ATOM     12  C   UNL     1      19.914 -17.934  15.879  1.00  0.00     0.000 C 
BRANCH  12  13
ATOM     13  C   UNL     1      18.943 -17.091  16.718  1.00  0.00     0.006 C 
BRANCH  13  14
ATOM     14  C   UNL     1      19.087 -17.409  18.210  1.00  0.00     0.053 C 
BRANCH  14  15
ATOM     15  C   UNL     1      17.824 -17.101  18.956  1.00  0.00     0.041 C 
ATOM     16  O   UNL     1      17.812 -17.097  20.216  1.00  0.00    -0.550 OA
ATOM     17  O   UNL     1      16.642 -16.875  18.258  1.00  0.00    -0.550 OA
ENDBRANCH  14  15
ENDBRANCH  13  14
ENDBRANCH  12  13
ENDBRANCH  11  12
ENDBRANCH  10  11
ENDBRANCH   9  10
ENDBRANCH   8   9
ENDBRANCH   7   8
ENDBRANCH   6   7
ENDBRANCH   5   6
ENDBRANCH   4   5
ENDBRANCH   3   4
ENDBRANCH   2   3
ENDBRANCH   1   2
BRANCH   1  18
ATOM     18  C   UNL     1      14.492 -30.148  13.967  1.00  0.00     0.000 C 
BRANCH  18  19
ATOM     19  C   UNL     1      14.005 -31.534  14.418  1.00  0.00     0.000 C 
BRANCH  19  20
ATOM     20  C   UNL     1      12.951 -32.127  13.467  1.00  0.00     0.000 C 
BRANCH  20  21
ATOM     21  C   UNL     1      11.556 -31.509  13.666  1.00  0.00     0.000 C 
BRANCH  21  22
ATOM     22  C   UNL     1      10.427 -32.544  13.529  1.00  0.00     0.000 C 
BRANCH  22  23
ATOM     23  C   UNL     1       9.057 -31.903  13.236  1.00  0.00     0.000 C 
BRANCH  23  24
ATOM     24  C   UNL     1       7.919 -32.900  12.939  1.00  0.00    -0.000 C 
BRANCH  24  25
ATOM     25  C   UNL     1       6.576 -32.581  13.625  1.00  0.00    -0.000 C 
BRANCH  25  26
ATOM     26  C   UNL     1       6.170 -33.559  14.746  1.00  0.00    -0.000 C 
BRANCH  26  27
ATOM     27  C   UNL     1       7.221 -34.631  15.090  1.00  0.00    -0.000 C 
BRANCH  27  28
ATOM     28  C   UNL     1       7.397 -34.829  16.606  1.00  0.00    -0.000 C 
BRANCH  28  29
ATOM     29  C   UNL     1       8.644 -34.116  17.152  1.00  0.00    -0.000 C 
BRANCH  29  30
ATOM     30  C   UNL     1       8.321 -32.727  17.729  1.00  0.00    -0.000 C 
BRANCH  30  31
ATOM     31  C   UNL     1       9.580 -31.872  17.946  1.00  0.00    -0.003 C 
ATOM     32  C   UNL     1       9.740 -30.774  16.895  1.00  0.00     0.004 C 
ENDBRANCH  30  31
ENDBRANCH  29  30
ENDBRANCH  28  29
ENDBRANCH  27  28
ENDBRANCH  26  27
ENDBRANCH  25  26
ENDBRANCH  24  25
ENDBRANCH  23  24
ENDBRANCH  22  23
ENDBRANCH  21  22
ENDBRANCH  20  21
ENDBRANCH  19  20
ENDBRANCH  18  19
ENDBRANCH   1  18
TORSDOF 28
ENDMDL
MODEL 5
REMARK VINA RESULT:     2.501     15.483     17.354
REMARK INTER + INTRA:           5.073
REMARK INTER:                   6.538
REMARK INTRA:                  -1.466
REMARK UNBOUND:                -1.523
REMARK SMILES CCCCCCCCCCCCCCCCCCCCCCCCCCCCCC(=O)[O-]
REMARK SMILES IDX 16 1 17 2 18 3 19 4 20 5 21 6 22 7 23 8 24 9 25 10 26 11
REMARK SMILES IDX 27 12 28 13 29 14 30 15 31 16 32 17 15 18 14 19 13 20 12 21
REMARK SMILES IDX 11 22 10 23 9 24 8 25 7 26 6 27 5 28 4 29 3 30 2 31 1 32
REMARK H PARENT
REMARK Flexibility Score: inf
ROOT
ATOM      1  C   UNL     1      17.141 -27.905  29.481  1.00  0.00     0.000 C 
ENDROOT
BRANCH   1   2
ATOM      2  C   UNL     1      17.495 -29.259  30.119  1.00  0.00     0.000 C 
BRANCH   2   3
ATOM      3  C   UNL     1      16.320 -29.972  30.818  1.00  0.00     0.000 C 
BRANCH   3   4
ATOM      4  C   UNL     1      16.717 -30.872  32.002  1.00  0.00     0.000 C 
BRANCH   4   5
ATOM      5  C   UNL     1      15.610 -31.860  32.396  1.00  0.00     0.000 C 
BRANCH   5   6
ATOM      6  C   UNL     1      15.118 -32.655  31.178  1.00  0.00     0.000 C 
BRANCH   6   7
ATOM      7  C   UNL     1      13.842 -33.460  31.471  1.00  0.00     0.000 C 
BRANCH   7   8
ATOM      8  C   UNL     1      13.971 -34.338  32.728  1.00  0.00     0.000 C 
BRANCH   8   9
ATOM      9  C   UNL     1      13.040 -35.559  32.699  1.00  0.00     0.000 C 
BRANCH   9  10
ATOM     10  C   UNL     1      13.749 -36.858  33.125  1.00  0.00     0.000 C 
BRANCH  10  11
ATOM     11  C   UNL     1      15.209 -36.916  32.626  1.00  0.00     0.000 C 
BRANCH  11  12
ATOM     12  C   UNL     1      15.338 -37.084  31.101  1.00  0.00     0.000 C 
BRANCH  12  13
ATOM     13  C   UNL     1      16.726 -36.702  30.570  1.00  0.00     0.006 C 
BRANCH  13  14
ATOM     14  C   UNL     1      16.649 -35.465  29.669  1.00  0.00     0.053 C 
BRANCH  14  15
ATOM     15  C   UNL     1      17.645 -35.543  28.552  1.00  0.00     0.041 C 
ATOM     16  O   UNL     1      18.679 -34.823  28.568  1.00  0.00    -0.550 OA
ATOM     17  O   UNL     1      17.402 -36.370  27.461  1.00  0.00    -0.550 OA
ENDBRANCH  14  15
ENDBRANCH  13  14
ENDBRANCH  12  13
ENDBRANCH  11  12
ENDBRANCH  10  11
ENDBRANCH   9  10
ENDBRANCH   8   9
ENDBRANCH   7   8
ENDBRANCH   6   7
ENDBRANCH   5   6
ENDBRANCH   4   5
ENDBRANCH   3   4
ENDBRANCH   2   3
ENDBRANCH   1   2
BRANCH   1  18
ATOM     18  C   UNL     1      16.778 -26.835  30.523  1.00  0.00     0.000 C 
BRANCH  18  19
ATOM     19  C   UNL     1      18.011 -26.264  31.240  1.00  0.00     0.000 C 
BRANCH  19  20
ATOM     20  C   UNL     1      18.343 -24.831  30.790  1.00  0.00     0.000 C 
BRANCH  20  21
ATOM     21  C   UNL     1      17.969 -23.775  31.844  1.00  0.00     0.000 C 
BRANCH  21  22
ATOM     22  C   UNL     1      19.135 -22.824  32.167  1.00  0.00     0.000 C 
BRANCH  22  23
ATOM     23  C   UNL     1      20.480 -23.557  32.329  1.00  0.00     0.000 C 
BRANCH  23  24
ATOM     24  C   UNL     1      21.668 -22.660  32.730  1.00  0.00    -0.000 C 
BRANCH  24  25
ATOM     25  C   UNL     1      22.090 -21.624  31.670  1.00  0.00    -0.000 C 
BRANCH  25  26
ATOM     26  C   UNL     1      22.888 -20.422  32.216  1.00  0.00    -0.000 C 
BRANCH  26  27
ATOM     27  C   UNL     1      24.177 -20.088  31.443  1.00  0.00    -0.000 C 
BRANCH  27  28
ATOM     28  C   UNL     1      24.285 -20.844  30.107  1.00  0.00    -0.000 C 
BRANCH  28  29
ATOM     29  C   UNL     1      25.073 -22.157  30.235  1.00  0.00    -0.000 C 
BRANCH  29  30
ATOM     30  C   UNL     1      25.808 -22.532  28.936  1.00  0.00    -0.000 C 
BRANCH  30  31
ATOM     31  C   UNL     1      25.081 -22.022  27.681  1.00  0.00    -0.003 C 
ATOM     32  C   UNL     1      25.579 -20.652  27.223  1.00  0.00     0.004 C 
ENDBRANCH  30  31
ENDBRANCH  29  30
ENDBRANCH  28  29
ENDBRANCH  27  28
ENDBRANCH  26  27
ENDBRANCH  25  26
ENDBRANCH  24  25
ENDBRANCH  23  24
ENDBRANCH  22  23
ENDBRANCH  21  22
ENDBRANCH  20  21
ENDBRANCH  19  20
ENDBRANCH  18  19
ENDBRANCH   1  18
TORSDOF 28
ENDMDL
MODEL 6
REMARK VINA RESULT:     2.920      4.518     13.997
REMARK INTER + INTRA:           6.176
REMARK INTER:                   8.321
REMARK INTRA:                  -2.145
REMARK UNBOUND:                -1.523
REMARK SMILES CCCCCCCCCCCCCCCCCCCCCCCCCCCCCC(=O)[O-]
REMARK SMILES IDX 16 1 17 2 18 3 19 4 20 5 21 6 22 7 23 8 24 9 25 10 26 11
REMARK SMILES IDX 27 12 28 13 29 14 30 15 31 16 32 17 15 18 14 19 13 20 12 21
REMARK SMILES IDX 11 22 10 23 9 24 8 25 7 26 6 27 5 28 4 29 3 30 2 31 1 32
REMARK H PARENT
REMARK Flexibility Score: inf
ROOT
ATOM      1  C   UNL     1      14.473 -31.501  13.412  1.00  0.00     0.000 C 
ENDROOT
BRANCH   1   2
ATOM      2  C   UNL     1      14.065 -30.440  14.448  1.00  0.00     0.000 C 
BRANCH   2   3
ATOM      3  C   UNL     1      15.240 -29.789  15.205  1.00  0.00     0.000 C 
BRANCH   3   4
ATOM      4  C   UNL     1      15.425 -28.283  14.947  1.00  0.00     0.000 C 
BRANCH   4   5
ATOM      5  C   UNL     1      15.595 -27.473  16.241  1.00  0.00     0.000 C 
BRANCH   5   6
ATOM      6  C   UNL     1      16.401 -26.192  15.991  1.00  0.00     0.000 C 
BRANCH   6   7
ATOM      7  C   UNL     1      17.766 -26.202  16.699  1.00  0.00     0.000 C 
BRANCH   7   8
ATOM      8  C   UNL     1      18.312 -24.787  16.956  1.00  0.00     0.000 C 
BRANCH   8   9
ATOM      9  C   UNL     1      18.788 -24.091  15.672  1.00  0.00     0.000 C 
BRANCH   9  10
ATOM     10  C   UNL     1      19.355 -22.684  15.936  1.00  0.00     0.000 C 
BRANCH  10  11
ATOM     11  C   UNL     1      18.776 -21.630  14.968  1.00  0.00     0.000 C 
BRANCH  11  12
ATOM     12  C   UNL     1      19.674 -20.393  14.786  1.00  0.00     0.000 C 
BRANCH  12  13
ATOM     13  C   UNL     1      19.756 -19.520  16.046  1.00  0.00     0.006 C 
BRANCH  13  14
ATOM     14  C   UNL     1      19.014 -18.195  15.845  1.00  0.00     0.053 C 
BRANCH  14  15
ATOM     15  C   UNL     1      18.955 -17.406  17.118  1.00  0.00     0.041 C 
ATOM     16  O   UNL     1      17.849 -17.009  17.572  1.00  0.00    -0.550 OA
ATOM     17  O   UNL     1      20.130 -17.059  17.776  1.00  0.00    -0.550 OA
ENDBRANCH  14  15
ENDBRANCH  13  14
ENDBRANCH  12  13
ENDBRANCH  11  12
ENDBRANCH  10  11
ENDBRANCH   9  10
ENDBRANCH   8   9
ENDBRANCH   7   8
ENDBRANCH   6   7
ENDBRANCH   5   6
ENDBRANCH   4   5
ENDBRANCH   3   4
ENDBRANCH   2   3
ENDBRANCH   1   2
BRANCH   1  18
ATOM     18  C   UNL     1      13.331 -32.476  13.080  1.00  0.00     0.000 C 
BRANCH  18  19
ATOM     19  C   UNL     1      11.968 -31.985  13.591  1.00  0.00     0.000 C 
BRANCH  19  20
ATOM     20  C   UNL     1      10.793 -32.779  12.994  1.00  0.00     0.000 C 
BRANCH  20  21
ATOM     21  C   UNL     1      10.483 -34.063  13.783  1.00  0.00     0.000 C 
BRANCH  21  22
ATOM     22  C   UNL     1      10.496 -35.319  12.894  1.00  0.00     0.000 C 
BRANCH  22  23
ATOM     23  C   UNL     1       9.284 -36.238  13.137  1.00  0.00     0.000 C 
BRANCH  23  24
ATOM     24  C   UNL     1       7.910 -35.590  12.875  1.00  0.00    -0.000 C 
BRANCH  24  25
ATOM     25  C   UNL     1       6.898 -35.718  14.031  1.00  0.00    -0.000 C 
BRANCH  25  26
ATOM     26  C   UNL     1       7.494 -35.535  15.441  1.00  0.00    -0.000 C 
BRANCH  26  27
ATOM     27  C   UNL     1       6.983 -34.303  16.211  1.00  0.00    -0.000 C 
BRANCH  27  28
ATOM     28  C   UNL     1       6.983 -33.023  15.356  1.00  0.00    -0.000 C 
BRANCH  28  29
ATOM     29  C   UNL     1       8.227 -32.154  15.597  1.00  0.00    -0.000 C 
BRANCH  29  30
ATOM     30  C   UNL     1       8.504 -31.926  17.094  1.00  0.00    -0.000 C 
BRANCH  30  31
ATOM     31  C   UNL     1       9.984 -31.626  17.380  1.00  0.00    -0.003 C 
ATOM     32  C   UNL     1      10.348 -30.160  17.148  1.00  0.00     0.004 C 
ENDBRANCH  30  31
ENDBRANCH  29  30
ENDBRANCH  28  29
ENDBRANCH  27  28
ENDBRANCH  26  27
ENDBRANCH  25  26
ENDBRANCH  24  25
ENDBRANCH  23  24
ENDBRANCH  22  23
ENDBRANCH  21  22
ENDBRANCH  20  21
ENDBRANCH  19  20
ENDBRANCH  18  19
ENDBRANCH   1  18
TORSDOF 28
ENDMDL
MODEL 7
REMARK VINA RESULT:     3.042      3.058      6.331
REMARK INTER + INTRA:           6.498
REMARK INTER:                   8.188
REMARK INTRA:                  -1.690
REMARK UNBOUND:                -1.523
REMARK SMILES CCCCCCCCCCCCCCCCCCCCCCCCCCCCCC(=O)[O-]
REMARK SMILES IDX 16 1 17 2 18 3 19 4 20 5 21 6 22 7 23 8 24 9 25 10 26 11
REMARK SMILES IDX 27 12 28 13 29 14 30 15 31 16 32 17 15 18 14 19 13 20 12 21
REMARK SMILES IDX 11 22 10 23 9 24 8 25 7 26 6 27 5 28 4 29 3 30 2 31 1 32
REMARK H PARENT
REMARK Flexibility Score: inf
ROOT
ATOM      1  C   UNL     1       9.348 -30.711  18.009  1.00  0.00     0.000 C 
ENDROOT
BRANCH   1   2
ATOM      2  C   UNL     1       9.760 -31.696  19.116  1.00  0.00     0.000 C 
BRANCH   2   3
ATOM      3  C   UNL     1       8.586 -32.367  19.855  1.00  0.00     0.000 C 
BRANCH   3   4
ATOM      4  C   UNL     1       7.712 -33.289  18.985  1.00  0.00     0.000 C 
BRANCH   4   5
ATOM      5  C   UNL     1       8.418 -34.602  18.613  1.00  0.00     0.000 C 
BRANCH   5   6
ATOM      6  C   UNL     1       7.919 -35.764  19.482  1.00  0.00     0.000 C 
BRANCH   6   7
ATOM      7  C   UNL     1       7.204 -36.851  18.663  1.00  0.00     0.000 C 
BRANCH   7   8
ATOM      8  C   UNL     1       7.425 -36.694  17.148  1.00  0.00     0.000 C 
BRANCH   8   9
ATOM      9  C   UNL     1       6.112 -36.524  16.370  1.00  0.00     0.000 C 
BRANCH   9  10
ATOM     10  C   UNL     1       6.179 -37.125  14.954  1.00  0.00     0.000 C 
BRANCH  10  11
ATOM     11  C   UNL     1       7.344 -36.540  14.126  1.00  0.00     0.000 C 
BRANCH  11  12
ATOM     12  C   UNL     1       6.889 -35.767  12.876  1.00  0.00     0.000 C 
BRANCH  12  13
ATOM     13  C   UNL     1       5.953 -34.594  13.202  1.00  0.00     0.006 C 
BRANCH  13  14
ATOM     14  C   UNL     1       6.745 -33.382  13.705  1.00  0.00     0.053 C 
BRANCH  14  15
ATOM     15  C   UNL     1       6.405 -33.064  15.129  1.00  0.00     0.041 C 
ATOM     16  O   UNL     1       6.204 -33.990  15.960  1.00  0.00    -0.550 OA
ATOM     17  O   UNL     1       6.251 -31.740  15.528  1.00  0.00    -0.550 OA
ENDBRANCH  14  15
ENDBRANCH  13  14
ENDBRANCH  12  13
ENDBRANCH  11  12
ENDBRANCH  10  11
ENDBRANCH   9  10
ENDBRANCH   8   9
ENDBRANCH   7   8
ENDBRANCH   6   7
ENDBRANCH   5   6
ENDBRANCH   4   5
ENDBRANCH   3   4
ENDBRANCH   2   3
ENDBRANCH   1   2
BRANCH   1  18
ATOM     18  C   UNL     1      10.179 -30.879  16.726  1.00  0.00     0.000 C 
BRANCH  18  19
ATOM     19  C   UNL     1       9.533 -31.850  15.726  1.00  0.00     0.000 C 
BRANCH  19  20
ATOM     20  C   UNL     1       9.793 -33.323  16.083  1.00  0.00     0.000 C 
BRANCH  20  21
ATOM     21  C   UNL     1       9.630 -34.265  14.878  1.00  0.00     0.000 C 
BRANCH  21  22
ATOM     22  C   UNL     1      10.236 -33.683  13.589  1.00  0.00     0.000 C 
BRANCH  22  23
ATOM     23  C   UNL     1      11.570 -34.346  13.200  1.00  0.00     0.000 C 
BRANCH  23  24
ATOM     24  C   UNL     1      12.716 -33.368  12.875  1.00  0.00    -0.000 C 
BRANCH  24  25
ATOM     25  C   UNL     1      12.545 -31.948  13.451  1.00  0.00    -0.000 C 
BRANCH  25  26
ATOM     26  C   UNL     1      13.788 -31.382  14.168  1.00  0.00    -0.000 C 
BRANCH  26  27
ATOM     27  C   UNL     1      14.024 -29.873  13.972  1.00  0.00    -0.000 C 
BRANCH  27  28
ATOM     28  C   UNL     1      15.063 -29.300  14.951  1.00  0.00    -0.000 C 
BRANCH  28  29
ATOM     29  C   UNL     1      15.599 -27.930  14.505  1.00  0.00    -0.000 C 
BRANCH  29  30
ATOM     30  C   UNL     1      15.577 -26.892  15.641  1.00  0.00    -0.000 C 
BRANCH  30  31
ATOM     31  C   UNL     1      16.610 -27.196  16.737  1.00  0.00    -0.003 C 
ATOM     32  C   UNL     1      17.604 -26.055  16.949  1.00  0.00     0.004 C 
ENDBRANCH  30  31
ENDBRANCH  29  30
ENDBRANCH  28  29
ENDBRANCH  27  28
ENDBRANCH  26  27
ENDBRANCH  25  26
ENDBRANCH  24  25
ENDBRANCH  23  24
ENDBRANCH  22  23
ENDBRANCH  21  22
ENDBRANCH  20  21
ENDBRANCH  19  20
ENDBRANCH  18  19
ENDBRANCH   1  18
TORSDOF 28
ENDMDL
