MODEL 1
REMARK VINA RESULT:    26.051      0.000      0.000
REMARK INTER + INTRA:          28.516
REMARK INTER:                  28.336
REMARK INTRA:                   0.180
REMARK UNBOUND:                 0.180
REMARK SMILES C[C@H]1[C@H](C)CC[C@@]2(C(=O)[O-])CC[C@]3(C)C(=CC[C@@H]4[C@]5(C)CC[C@@H](O)C(C)(C)[C@@H]5CC[C@@]43C)[C@H]12
REMARK SMILES IDX 7 1 6 2 11 3 33 4 5 5 12 6 15 7 2 8 3 9 13 10 16 11 1 12
REMARK SMILES IDX 4 13 14 14 31 15 17 16 18 17 30 18 32 19 19 20 29 21 28 22
REMARK SMILES IDX 21 23 20 24 25 25 22 26 23 27 26 28 27 29 8 30 9 31 10 32
REMARK SMILES IDX 24 33
REMARK H PARENT 24 34
REMARK Flexibility Score: inf
ROOT
ATOM      1  C   UNL     1      43.612 -32.333  12.129  1.00  0.00     0.017 C 
ATOM      2  C   UNL     1      44.478 -31.358  12.957  1.00  0.00     0.014 C 
ATOM      3  C   UNL     1      42.966 -33.367  13.125  1.00  0.00     0.014 C 
ATOM      4  C   UNL     1      42.518 -31.492  11.378  1.00  0.00     0.030 C 
ATOM      5  C   UNL     1      45.251 -30.402  12.062  1.00  0.00     0.004 C 
ATOM      6  C   UNL     1      41.437 -33.512  13.008  1.00  0.00     0.013 C 
ATOM      7  C   UNL     1      41.477 -32.453  10.730  1.00  0.00    -0.063 C 
ATOM      8  C   UNL     1      43.133 -30.332  10.484  1.00  0.00    -0.003 C 
ATOM      9  C   UNL     1      44.330 -29.560  11.160  1.00  0.00    -0.011 C 
ATOM     10  C   UNL     1      40.929 -33.650  11.541  1.00  0.00    -0.006 C 
ATOM     11  C   UNL     1      41.029 -32.310   9.465  1.00  0.00    -0.027 C 
ATOM     12  C   UNL     1      42.055 -29.271  10.126  1.00  0.00     0.008 C 
ATOM     13  C   UNL     1      45.222 -28.878  10.093  1.00  0.00     0.008 C 
ATOM     14  C   UNL     1      41.627 -34.938  10.973  1.00  0.00     0.017 C 
ATOM     15  C   UNL     1      39.291 -33.762  11.434  1.00  0.00    -0.020 C 
ATOM     16  C   UNL     1      39.785 -33.022   9.009  1.00  0.00     0.032 C 
ATOM     17  C   UNL     1      38.714 -33.021  10.131  1.00  0.00     0.006 C 
ATOM     18  C   UNL     1      38.535 -33.252  12.692  1.00  0.00     0.008 C 
ATOM     19  C   UNL     1      38.859 -35.274  11.367  1.00  0.00     0.012 C 
ATOM     20  C   UNL     1      37.852 -31.626  10.243  1.00  0.00    -0.025 C 
ATOM     21  C   UNL     1      38.484 -31.748  12.743  1.00  0.00     0.005 C 
ATOM     22  C   UNL     1      37.458 -31.209  11.738  1.00  0.00     0.003 C 
ATOM     23  C   UNL     1      38.572 -30.399   9.619  1.00  0.00     0.010 C 
ATOM     24  C   UNL     1      36.574 -31.893   9.377  1.00  0.00     0.012 C 
ATOM     25  C   UNL     1      37.181 -29.654  12.041  1.00  0.00    -0.006 C 
ATOM     26  C   UNL     1      37.742 -29.088   9.579  1.00  0.00     0.033 C 
ATOM     27  C   UNL     1      36.756 -28.877  10.754  1.00  0.00     0.120 C 
ATOM     28  C   UNL     1      38.414 -28.891  12.630  1.00  0.00     0.014 C 
ATOM     29  C   UNL     1      36.070 -29.533  13.125  1.00  0.00     0.014 C 
ENDROOT
BRANCH   1  30
ATOM     30  C   UNL     1      44.532 -33.090  11.165  1.00  0.00     0.048 C 
ATOM     31  O   UNL     1      44.410 -32.994   9.915  1.00  0.00    -0.550 OA
ATOM     32  O   UNL     1      45.542 -33.901  11.676  1.00  0.00    -0.550 OA
ENDBRANCH   1  30
BRANCH  27  33
ATOM     33  O   UNL     1      35.425 -29.097  10.342  1.00  0.00    -0.393 OA
ATOM     34  H   UNL     1      34.902 -28.262  10.421  1.00  0.00     0.210 HD
ENDBRANCH  27  33
TORSDOF 2
ENDMDL
MODEL 2
REMARK VINA RESULT:    27.587      1.673      2.514
REMARK INTER + INTRA:          30.186
REMARK INTER:                  29.958
REMARK INTRA:                   0.228
REMARK UNBOUND:                 0.180
REMARK SMILES C[C@H]1[C@H](C)CC[C@@]2(C(=O)[O-])CC[C@]3(C)C(=CC[C@@H]4[C@]5(C)CC[C@@H](O)C(C)(C)[C@@H]5CC[C@@]43C)[C@H]12
REMARK SMILES IDX 7 1 6 2 11 3 33 4 5 5 12 6 15 7 2 8 3 9 13 10 16 11 1 12
REMARK SMILES IDX 4 13 14 14 31 15 17 16 18 17 30 18 32 19 19 20 29 21 28 22
REMARK SMILES IDX 21 23 20 24 25 25 22 26 23 27 26 28 27 29 8 30 9 31 10 32
REMARK SMILES IDX 24 33
REMARK H PARENT 24 34
REMARK Flexibility Score: inf
ROOT
ATOM      1  C   UNL     1      43.650 -30.320  11.800  1.00  0.00     0.017 C 
ATOM      2  C   UNL     1      44.301 -28.934  11.597  1.00  0.00     0.014 C 
ATOM      3  C   UNL     1      42.796 -30.261  13.122  1.00  0.00     0.014 C 
ATOM      4  C   UNL     1      42.753 -30.623  10.547  1.00  0.00     0.030 C 
ATOM      5  C   UNL     1      45.254 -28.936  10.413  1.00  0.00     0.004 C 
ATOM      6  C   UNL     1      41.335 -30.723  12.972  1.00  0.00     0.013 C 
ATOM      7  C   UNL     1      41.890 -31.891  10.818  1.00  0.00    -0.063 C 
ATOM      8  C   UNL     1      43.551 -30.533   9.176  1.00  0.00    -0.003 C 
ATOM      9  C   UNL     1      44.561 -29.325   9.094  1.00  0.00    -0.011 C 
ATOM     10  C   UNL     1      41.175 -32.055  12.180  1.00  0.00    -0.006 C 
ATOM     11  C   UNL     1      41.742 -32.889   9.921  1.00  0.00    -0.027 C 
ATOM     12  C   UNL     1      42.581 -30.395   7.971  1.00  0.00     0.008 C 
ATOM     13  C   UNL     1      45.670 -29.601   8.050  1.00  0.00     0.008 C 
ATOM     14  C   UNL     1      41.988 -33.128  12.990  1.00  0.00     0.017 C 
ATOM     15  C   UNL     1      39.605 -32.511  11.994  1.00  0.00    -0.020 C 
ATOM     16  C   UNL     1      40.636 -33.897  10.075  1.00  0.00     0.032 C 
ATOM     17  C   UNL     1      39.338 -33.212  10.574  1.00  0.00     0.006 C 
ATOM     18  C   UNL     1      38.581 -31.361  12.200  1.00  0.00     0.008 C 
ATOM     19  C   UNL     1      39.204 -33.530  13.125  1.00  0.00     0.012 C 
ATOM     20  C   UNL     1      38.469 -32.467   9.394  1.00  0.00    -0.025 C 
ATOM     21  C   UNL     1      38.514 -30.448  11.004  1.00  0.00     0.005 C 
ATOM     22  C   UNL     1      37.743 -31.117   9.858  1.00  0.00     0.003 C 
ATOM     23  C   UNL     1      39.308 -32.106   8.138  1.00  0.00     0.010 C 
ATOM     24  C   UNL     1      37.423 -33.544   8.949  1.00  0.00     0.012 C 
ATOM     25  C   UNL     1      37.400 -30.018   8.736  1.00  0.00    -0.006 C 
ATOM     26  C   UNL     1      38.505 -31.524   6.944  1.00  0.00     0.033 C 
ATOM     27  C   UNL     1      37.277 -30.657   7.315  1.00  0.00     0.120 C 
ATOM     28  C   UNL     1      38.464 -28.877   8.616  1.00  0.00     0.014 C 
ATOM     29  C   UNL     1      36.070 -29.299   9.110  1.00  0.00     0.014 C 
ENDROOT
BRANCH   1  30
ATOM     30  C   UNL     1      44.767 -31.352  11.983  1.00  0.00     0.048 C 
ATOM     31  O   UNL     1      45.494 -31.371  13.012  1.00  0.00    -0.550 OA
ATOM     32  O   UNL     1      44.986 -32.307  10.994  1.00  0.00    -0.550 OA
ENDBRANCH   1  30
BRANCH  27  33
ATOM     33  O   UNL     1      36.075 -31.359   7.083  1.00  0.00    -0.393 OA
ATOM     34  H   UNL     1      36.139 -32.275   7.451  1.00  0.00     0.210 HD
ENDBRANCH  27  33
TORSDOF 2
ENDMDL
MODEL 3
REMARK VINA RESULT:    27.949      2.866      5.422
REMARK INTER + INTRA:          30.579
REMARK INTER:                  29.386
REMARK INTRA:                   1.194
REMARK UNBOUND:                 0.180
REMARK SMILES C[C@H]1[C@H](C)CC[C@@]2(C(=O)[O-])CC[C@]3(C)C(=CC[C@@H]4[C@]5(C)CC[C@@H](O)C(C)(C)[C@@H]5CC[C@@]43C)[C@H]12
REMARK SMILES IDX 7 1 6 2 11 3 33 4 5 5 12 6 15 7 2 8 3 9 13 10 16 11 1 12
REMARK SMILES IDX 4 13 14 14 31 15 17 16 18 17 30 18 32 19 19 20 29 21 28 22
REMARK SMILES IDX 21 23 20 24 25 25 22 26 23 27 26 28 27 29 8 30 9 31 10 32
REMARK SMILES IDX 24 33
REMARK H PARENT 24 34
REMARK Flexibility Score: inf
ROOT
ATOM      1  C   UNL     1      39.846 -31.142   9.261  1.00  0.00     0.017 C 
ATOM      2  C   UNL     1      40.931 -31.985   9.970  1.00  0.00     0.014 C 
ATOM      3  C   UNL     1      39.355 -31.951   8.003  1.00  0.00     0.014 C 
ATOM      4  C   UNL     1      38.678 -30.898  10.283  1.00  0.00     0.030 C 
ATOM      5  C   UNL     1      41.561 -31.223  11.125  1.00  0.00     0.004 C 
ATOM      6  C   UNL     1      37.830 -32.140   7.908  1.00  0.00     0.013 C 
ATOM      7  C   UNL     1      37.462 -30.268   9.542  1.00  0.00    -0.063 C 
ATOM      8  C   UNL     1      39.168 -30.226  11.637  1.00  0.00    -0.003 C 
ATOM      9  C   UNL     1      40.530 -30.799  12.187  1.00  0.00    -0.011 C 
ATOM     10  C   UNL     1      37.017 -30.838   8.175  1.00  0.00    -0.006 C 
ATOM     11  C   UNL     1      36.769 -29.215  10.025  1.00  0.00    -0.027 C 
ATOM     12  C   UNL     1      38.114 -30.405  12.764  1.00  0.00     0.008 C 
ATOM     13  C   UNL     1      41.222 -29.778  13.123  1.00  0.00     0.008 C 
ATOM     14  C   UNL     1      37.491 -29.813   7.082  1.00  0.00     0.017 C 
ATOM     15  C   UNL     1      35.389 -31.069   8.110  1.00  0.00    -0.020 C 
ATOM     16  C   UNL     1      35.411 -28.875   9.473  1.00  0.00     0.032 C 
ATOM     17  C   UNL     1      34.602 -30.165   9.180  1.00  0.00     0.006 C 
ATOM     18  C   UNL     1      34.951 -32.551   8.269  1.00  0.00     0.008 C 
ATOM     19  C   UNL     1      34.852 -30.706   6.676  1.00  0.00     0.012 C 
ATOM     20  C   UNL     1      33.880 -30.825  10.501  1.00  0.00    -0.025 C 
ATOM     21  C   UNL     1      35.013 -33.004   9.703  1.00  0.00     0.005 C 
ATOM     22  C   UNL     1      33.837 -32.426  10.502  1.00  0.00     0.003 C 
ATOM     23  C   UNL     1      34.533 -30.401  11.845  1.00  0.00     0.010 C 
ATOM     24  C   UNL     1      32.433 -30.224  10.488  1.00  0.00     0.012 C 
ATOM     25  C   UNL     1      33.737 -33.179  11.920  1.00  0.00    -0.006 C 
ATOM     26  C   UNL     1      33.804 -30.889  13.124  1.00  0.00     0.033 C 
ATOM     27  C   UNL     1      33.104 -32.266  13.019  1.00  0.00     0.120 C 
ATOM     28  C   UNL     1      35.114 -33.660  12.485  1.00  0.00     0.014 C 
ATOM     29  C   UNL     1      32.889 -34.474  11.754  1.00  0.00     0.014 C 
ENDROOT
BRANCH   1  30
ATOM     30  C   UNL     1      40.490 -29.836   8.785  1.00  0.00     0.048 C 
ATOM     31  O   UNL     1      39.804 -28.884   8.328  1.00  0.00    -0.550 OA
ATOM     32  O   UNL     1      41.871 -29.684   8.866  1.00  0.00    -0.550 OA
ENDBRANCH   1  30
BRANCH  27  33
ATOM     33  O   UNL     1      31.704 -32.115  12.930  1.00  0.00    -0.393 OA
ATOM     34  H   UNL     1      31.473 -31.170  12.756  1.00  0.00     0.210 HD
ENDBRANCH  27  33
TORSDOF 2
ENDMDL
