MODEL 1
REMARK VINA RESULT:    34.980      0.000      0.000
REMARK INTER + INTRA:          40.925
REMARK INTER:                  41.115
REMARK INTRA:                  -0.190
REMARK UNBOUND:                -0.190
REMARK SMILES O=c1c(O)c(-c2ccc(O)cc2)oc2cc(O)cc(O)c12
REMARK SMILES IDX 5 1 3 2 2 3 1 4 21 5 19 6 18 7 16 8 15 9 14 10 13 11 6 12
REMARK SMILES IDX 7 13 8 14 9 15 12 16 11 17 10 18 4 20 20 22 17 24
REMARK H PARENT 10 19 4 21 20 23 17 25
REMARK Flexibility Score: inf
ROOT
ATOM      1  C   UNL     1      15.816  49.169  59.546  1.00  0.00     0.180 A 
ATOM      2  C   UNL     1      15.476  49.005  60.900  1.00  0.00     0.208 A 
ATOM      3  C   UNL     1      15.140  50.138  61.659  1.00  0.00     0.238 A 
ATOM      4  O   UNL     1      14.910  49.993  62.888  1.00  0.00    -0.285 OA
ATOM      5  C   UNL     1      15.093  51.412  61.043  1.00  0.00     0.111 A 
ATOM      6  C   UNL     1      14.722  52.622  61.705  1.00  0.00     0.134 A 
ATOM      7  C   UNL     1      14.815  53.840  61.021  1.00  0.00     0.093 A 
ATOM      8  C   UNL     1      15.202  53.887  59.683  1.00  0.00     0.123 A 
ATOM      9  C   UNL     1      15.514  52.704  59.009  1.00  0.00     0.094 A 
ATOM     10  C   UNL     1      15.469  51.478  59.676  1.00  0.00     0.146 A 
ATOM     11  O   UNL     1      15.795  50.380  59.004  1.00  0.00    -0.452 OA
ENDROOT
BRANCH   1  12
ATOM     12  C   UNL     1      16.195  48.026  58.685  1.00  0.00     0.021 A 
ATOM     13  C   UNL     1      15.206  47.117  58.270  1.00  0.00     0.016 A 
ATOM     14  C   UNL     1      15.537  46.042  57.439  1.00  0.00     0.047 A 
ATOM     15  C   UNL     1      16.855  45.873  56.997  1.00  0.00     0.115 A 
ATOM     16  C   UNL     1      17.512  47.860  58.221  1.00  0.00     0.016 A 
ATOM     17  C   UNL     1      17.840  46.785  57.389  1.00  0.00     0.047 A 
BRANCH  15  18
ATOM     18  O   UNL     1      17.196  44.806  56.169  1.00  0.00    -0.508 OA
ATOM     19  H   UNL     1      16.654  43.951  56.157  1.00  0.00     0.293 HD
ENDBRANCH  15  18
ENDBRANCH   1  12
BRANCH   2  20
ATOM     20  O   UNL     1      15.454  47.730  61.470  1.00  0.00    -0.502 OA
ATOM     21  H   UNL     1      15.973  47.500  62.309  1.00  0.00     0.293 HD
ENDBRANCH   2  20
BRANCH   6  22
ATOM     22  O   UNL     1      14.236  52.680  63.015  1.00  0.00    -0.507 OA
ATOM     23  H   UNL     1      14.171  51.894  63.643  1.00  0.00     0.293 HD
ENDBRANCH   6  22
BRANCH   8  24
ATOM     24  O   UNL     1      15.267  55.115  59.028  1.00  0.00    -0.508 OA
ATOM     25  H   UNL     1      14.816  55.263  58.133  1.00  0.00     0.293 HD
ENDBRANCH   8  24
TORSDOF 5
ENDMDL
MODEL 2
REMARK VINA RESULT:    35.340      1.803      2.712
REMARK INTER + INTRA:          41.348
REMARK INTER:                  41.621
REMARK INTRA:                  -0.273
REMARK UNBOUND:                -0.190
REMARK SMILES O=c1c(O)c(-c2ccc(O)cc2)oc2cc(O)cc(O)c12
REMARK SMILES IDX 5 1 3 2 2 3 1 4 21 5 19 6 18 7 16 8 15 9 14 10 13 11 6 12
REMARK SMILES IDX 7 13 8 14 9 15 12 16 11 17 10 18 4 20 20 22 17 24
REMARK H PARENT 10 19 4 21 20 23 17 25
REMARK Flexibility Score: inf
ROOT
ATOM      1  C   UNL     1      16.054  49.793  58.792  1.00  0.00     0.180 A 
ATOM      2  C   UNL     1      15.012  50.641  58.377  1.00  0.00     0.208 A 
ATOM      3  C   UNL     1      14.858  51.887  59.007  1.00  0.00     0.238 A 
ATOM      4  O   UNL     1      13.879  52.608  58.683  1.00  0.00    -0.285 OA
ATOM      5  C   UNL     1      15.779  52.293  60.002  1.00  0.00     0.111 A 
ATOM      6  C   UNL     1      15.746  53.552  60.675  1.00  0.00     0.134 A 
ATOM      7  C   UNL     1      16.646  53.802  61.719  1.00  0.00     0.093 A 
ATOM      8  C   UNL     1      17.618  52.867  62.071  1.00  0.00     0.123 A 
ATOM      9  C   UNL     1      17.695  51.655  61.383  1.00  0.00     0.094 A 
ATOM     10  C   UNL     1      16.787  51.360  60.364  1.00  0.00     0.146 A 
ATOM     11  O   UNL     1      16.882  50.187  59.750  1.00  0.00    -0.452 OA
ENDROOT
BRANCH   1  12
ATOM     12  C   UNL     1      16.272  48.459  58.186  1.00  0.00     0.021 A 
ATOM     13  C   UNL     1      15.508  47.366  58.631  1.00  0.00     0.016 A 
ATOM     14  C   UNL     1      15.681  46.103  58.058  1.00  0.00     0.047 A 
ATOM     15  C   UNL     1      16.605  45.919  57.022  1.00  0.00     0.115 A 
ATOM     16  C   UNL     1      17.183  48.271  57.132  1.00  0.00     0.016 A 
ATOM     17  C   UNL     1      17.353  47.006  56.560  1.00  0.00     0.047 A 
BRANCH  15  18
ATOM     18  O   UNL     1      16.785  44.665  56.443  1.00  0.00    -0.508 OA
ATOM     19  H   UNL     1      17.015  44.563  55.462  1.00  0.00     0.293 HD
ENDBRANCH  15  18
ENDBRANCH   1  12
BRANCH   2  20
ATOM     20  O   UNL     1      14.160  50.254  57.340  1.00  0.00    -0.502 OA
ATOM     21  H   UNL     1      13.210  50.597  57.259  1.00  0.00     0.293 HD
ENDBRANCH   2  20
BRANCH   6  22
ATOM     22  O   UNL     1      14.873  54.594  60.344  1.00  0.00    -0.507 OA
ATOM     23  H   UNL     1      15.136  55.436  59.858  1.00  0.00     0.293 HD
ENDBRANCH   6  22
BRANCH   8  24
ATOM     24  O   UNL     1      18.508  53.156  63.102  1.00  0.00    -0.508 OA
ATOM     25  H   UNL     1      18.185  53.423  64.024  1.00  0.00     0.293 HD
ENDBRANCH   8  24
TORSDOF 5
ENDMDL
MODEL 3
REMARK VINA RESULT:    36.763      1.859      2.835
REMARK INTER + INTRA:          43.020
REMARK INTER:                  43.230
REMARK INTRA:                  -0.210
REMARK UNBOUND:                -0.190
REMARK SMILES O=c1c(O)c(-c2ccc(O)cc2)oc2cc(O)cc(O)c12
REMARK SMILES IDX 5 1 3 2 2 3 1 4 21 5 19 6 18 7 16 8 15 9 14 10 13 11 6 12
REMARK SMILES IDX 7 13 8 14 9 15 12 16 11 17 10 18 4 20 20 22 17 24
REMARK H PARENT 10 19 4 21 20 23 17 25
REMARK Flexibility Score: inf
ROOT
ATOM      1  C   UNL     1      16.861  49.598  59.426  1.00  0.00     0.180 A 
ATOM      2  C   UNL     1      17.955  50.468  59.578  1.00  0.00     0.208 A 
ATOM      3  C   UNL     1      17.824  51.585  60.419  1.00  0.00     0.238 A 
ATOM      4  O   UNL     1      18.781  52.399  60.492  1.00  0.00    -0.285 OA
ATOM      5  C   UNL     1      16.623  51.788  61.141  1.00  0.00     0.111 A 
ATOM      6  C   UNL     1      16.396  52.861  62.056  1.00  0.00     0.134 A 
ATOM      7  C   UNL     1      15.130  53.021  62.632  1.00  0.00     0.093 A 
ATOM      8  C   UNL     1      14.103  52.114  62.378  1.00  0.00     0.123 A 
ATOM      9  C   UNL     1      14.330  51.030  61.529  1.00  0.00     0.094 A 
ATOM     10  C   UNL     1      15.570  50.865  60.908  1.00  0.00     0.146 A 
ATOM     11  O   UNL     1      15.737  49.833  60.090  1.00  0.00    -0.452 OA
ENDROOT
BRANCH   1  12
ATOM     12  C   UNL     1      16.917  48.408  58.547  1.00  0.00     0.021 A 
ATOM     13  C   UNL     1      17.642  47.278  58.960  1.00  0.00     0.016 A 
ATOM     14  C   UNL     1      17.691  46.135  58.157  1.00  0.00     0.047 A 
ATOM     15  C   UNL     1      17.001  46.101  56.938  1.00  0.00     0.115 A 
ATOM     16  C   UNL     1      16.211  48.359  57.331  1.00  0.00     0.016 A 
ATOM     17  C   UNL     1      16.261  47.214  56.530  1.00  0.00     0.047 A 
BRANCH  15  18
ATOM     18  O   UNL     1      17.042  44.968  56.129  1.00  0.00    -0.508 OA
ATOM     19  H   UNL     1      17.491  44.114  56.437  1.00  0.00     0.293 HD
ENDBRANCH  15  18
ENDBRANCH   1  12
BRANCH   2  20
ATOM     20  O   UNL     1      19.158  50.208  58.917  1.00  0.00    -0.502 OA
ATOM     21  H   UNL     1      19.861  49.583  59.292  1.00  0.00     0.293 HD
ENDBRANCH   2  20
BRANCH   6  22
ATOM     22  O   UNL     1      17.379  53.775  62.449  1.00  0.00    -0.507 OA
ATOM     23  H   UNL     1      18.278  53.528  62.833  1.00  0.00     0.293 HD
ENDBRANCH   6  22
BRANCH   8  24
ATOM     24  O   UNL     1      12.861  52.294  62.983  1.00  0.00    -0.508 OA
ATOM     25  H   UNL     1      12.179  51.547  63.028  1.00  0.00     0.293 HD
ENDBRANCH   8  24
TORSDOF 5
ENDMDL
