MODEL 1
REMARK VINA RESULT:     0.000      0.000      0.000
REMARK INTER + INTRA:           0.000
REMARK INTER:                   0.000
REMARK INTRA:                   0.000
REMARK UNBOUND:                 0.000
REMARK SMILES O=c1ccc2ccc(O)cc2o1
REMARK SMILES IDX 6 1 7 2 8 3 10 4 11 5 5 6 4 7 3 8 2 9 1 10 12 11 9 12
REMARK H PARENT 9 13
REMARK Flexibility Score: inf
ROOT
ATOM      1  C   UNL     1     181.964 177.016 182.724  1.00  0.00     0.016 A 
ATOM      2  C   UNL     1     182.519 176.718 183.973  1.00  0.00     0.047 A 
ATOM      3  C   UNL     1     183.057 175.450 184.223  1.00  0.00     0.119 A 
ATOM      4  C   UNL     1     183.040 174.472 183.218  1.00  0.00     0.094 A 
ATOM      5  C   UNL     1     182.488 174.761 181.965  1.00  0.00     0.142 A 
ATOM      6  C   UNL     1     181.946 176.042 181.717  1.00  0.00     0.018 A 
ATOM      7  C   UNL     1     181.400 176.302 180.456  1.00  0.00     0.019 A 
ATOM      8  C   UNL     1     181.406 175.298 179.487  1.00  0.00     0.094 A 
ATOM      9  C   UNL     1     181.961 174.053 179.805  1.00  0.00     0.336 A 
ATOM     10  O   UNL     1     181.975 173.134 178.945  1.00  0.00    -0.246 OA
ATOM     11  O   UNL     1     182.473 173.832 181.013  1.00  0.00    -0.423 OA
ENDROOT
BRANCH   3  12
ATOM     12  O   UNL     1     183.605 175.172 185.473  1.00  0.00    -0.508 OA
ATOM     13  H   UNL     1     183.348 174.340 185.991  1.00  0.00     0.293 HD
ENDBRANCH   3  12
TORSDOF 1
ENDMDL
MODEL 2
REMARK VINA RESULT:     0.000      2.197      2.759
REMARK INTER + INTRA:           0.000
REMARK INTER:                   0.000
REMARK INTRA:                   0.000
REMARK UNBOUND:                 0.000
REMARK SMILES O=c1ccc2ccc(O)cc2o1
REMARK SMILES IDX 6 1 7 2 8 3 10 4 11 5 5 6 4 7 3 8 2 9 1 10 12 11 9 12
REMARK H PARENT 9 13
REMARK Flexibility Score: inf
ROOT
ATOM      1  C   UNL     1     181.064 177.753 182.030  1.00  0.00     0.016 A 
ATOM      2  C   UNL     1     181.614 176.784 182.877  1.00  0.00     0.047 A 
ATOM      3  C   UNL     1     181.999 175.538 182.370  1.00  0.00     0.119 A 
ATOM      4  C   UNL     1     181.834 175.256 181.006  1.00  0.00     0.094 A 
ATOM      5  C   UNL     1     181.285 176.218 180.151  1.00  0.00     0.142 A 
ATOM      6  C   UNL     1     180.898 177.475 180.667  1.00  0.00     0.018 A 
ATOM      7  C   UNL     1     180.352 178.416 179.789  1.00  0.00     0.019 A 
ATOM      8  C   UNL     1     180.207 178.091 178.440  1.00  0.00     0.094 A 
ATOM      9  C   UNL     1     180.614 176.826 178.001  1.00  0.00     0.336 A 
ATOM     10  O   UNL     1     180.491 176.514 176.787  1.00  0.00    -0.246 OA
ATOM     11  O   UNL     1     181.130 175.949 178.858  1.00  0.00    -0.423 OA
ENDROOT
BRANCH   3  12
ATOM     12  O   UNL     1     182.545 174.587 183.229  1.00  0.00    -0.508 OA
ATOM     13  H   UNL     1     182.203 173.633 183.250  1.00  0.00     0.293 HD
ENDBRANCH   3  12
TORSDOF 1
ENDMDL
MODEL 3
REMARK VINA RESULT:     0.000      2.912      3.076
REMARK INTER + INTRA:           0.000
REMARK INTER:                   0.000
REMARK INTRA:                   0.000
REMARK UNBOUND:                 0.000
REMARK SMILES O=c1ccc2ccc(O)cc2o1
REMARK SMILES IDX 6 1 7 2 8 3 10 4 11 5 5 6 4 7 3 8 2 9 1 10 12 11 9 12
REMARK H PARENT 9 13
REMARK Flexibility Score: inf
ROOT
ATOM      1  C   UNL     1     180.158 177.750 180.592  1.00  0.00     0.016 A 
ATOM      2  C   UNL     1     179.687 177.432 181.870  1.00  0.00     0.047 A 
ATOM      3  C   UNL     1     179.563 176.095 182.265  1.00  0.00     0.119 A 
ATOM      4  C   UNL     1     179.913 175.067 181.377  1.00  0.00     0.094 A 
ATOM      5  C   UNL     1     180.385 175.375 180.097  1.00  0.00     0.142 A 
ATOM      6  C   UNL     1     180.508 176.727 179.702  1.00  0.00     0.018 A 
ATOM      7  C   UNL     1     180.982 177.004 178.416  1.00  0.00     0.019 A 
ATOM      8  C   UNL     1     181.318 175.949 177.567  1.00  0.00     0.094 A 
ATOM      9  C   UNL     1     181.171 174.635 178.028  1.00  0.00     0.336 A 
ATOM     10  O   UNL     1     181.467 173.670 177.277  1.00  0.00    -0.246 OA
ATOM     11  O   UNL     1     180.716 174.399 179.256  1.00  0.00    -0.423 OA
ENDROOT
BRANCH   3  12
ATOM     12  O   UNL     1     179.093 175.798 183.543  1.00  0.00    -0.508 OA
ATOM     13  H   UNL     1     179.702 175.415 184.256  1.00  0.00     0.293 HD
ENDBRANCH   3  12
TORSDOF 1
ENDMDL
MODEL 4
REMARK VINA RESULT:     0.000      2.418      2.896
REMARK INTER + INTRA:           0.000
REMARK INTER:                   0.000
REMARK INTRA:                   0.000
REMARK UNBOUND:                 0.000
REMARK SMILES O=c1ccc2ccc(O)cc2o1
REMARK SMILES IDX 6 1 7 2 8 3 10 4 11 5 5 6 4 7 3 8 2 9 1 10 12 11 9 12
REMARK H PARENT 9 13
REMARK Flexibility Score: inf
ROOT
ATOM      1  C   UNL     1     182.771 179.396 181.434  1.00  0.00     0.016 A 
ATOM      2  C   UNL     1     182.050 179.484 182.630  1.00  0.00     0.047 A 
ATOM      3  C   UNL     1     181.375 178.365 183.133  1.00  0.00     0.119 A 
ATOM      4  C   UNL     1     181.422 177.148 182.437  1.00  0.00     0.094 A 
ATOM      5  C   UNL     1     182.141 177.050 181.242  1.00  0.00     0.142 A 
ATOM      6  C   UNL     1     182.820 178.182 180.737  1.00  0.00     0.018 A 
ATOM      7  C   UNL     1     183.530 178.054 179.539  1.00  0.00     0.019 A 
ATOM      8  C   UNL     1     183.548 176.823 178.882  1.00  0.00     0.094 A 
ATOM      9  C   UNL     1     182.852 175.745 179.442  1.00  0.00     0.336 A 
ATOM     10  O   UNL     1     182.856 174.627 178.864  1.00  0.00    -0.246 OA
ATOM     11  O   UNL     1     182.184 175.895 180.583  1.00  0.00    -0.423 OA
ENDROOT
BRANCH   3  12
ATOM     12  O   UNL     1     180.663 178.473 184.325  1.00  0.00    -0.508 OA
ATOM     13  H   UNL     1     180.532 177.676 184.938  1.00  0.00     0.293 HD
ENDBRANCH   3  12
TORSDOF 1
ENDMDL
MODEL 5
REMARK VINA RESULT:     0.000     10.018     11.538
REMARK INTER + INTRA:           0.000
REMARK INTER:                   0.000
REMARK INTRA:                   0.000
REMARK UNBOUND:                 0.000
REMARK SMILES O=c1ccc2ccc(O)cc2o1
REMARK SMILES IDX 6 1 7 2 8 3 10 4 11 5 5 6 4 7 3 8 2 9 1 10 12 11 9 12
REMARK H PARENT 9 13
REMARK Flexibility Score: inf
ROOT
ATOM      1  C   UNL     1     185.490 183.796 180.887  1.00  0.00     0.016 A 
ATOM      2  C   UNL     1     186.223 184.388 179.853  1.00  0.00     0.047 A 
ATOM      3  C   UNL     1     186.955 185.558 180.085  1.00  0.00     0.119 A 
ATOM      4  C   UNL     1     186.955 186.142 181.361  1.00  0.00     0.094 A 
ATOM      5  C   UNL     1     186.227 185.556 182.401  1.00  0.00     0.142 A 
ATOM      6  C   UNL     1     185.488 184.375 182.162  1.00  0.00     0.018 A 
ATOM      7  C   UNL     1     184.769 183.813 183.222  1.00  0.00     0.019 A 
ATOM      8  C   UNL     1     184.800 184.429 184.473  1.00  0.00     0.094 A 
ATOM      9  C   UNL     1     185.554 185.597 184.635  1.00  0.00     0.336 A 
ATOM     10  O   UNL     1     185.593 186.168 185.757  1.00  0.00    -0.246 OA
ATOM     11  O   UNL     1     186.229 186.111 183.611  1.00  0.00    -0.423 OA
ENDROOT
BRANCH   3  12
ATOM     12  O   UNL     1     187.678 186.133 179.043  1.00  0.00    -0.508 OA
ATOM     13  H   UNL     1     187.217 186.516 178.225  1.00  0.00     0.293 HD
ENDBRANCH   3  12
TORSDOF 1
ENDMDL
MODEL 6
REMARK VINA RESULT:     0.000     10.207     11.587
REMARK INTER + INTRA:           0.000
REMARK INTER:                   0.000
REMARK INTRA:                   0.000
REMARK UNBOUND:                 0.000
REMARK SMILES O=c1ccc2ccc(O)cc2o1
REMARK SMILES IDX 6 1 7 2 8 3 10 4 11 5 5 6 4 7 3 8 2 9 1 10 12 11 9 12
REMARK H PARENT 9 13
REMARK Flexibility Score: inf
ROOT
ATOM      1  C   UNL     1     185.490 183.796 180.887  1.00  0.00     0.016 A 
ATOM      2  C   UNL     1     186.879 183.712 180.741  1.00  0.00     0.047 A 
ATOM      3  C   UNL     1     187.696 184.784 181.118  1.00  0.00     0.119 A 
ATOM      4  C   UNL     1     187.121 185.950 181.646  1.00  0.00     0.094 A 
ATOM      5  C   UNL     1     185.734 186.043 181.796  1.00  0.00     0.142 A 
ATOM      6  C   UNL     1     184.912 184.958 181.414  1.00  0.00     0.018 A 
ATOM      7  C   UNL     1     183.529 185.081 181.576  1.00  0.00     0.019 A 
ATOM      8  C   UNL     1     183.003 186.259 182.106  1.00  0.00     0.094 A 
ATOM      9  C   UNL     1     183.878 187.292 182.462  1.00  0.00     0.336 A 
ATOM     10  O   UNL     1     183.423 188.363 182.941  1.00  0.00    -0.246 OA
ATOM     11  O   UNL     1     185.191 187.149 182.297  1.00  0.00    -0.423 OA
ENDROOT
BRANCH   3  12
ATOM     12  O   UNL     1     189.076 184.681 180.964  1.00  0.00    -0.508 OA
ATOM     13  H   UNL     1     189.715 184.997 181.685  1.00  0.00     0.293 HD
ENDBRANCH   3  12
TORSDOF 1
ENDMDL
MODEL 7
REMARK VINA RESULT:     0.000      8.913     10.054
REMARK INTER + INTRA:           0.000
REMARK INTER:                   0.000
REMARK INTRA:                   0.000
REMARK UNBOUND:                 0.000
REMARK SMILES O=c1ccc2ccc(O)cc2o1
REMARK SMILES IDX 6 1 7 2 8 3 10 4 11 5 5 6 4 7 3 8 2 9 1 10 12 11 9 12
REMARK H PARENT 9 13
REMARK Flexibility Score: inf
ROOT
ATOM      1  C   UNL     1     184.625 182.731 182.194  1.00  0.00     0.016 A 
ATOM      2  C   UNL     1     185.950 182.772 182.641  1.00  0.00     0.047 A 
ATOM      3  C   UNL     1     186.383 183.809 183.475  1.00  0.00     0.119 A 
ATOM      4  C   UNL     1     185.485 184.813 183.867  1.00  0.00     0.094 A 
ATOM      5  C   UNL     1     184.158 184.780 183.426  1.00  0.00     0.142 A 
ATOM      6  C   UNL     1     183.725 183.732 182.583  1.00  0.00     0.018 A 
ATOM      7  C   UNL     1     182.393 183.726 182.157  1.00  0.00     0.019 A 
ATOM      8  C   UNL     1     181.537 184.746 182.573  1.00  0.00     0.094 A 
ATOM      9  C   UNL     1     182.036 185.752 183.408  1.00  0.00     0.336 A 
ATOM     10  O   UNL     1     181.279 186.681 183.793  1.00  0.00    -0.246 OA
ATOM     11  O   UNL     1     183.308 185.734 183.798  1.00  0.00    -0.423 OA
ENDROOT
BRANCH   3  12
ATOM     12  O   UNL     1     187.706 183.833 183.910  1.00  0.00    -0.508 OA
ATOM     13  H   UNL     1     188.478 183.896 183.257  1.00  0.00     0.293 HD
ENDBRANCH   3  12
TORSDOF 1
ENDMDL
MODEL 8
REMARK VINA RESULT:     0.000      8.116      8.787
REMARK INTER + INTRA:           0.000
REMARK INTER:                   0.000
REMARK INTRA:                   0.000
REMARK UNBOUND:                 0.000
REMARK SMILES O=c1ccc2ccc(O)cc2o1
REMARK SMILES IDX 6 1 7 2 8 3 10 4 11 5 5 6 4 7 3 8 2 9 1 10 12 11 9 12
REMARK H PARENT 9 13
REMARK Flexibility Score: inf
ROOT
ATOM      1  C   UNL     1     183.275 182.356 181.754  1.00  0.00     0.016 A 
ATOM      2  C   UNL     1     184.540 182.771 182.182  1.00  0.00     0.047 A 
ATOM      3  C   UNL     1     184.677 183.526 183.353  1.00  0.00     0.119 A 
ATOM      4  C   UNL     1     183.542 183.869 184.102  1.00  0.00     0.094 A 
ATOM      5  C   UNL     1     182.273 183.457 183.682  1.00  0.00     0.142 A 
ATOM      6  C   UNL     1     182.138 182.695 182.499  1.00  0.00     0.018 A 
ATOM      7  C   UNL     1     180.857 182.299 182.104  1.00  0.00     0.019 A 
ATOM      8  C   UNL     1     179.757 182.663 182.882  1.00  0.00     0.094 A 
ATOM      9  C   UNL     1     179.968 183.419 184.042  1.00  0.00     0.336 A 
ATOM     10  O   UNL     1     178.988 183.757 184.756  1.00  0.00    -0.246 OA
ATOM     11  O   UNL     1     181.197 183.783 184.394  1.00  0.00    -0.423 OA
ENDROOT
BRANCH   3  12
ATOM     12  O   UNL     1     185.946 183.930 183.763  1.00  0.00    -0.508 OA
ATOM     13  H   UNL     1     186.525 184.528 183.185  1.00  0.00     0.293 HD
ENDBRANCH   3  12
TORSDOF 1
ENDMDL
MODEL 9
REMARK VINA RESULT:     0.000     10.535     11.373
REMARK INTER + INTRA:           0.000
REMARK INTER:                   0.000
REMARK INTRA:                   0.000
REMARK UNBOUND:                 0.000
REMARK SMILES O=c1ccc2ccc(O)cc2o1
REMARK SMILES IDX 6 1 7 2 8 3 10 4 11 5 5 6 4 7 3 8 2 9 1 10 12 11 9 12
REMARK H PARENT 9 13
REMARK Flexibility Score: inf
ROOT
ATOM      1  C   UNL     1     175.144 182.874 184.735  1.00  0.00     0.016 A 
ATOM      2  C   UNL     1     174.329 183.899 185.228  1.00  0.00     0.047 A 
ATOM      3  C   UNL     1     172.941 183.839 185.063  1.00  0.00     0.119 A 
ATOM      4  C   UNL     1     172.361 182.748 184.399  1.00  0.00     0.094 A 
ATOM      5  C   UNL     1     173.168 181.718 183.903  1.00  0.00     0.142 A 
ATOM      6  C   UNL     1     174.569 181.782 184.072  1.00  0.00     0.018 A 
ATOM      7  C   UNL     1     175.350 180.739 183.565  1.00  0.00     0.019 A 
ATOM      8  C   UNL     1     174.729 179.674 182.912  1.00  0.00     0.094 A 
ATOM      9  C   UNL     1     173.335 179.678 182.783  1.00  0.00     0.336 A 
ATOM     10  O   UNL     1     172.756 178.726 182.197  1.00  0.00    -0.246 OA
ATOM     11  O   UNL     1     172.616 180.684 183.274  1.00  0.00    -0.423 OA
ENDROOT
BRANCH   3  12
ATOM     12  O   UNL     1     172.146 184.869 185.561  1.00  0.00    -0.508 OA
ATOM     13  H   UNL     1     171.472 185.349 184.976  1.00  0.00     0.293 HD
ENDBRANCH   3  12
TORSDOF 1
ENDMDL
