MODEL 1
REMARK VINA RESULT:    -3.442      0.000      0.000
REMARK INTER + INTRA:          -6.462
REMARK INTER:                  -5.857
REMARK INTRA:                  -0.605
REMARK UNBOUND:                -0.605
REMARK SMILES CCCCCCCCCCCCCC(=O)[O-]
REMARK SMILES IDX 8 1 9 2 10 3 11 4 12 5 13 6 14 7 15 8 16 9 7 10 6 11 5 12
REMARK SMILES IDX 4 13 3 14 2 15 1 16
REMARK H PARENT
REMARK Flexibility Score: inf
ROOT
ATOM      1  C   UNL     1      36.262  -5.709  15.202  1.00  0.00     0.000 C 
ENDROOT
BRANCH   1   2
ATOM      2  C   UNL     1      36.752  -6.721  14.155  1.00  0.00     0.000 C 
BRANCH   2   3
ATOM      3  C   UNL     1      36.537  -8.178  14.596  1.00  0.00     0.000 C 
BRANCH   3   4
ATOM      4  C   UNL     1      36.345  -9.133  13.404  1.00  0.00     0.000 C 
BRANCH   4   5
ATOM      5  C   UNL     1      35.383  -8.572  12.346  1.00  0.00     0.006 C 
BRANCH   5   6
ATOM      6  C   UNL     1      35.496  -9.299  11.000  1.00  0.00     0.053 C 
BRANCH   6   7
ATOM      7  C   UNL     1      36.022  -8.373   9.949  1.00  0.00     0.041 C 
ATOM      8  O   UNL     1      37.118  -8.618   9.380  1.00  0.00    -0.550 OA
ATOM      9  O   UNL     1      35.277  -7.266   9.562  1.00  0.00    -0.550 OA
ENDBRANCH   6   7
ENDBRANCH   5   6
ENDBRANCH   4   5
ENDBRANCH   3   4
ENDBRANCH   2   3
ENDBRANCH   1   2
BRANCH   1  10
ATOM     10  C   UNL     1      37.112  -4.433  15.170  1.00  0.00     0.000 C 
BRANCH  10  11
ATOM     11  C   UNL     1      37.026  -3.749  13.799  1.00  0.00    -0.000 C 
BRANCH  11  12
ATOM     12  C   UNL     1      36.995  -2.216  13.904  1.00  0.00    -0.000 C 
BRANCH  12  13
ATOM     13  C   UNL     1      36.678  -1.727  15.328  1.00  0.00    -0.000 C 
BRANCH  13  14
ATOM     14  C   UNL     1      35.508  -0.729  15.370  1.00  0.00    -0.000 C 
BRANCH  14  15
ATOM     15  C   UNL     1      35.956   0.743  15.485  1.00  0.00    -0.003 C 
ATOM     16  C   UNL     1      35.823   1.498  14.163  1.00  0.00     0.004 C 
ENDBRANCH  14  15
ENDBRANCH  13  14
ENDBRANCH  12  13
ENDBRANCH  11  12
ENDBRANCH  10  11
ENDBRANCH   1  10
TORSDOF 12
ENDMDL
MODEL 2
REMARK VINA RESULT:    -3.082     19.566     22.015
REMARK INTER + INTRA:          -5.849
REMARK INTER:                  -5.396
REMARK INTRA:                  -0.453
REMARK UNBOUND:                -0.605
REMARK SMILES CCCCCCCCCCCCCC(=O)[O-]
REMARK SMILES IDX 8 1 9 2 10 3 11 4 12 5 13 6 14 7 15 8 16 9 7 10 6 11 5 12
REMARK SMILES IDX 4 13 3 14 2 15 1 16
REMARK H PARENT
REMARK Flexibility Score: inf
ROOT
ATOM      1  C   UNL     1      18.097   8.698  12.192  1.00  0.00     0.000 C 
ENDROOT
BRANCH   1   2
ATOM      2  C   UNL     1      19.586   8.495  11.874  1.00  0.00     0.000 C 
BRANCH   2   3
ATOM      3  C   UNL     1      20.304   9.812  11.540  1.00  0.00     0.000 C 
BRANCH   3   4
ATOM      4  C   UNL     1      20.294  10.124  10.032  1.00  0.00     0.000 C 
BRANCH   4   5
ATOM      5  C   UNL     1      21.410   9.392   9.271  1.00  0.00     0.006 C 
BRANCH   5   6
ATOM      6  C   UNL     1      21.732  10.048   7.921  1.00  0.00     0.053 C 
BRANCH   6   7
ATOM      7  C   UNL     1      21.497   9.083   6.803  1.00  0.00     0.041 C 
ATOM      8  O   UNL     1      22.105   7.980   6.778  1.00  0.00    -0.550 OA
ATOM      9  O   UNL     1      20.567   9.378   5.814  1.00  0.00    -0.550 OA
ENDBRANCH   6   7
ENDBRANCH   5   6
ENDBRANCH   4   5
ENDBRANCH   3   4
ENDBRANCH   2   3
ENDBRANCH   1   2
BRANCH   1  10
ATOM     10  C   UNL     1      17.772   8.236  13.617  1.00  0.00     0.000 C 
BRANCH  10  11
ATOM     11  C   UNL     1      19.055   7.915  14.397  1.00  0.00    -0.000 C 
BRANCH  11  12
ATOM     12  C   UNL     1      18.770   7.353  15.799  1.00  0.00    -0.000 C 
BRANCH  12  13
ATOM     13  C   UNL     1      17.416   6.629  15.881  1.00  0.00    -0.000 C 
BRANCH  13  14
ATOM     14  C   UNL     1      17.518   5.131  15.549  1.00  0.00    -0.000 C 
BRANCH  14  15
ATOM     15  C   UNL     1      18.914   4.703  15.051  1.00  0.00    -0.003 C 
ATOM     16  C   UNL     1      19.696   3.922  16.107  1.00  0.00     0.004 C 
ENDBRANCH  14  15
ENDBRANCH  13  14
ENDBRANCH  12  13
ENDBRANCH  11  12
ENDBRANCH  10  11
ENDBRANCH   1  10
TORSDOF 12
ENDMDL
MODEL 3
REMARK VINA RESULT:    -2.734     17.796     19.566
REMARK INTER + INTRA:          -5.257
REMARK INTER:                  -4.421
REMARK INTRA:                  -0.836
REMARK UNBOUND:                -0.605
REMARK SMILES CCCCCCCCCCCCCC(=O)[O-]
REMARK SMILES IDX 8 1 9 2 10 3 11 4 12 5 13 6 14 7 15 8 16 9 7 10 6 11 5 12
REMARK SMILES IDX 4 13 3 14 2 15 1 16
REMARK H PARENT
REMARK Flexibility Score: inf
ROOT
ATOM      1  C   UNL     1      17.612   2.883  15.236  1.00  0.00     0.000 C 
ENDROOT
BRANCH   1   2
ATOM      2  C   UNL     1      17.350   1.614  16.061  1.00  0.00     0.000 C 
BRANCH   2   3
ATOM      3  C   UNL     1      17.222   0.356  15.187  1.00  0.00     0.000 C 
BRANCH   3   4
ATOM      4  C   UNL     1      18.213  -0.749  15.592  1.00  0.00     0.000 C 
BRANCH   4   5
ATOM      5  C   UNL     1      17.526  -2.105  15.816  1.00  0.00     0.006 C 
BRANCH   5   6
ATOM      6  C   UNL     1      17.688  -3.053  14.620  1.00  0.00     0.053 C 
BRANCH   6   7
ATOM      7  C   UNL     1      19.116  -3.475  14.478  1.00  0.00     0.041 C 
ATOM      8  O   UNL     1      19.712  -3.338  13.377  1.00  0.00    -0.550 OA
ATOM      9  O   UNL     1      19.806  -3.973  15.576  1.00  0.00    -0.550 OA
ENDBRANCH   6   7
ENDBRANCH   5   6
ENDBRANCH   4   5
ENDBRANCH   3   4
ENDBRANCH   2   3
ENDBRANCH   1   2
BRANCH   1  10
ATOM     10  C   UNL     1      18.875   3.603  15.724  1.00  0.00     0.000 C 
BRANCH  10  11
ATOM     11  C   UNL     1      18.631   5.114  15.851  1.00  0.00    -0.000 C 
BRANCH  11  12
ATOM     12  C   UNL     1      17.196   5.515  15.477  1.00  0.00    -0.000 C 
BRANCH  12  13
ATOM     13  C   UNL     1      17.140   6.814  14.655  1.00  0.00    -0.000 C 
BRANCH  13  14
ATOM     14  C   UNL     1      18.513   7.231  14.104  1.00  0.00    -0.000 C 
BRANCH  14  15
ATOM     15  C   UNL     1      18.726   6.851  12.624  1.00  0.00    -0.003 C 
ATOM     16  C   UNL     1      19.969   5.985  12.417  1.00  0.00     0.004 C 
ENDBRANCH  14  15
ENDBRANCH  13  14
ENDBRANCH  12  13
ENDBRANCH  11  12
ENDBRANCH  10  11
ENDBRANCH   1  10
TORSDOF 12
ENDMDL
MODEL 4
REMARK VINA RESULT:    -2.714     20.003     21.387
REMARK INTER + INTRA:          -5.222
REMARK INTER:                  -4.846
REMARK INTRA:                  -0.376
REMARK UNBOUND:                -0.605
REMARK SMILES CCCCCCCCCCCCCC(=O)[O-]
REMARK SMILES IDX 8 1 9 2 10 3 11 4 12 5 13 6 14 7 15 8 16 9 7 10 6 11 5 12
REMARK SMILES IDX 4 13 3 14 2 15 1 16
REMARK H PARENT
REMARK Flexibility Score: inf
ROOT
ATOM      1  C   UNL     1      19.750   6.601  12.426  1.00  0.00     0.000 C 
ENDROOT
BRANCH   1   2
ATOM      2  C   UNL     1      19.163   6.231  13.797  1.00  0.00     0.000 C 
BRANCH   2   3
ATOM      3  C   UNL     1      17.633   6.375  13.843  1.00  0.00     0.000 C 
BRANCH   3   4
ATOM      4  C   UNL     1      17.095   6.502  15.280  1.00  0.00     0.000 C 
BRANCH   4   5
ATOM      5  C   UNL     1      17.357   5.244  16.122  1.00  0.00     0.006 C 
BRANCH   5   6
ATOM      6  C   UNL     1      17.510   3.981  15.264  1.00  0.00     0.053 C 
BRANCH   6   7
ATOM      7  C   UNL     1      18.587   3.101  15.816  1.00  0.00     0.041 C 
ATOM      8  O   UNL     1      18.356   1.885  16.047  1.00  0.00    -0.550 OA
ATOM      9  O   UNL     1      19.861   3.612  16.028  1.00  0.00    -0.550 OA
ENDBRANCH   6   7
ENDBRANCH   5   6
ENDBRANCH   4   5
ENDBRANCH   3   4
ENDBRANCH   2   3
ENDBRANCH   1   2
BRANCH   1  10
ATOM     10  C   UNL     1      19.094   7.872  11.874  1.00  0.00     0.000 C 
BRANCH  10  11
ATOM     11  C   UNL     1      19.676   9.126  12.541  1.00  0.00    -0.000 C 
BRANCH  11  12
ATOM     12  C   UNL     1      20.605   9.916  11.605  1.00  0.00    -0.000 C 
BRANCH  12  13
ATOM     13  C   UNL     1      20.310   9.653  10.119  1.00  0.00    -0.000 C 
BRANCH  13  14
ATOM     14  C   UNL     1      21.563   9.762   9.234  1.00  0.00    -0.000 C 
BRANCH  14  15
ATOM     15  C   UNL     1      21.249   9.831   7.725  1.00  0.00    -0.003 C 
ATOM     16  C   UNL     1      21.995   8.764   6.924  1.00  0.00     0.004 C 
ENDBRANCH  14  15
ENDBRANCH  13  14
ENDBRANCH  12  13
ENDBRANCH  11  12
ENDBRANCH  10  11
ENDBRANCH   1  10
TORSDOF 12
ENDMDL
MODEL 5
REMARK VINA RESULT:    -2.686     17.695     18.963
REMARK INTER + INTRA:          -5.175
REMARK INTER:                  -4.612
REMARK INTRA:                  -0.563
REMARK UNBOUND:                -0.605
REMARK SMILES CCCCCCCCCCCCCC(=O)[O-]
REMARK SMILES IDX 8 1 9 2 10 3 11 4 12 5 13 6 14 7 15 8 16 9 7 10 6 11 5 12
REMARK SMILES IDX 4 13 3 14 2 15 1 16
REMARK H PARENT
REMARK Flexibility Score: inf
ROOT
ATOM      1  C   UNL     1      17.073   0.381  14.332  1.00  0.00     0.000 C 
ENDROOT
BRANCH   1   2
ATOM      2  C   UNL     1      17.799  -0.922  14.697  1.00  0.00     0.000 C 
BRANCH   2   3
ATOM      3  C   UNL     1      16.875  -1.942  15.381  1.00  0.00     0.000 C 
BRANCH   3   4
ATOM      4  C   UNL     1      17.575  -3.286  15.651  1.00  0.00     0.000 C 
BRANCH   4   5
ATOM      5  C   UNL     1      17.073  -4.409  14.729  1.00  0.00     0.006 C 
BRANCH   5   6
ATOM      6  C   UNL     1      17.822  -4.453  13.391  1.00  0.00     0.053 C 
BRANCH   6   7
ATOM      7  C   UNL     1      19.299  -4.375  13.617  1.00  0.00     0.041 C 
ATOM      8  O   UNL     1      19.930  -3.325  13.328  1.00  0.00    -0.550 OA
ATOM      9  O   UNL     1      19.971  -5.445  14.195  1.00  0.00    -0.550 OA
ENDBRANCH   6   7
ENDBRANCH   5   6
ENDBRANCH   4   5
ENDBRANCH   3   4
ENDBRANCH   2   3
ENDBRANCH   1   2
BRANCH   1  10
ATOM     10  C   UNL     1      17.034   1.340  15.529  1.00  0.00     0.000 C 
BRANCH  10  11
ATOM     11  C   UNL     1      17.456   2.756  15.113  1.00  0.00    -0.000 C 
BRANCH  11  12
ATOM     12  C   UNL     1      18.703   3.246  15.866  1.00  0.00    -0.000 C 
BRANCH  12  13
ATOM     13  C   UNL     1      18.898   4.768  15.760  1.00  0.00    -0.000 C 
BRANCH  13  14
ATOM     14  C   UNL     1      19.170   5.237  14.322  1.00  0.00    -0.000 C 
BRANCH  14  15
ATOM     15  C   UNL     1      19.125   6.770  14.152  1.00  0.00    -0.003 C 
ATOM     16  C   UNL     1      19.200   7.507  15.489  1.00  0.00     0.004 C 
ENDBRANCH  14  15
ENDBRANCH  13  14
ENDBRANCH  12  13
ENDBRANCH  11  12
ENDBRANCH  10  11
ENDBRANCH   1  10
TORSDOF 12
ENDMDL
MODEL 6
REMARK VINA RESULT:    -2.672     17.583     18.325
REMARK INTER + INTRA:          -5.151
REMARK INTER:                  -4.601
REMARK INTRA:                  -0.551
REMARK UNBOUND:                -0.605
REMARK SMILES CCCCCCCCCCCCCC(=O)[O-]
REMARK SMILES IDX 8 1 9 2 10 3 11 4 12 5 13 6 14 7 15 8 16 9 7 10 6 11 5 12
REMARK SMILES IDX 4 13 3 14 2 15 1 16
REMARK H PARENT
REMARK Flexibility Score: inf
ROOT
ATOM      1  C   UNL     1      19.392  -3.882  13.046  1.00  0.00     0.000 C 
ENDROOT
BRANCH   1   2
ATOM      2  C   UNL     1      18.091  -4.555  12.585  1.00  0.00     0.000 C 
BRANCH   2   3
ATOM      3  C   UNL     1      18.343  -5.823  11.754  1.00  0.00     0.000 C 
BRANCH   3   4
ATOM      4  C   UNL     1      17.087  -6.296  11.000  1.00  0.00     0.000 C 
BRANCH   4   5
ATOM      5  C   UNL     1      17.425  -7.068   9.716  1.00  0.00     0.006 C 
BRANCH   5   6
ATOM      6  C   UNL     1      18.401  -6.307   8.809  1.00  0.00     0.053 C 
BRANCH   6   7
ATOM      7  C   UNL     1      17.673  -5.708   7.647  1.00  0.00     0.041 C 
ATOM      8  O   UNL     1      16.876  -6.408   6.968  1.00  0.00    -0.550 OA
ATOM      9  O   UNL     1      17.836  -4.362   7.344  1.00  0.00    -0.550 OA
ENDBRANCH   6   7
ENDBRANCH   5   6
ENDBRANCH   4   5
ENDBRANCH   3   4
ENDBRANCH   2   3
ENDBRANCH   1   2
BRANCH   1  10
ATOM     10  C   UNL     1      20.264  -4.861  13.842  1.00  0.00     0.000 C 
BRANCH  10  11
ATOM     11  C   UNL     1      20.100  -4.641  15.353  1.00  0.00    -0.000 C 
BRANCH  11  12
ATOM     12  C   UNL     1      18.707  -5.044  15.861  1.00  0.00    -0.000 C 
BRANCH  12  13
ATOM     13  C   UNL     1      17.779  -3.835  16.066  1.00  0.00    -0.000 C 
BRANCH  13  14
ATOM     14  C   UNL     1      18.527  -2.492  16.010  1.00  0.00    -0.000 C 
BRANCH  14  15
ATOM     15  C   UNL     1      17.600  -1.264  16.122  1.00  0.00    -0.003 C 
ATOM     16  C   UNL     1      17.165  -0.735  14.756  1.00  0.00     0.004 C 
ENDBRANCH  14  15
ENDBRANCH  13  14
ENDBRANCH  12  13
ENDBRANCH  11  12
ENDBRANCH  10  11
ENDBRANCH   1  10
TORSDOF 12
ENDMDL
MODEL 7
REMARK VINA RESULT:    -2.560     18.598     20.861
REMARK INTER + INTRA:          -4.961
REMARK INTER:                  -4.395
REMARK INTRA:                  -0.566
REMARK UNBOUND:                -0.605
REMARK SMILES CCCCCCCCCCCCCC(=O)[O-]
REMARK SMILES IDX 8 1 9 2 10 3 11 4 12 5 13 6 14 7 15 8 16 9 7 10 6 11 5 12
REMARK SMILES IDX 4 13 3 14 2 15 1 16
REMARK H PARENT
REMARK Flexibility Score: inf
ROOT
ATOM      1  C   UNL     1      18.101  -0.910  14.887  1.00  0.00     0.000 C 
ENDROOT
BRANCH   1   2
ATOM      2  C   UNL     1      16.875   0.010  14.775  1.00  0.00     0.000 C 
BRANCH   2   3
ATOM      3  C   UNL     1      16.945   1.208  15.735  1.00  0.00     0.000 C 
BRANCH   3   4
ATOM      4  C   UNL     1      18.157   2.115  15.460  1.00  0.00     0.000 C 
BRANCH   4   5
ATOM      5  C   UNL     1      18.025   3.494  16.125  1.00  0.00     0.006 C 
BRANCH   5   6
ATOM      6  C   UNL     1      16.982   4.384  15.435  1.00  0.00     0.053 C 
BRANCH   6   7
ATOM      7  C   UNL     1      17.588   5.081  14.258  1.00  0.00     0.041 C 
ATOM      8  O   UNL     1      16.890   5.327  13.239  1.00  0.00    -0.550 OA
ATOM      9  O   UNL     1      18.909   5.506  14.306  1.00  0.00    -0.550 OA
ENDBRANCH   6   7
ENDBRANCH   5   6
ENDBRANCH   4   5
ENDBRANCH   3   4
ENDBRANCH   2   3
ENDBRANCH   1   2
BRANCH   1  10
ATOM     10  C   UNL     1      17.748  -2.345  14.480  1.00  0.00     0.000 C 
BRANCH  10  11
ATOM     11  C   UNL     1      18.977  -3.076  13.920  1.00  0.00    -0.000 C 
BRANCH  11  12
ATOM     12  C   UNL     1      18.643  -4.485  13.404  1.00  0.00    -0.000 C 
BRANCH  12  13
ATOM     13  C   UNL     1      17.143  -4.670  13.118  1.00  0.00    -0.000 C 
BRANCH  13  14
ATOM     14  C   UNL     1      16.875  -5.477  11.837  1.00  0.00    -0.000 C 
BRANCH  14  15
ATOM     15  C   UNL     1      18.131  -5.692  10.968  1.00  0.00    -0.003 C 
ATOM     16  C   UNL     1      17.818  -6.414   9.658  1.00  0.00     0.004 C 
ENDBRANCH  14  15
ENDBRANCH  13  14
ENDBRANCH  12  13
ENDBRANCH  11  12
ENDBRANCH  10  11
ENDBRANCH   1  10
TORSDOF 12
ENDMDL
MODEL 8
REMARK VINA RESULT:    -2.470     17.490     18.945
REMARK INTER + INTRA:          -4.808
REMARK INTER:                  -4.233
REMARK INTRA:                  -0.575
REMARK UNBOUND:                -0.605
REMARK SMILES CCCCCCCCCCCCCC(=O)[O-]
REMARK SMILES IDX 8 1 9 2 10 3 11 4 12 5 13 6 14 7 15 8 16 9 7 10 6 11 5 12
REMARK SMILES IDX 4 13 3 14 2 15 1 16
REMARK H PARENT
REMARK Flexibility Score: inf
ROOT
ATOM      1  C   UNL     1      17.061  -4.319  12.592  1.00  0.00     0.000 C 
ENDROOT
BRANCH   1   2
ATOM      2  C   UNL     1      17.130  -4.538  14.111  1.00  0.00     0.000 C 
BRANCH   2   3
ATOM      3  C   UNL     1      17.218  -3.219  14.895  1.00  0.00     0.000 C 
BRANCH   3   4
ATOM      4  C   UNL     1      18.190  -3.304  16.086  1.00  0.00     0.000 C 
BRANCH   4   5
ATOM      5  C   UNL     1      19.548  -3.908  15.697  1.00  0.00     0.006 C 
BRANCH   5   6
ATOM      6  C   UNL     1      19.672  -5.385  16.093  1.00  0.00     0.053 C 
BRANCH   6   7
ATOM      7  C   UNL     1      21.051  -5.889  15.805  1.00  0.00     0.041 C 
ATOM      8  O   UNL     1      22.047  -5.132  15.955  1.00  0.00    -0.550 OA
ATOM      9  O   UNL     1      21.242  -7.209  15.419  1.00  0.00    -0.550 OA
ENDBRANCH   6   7
ENDBRANCH   5   6
ENDBRANCH   4   5
ENDBRANCH   3   4
ENDBRANCH   2   3
ENDBRANCH   1   2
BRANCH   1  10
ATOM     10  C   UNL     1      18.042  -5.243  11.860  1.00  0.00     0.000 C 
BRANCH  10  11
ATOM     11  C   UNL     1      17.330  -6.037  10.756  1.00  0.00    -0.000 C 
BRANCH  11  12
ATOM     12  C   UNL     1      18.258  -7.047  10.062  1.00  0.00    -0.000 C 
BRANCH  12  13
ATOM     13  C   UNL     1      18.205  -6.943   8.528  1.00  0.00    -0.000 C 
BRANCH  13  14
ATOM     14  C   UNL     1      16.883  -6.348   8.016  1.00  0.00    -0.000 C 
BRANCH  14  15
ATOM     15  C   UNL     1      17.055  -5.000   7.286  1.00  0.00    -0.003 C 
ATOM     16  C   UNL     1      18.261  -4.211   7.793  1.00  0.00     0.004 C 
ENDBRANCH  14  15
ENDBRANCH  13  14
ENDBRANCH  12  13
ENDBRANCH  11  12
ENDBRANCH  10  11
ENDBRANCH   1  10
TORSDOF 12
ENDMDL
MODEL 9
REMARK VINA RESULT:    -2.347     18.185     18.949
REMARK INTER + INTRA:          -4.599
REMARK INTER:                  -4.030
REMARK INTRA:                  -0.568
REMARK UNBOUND:                -0.605
REMARK SMILES CCCCCCCCCCCCCC(=O)[O-]
REMARK SMILES IDX 8 1 9 2 10 3 11 4 12 5 13 6 14 7 15 8 16 9 7 10 6 11 5 12
REMARK SMILES IDX 4 13 3 14 2 15 1 16
REMARK H PARENT
REMARK Flexibility Score: inf
ROOT
ATOM      1  C   UNL     1      18.459  -1.472  14.319  1.00  0.00     0.000 C 
ENDROOT
BRANCH   1   2
ATOM      2  C   UNL     1      18.199  -2.652  15.267  1.00  0.00     0.000 C 
BRANCH   2   3
ATOM      3  C   UNL     1      16.904  -3.409  14.928  1.00  0.00     0.000 C 
BRANCH   3   4
ATOM      4  C   UNL     1      17.172  -4.825  14.389  1.00  0.00     0.000 C 
BRANCH   4   5
ATOM      5  C   UNL     1      16.875  -4.951  12.887  1.00  0.00     0.006 C 
BRANCH   5   6
ATOM      6  C   UNL     1      18.110  -5.362  12.074  1.00  0.00     0.053 C 
BRANCH   6   7
ATOM      7  C   UNL     1      17.698  -6.027  10.798  1.00  0.00     0.041 C 
ATOM      8  O   UNL     1      18.132  -5.604   9.694  1.00  0.00    -0.550 OA
ATOM      9  O   UNL     1      16.875  -7.145  10.832  1.00  0.00    -0.550 OA
ENDBRANCH   6   7
ENDBRANCH   5   6
ENDBRANCH   4   5
ENDBRANCH   3   4
ENDBRANCH   2   3
ENDBRANCH   1   2
BRANCH   1  10
ATOM     10  C   UNL     1      17.439  -0.350  14.547  1.00  0.00     0.000 C 
BRANCH  10  11
ATOM     11  C   UNL     1      17.492   0.156  15.996  1.00  0.00    -0.000 C 
BRANCH  11  12
ATOM     12  C   UNL     1      17.138   1.647  16.114  1.00  0.00    -0.000 C 
BRANCH  12  13
ATOM     13  C   UNL     1      18.348   2.564  15.864  1.00  0.00    -0.000 C 
BRANCH  13  14
ATOM     14  C   UNL     1      17.948   3.943  15.315  1.00  0.00    -0.000 C 
BRANCH  14  15
ATOM     15  C   UNL     1      19.116   4.950  15.263  1.00  0.00    -0.003 C 
ATOM     16  C   UNL     1      18.701   6.350  15.714  1.00  0.00     0.004 C 
ENDBRANCH  14  15
ENDBRANCH  13  14
ENDBRANCH  12  13
ENDBRANCH  11  12
ENDBRANCH  10  11
ENDBRANCH   1  10
TORSDOF 12
ENDMDL
