MODEL 1
REMARK VINA RESULT:    -2.849      0.000      0.000
REMARK INTER + INTRA:          -6.502
REMARK INTER:                  -5.515
REMARK INTRA:                  -0.988
REMARK UNBOUND:                -0.988
REMARK SMILES CCCCCCCCCCCCCCCCCC(=O)[O-]
REMARK SMILES IDX 10 1 11 2 12 3 13 4 14 5 15 6 16 7 17 8 18 9 19 10 20 11
REMARK SMILES IDX 9 12 8 13 7 14 6 15 5 16 4 17 3 18 2 19 1 20
REMARK H PARENT
REMARK Flexibility Score: inf
ROOT
ATOM      1  C   UNL     1       2.764 -37.899  19.794  1.00  0.00     0.000 C 
ENDROOT
BRANCH   1   2
ATOM      2  C   UNL     1       4.233 -37.926  19.347  1.00  0.00     0.000 C 
BRANCH   2   3
ATOM      3  C   UNL     1       5.204 -37.502  20.462  1.00  0.00     0.000 C 
BRANCH   3   4
ATOM      4  C   UNL     1       4.871 -36.157  21.139  1.00  0.00     0.000 C 
BRANCH   4   5
ATOM      5  C   UNL     1       6.068 -35.202  21.324  1.00  0.00     0.000 C 
BRANCH   5   6
ATOM      6  C   UNL     1       6.120 -34.484  22.684  1.00  0.00     0.000 C 
BRANCH   6   7
ATOM      7  C   UNL     1       5.118 -35.055  23.699  1.00  0.00     0.006 C 
BRANCH   7   8
ATOM      8  C   UNL     1       5.845 -35.699  24.883  1.00  0.00     0.053 C 
BRANCH   8   9
ATOM      9  C   UNL     1       5.419 -37.123  25.046  1.00  0.00     0.041 C 
ATOM     10  O   UNL     1       5.715 -37.979  24.170  1.00  0.00    -0.550 OA
ATOM     11  O   UNL     1       4.650 -37.498  26.141  1.00  0.00    -0.550 OA
ENDBRANCH   8   9
ENDBRANCH   7   8
ENDBRANCH   6   7
ENDBRANCH   5   6
ENDBRANCH   4   5
ENDBRANCH   3   4
ENDBRANCH   2   3
ENDBRANCH   1   2
BRANCH   1  12
ATOM     12  C   UNL     1       1.820 -37.951  18.586  1.00  0.00     0.000 C 
BRANCH  12  13
ATOM     13  C   UNL     1       2.562 -37.579  17.293  1.00  0.00    -0.000 C 
BRANCH  13  14
ATOM     14  C   UNL     1       1.608 -37.190  16.152  1.00  0.00    -0.000 C 
BRANCH  14  15
ATOM     15  C   UNL     1       2.272 -36.263  15.118  1.00  0.00    -0.000 C 
BRANCH  15  16
ATOM     16  C   UNL     1       2.843 -37.033  13.915  1.00  0.00    -0.000 C 
BRANCH  16  17
ATOM     17  C   UNL     1       4.209 -37.674  14.214  1.00  0.00    -0.000 C 
BRANCH  17  18
ATOM     18  C   UNL     1       4.111 -39.192  14.434  1.00  0.00    -0.000 C 
BRANCH  18  19
ATOM     19  C   UNL     1       5.362 -39.942  13.952  1.00  0.00    -0.003 C 
ATOM     20  C   UNL     1       5.214 -41.446  14.160  1.00  0.00     0.004 C 
ENDBRANCH  18  19
ENDBRANCH  17  18
ENDBRANCH  16  17
ENDBRANCH  15  16
ENDBRANCH  14  15
ENDBRANCH  13  14
ENDBRANCH  12  13
ENDBRANCH   1  12
TORSDOF 16
ENDMDL
MODEL 2
REMARK VINA RESULT:    -2.133      3.729      8.554
REMARK INTER + INTRA:          -5.116
REMARK INTER:                  -3.936
REMARK INTRA:                  -1.181
REMARK UNBOUND:                -0.988
REMARK SMILES CCCCCCCCCCCCCCCCCC(=O)[O-]
REMARK SMILES IDX 10 1 11 2 12 3 13 4 14 5 15 6 16 7 17 8 18 9 19 10 20 11
REMARK SMILES IDX 9 12 8 13 7 14 6 15 5 16 4 17 3 18 2 19 1 20
REMARK H PARENT
REMARK Flexibility Score: inf
ROOT
ATOM      1  C   UNL     1       5.745 -37.099  21.173  1.00  0.00     0.000 C 
ENDROOT
BRANCH   1   2
ATOM      2  C   UNL     1       5.252 -38.368  20.462  1.00  0.00     0.000 C 
BRANCH   2   3
ATOM      3  C   UNL     1       4.444 -38.064  19.189  1.00  0.00     0.000 C 
BRANCH   3   4
ATOM      4  C   UNL     1       2.930 -37.871  19.410  1.00  0.00     0.000 C 
BRANCH   4   5
ATOM      5  C   UNL     1       2.122 -37.521  18.143  1.00  0.00     0.000 C 
BRANCH   5   6
ATOM      6  C   UNL     1       2.966 -37.301  16.876  1.00  0.00     0.000 C 
BRANCH   6   7
ATOM      7  C   UNL     1       2.244 -36.450  15.820  1.00  0.00     0.006 C 
BRANCH   7   8
ATOM      8  C   UNL     1       2.440 -37.035  14.418  1.00  0.00     0.053 C 
BRANCH   8   9
ATOM      9  C   UNL     1       3.825 -37.578  14.266  1.00  0.00     0.041 C 
ATOM     10  O   UNL     1       4.776 -36.813  13.954  1.00  0.00    -0.550 OA
ATOM     11  O   UNL     1       4.059 -38.939  14.420  1.00  0.00    -0.550 OA
ENDBRANCH   8   9
ENDBRANCH   7   8
ENDBRANCH   6   7
ENDBRANCH   5   6
ENDBRANCH   4   5
ENDBRANCH   3   4
ENDBRANCH   2   3
ENDBRANCH   1   2
BRANCH   1  12
ATOM     12  C   UNL     1       5.708 -35.891  20.228  1.00  0.00     0.000 C 
BRANCH  12  13
ATOM     13  C   UNL     1       4.685 -34.850  20.708  1.00  0.00    -0.000 C 
BRANCH  13  14
ATOM     14  C   UNL     1       4.269 -35.057  22.173  1.00  0.00    -0.000 C 
BRANCH  14  15
ATOM     15  C   UNL     1       4.833 -33.970  23.105  1.00  0.00    -0.000 C 
BRANCH  15  16
ATOM     16  C   UNL     1       6.095 -34.432  23.855  1.00  0.00    -0.000 C 
BRANCH  16  17
ATOM     17  C   UNL     1       6.104 -35.947  24.125  1.00  0.00    -0.000 C 
BRANCH  17  18
ATOM     18  C   UNL     1       5.857 -36.282  25.605  1.00  0.00    -0.000 C 
BRANCH  18  19
ATOM     19  C   UNL     1       4.896 -37.466  25.792  1.00  0.00    -0.003 C 
ATOM     20  C   UNL     1       5.197 -38.578  24.792  1.00  0.00     0.004 C 
ENDBRANCH  18  19
ENDBRANCH  17  18
ENDBRANCH  16  17
ENDBRANCH  15  16
ENDBRANCH  14  15
ENDBRANCH  13  14
ENDBRANCH  12  13
ENDBRANCH   1  12
TORSDOF 16
ENDMDL
MODEL 3
REMARK VINA RESULT:    -1.933      3.916      8.208
REMARK INTER + INTRA:          -4.730
REMARK INTER:                  -2.949
REMARK INTRA:                  -1.780
REMARK UNBOUND:                -0.988
REMARK SMILES CCCCCCCCCCCCCCCCCC(=O)[O-]
REMARK SMILES IDX 10 1 11 2 12 3 13 4 14 5 15 6 16 7 17 8 18 9 19 10 20 11
REMARK SMILES IDX 9 12 8 13 7 14 6 15 5 16 4 17 3 18 2 19 1 20
REMARK H PARENT
REMARK Flexibility Score: inf
ROOT
ATOM      1  C   UNL     1       5.199 -35.972  20.306  1.00  0.00     0.000 C 
ENDROOT
BRANCH   1   2
ATOM      2  C   UNL     1       5.421 -37.379  19.731  1.00  0.00     0.000 C 
BRANCH   2   3
ATOM      3  C   UNL     1       4.126 -38.208  19.667  1.00  0.00     0.000 C 
BRANCH   3   4
ATOM      4  C   UNL     1       2.826 -37.399  19.843  1.00  0.00     0.000 C 
BRANCH   4   5
ATOM      5  C   UNL     1       1.588 -37.985  19.133  1.00  0.00     0.000 C 
BRANCH   5   6
ATOM      6  C   UNL     1       1.667 -38.000  17.597  1.00  0.00     0.000 C 
BRANCH   6   7
ATOM      7  C   UNL     1       2.150 -36.665  17.011  1.00  0.00     0.006 C 
BRANCH   7   8
ATOM      8  C   UNL     1       3.476 -36.841  16.265  1.00  0.00     0.053 C 
BRANCH   8   9
ATOM      9  C   UNL     1       3.232 -37.015  14.800  1.00  0.00     0.041 C 
ATOM     10  O   UNL     1       4.139 -37.476  14.056  1.00  0.00    -0.550 OA
ATOM     11  O   UNL     1       2.021 -36.621  14.245  1.00  0.00    -0.550 OA
ENDBRANCH   8   9
ENDBRANCH   7   8
ENDBRANCH   6   7
ENDBRANCH   5   6
ENDBRANCH   4   5
ENDBRANCH   3   4
ENDBRANCH   2   3
ENDBRANCH   1   2
BRANCH   1  12
ATOM     12  C   UNL     1       5.923 -35.805  21.647  1.00  0.00     0.000 C 
BRANCH  12  13
ATOM     13  C   UNL     1       5.134 -34.881  22.587  1.00  0.00    -0.000 C 
BRANCH  13  14
ATOM     14  C   UNL     1       5.814 -34.701  23.953  1.00  0.00    -0.000 C 
BRANCH  14  15
ATOM     15  C   UNL     1       5.383 -35.772  24.972  1.00  0.00    -0.000 C 
BRANCH  15  16
ATOM     16  C   UNL     1       6.125 -37.105  24.777  1.00  0.00    -0.000 C 
BRANCH  16  17
ATOM     17  C   UNL     1       5.204 -38.326  24.952  1.00  0.00    -0.000 C 
BRANCH  17  18
ATOM     18  C   UNL     1       4.871 -39.008  23.615  1.00  0.00    -0.000 C 
BRANCH  18  19
ATOM     19  C   UNL     1       6.121 -39.515  22.880  1.00  0.00    -0.003 C 
ATOM     20  C   UNL     1       5.744 -40.452  21.738  1.00  0.00     0.004 C 
ENDBRANCH  18  19
ENDBRANCH  17  18
ENDBRANCH  16  17
ENDBRANCH  15  16
ENDBRANCH  14  15
ENDBRANCH  13  14
ENDBRANCH  12  13
ENDBRANCH   1  12
TORSDOF 16
ENDMDL
MODEL 4
REMARK VINA RESULT:    -1.542      3.850      8.229
REMARK INTER + INTRA:          -3.971
REMARK INTER:                  -2.584
REMARK INTRA:                  -1.387
REMARK UNBOUND:                -0.988
REMARK SMILES CCCCCCCCCCCCCCCCCC(=O)[O-]
REMARK SMILES IDX 10 1 11 2 12 3 13 4 14 5 15 6 16 7 17 8 18 9 19 10 20 11
REMARK SMILES IDX 9 12 8 13 7 14 6 15 5 16 4 17 3 18 2 19 1 20
REMARK H PARENT
REMARK Flexibility Score: inf
ROOT
ATOM      1  C   UNL     1       4.362 -37.580  20.382  1.00  0.00     0.000 C 
ENDROOT
BRANCH   1   2
ATOM      2  C   UNL     1       4.354 -36.048  20.487  1.00  0.00     0.000 C 
BRANCH   2   3
ATOM      3  C   UNL     1       5.736 -35.424  20.224  1.00  0.00     0.000 C 
BRANCH   3   4
ATOM      4  C   UNL     1       5.931 -34.849  18.807  1.00  0.00     0.000 C 
BRANCH   4   5
ATOM      5  C   UNL     1       4.634 -34.645  17.998  1.00  0.00     0.000 C 
BRANCH   5   6
ATOM      6  C   UNL     1       4.363 -35.714  16.926  1.00  0.00     0.000 C 
BRANCH   6   7
ATOM      7  C   UNL     1       3.044 -36.467  17.154  1.00  0.00     0.006 C 
BRANCH   7   8
ATOM      8  C   UNL     1       3.037 -37.801  16.401  1.00  0.00     0.053 C 
BRANCH   8   9
ATOM      9  C   UNL     1       3.373 -37.589  14.959  1.00  0.00     0.041 C 
ATOM     10  O   UNL     1       2.761 -36.717  14.286  1.00  0.00    -0.550 OA
ATOM     11  O   UNL     1       4.327 -38.389  14.343  1.00  0.00    -0.550 OA
ENDBRANCH   8   9
ENDBRANCH   7   8
ENDBRANCH   6   7
ENDBRANCH   5   6
ENDBRANCH   4   5
ENDBRANCH   3   4
ENDBRANCH   2   3
ENDBRANCH   1   2
BRANCH   1  12
ATOM     12  C   UNL     1       5.795 -38.126  20.417  1.00  0.00     0.000 C 
BRANCH  12  13
ATOM     13  C   UNL     1       5.798 -39.662  20.429  1.00  0.00    -0.000 C 
BRANCH  13  14
ATOM     14  C   UNL     1       5.966 -40.244  21.842  1.00  0.00    -0.000 C 
BRANCH  14  15
ATOM     15  C   UNL     1       4.982 -39.630  22.853  1.00  0.00    -0.000 C 
BRANCH  15  16
ATOM     16  C   UNL     1       5.696 -38.925  24.020  1.00  0.00    -0.000 C 
BRANCH  16  17
ATOM     17  C   UNL     1       5.787 -37.402  23.825  1.00  0.00    -0.000 C 
BRANCH  17  18
ATOM     18  C   UNL     1       5.800 -36.638  25.159  1.00  0.00    -0.000 C 
BRANCH  18  19
ATOM     19  C   UNL     1       6.118 -35.145  24.984  1.00  0.00    -0.003 C 
ATOM     20  C   UNL     1       6.059 -34.741  23.514  1.00  0.00     0.004 C 
ENDBRANCH  18  19
ENDBRANCH  17  18
ENDBRANCH  16  17
ENDBRANCH  15  16
ENDBRANCH  14  15
ENDBRANCH  13  14
ENDBRANCH  12  13
ENDBRANCH   1  12
TORSDOF 16
ENDMDL
MODEL 5
REMARK VINA RESULT:    -1.521      1.997      3.992
REMARK INTER + INTRA:          -3.931
REMARK INTER:                  -2.968
REMARK INTRA:                  -0.963
REMARK UNBOUND:                -0.988
REMARK SMILES CCCCCCCCCCCCCCCCCC(=O)[O-]
REMARK SMILES IDX 10 1 11 2 12 3 13 4 14 5 15 6 16 7 17 8 18 9 19 10 20 11
REMARK SMILES IDX 9 12 8 13 7 14 6 15 5 16 4 17 3 18 2 19 1 20
REMARK H PARENT
REMARK Flexibility Score: inf
ROOT
ATOM      1  C   UNL     1       6.080 -40.184  21.796  1.00  0.00     0.000 C 
ENDROOT
BRANCH   1   2
ATOM      2  C   UNL     1       4.794 -39.774  22.530  1.00  0.00     0.000 C 
BRANCH   2   3
ATOM      3  C   UNL     1       5.018 -39.523  24.031  1.00  0.00     0.000 C 
BRANCH   3   4
ATOM      4  C   UNL     1       5.937 -38.330  24.362  1.00  0.00     0.000 C 
BRANCH   4   5
ATOM      5  C   UNL     1       5.407 -37.377  25.453  1.00  0.00     0.000 C 
BRANCH   5   6
ATOM      6  C   UNL     1       5.715 -35.888  25.219  1.00  0.00     0.000 C 
BRANCH   6   7
ATOM      7  C   UNL     1       6.123 -35.584  23.770  1.00  0.00     0.006 C 
BRANCH   7   8
ATOM      8  C   UNL     1       5.064 -34.726  23.070  1.00  0.00     0.053 C 
BRANCH   8   9
ATOM      9  C   UNL     1       4.947 -35.110  21.630  1.00  0.00     0.041 C 
ATOM     10  O   UNL     1       3.853 -35.537  21.174  1.00  0.00    -0.550 OA
ATOM     11  O   UNL     1       6.060 -35.046  20.801  1.00  0.00    -0.550 OA
ENDBRANCH   8   9
ENDBRANCH   7   8
ENDBRANCH   6   7
ENDBRANCH   5   6
ENDBRANCH   4   5
ENDBRANCH   3   4
ENDBRANCH   2   3
ENDBRANCH   1   2
BRANCH   1  12
ATOM     12  C   UNL     1       6.106 -39.614  20.372  1.00  0.00     0.000 C 
BRANCH  12  13
ATOM     13  C   UNL     1       5.274 -38.326  20.281  1.00  0.00    -0.000 C 
BRANCH  13  14
ATOM     14  C   UNL     1       4.507 -38.208  18.954  1.00  0.00    -0.000 C 
BRANCH  14  15
ATOM     15  C   UNL     1       3.048 -37.761  19.155  1.00  0.00    -0.000 C 
BRANCH  15  16
ATOM     16  C   UNL     1       2.273 -37.660  17.829  1.00  0.00    -0.000 C 
BRANCH  16  17
ATOM     17  C   UNL     1       2.884 -36.630  16.863  1.00  0.00    -0.000 C 
BRANCH  17  18
ATOM     18  C   UNL     1       2.192 -36.630  15.489  1.00  0.00    -0.000 C 
BRANCH  18  19
ATOM     19  C   UNL     1       3.190 -36.708  14.324  1.00  0.00    -0.003 C 
ATOM     20  C   UNL     1       4.041 -37.971  14.414  1.00  0.00     0.004 C 
ENDBRANCH  18  19
ENDBRANCH  17  18
ENDBRANCH  16  17
ENDBRANCH  15  16
ENDBRANCH  14  15
ENDBRANCH  13  14
ENDBRANCH  12  13
ENDBRANCH   1  12
TORSDOF 16
ENDMDL
MODEL 6
REMARK VINA RESULT:    -1.459      3.812      8.173
REMARK INTER + INTRA:          -3.812
REMARK INTER:                  -3.011
REMARK INTRA:                  -0.801
REMARK UNBOUND:                -0.988
REMARK SMILES CCCCCCCCCCCCCCCCCC(=O)[O-]
REMARK SMILES IDX 10 1 11 2 12 3 13 4 14 5 15 6 16 7 17 8 18 9 19 10 20 11
REMARK SMILES IDX 9 12 8 13 7 14 6 15 5 16 4 17 3 18 2 19 1 20
REMARK H PARENT
REMARK Flexibility Score: inf
ROOT
ATOM      1  C   UNL     1       4.974 -35.309  22.724  1.00  0.00     0.000 C 
ENDROOT
BRANCH   1   2
ATOM      2  C   UNL     1       5.821 -36.088  21.707  1.00  0.00     0.000 C 
BRANCH   2   3
ATOM      3  C   UNL     1       5.735 -35.504  20.287  1.00  0.00     0.000 C 
BRANCH   3   4
ATOM      4  C   UNL     1       5.146 -36.456  19.226  1.00  0.00     0.000 C 
BRANCH   4   5
ATOM      5  C   UNL     1       3.618 -36.359  19.035  1.00  0.00     0.000 C 
BRANCH   5   6
ATOM      6  C   UNL     1       2.904 -37.705  18.825  1.00  0.00     0.000 C 
BRANCH   6   7
ATOM      7  C   UNL     1       2.619 -38.005  17.346  1.00  0.00     0.006 C 
BRANCH   7   8
ATOM      8  C   UNL     1       2.517 -36.711  16.534  1.00  0.00     0.053 C 
BRANCH   8   9
ATOM      9  C   UNL     1       2.848 -36.967  15.098  1.00  0.00     0.041 C 
ATOM     10  O   UNL     1       2.096 -36.530  14.186  1.00  0.00    -0.550 OA
ATOM     11  O   UNL     1       3.959 -37.731  14.766  1.00  0.00    -0.550 OA
ENDBRANCH   8   9
ENDBRANCH   7   8
ENDBRANCH   6   7
ENDBRANCH   5   6
ENDBRANCH   4   5
ENDBRANCH   3   4
ENDBRANCH   2   3
ENDBRANCH   1   2
BRANCH   1  12
ATOM     12  C   UNL     1       5.859 -34.438  23.625  1.00  0.00     0.000 C 
BRANCH  12  13
ATOM     13  C   UNL     1       5.891 -34.987  25.060  1.00  0.00    -0.000 C 
BRANCH  13  14
ATOM     14  C   UNL     1       6.125 -36.506  25.109  1.00  0.00    -0.000 C 
BRANCH  14  15
ATOM     15  C   UNL     1       4.921 -37.268  25.692  1.00  0.00    -0.000 C 
BRANCH  15  16
ATOM     16  C   UNL     1       4.581 -38.536  24.891  1.00  0.00    -0.000 C 
BRANCH  16  17
ATOM     17  C   UNL     1       5.546 -38.773  23.716  1.00  0.00    -0.000 C 
BRANCH  17  18
ATOM     18  C   UNL     1       5.383 -40.169  23.092  1.00  0.00    -0.000 C 
BRANCH  18  19
ATOM     19  C   UNL     1       6.085 -40.294  21.731  1.00  0.00    -0.003 C 
ATOM     20  C   UNL     1       5.691 -39.148  20.804  1.00  0.00     0.004 C 
ENDBRANCH  18  19
ENDBRANCH  17  18
ENDBRANCH  16  17
ENDBRANCH  15  16
ENDBRANCH  14  15
ENDBRANCH  13  14
ENDBRANCH  12  13
ENDBRANCH   1  12
TORSDOF 16
ENDMDL
MODEL 7
REMARK VINA RESULT:    -1.202      1.495      3.348
REMARK INTER + INTRA:          -3.314
REMARK INTER:                  -2.427
REMARK INTRA:                  -0.887
REMARK UNBOUND:                -0.988
REMARK SMILES CCCCCCCCCCCCCCCCCC(=O)[O-]
REMARK SMILES IDX 10 1 11 2 12 3 13 4 14 5 15 6 16 7 17 8 18 9 19 10 20 11
REMARK SMILES IDX 9 12 8 13 7 14 6 15 5 16 4 17 3 18 2 19 1 20
REMARK H PARENT
REMARK Flexibility Score: inf
ROOT
ATOM      1  C   UNL     1       4.586 -36.400  21.430  1.00  0.00     0.000 C 
ENDROOT
BRANCH   1   2
ATOM      2  C   UNL     1       4.487 -34.867  21.435  1.00  0.00     0.000 C 
BRANCH   2   3
ATOM      3  C   UNL     1       4.268 -34.288  22.844  1.00  0.00     0.000 C 
BRANCH   3   4
ATOM      4  C   UNL     1       5.531 -34.230  23.727  1.00  0.00     0.000 C 
BRANCH   4   5
ATOM      5  C   UNL     1       6.124 -35.600  24.114  1.00  0.00     0.000 C 
BRANCH   5   6
ATOM      6  C   UNL     1       5.357 -36.351  25.216  1.00  0.00     0.000 C 
BRANCH   6   7
ATOM      7  C   UNL     1       5.053 -37.810  24.843  1.00  0.00     0.006 C 
BRANCH   7   8
ATOM      8  C   UNL     1       6.011 -38.309  23.757  1.00  0.00     0.053 C 
BRANCH   8   9
ATOM      9  C   UNL     1       5.510 -39.587  23.163  1.00  0.00     0.041 C 
ATOM     10  O   UNL     1       4.783 -40.359  23.842  1.00  0.00    -0.550 OA
ATOM     11  O   UNL     1       5.887 -39.951  21.876  1.00  0.00    -0.550 OA
ENDBRANCH   8   9
ENDBRANCH   7   8
ENDBRANCH   6   7
ENDBRANCH   5   6
ENDBRANCH   4   5
ENDBRANCH   3   4
ENDBRANCH   2   3
ENDBRANCH   1   2
BRANCH   1  12
ATOM     12  C   UNL     1       5.532 -36.887  20.326  1.00  0.00     0.000 C 
BRANCH  12  13
ATOM     13  C   UNL     1       4.743 -37.383  19.105  1.00  0.00    -0.000 C 
BRANCH  13  14
ATOM     14  C   UNL     1       3.306 -37.803  19.457  1.00  0.00    -0.000 C 
BRANCH  14  15
ATOM     15  C   UNL     1       2.383 -37.836  18.226  1.00  0.00    -0.000 C 
BRANCH  15  16
ATOM     16  C   UNL     1       2.898 -36.952  17.077  1.00  0.00    -0.000 C 
BRANCH  16  17
ATOM     17  C   UNL     1       2.102 -37.150  15.775  1.00  0.00    -0.000 C 
BRANCH  17  18
ATOM     18  C   UNL     1       2.777 -36.481  14.566  1.00  0.00    -0.000 C 
BRANCH  18  19
ATOM     19  C   UNL     1       3.947 -37.305  14.010  1.00  0.00    -0.003 C 
ATOM     20  C   UNL     1       3.997 -38.688  14.651  1.00  0.00     0.004 C 
ENDBRANCH  18  19
ENDBRANCH  17  18
ENDBRANCH  16  17
ENDBRANCH  15  16
ENDBRANCH  14  15
ENDBRANCH  13  14
ENDBRANCH  12  13
ENDBRANCH   1  12
TORSDOF 16
ENDMDL
MODEL 8
REMARK VINA RESULT:    -0.925      3.705      8.199
REMARK INTER + INTRA:          -2.778
REMARK INTER:                  -2.147
REMARK INTRA:                  -0.631
REMARK UNBOUND:                -0.988
REMARK SMILES CCCCCCCCCCCCCCCCCC(=O)[O-]
REMARK SMILES IDX 10 1 11 2 12 3 13 4 14 5 15 6 16 7 17 8 18 9 19 10 20 11
REMARK SMILES IDX 9 12 8 13 7 14 6 15 5 16 4 17 3 18 2 19 1 20
REMARK H PARENT
REMARK Flexibility Score: inf
ROOT
ATOM      1  C   UNL     1       4.508 -39.778  23.186  1.00  0.00     0.000 C 
ENDROOT
BRANCH   1   2
ATOM      2  C   UNL     1       5.481 -39.812  21.998  1.00  0.00     0.000 C 
BRANCH   2   3
ATOM      3  C   UNL     1       5.474 -38.506  21.185  1.00  0.00     0.000 C 
BRANCH   3   4
ATOM      4  C   UNL     1       4.661 -38.558  19.875  1.00  0.00     0.000 C 
BRANCH   4   5
ATOM      5  C   UNL     1       3.288 -37.858  19.928  1.00  0.00     0.000 C 
BRANCH   5   6
ATOM      6  C   UNL     1       2.521 -37.833  18.595  1.00  0.00     0.000 C 
BRANCH   6   7
ATOM      7  C   UNL     1       3.380 -37.340  17.421  1.00  0.00     0.006 C 
BRANCH   7   8
ATOM      8  C   UNL     1       2.613 -37.445  16.099  1.00  0.00     0.053 C 
BRANCH   8   9
ATOM      9  C   UNL     1       3.560 -37.659  14.961  1.00  0.00     0.041 C 
ATOM     10  O   UNL     1       3.931 -36.685  14.253  1.00  0.00    -0.550 OA
ATOM     11  O   UNL     1       3.994 -38.942  14.649  1.00  0.00    -0.550 OA
ENDBRANCH   8   9
ENDBRANCH   7   8
ENDBRANCH   6   7
ENDBRANCH   5   6
ENDBRANCH   4   5
ENDBRANCH   3   4
ENDBRANCH   2   3
ENDBRANCH   1   2
BRANCH   1  12
ATOM     12  C   UNL     1       5.194 -39.232  24.444  1.00  0.00     0.000 C 
BRANCH  12  13
ATOM     13  C   UNL     1       4.291 -38.220  25.167  1.00  0.00    -0.000 C 
BRANCH  13  14
ATOM     14  C   UNL     1       5.065 -37.336  26.157  1.00  0.00    -0.000 C 
BRANCH  14  15
ATOM     15  C   UNL     1       6.087 -36.422  25.458  1.00  0.00    -0.000 C 
BRANCH  15  16
ATOM     16  C   UNL     1       5.935 -36.428  23.927  1.00  0.00    -0.000 C 
BRANCH  16  17
ATOM     17  C   UNL     1       5.736 -35.018  23.345  1.00  0.00    -0.000 C 
BRANCH  17  18
ATOM     18  C   UNL     1       6.122 -34.934  21.859  1.00  0.00    -0.000 C 
BRANCH  18  19
ATOM     19  C   UNL     1       4.929 -35.179  20.923  1.00  0.00    -0.003 C 
ATOM     20  C   UNL     1       5.358 -35.115  19.460  1.00  0.00     0.004 C 
ENDBRANCH  18  19
ENDBRANCH  17  18
ENDBRANCH  16  17
ENDBRANCH  15  16
ENDBRANCH  14  15
ENDBRANCH  13  14
ENDBRANCH  12  13
ENDBRANCH   1  12
TORSDOF 16
ENDMDL
MODEL 9
REMARK VINA RESULT:    -0.525      2.152      4.412
REMARK INTER + INTRA:          -2.005
REMARK INTER:                  -1.708
REMARK INTRA:                  -0.297
REMARK UNBOUND:                -0.988
REMARK SMILES CCCCCCCCCCCCCCCCCC(=O)[O-]
REMARK SMILES IDX 10 1 11 2 12 3 13 4 14 5 15 6 16 7 17 8 18 9 19 10 20 11
REMARK SMILES IDX 9 12 8 13 7 14 6 15 5 16 4 17 3 18 2 19 1 20
REMARK H PARENT
REMARK Flexibility Score: inf
ROOT
ATOM      1  C   UNL     1       5.902 -35.561  22.152  1.00  0.00     0.000 C 
ENDROOT
BRANCH   1   2
ATOM      2  C   UNL     1       5.214 -35.096  23.444  1.00  0.00     0.000 C 
BRANCH   2   3
ATOM      3  C   UNL     1       6.125 -35.210  24.679  1.00  0.00     0.000 C 
BRANCH   3   4
ATOM      4  C   UNL     1       6.114 -36.587  25.371  1.00  0.00     0.000 C 
BRANCH   4   5
ATOM      5  C   UNL     1       4.714 -37.171  25.647  1.00  0.00     0.000 C 
BRANCH   5   6
ATOM      6  C   UNL     1       4.555 -38.664  25.313  1.00  0.00     0.000 C 
BRANCH   6   7
ATOM      7  C   UNL     1       5.649 -39.183  24.368  1.00  0.00     0.006 C 
BRANCH   7   8
ATOM      8  C   UNL     1       5.614 -38.440  23.029  1.00  0.00     0.053 C 
BRANCH   8   9
ATOM      9  C   UNL     1       5.613 -39.410  21.891  1.00  0.00     0.041 C 
ATOM     10  O   UNL     1       5.671 -40.649  22.114  1.00  0.00    -0.550 OA
ATOM     11  O   UNL     1       5.598 -38.947  20.582  1.00  0.00    -0.550 OA
ENDBRANCH   8   9
ENDBRANCH   7   8
ENDBRANCH   6   7
ENDBRANCH   5   6
ENDBRANCH   4   5
ENDBRANCH   3   4
ENDBRANCH   2   3
ENDBRANCH   1   2
BRANCH   1  12
ATOM     12  C   UNL     1       4.993 -35.341  20.936  1.00  0.00     0.000 C 
BRANCH  12  13
ATOM     13  C   UNL     1       5.765 -35.563  19.626  1.00  0.00    -0.000 C 
BRANCH  13  14
ATOM     14  C   UNL     1       4.882 -36.138  18.507  1.00  0.00    -0.000 C 
BRANCH  14  15
ATOM     15  C   UNL     1       3.713 -36.978  19.051  1.00  0.00    -0.000 C 
BRANCH  15  16
ATOM     16  C   UNL     1       3.031 -37.820  17.959  1.00  0.00    -0.000 C 
BRANCH  16  17
ATOM     17  C   UNL     1       1.795 -37.126  17.361  1.00  0.00    -0.000 C 
BRANCH  17  18
ATOM     18  C   UNL     1       1.974 -36.786  15.873  1.00  0.00    -0.000 C 
BRANCH  18  19
ATOM     19  C   UNL     1       3.420 -36.980  15.391  1.00  0.00    -0.003 C 
ATOM     20  C   UNL     1       3.467 -37.227  13.886  1.00  0.00     0.004 C 
ENDBRANCH  18  19
ENDBRANCH  17  18
ENDBRANCH  16  17
ENDBRANCH  15  16
ENDBRANCH  14  15
ENDBRANCH  13  14
ENDBRANCH  12  13
ENDBRANCH   1  12
TORSDOF 16
ENDMDL
