MODEL 1
REMARK VINA RESULT:     4.638      0.000      0.000
REMARK INTER + INTRA:          12.520
REMARK INTER:                  11.687
REMARK INTRA:                   0.833
REMARK UNBOUND:                 0.833
REMARK SMILES CCCCCCCCCCCCCCCCCCCCCCCCCCCC(=O)[O-]
REMARK SMILES IDX 15 1 16 2 17 3 18 4 19 5 20 6 21 7 22 8 23 9 24 10 25 11
REMARK SMILES IDX 26 12 27 13 28 14 29 15 30 16 14 17 13 18 12 19 11 20 10 21
REMARK SMILES IDX 9 22 8 23 7 24 6 25 5 26 4 27 3 28 2 29 1 30
REMARK H PARENT
REMARK Flexibility Score: inf
ROOT
ATOM      1  C   UNL     1       3.832   8.572   8.574  1.00  0.00     0.000 C 
ENDROOT
BRANCH   1   2
ATOM      2  C   UNL     1       2.576   8.943   9.382  1.00  0.00     0.000 C 
BRANCH   2   3
ATOM      3  C   UNL     1       2.856   9.616  10.740  1.00  0.00     0.000 C 
BRANCH   3   4
ATOM      4  C   UNL     1       1.943  10.829  11.035  1.00  0.00     0.000 C 
BRANCH   4   5
ATOM      5  C   UNL     1       2.399  12.126  10.347  1.00  0.00     0.000 C 
BRANCH   5   6
ATOM      6  C   UNL     1       1.257  12.819   9.585  1.00  0.00     0.000 C 
BRANCH   6   7
ATOM      7  C   UNL     1       0.143  11.848   9.160  1.00  0.00     0.000 C 
BRANCH   7   8
ATOM      8  C   UNL     1       0.367  11.207   7.774  1.00  0.00     0.000 C 
BRANCH   8   9
ATOM      9  C   UNL     1       1.851  11.166   7.376  1.00  0.00     0.000 C 
BRANCH   9  10
ATOM     10  C   UNL     1       2.242   9.780   6.849  1.00  0.00     0.000 C 
BRANCH  10  11
ATOM     11  C   UNL     1       2.738   9.860   5.398  1.00  0.00     0.000 C 
BRANCH  11  12
ATOM     12  C   UNL     1       3.736  11.009   5.184  1.00  0.00     0.006 C 
BRANCH  12  13
ATOM     13  C   UNL     1       5.045  10.530   4.536  1.00  0.00     0.053 C 
BRANCH  13  14
ATOM     14  C   UNL     1       6.237  10.854   5.386  1.00  0.00     0.041 C 
ATOM     15  O   UNL     1       7.043   9.951   5.736  1.00  0.00    -0.550 OA
ATOM     16  O   UNL     1       6.412  12.149   5.863  1.00  0.00    -0.550 OA
ENDBRANCH  13  14
ENDBRANCH  12  13
ENDBRANCH  11  12
ENDBRANCH  10  11
ENDBRANCH   9  10
ENDBRANCH   8   9
ENDBRANCH   7   8
ENDBRANCH   6   7
ENDBRANCH   5   6
ENDBRANCH   4   5
ENDBRANCH   3   4
ENDBRANCH   2   3
ENDBRANCH   1   2
BRANCH   1  17
ATOM     17  C   UNL     1       5.172   8.961   9.234  1.00  0.00     0.000 C 
BRANCH  17  18
ATOM     18  C   UNL     1       5.856  10.212   8.643  1.00  0.00     0.000 C 
BRANCH  18  19
ATOM     19  C   UNL     1       5.396  11.553   9.244  1.00  0.00     0.000 C 
BRANCH  19  20
ATOM     20  C   UNL     1       6.273  12.735   8.797  1.00  0.00     0.000 C 
BRANCH  20  21
ATOM     21  C   UNL     1       7.330  13.123   9.843  1.00  0.00     0.000 C 
BRANCH  21  22
ATOM     22  C   UNL     1       8.770  12.907   9.342  1.00  0.00    -0.000 C 
BRANCH  22  23
ATOM     23  C   UNL     1       8.850  11.850   8.228  1.00  0.00    -0.000 C 
BRANCH  23  24
ATOM     24  C   UNL     1      10.123  11.991   7.373  1.00  0.00    -0.000 C 
BRANCH  24  25
ATOM     25  C   UNL     1      10.024  13.124   6.335  1.00  0.00    -0.000 C 
BRANCH  25  26
ATOM     26  C   UNL     1       9.809  12.657   4.885  1.00  0.00    -0.000 C 
BRANCH  26  27
ATOM     27  C   UNL     1       8.370  12.891   4.389  1.00  0.00    -0.000 C 
BRANCH  27  28
ATOM     28  C   UNL     1       8.195  12.581   2.890  1.00  0.00    -0.000 C 
BRANCH  28  29
ATOM     29  C   UNL     1       9.423  11.956   2.203  1.00  0.00    -0.003 C 
ATOM     30  C   UNL     1       9.862  12.711   0.948  1.00  0.00     0.004 C 
ENDBRANCH  28  29
ENDBRANCH  27  28
ENDBRANCH  26  27
ENDBRANCH  25  26
ENDBRANCH  24  25
ENDBRANCH  23  24
ENDBRANCH  22  23
ENDBRANCH  21  22
ENDBRANCH  20  21
ENDBRANCH  19  20
ENDBRANCH  18  19
ENDBRANCH  17  18
ENDBRANCH   1  17
TORSDOF 26
ENDMDL
MODEL 2
REMARK VINA RESULT:     4.753      1.858      7.077
REMARK INTER + INTRA:          12.811
REMARK INTER:                  10.918
REMARK INTRA:                   1.893
REMARK UNBOUND:                 0.833
REMARK SMILES CCCCCCCCCCCCCCCCCCCCCCCCCCCC(=O)[O-]
REMARK SMILES IDX 15 1 16 2 17 3 18 4 19 5 20 6 21 7 22 8 23 9 24 10 25 11
REMARK SMILES IDX 26 12 27 13 28 14 29 15 30 16 14 17 13 18 12 19 11 20 10 21
REMARK SMILES IDX 9 22 8 23 7 24 6 25 5 26 4 27 3 28 2 29 1 30
REMARK H PARENT
REMARK Flexibility Score: inf
ROOT
ATOM      1  C   UNL     1       1.817  10.557  10.193  1.00  0.00     0.000 C 
ENDROOT
BRANCH   1   2
ATOM      2  C   UNL     1       1.345  11.840  10.902  1.00  0.00     0.000 C 
BRANCH   2   3
ATOM      3  C   UNL     1       2.083  13.124  10.475  1.00  0.00     0.000 C 
BRANCH   3   4
ATOM      4  C   UNL     1       3.571  12.898  10.119  1.00  0.00     0.000 C 
BRANCH   4   5
ATOM      5  C   UNL     1       3.830  12.758   8.609  1.00  0.00     0.000 C 
BRANCH   5   6
ATOM      6  C   UNL     1       5.274  13.123   8.225  1.00  0.00     0.000 C 
BRANCH   6   7
ATOM      7  C   UNL     1       6.318  12.184   8.852  1.00  0.00     0.000 C 
BRANCH   7   8
ATOM      8  C   UNL     1       7.118  11.361   7.822  1.00  0.00     0.000 C 
BRANCH   8   9
ATOM      9  C   UNL     1       8.601  11.762   7.769  1.00  0.00     0.000 C 
BRANCH   9  10
ATOM     10  C   UNL     1       9.139  11.698   6.335  1.00  0.00     0.000 C 
BRANCH  10  11
ATOM     11  C   UNL     1       8.874  13.011   5.586  1.00  0.00     0.000 C 
BRANCH  11  12
ATOM     12  C   UNL     1       8.176  12.783   4.235  1.00  0.00     0.006 C 
BRANCH  12  13
ATOM     13  C   UNL     1       6.646  12.738   4.371  1.00  0.00     0.053 C 
BRANCH  13  14
ATOM     14  C   UNL     1       6.106  11.363   4.112  1.00  0.00     0.041 C 
ATOM     15  O   UNL     1       5.728  11.025   2.958  1.00  0.00    -0.550 OA
ATOM     16  O   UNL     1       5.941  10.476   5.172  1.00  0.00    -0.550 OA
ENDBRANCH  13  14
ENDBRANCH  12  13
ENDBRANCH  11  12
ENDBRANCH  10  11
ENDBRANCH   9  10
ENDBRANCH   8   9
ENDBRANCH   7   8
ENDBRANCH   6   7
ENDBRANCH   5   6
ENDBRANCH   4   5
ENDBRANCH   3   4
ENDBRANCH   2   3
ENDBRANCH   1   2
BRANCH   1  17
ATOM     17  C   UNL     1       2.865   9.731  10.968  1.00  0.00     0.000 C 
BRANCH  17  18
ATOM     18  C   UNL     1       4.205   9.516  10.233  1.00  0.00     0.000 C 
BRANCH  18  19
ATOM     19  C   UNL     1       4.263   8.270   9.330  1.00  0.00     0.000 C 
BRANCH  19  20
ATOM     20  C   UNL     1       5.046   8.515   8.030  1.00  0.00     0.000 C 
BRANCH  20  21
ATOM     21  C   UNL     1       4.164   9.057   6.894  1.00  0.00     0.000 C 
BRANCH  21  22
ATOM     22  C   UNL     1       3.393  10.328   7.296  1.00  0.00    -0.000 C 
BRANCH  22  23
ATOM     23  C   UNL     1       1.914  10.273   6.879  1.00  0.00    -0.000 C 
BRANCH  23  24
ATOM     24  C   UNL     1       1.193  11.618   7.089  1.00  0.00    -0.000 C 
BRANCH  24  25
ATOM     25  C   UNL     1       0.303  11.631   8.345  1.00  0.00    -0.000 C 
BRANCH  25  26
ATOM     26  C   UNL     1      -0.268  13.009   8.720  1.00  0.00    -0.000 C 
BRANCH  26  27
ATOM     27  C   UNL     1      -1.780  13.120   8.459  1.00  0.00    -0.000 C 
BRANCH  27  28
ATOM     28  C   UNL     1      -2.445  11.756   8.193  1.00  0.00    -0.000 C 
BRANCH  28  29
ATOM     29  C   UNL     1      -3.812  11.821   7.486  1.00  0.00    -0.003 C 
ATOM     30  C   UNL     1      -3.964  13.040   6.575  1.00  0.00     0.004 C 
ENDBRANCH  28  29
ENDBRANCH  27  28
ENDBRANCH  26  27
ENDBRANCH  25  26
ENDBRANCH  24  25
ENDBRANCH  23  24
ENDBRANCH  22  23
ENDBRANCH  21  22
ENDBRANCH  20  21
ENDBRANCH  19  20
ENDBRANCH  18  19
ENDBRANCH  17  18
ENDBRANCH   1  17
TORSDOF 26
ENDMDL
MODEL 3
REMARK VINA RESULT:     5.332     13.972     17.568
REMARK INTER + INTRA:          14.270
REMARK INTER:                  16.077
REMARK INTRA:                  -1.807
REMARK UNBOUND:                 0.833
REMARK SMILES CCCCCCCCCCCCCCCCCCCCCCCCCCCC(=O)[O-]
REMARK SMILES IDX 15 1 16 2 17 3 18 4 19 5 20 6 21 7 22 8 23 9 24 10 25 11
REMARK SMILES IDX 26 12 27 13 28 14 29 15 30 16 14 17 13 18 12 19 11 20 10 21
REMARK SMILES IDX 9 22 8 23 7 24 6 25 5 26 4 27 3 28 2 29 1 30
REMARK H PARENT
REMARK Flexibility Score: inf
ROOT
ATOM      1  C   UNL     1      -9.525   9.958  -4.681  1.00  0.00     0.000 C 
ENDROOT
BRANCH   1   2
ATOM      2  C   UNL     1      -9.963   8.796  -5.592  1.00  0.00     0.000 C 
BRANCH   2   3
ATOM      3  C   UNL     1      -8.806   8.011  -6.239  1.00  0.00     0.000 C 
BRANCH   3   4
ATOM      4  C   UNL     1      -8.345   8.587  -7.598  1.00  0.00     0.000 C 
BRANCH   4   5
ATOM      5  C   UNL     1      -6.820   8.555  -7.797  1.00  0.00     0.000 C 
BRANCH   5   6
ATOM      6  C   UNL     1      -6.363   9.432  -8.974  1.00  0.00     0.000 C 
BRANCH   6   7
ATOM      7  C   UNL     1      -4.833   9.522  -9.097  1.00  0.00     0.000 C 
BRANCH   7   8
ATOM      8  C   UNL     1      -4.188  10.553  -8.146  1.00  0.00     0.000 C 
BRANCH   8   9
ATOM      9  C   UNL     1      -3.524  11.716  -8.900  1.00  0.00     0.000 C 
BRANCH   9  10
ATOM     10  C   UNL     1      -3.268  12.904  -7.966  1.00  0.00     0.000 C 
BRANCH  10  11
ATOM     11  C   UNL     1      -2.779  12.431  -6.590  1.00  0.00     0.000 C 
BRANCH  11  12
ATOM     12  C   UNL     1      -1.646  11.397  -6.696  1.00  0.00     0.006 C 
BRANCH  12  13
ATOM     13  C   UNL     1      -1.660  10.395  -5.530  1.00  0.00     0.053 C 
BRANCH  13  14
ATOM     14  C   UNL     1      -0.799  10.856  -4.392  1.00  0.00     0.041 C 
ATOM     15  O   UNL     1       0.224  11.562  -4.603  1.00  0.00    -0.550 OA
ATOM     16  O   UNL     1      -1.082  10.431  -3.098  1.00  0.00    -0.550 OA
ENDBRANCH  13  14
ENDBRANCH  12  13
ENDBRANCH  11  12
ENDBRANCH  10  11
ENDBRANCH   9  10
ENDBRANCH   8   9
ENDBRANCH   7   8
ENDBRANCH   6   7
ENDBRANCH   5   6
ENDBRANCH   4   5
ENDBRANCH   3   4
ENDBRANCH   2   3
ENDBRANCH   1   2
BRANCH   1  17
ATOM     17  C   UNL     1     -10.122  11.334  -5.046  1.00  0.00     0.000 C 
BRANCH  17  18
ATOM     18  C   UNL     1      -9.182  12.268  -5.836  1.00  0.00     0.000 C 
BRANCH  18  19
ATOM     19  C   UNL     1      -7.996  11.571  -6.526  1.00  0.00     0.000 C 
BRANCH  19  20
ATOM     20  C   UNL     1      -6.690  12.376  -6.422  1.00  0.00     0.000 C 
BRANCH  20  21
ATOM     21  C   UNL     1      -5.750  11.852  -5.325  1.00  0.00     0.000 C 
BRANCH  21  22
ATOM     22  C   UNL     1      -5.393  10.366  -5.508  1.00  0.00    -0.000 C 
BRANCH  22  23
ATOM     23  C   UNL     1      -4.469   9.843  -4.396  1.00  0.00    -0.000 C 
BRANCH  23  24
ATOM     24  C   UNL     1      -5.117   8.713  -3.575  1.00  0.00    -0.000 C 
BRANCH  24  25
ATOM     25  C   UNL     1      -4.117   7.996  -2.650  1.00  0.00    -0.000 C 
BRANCH  25  26
ATOM     26  C   UNL     1      -4.715   7.466  -1.335  1.00  0.00    -0.000 C 
BRANCH  26  27
ATOM     27  C   UNL     1      -4.280   6.024  -1.020  1.00  0.00    -0.000 C 
BRANCH  27  28
ATOM     28  C   UNL     1      -3.184   5.505  -1.971  1.00  0.00    -0.000 C 
BRANCH  28  29
ATOM     29  C   UNL     1      -2.263   4.422  -1.379  1.00  0.00    -0.003 C 
ATOM     30  C   UNL     1      -0.850   4.447  -1.962  1.00  0.00     0.004 C 
ENDBRANCH  28  29
ENDBRANCH  27  28
ENDBRANCH  26  27
ENDBRANCH  25  26
ENDBRANCH  24  25
ENDBRANCH  23  24
ENDBRANCH  22  23
ENDBRANCH  21  22
ENDBRANCH  20  21
ENDBRANCH  19  20
ENDBRANCH  18  19
ENDBRANCH  17  18
ENDBRANCH   1  17
TORSDOF 26
ENDMDL
MODEL 4
REMARK VINA RESULT:     5.342     14.235     18.128
REMARK INTER + INTRA:          14.294
REMARK INTER:                  14.006
REMARK INTRA:                   0.287
REMARK UNBOUND:                 0.833
REMARK SMILES CCCCCCCCCCCCCCCCCCCCCCCCCCCC(=O)[O-]
REMARK SMILES IDX 15 1 16 2 17 3 18 4 19 5 20 6 21 7 22 8 23 9 24 10 25 11
REMARK SMILES IDX 26 12 27 13 28 14 29 15 30 16 14 17 13 18 12 19 11 20 10 21
REMARK SMILES IDX 9 22 8 23 7 24 6 25 5 26 4 27 3 28 2 29 1 30
REMARK H PARENT
REMARK Flexibility Score: inf
ROOT
ATOM      1  C   UNL     1      -3.483  12.336  -6.442  1.00  0.00     0.000 C 
ENDROOT
BRANCH   1   2
ATOM      2  C   UNL     1      -2.619  11.061  -6.421  1.00  0.00     0.000 C 
BRANCH   2   3
ATOM      3  C   UNL     1      -1.337  11.163  -5.572  1.00  0.00     0.000 C 
BRANCH   3   4
ATOM      4  C   UNL     1      -1.449  10.479  -4.190  1.00  0.00     0.000 C 
BRANCH   4   5
ATOM      5  C   UNL     1      -2.895  10.162  -3.773  1.00  0.00     0.000 C 
BRANCH   5   6
ATOM      6  C   UNL     1      -2.998   8.868  -2.947  1.00  0.00     0.000 C 
BRANCH   6   7
ATOM      7  C   UNL     1      -4.356   8.164  -3.103  1.00  0.00     0.000 C 
BRANCH   7   8
ATOM      8  C   UNL     1      -4.816   7.406  -1.840  1.00  0.00     0.000 C 
BRANCH   8   9
ATOM      9  C   UNL     1      -3.637   6.915  -0.985  1.00  0.00     0.000 C 
BRANCH   9  10
ATOM     10  C   UNL     1      -3.523   5.386  -1.028  1.00  0.00     0.000 C 
BRANCH  10  11
ATOM     11  C   UNL     1      -2.495   4.938  -2.076  1.00  0.00     0.000 C 
BRANCH  11  12
ATOM     12  C   UNL     1      -2.598   3.437  -2.391  1.00  0.00     0.006 C 
BRANCH  12  13
ATOM     13  C   UNL     1      -3.840   2.792  -1.757  1.00  0.00     0.053 C 
BRANCH  13  14
ATOM     14  C   UNL     1      -4.141   1.452  -2.361  1.00  0.00     0.041 C 
ATOM     15  O   UNL     1      -4.333   0.444  -1.628  1.00  0.00    -0.550 OA
ATOM     16  O   UNL     1      -4.125   1.299  -3.743  1.00  0.00    -0.550 OA
ENDBRANCH  13  14
ENDBRANCH  12  13
ENDBRANCH  11  12
ENDBRANCH  10  11
ENDBRANCH   9  10
ENDBRANCH   8   9
ENDBRANCH   7   8
ENDBRANCH   6   7
ENDBRANCH   5   6
ENDBRANCH   4   5
ENDBRANCH   3   4
ENDBRANCH   2   3
ENDBRANCH   1   2
BRANCH   1  17
ATOM     17  C   UNL     1      -3.620  13.007  -7.825  1.00  0.00     0.000 C 
BRANCH  17  18
ATOM     18  C   UNL     1      -3.452  12.062  -9.033  1.00  0.00     0.000 C 
BRANCH  18  19
ATOM     19  C   UNL     1      -3.533  10.560  -8.704  1.00  0.00     0.000 C 
BRANCH  19  20
ATOM     20  C   UNL     1      -4.883   9.938  -9.096  1.00  0.00     0.000 C 
BRANCH  20  21
ATOM     21  C   UNL     1      -6.085  10.724  -8.548  1.00  0.00     0.000 C 
BRANCH  21  22
ATOM     22  C   UNL     1      -6.832   9.968  -7.435  1.00  0.00    -0.000 C 
BRANCH  22  23
ATOM     23  C   UNL     1      -7.386  10.912  -6.354  1.00  0.00    -0.000 C 
BRANCH  23  24
ATOM     24  C   UNL     1      -8.824  11.373  -6.655  1.00  0.00    -0.000 C 
BRANCH  24  25
ATOM     25  C   UNL     1      -9.740  11.322  -5.419  1.00  0.00    -0.000 C 
BRANCH  25  26
ATOM     26  C   UNL     1      -9.840   9.944  -4.743  1.00  0.00    -0.000 C 
BRANCH  26  27
ATOM     27  C   UNL     1      -8.660   9.020  -5.092  1.00  0.00    -0.000 C 
BRANCH  27  28
ATOM     28  C   UNL     1      -9.044   7.528  -5.088  1.00  0.00    -0.000 C 
BRANCH  28  29
ATOM     29  C   UNL     1     -10.125   7.128  -6.110  1.00  0.00    -0.003 C 
ATOM     30  C   UNL     1      -9.650   7.220  -7.560  1.00  0.00     0.004 C 
ENDBRANCH  28  29
ENDBRANCH  27  28
ENDBRANCH  26  27
ENDBRANCH  25  26
ENDBRANCH  24  25
ENDBRANCH  23  24
ENDBRANCH  22  23
ENDBRANCH  21  22
ENDBRANCH  20  21
ENDBRANCH  19  20
ENDBRANCH  18  19
ENDBRANCH  17  18
ENDBRANCH   1  17
TORSDOF 26
ENDMDL
MODEL 5
REMARK VINA RESULT:     5.396     14.455     18.203
REMARK INTER + INTRA:          14.431
REMARK INTER:                  16.489
REMARK INTRA:                  -2.058
REMARK UNBOUND:                 0.833
REMARK SMILES CCCCCCCCCCCCCCCCCCCCCCCCCCCC(=O)[O-]
REMARK SMILES IDX 15 1 16 2 17 3 18 4 19 5 20 6 21 7 22 8 23 9 24 10 25 11
REMARK SMILES IDX 26 12 27 13 28 14 29 15 30 16 14 17 13 18 12 19 11 20 10 21
REMARK SMILES IDX 9 22 8 23 7 24 6 25 5 26 4 27 3 28 2 29 1 30
REMARK H PARENT
REMARK Flexibility Score: inf
ROOT
ATOM      1  C   UNL     1      -1.215  10.868  -5.367  1.00  0.00     0.000 C 
ENDROOT
BRANCH   1   2
ATOM      2  C   UNL     1      -1.779  10.165  -4.119  1.00  0.00     0.000 C 
BRANCH   2   3
ATOM      3  C   UNL     1      -3.263  10.459  -3.827  1.00  0.00     0.000 C 
BRANCH   3   4
ATOM      4  C   UNL     1      -4.102   9.194  -3.532  1.00  0.00     0.000 C 
BRANCH   4   5
ATOM      5  C   UNL     1      -3.423   8.216  -2.558  1.00  0.00     0.000 C 
BRANCH   5   6
ATOM      6  C   UNL     1      -4.439   7.415  -1.727  1.00  0.00     0.000 C 
BRANCH   6   7
ATOM      7  C   UNL     1      -3.848   6.123  -1.139  1.00  0.00     0.000 C 
BRANCH   7   8
ATOM      8  C   UNL     1      -2.588   5.621  -1.873  1.00  0.00     0.000 C 
BRANCH   8   9
ATOM      9  C   UNL     1      -2.294   4.138  -1.596  1.00  0.00     0.000 C 
BRANCH   9  10
ATOM     10  C   UNL     1      -2.900   3.243  -2.683  1.00  0.00     0.000 C 
BRANCH  10  11
ATOM     11  C   UNL     1      -3.807   2.165  -2.072  1.00  0.00     0.000 C 
BRANCH  11  12
ATOM     12  C   UNL     1      -4.612   1.405  -3.137  1.00  0.00     0.006 C 
BRANCH  12  13
ATOM     13  C   UNL     1      -3.903   1.386  -4.501  1.00  0.00     0.053 C 
BRANCH  13  14
ATOM     14  C   UNL     1      -4.875   1.227  -5.631  1.00  0.00     0.041 C 
ATOM     15  O   UNL     1      -4.571   1.591  -6.799  1.00  0.00    -0.550 OA
ATOM     16  O   UNL     1      -6.158   0.751  -5.376  1.00  0.00    -0.550 OA
ENDBRANCH  13  14
ENDBRANCH  12  13
ENDBRANCH  11  12
ENDBRANCH  10  11
ENDBRANCH   9  10
ENDBRANCH   8   9
ENDBRANCH   7   8
ENDBRANCH   6   7
ENDBRANCH   5   6
ENDBRANCH   4   5
ENDBRANCH   3   4
ENDBRANCH   2   3
ENDBRANCH   1   2
BRANCH   1  17
ATOM     17  C   UNL     1      -2.245  11.680  -6.181  1.00  0.00     0.000 C 
BRANCH  17  18
ATOM     18  C   UNL     1      -2.699  11.026  -7.502  1.00  0.00     0.000 C 
BRANCH  18  19
ATOM     19  C   UNL     1      -3.568  11.918  -8.409  1.00  0.00     0.000 C 
BRANCH  19  20
ATOM     20  C   UNL     1      -4.863  11.224  -8.861  1.00  0.00     0.000 C 
BRANCH  20  21
ATOM     21  C   UNL     1      -4.988   9.788  -8.328  1.00  0.00     0.000 C 
BRANCH  21  22
ATOM     22  C   UNL     1      -6.440   9.404  -7.988  1.00  0.00    -0.000 C 
BRANCH  22  23
ATOM     23  C   UNL     1      -6.875   9.923  -6.607  1.00  0.00    -0.000 C 
BRANCH  23  24
ATOM     24  C   UNL     1      -7.513  11.322  -6.678  1.00  0.00    -0.000 C 
BRANCH  24  25
ATOM     25  C   UNL     1      -8.786  11.444  -5.821  1.00  0.00    -0.000 C 
BRANCH  25  26
ATOM     26  C   UNL     1      -9.805  10.306  -6.009  1.00  0.00    -0.000 C 
BRANCH  26  27
ATOM     27  C   UNL     1      -9.875   9.360  -4.797  1.00  0.00    -0.000 C 
BRANCH  27  28
ATOM     28  C   UNL     1      -9.201   7.999  -5.059  1.00  0.00    -0.000 C 
BRANCH  28  29
ATOM     29  C   UNL     1     -10.051   6.991  -5.856  1.00  0.00    -0.003 C 
ATOM     30  C   UNL     1      -9.640   6.881  -7.324  1.00  0.00     0.004 C 
ENDBRANCH  28  29
ENDBRANCH  27  28
ENDBRANCH  26  27
ENDBRANCH  25  26
ENDBRANCH  24  25
ENDBRANCH  23  24
ENDBRANCH  22  23
ENDBRANCH  21  22
ENDBRANCH  20  21
ENDBRANCH  19  20
ENDBRANCH  18  19
ENDBRANCH  17  18
ENDBRANCH   1  17
TORSDOF 26
ENDMDL
MODEL 6
REMARK VINA RESULT:     5.639     13.921     17.771
REMARK INTER + INTRA:          15.043
REMARK INTER:                  17.593
REMARK INTRA:                  -2.550
REMARK UNBOUND:                 0.833
REMARK SMILES CCCCCCCCCCCCCCCCCCCCCCCCCCCC(=O)[O-]
REMARK SMILES IDX 15 1 16 2 17 3 18 4 19 5 20 6 21 7 22 8 23 9 24 10 25 11
REMARK SMILES IDX 26 12 27 13 28 14 29 15 30 16 14 17 13 18 12 19 11 20 10 21
REMARK SMILES IDX 9 22 8 23 7 24 6 25 5 26 4 27 3 28 2 29 1 30
REMARK H PARENT
REMARK Flexibility Score: inf
ROOT
ATOM      1  C   UNL     1      -4.005  12.585  -6.661  1.00  0.00     0.000 C 
ENDROOT
BRANCH   1   2
ATOM      2  C   UNL     1      -3.539  11.152  -6.344  1.00  0.00     0.000 C 
BRANCH   2   3
ATOM      3  C   UNL     1      -2.201  10.748  -6.994  1.00  0.00     0.000 C 
BRANCH   3   4
ATOM      4  C   UNL     1      -0.979  11.512  -6.432  1.00  0.00     0.000 C 
BRANCH   4   5
ATOM      5  C   UNL     1      -0.127  10.681  -5.458  1.00  0.00     0.000 C 
BRANCH   5   6
ATOM      6  C   UNL     1      -0.291  11.138  -3.999  1.00  0.00     0.000 C 
BRANCH   6   7
ATOM      7  C   UNL     1      -1.146  10.172  -3.160  1.00  0.00     0.000 C 
BRANCH   7   8
ATOM      8  C   UNL     1      -2.666  10.355  -3.352  1.00  0.00     0.000 C 
BRANCH   8   9
ATOM      9  C   UNL     1      -3.413   9.015  -3.450  1.00  0.00     0.000 C 
BRANCH   9  10
ATOM     10  C   UNL     1      -3.132   8.135  -2.226  1.00  0.00     0.000 C 
BRANCH  10  11
ATOM     11  C   UNL     1      -4.128   6.970  -2.142  1.00  0.00     0.000 C 
BRANCH  11  12
ATOM     12  C   UNL     1      -4.200   6.363  -0.732  1.00  0.00     0.006 C 
BRANCH  12  13
ATOM     13  C   UNL     1      -4.047   4.833  -0.747  1.00  0.00     0.053 C 
BRANCH  13  14
ATOM     14  C   UNL     1      -2.933   4.395  -1.651  1.00  0.00     0.041 C 
ATOM     15  O   UNL     1      -3.104   3.456  -2.474  1.00  0.00    -0.550 OA
ATOM     16  O   UNL     1      -1.674   4.973  -1.524  1.00  0.00    -0.550 OA
ENDBRANCH  13  14
ENDBRANCH  12  13
ENDBRANCH  11  12
ENDBRANCH  10  11
ENDBRANCH   9  10
ENDBRANCH   8   9
ENDBRANCH   7   8
ENDBRANCH   6   7
ENDBRANCH   5   6
ENDBRANCH   4   5
ENDBRANCH   3   4
ENDBRANCH   2   3
ENDBRANCH   1   2
BRANCH   1  17
ATOM     17  C   UNL     1      -5.123  13.125  -5.744  1.00  0.00     0.000 C 
BRANCH  17  18
ATOM     18  C   UNL     1      -6.422  12.293  -5.733  1.00  0.00     0.000 C 
BRANCH  18  19
ATOM     19  C   UNL     1      -7.704  13.085  -5.417  1.00  0.00     0.000 C 
BRANCH  19  20
ATOM     20  C   UNL     1      -8.707  13.082  -6.582  1.00  0.00     0.000 C 
BRANCH  20  21
ATOM     21  C   UNL     1     -10.125  12.675  -6.148  1.00  0.00     0.000 C 
BRANCH  21  22
ATOM     22  C   UNL     1     -10.125  11.556  -5.091  1.00  0.00    -0.000 C 
BRANCH  22  23
ATOM     23  C   UNL     1      -9.844  10.173  -5.701  1.00  0.00    -0.000 C 
BRANCH  23  24
ATOM     24  C   UNL     1      -9.225   9.195  -4.684  1.00  0.00    -0.000 C 
BRANCH  24  25
ATOM     25  C   UNL     1      -8.436   8.055  -5.354  1.00  0.00    -0.000 C 
BRANCH  25  26
ATOM     26  C   UNL     1      -9.006   7.576  -6.700  1.00  0.00    -0.000 C 
BRANCH  26  27
ATOM     27  C   UNL     1      -8.093   7.916  -7.891  1.00  0.00    -0.000 C 
BRANCH  27  28
ATOM     28  C   UNL     1      -6.797   8.635  -7.467  1.00  0.00    -0.000 C 
BRANCH  28  29
ATOM     29  C   UNL     1      -6.733  10.132  -7.824  1.00  0.00    -0.003 C 
ATOM     30  C   UNL     1      -5.742  10.443  -8.946  1.00  0.00     0.004 C 
ENDBRANCH  28  29
ENDBRANCH  27  28
ENDBRANCH  26  27
ENDBRANCH  25  26
ENDBRANCH  24  25
ENDBRANCH  23  24
ENDBRANCH  22  23
ENDBRANCH  21  22
ENDBRANCH  20  21
ENDBRANCH  19  20
ENDBRANCH  18  19
ENDBRANCH  17  18
ENDBRANCH   1  17
TORSDOF 26
ENDMDL
