MODEL 1
REMARK VINA RESULT:    -7.829      0.000      0.000
REMARK INTER + INTRA:          -9.753
REMARK INTER:                  -9.431
REMARK INTRA:                  -0.323
REMARK UNBOUND:                -0.323
REMARK SMILES O=c1c(O)c(-c2ccc(O)c(O)c2)oc2cc(O)cc(O)c12
REMARK SMILES IDX 5 1 3 2 2 3 1 4 22 5 20 6 19 7 17 8 16 9 15 10 14 11 6 12
REMARK SMILES IDX 7 13 8 14 9 15 13 16 11 17 10 18 12 20 4 22 21 24 18 26
REMARK H PARENT 10 19 12 21 4 23 21 25 18 27
REMARK Flexibility Score: inf
ROOT
ATOM      1  C   UNL     1     -28.177 -26.492 104.584  1.00  0.00     0.180 A 
ATOM      2  C   UNL     1     -29.179 -25.944 105.403  1.00  0.00     0.208 A 
ATOM      3  C   UNL     1     -29.127 -26.173 106.788  1.00  0.00     0.238 A 
ATOM      4  O   UNL     1     -30.056 -25.727 107.510  1.00  0.00    -0.285 OA
ATOM      5  C   UNL     1     -28.065 -26.933 107.337  1.00  0.00     0.111 A 
ATOM      6  C   UNL     1     -27.891 -27.193 108.729  1.00  0.00     0.134 A 
ATOM      7  C   UNL     1     -26.878 -28.065 109.147  1.00  0.00     0.093 A 
ATOM      8  C   UNL     1     -25.993 -28.634 108.231  1.00  0.00     0.123 A 
ATOM      9  C   UNL     1     -26.118 -28.339 106.873  1.00  0.00     0.094 A 
ATOM     10  C   UNL     1     -27.141 -27.501 106.422  1.00  0.00     0.146 A 
ATOM     11  O   UNL     1     -27.232 -27.255 105.120  1.00  0.00    -0.452 OA
ENDROOT
BRANCH   1  12
ATOM     12  C   UNL     1     -28.151 -26.274 103.120  1.00  0.00     0.025 A 
ATOM     13  C   UNL     1     -27.527 -25.128 102.603  1.00  0.00     0.016 A 
ATOM     14  C   UNL     1     -27.508 -24.891 101.225  1.00  0.00     0.051 A 
ATOM     15  C   UNL     1     -28.126 -25.790 100.346  1.00  0.00     0.157 A 
ATOM     16  C   UNL     1     -28.788 -27.163 102.235  1.00  0.00     0.062 A 
ATOM     17  C   UNL     1     -28.773 -26.928 100.855  1.00  0.00     0.158 A 
BRANCH  15  18
ATOM     18  O   UNL     1     -28.105 -25.553  98.972  1.00  0.00    -0.504 OA
ATOM     19  H   UNL     1     -28.385 -24.660  98.584  1.00  0.00     0.293 HD
ENDBRANCH  15  18
BRANCH  17  20
ATOM     20  O   UNL     1     -29.410 -27.834 100.007  1.00  0.00    -0.504 OA
ATOM     21  H   UNL     1     -29.372 -28.834 100.161  1.00  0.00     0.293 HD
ENDBRANCH  17  20
ENDBRANCH   1  12
BRANCH   2  22
ATOM     22  O   UNL     1     -30.230 -25.217 104.839  1.00  0.00    -0.502 OA
ATOM     23  H   UNL     1     -30.077 -24.423 104.230  1.00  0.00     0.293 HD
ENDBRANCH   2  22
BRANCH   6  24
ATOM     24  O   UNL     1     -28.660 -26.604 109.736  1.00  0.00    -0.507 OA
ATOM     25  H   UNL     1     -29.156 -27.113 110.453  1.00  0.00     0.293 HD
ENDBRANCH   6  24
BRANCH   8  26
ATOM     26  O   UNL     1     -24.988 -29.485 108.684  1.00  0.00    -0.508 OA
ATOM     27  H   UNL     1     -24.707 -29.503 109.657  1.00  0.00     0.293 HD
ENDBRANCH   8  26
TORSDOF 6
ENDMDL
MODEL 2
REMARK VINA RESULT:    -7.461      3.042      6.396
REMARK INTER + INTRA:          -9.310
REMARK INTER:                  -9.075
REMARK INTRA:                  -0.235
REMARK UNBOUND:                -0.323
REMARK SMILES O=c1c(O)c(-c2ccc(O)c(O)c2)oc2cc(O)cc(O)c12
REMARK SMILES IDX 5 1 3 2 2 3 1 4 22 5 20 6 19 7 17 8 16 9 15 10 14 11 6 12
REMARK SMILES IDX 7 13 8 14 9 15 13 16 11 17 10 18 12 20 4 22 21 24 18 26
REMARK H PARENT 10 19 12 21 4 23 21 25 18 27
REMARK Flexibility Score: inf
ROOT
ATOM      1  C   UNL     1     -27.798 -25.372 105.458  1.00  0.00     0.180 A 
ATOM      2  C   UNL     1     -28.857 -25.586 104.559  1.00  0.00     0.208 A 
ATOM      3  C   UNL     1     -29.599 -24.484 104.106  1.00  0.00     0.238 A 
ATOM      4  O   UNL     1     -30.580 -24.687 103.344  1.00  0.00    -0.285 OA
ATOM      5  C   UNL     1     -29.263 -23.180 104.545  1.00  0.00     0.111 A 
ATOM      6  C   UNL     1     -29.921 -21.987 104.119  1.00  0.00     0.134 A 
ATOM      7  C   UNL     1     -29.591 -20.765 104.719  1.00  0.00     0.093 A 
ATOM      8  C   UNL     1     -28.583 -20.683 105.679  1.00  0.00     0.123 A 
ATOM      9  C   UNL     1     -27.892 -21.834 106.059  1.00  0.00     0.094 A 
ATOM     10  C   UNL     1     -28.224 -23.073 105.505  1.00  0.00     0.146 A 
ATOM     11  O   UNL     1     -27.550 -24.146 105.903  1.00  0.00    -0.452 OA
ENDROOT
BRANCH   1  12
ATOM     12  C   UNL     1     -26.955 -26.481 105.960  1.00  0.00     0.025 A 
ATOM     13  C   UNL     1     -25.653 -26.640 105.462  1.00  0.00     0.016 A 
ATOM     14  C   UNL     1     -24.846 -27.691 105.906  1.00  0.00     0.051 A 
ATOM     15  C   UNL     1     -25.337 -28.608 106.845  1.00  0.00     0.157 A 
ATOM     16  C   UNL     1     -27.450 -27.416 106.887  1.00  0.00     0.062 A 
ATOM     17  C   UNL     1     -26.647 -28.472 107.333  1.00  0.00     0.158 A 
BRANCH  15  18
ATOM     18  O   UNL     1     -24.531 -29.656 107.289  1.00  0.00    -0.504 OA
ATOM     19  H   UNL     1     -24.854 -30.314 107.988  1.00  0.00     0.293 HD
ENDBRANCH  15  18
BRANCH  17  20
ATOM     20  O   UNL     1     -27.169 -29.377 108.257  1.00  0.00    -0.504 OA
ATOM     21  H   UNL     1     -26.873 -29.390 109.225  1.00  0.00     0.293 HD
ENDBRANCH  17  20
ENDBRANCH   1  12
BRANCH   2  22
ATOM     22  O   UNL     1     -29.186 -26.883 104.155  1.00  0.00    -0.502 OA
ATOM     23  H   UNL     1     -30.072 -27.109 103.719  1.00  0.00     0.293 HD
ENDBRANCH   2  22
BRANCH   6  24
ATOM     24  O   UNL     1     -30.878 -21.944 103.102  1.00  0.00    -0.507 OA
ATOM     25  H   UNL     1     -30.673 -22.021 102.117  1.00  0.00     0.293 HD
ENDBRANCH   6  24
BRANCH   8  26
ATOM     26  O   UNL     1     -28.270 -19.448 106.242  1.00  0.00    -0.508 OA
ATOM     27  H   UNL     1     -27.319 -19.101 106.263  1.00  0.00     0.293 HD
ENDBRANCH   8  26
TORSDOF 6
ENDMDL
MODEL 3
REMARK VINA RESULT:    -7.306      5.204      7.947
REMARK INTER + INTRA:          -9.123
REMARK INTER:                  -8.832
REMARK INTRA:                  -0.291
REMARK UNBOUND:                -0.323
REMARK SMILES O=c1c(O)c(-c2ccc(O)c(O)c2)oc2cc(O)cc(O)c12
REMARK SMILES IDX 5 1 3 2 2 3 1 4 22 5 20 6 19 7 17 8 16 9 15 10 14 11 6 12
REMARK SMILES IDX 7 13 8 14 9 15 13 16 11 17 10 18 12 20 4 22 21 24 18 26
REMARK H PARENT 10 19 12 21 4 23 21 25 18 27
REMARK Flexibility Score: inf
ROOT
ATOM      1  C   UNL     1     -28.796 -21.173 103.433  1.00  0.00     0.180 A 
ATOM      2  C   UNL     1     -27.829 -21.308 102.422  1.00  0.00     0.208 A 
ATOM      3  C   UNL     1     -27.706 -22.539 101.758  1.00  0.00     0.238 A 
ATOM      4  O   UNL     1     -26.802 -22.672 100.893  1.00  0.00    -0.285 OA
ATOM      5  C   UNL     1     -28.563 -23.614 102.101  1.00  0.00     0.111 A 
ATOM      6  C   UNL     1     -28.553 -24.891 101.466  1.00  0.00     0.134 A 
ATOM      7  C   UNL     1     -29.355 -25.921 101.974  1.00  0.00     0.093 A 
ATOM      8  C   UNL     1     -30.214 -25.701 103.051  1.00  0.00     0.123 A 
ATOM      9  C   UNL     1     -30.274 -24.438 103.642  1.00  0.00     0.094 A 
ATOM     10  C   UNL     1     -29.460 -23.402 103.180  1.00  0.00     0.146 A 
ATOM     11  O   UNL     1     -29.540 -22.218 103.777  1.00  0.00    -0.452 OA
ENDROOT
BRANCH   1  12
ATOM     12  C   UNL     1     -29.002 -19.900 104.160  1.00  0.00     0.025 A 
ATOM     13  C   UNL     1     -28.547 -19.778 105.482  1.00  0.00     0.016 A 
ATOM     14  C   UNL     1     -28.749 -18.593 106.196  1.00  0.00     0.051 A 
ATOM     15  C   UNL     1     -29.423 -17.518 105.601  1.00  0.00     0.157 A 
ATOM     16  C   UNL     1     -29.696 -18.825 103.575  1.00  0.00     0.062 A 
ATOM     17  C   UNL     1     -29.903 -17.638 104.286  1.00  0.00     0.158 A 
BRANCH  15  18
ATOM     18  O   UNL     1     -29.622 -16.336 106.313  1.00  0.00    -0.504 OA
ATOM     19  H   UNL     1     -29.167 -16.170 107.203  1.00  0.00     0.293 HD
ENDBRANCH  15  18
BRANCH  17  20
ATOM     20  O   UNL     1     -30.589 -16.591 103.672  1.00  0.00    -0.504 OA
ATOM     21  H   UNL     1     -30.464 -15.626 103.953  1.00  0.00     0.293 HD
ENDBRANCH  17  20
ENDBRANCH   1  12
BRANCH   2  22
ATOM     22  O   UNL     1     -26.978 -20.243 102.115  1.00  0.00    -0.502 OA
ATOM     23  H   UNL     1     -27.138 -19.630 101.325  1.00  0.00     0.293 HD
ENDBRANCH   2  22
BRANCH   6  24
ATOM     24  O   UNL     1     -27.802 -25.191 100.326  1.00  0.00    -0.507 OA
ATOM     25  H   UNL     1     -27.359 -24.506  99.733  1.00  0.00     0.293 HD
ENDBRANCH   6  24
BRANCH   8  26
ATOM     26  O   UNL     1     -31.009 -26.744 103.521  1.00  0.00    -0.508 OA
ATOM     27  H   UNL     1     -31.780 -26.577 104.156  1.00  0.00     0.293 HD
ENDBRANCH   8  26
TORSDOF 6
ENDMDL
MODEL 4
REMARK VINA RESULT:    -7.255      2.200      6.833
REMARK INTER + INTRA:          -9.062
REMARK INTER:                  -8.938
REMARK INTRA:                  -0.124
REMARK UNBOUND:                -0.323
REMARK SMILES O=c1c(O)c(-c2ccc(O)c(O)c2)oc2cc(O)cc(O)c12
REMARK SMILES IDX 5 1 3 2 2 3 1 4 22 5 20 6 19 7 17 8 16 9 15 10 14 11 6 12
REMARK SMILES IDX 7 13 8 14 9 15 13 16 11 17 10 18 12 20 4 22 21 24 18 26
REMARK H PARENT 10 19 12 21 4 23 21 25 18 27
REMARK Flexibility Score: inf
ROOT
ATOM      1  C   UNL     1     -27.011 -26.185 104.792  1.00  0.00     0.180 A 
ATOM      2  C   UNL     1     -28.152 -26.249 103.974  1.00  0.00     0.208 A 
ATOM      3  C   UNL     1     -28.225 -25.423 102.840  1.00  0.00     0.238 A 
ATOM      4  O   UNL     1     -29.272 -25.445 102.143  1.00  0.00    -0.285 OA
ATOM      5  C   UNL     1     -27.149 -24.556 102.531  1.00  0.00     0.111 A 
ATOM      6  C   UNL     1     -27.098 -23.706 101.386  1.00  0.00     0.134 A 
ATOM      7  C   UNL     1     -26.044 -22.794 101.249  1.00  0.00     0.093 A 
ATOM      8  C   UNL     1     -25.005 -22.750 102.178  1.00  0.00     0.123 A 
ATOM      9  C   UNL     1     -25.014 -23.619 103.270  1.00  0.00     0.094 A 
ATOM     10  C   UNL     1     -26.072 -24.513 103.453  1.00  0.00     0.146 A 
ATOM     11  O   UNL     1     -26.048 -25.315 104.512  1.00  0.00    -0.452 OA
ENDROOT
BRANCH   1  12
ATOM     12  C   UNL     1     -26.851 -27.042 105.989  1.00  0.00     0.025 A 
ATOM     13  C   UNL     1     -27.742 -26.901 107.064  1.00  0.00     0.016 A 
ATOM     14  C   UNL     1     -27.597 -27.685 108.212  1.00  0.00     0.051 A 
ATOM     15  C   UNL     1     -26.549 -28.610 108.307  1.00  0.00     0.157 A 
ATOM     16  C   UNL     1     -25.788 -27.958 106.097  1.00  0.00     0.062 A 
ATOM     17  C   UNL     1     -25.638 -28.742 107.246  1.00  0.00     0.158 A 
BRANCH  15  18
ATOM     18  O   UNL     1     -26.407 -29.392 109.453  1.00  0.00    -0.504 OA
ATOM     19  H   UNL     1     -26.947 -29.209 110.290  1.00  0.00     0.293 HD
ENDBRANCH  15  18
BRANCH  17  20
ATOM     20  O   UNL     1     -24.577 -29.644 107.317  1.00  0.00    -0.504 OA
ATOM     21  H   UNL     1     -24.658 -30.536 107.789  1.00  0.00     0.293 HD
ENDBRANCH  17  20
ENDBRANCH   1  12
BRANCH   2  22
ATOM     22  O   UNL     1     -29.213 -27.095 104.310  1.00  0.00    -0.502 OA
ATOM     23  H   UNL     1     -29.480 -27.886 103.738  1.00  0.00     0.293 HD
ENDBRANCH   2  22
BRANCH   6  24
ATOM     24  O   UNL     1     -28.036 -23.734 100.350  1.00  0.00    -0.507 OA
ATOM     25  H   UNL     1     -28.454 -22.917  99.930  1.00  0.00     0.293 HD
ENDBRANCH   6  24
BRANCH   8  26
ATOM     26  O   UNL     1     -23.963 -21.842 102.002  1.00  0.00    -0.508 OA
ATOM     27  H   UNL     1     -23.953 -21.192 101.225  1.00  0.00     0.293 HD
ENDBRANCH   8  26
TORSDOF 6
ENDMDL
MODEL 5
REMARK VINA RESULT:    -7.217      5.362      7.820
REMARK INTER + INTRA:          -9.016
REMARK INTER:                  -8.692
REMARK INTRA:                  -0.323
REMARK UNBOUND:                -0.323
REMARK SMILES O=c1c(O)c(-c2ccc(O)c(O)c2)oc2cc(O)cc(O)c12
REMARK SMILES IDX 5 1 3 2 2 3 1 4 22 5 20 6 19 7 17 8 16 9 15 10 14 11 6 12
REMARK SMILES IDX 7 13 8 14 9 15 13 16 11 17 10 18 12 20 4 22 21 24 18 26
REMARK H PARENT 10 19 12 21 4 23 21 25 18 27
REMARK Flexibility Score: inf
ROOT
ATOM      1  C   UNL     1     -29.098 -21.119 103.688  1.00  0.00     0.180 A 
ATOM      2  C   UNL     1     -29.927 -22.067 103.064  1.00  0.00     0.208 A 
ATOM      3  C   UNL     1     -29.340 -23.188 102.455  1.00  0.00     0.238 A 
ATOM      4  O   UNL     1     -30.082 -24.005 101.850  1.00  0.00    -0.285 OA
ATOM      5  C   UNL     1     -27.934 -23.355 102.491  1.00  0.00     0.111 A 
ATOM      6  C   UNL     1     -27.237 -24.473 101.943  1.00  0.00     0.134 A 
ATOM      7  C   UNL     1     -25.837 -24.470 101.921  1.00  0.00     0.093 A 
ATOM      8  C   UNL     1     -25.110 -23.423 102.487  1.00  0.00     0.123 A 
ATOM      9  C   UNL     1     -25.782 -22.354 103.080  1.00  0.00     0.094 A 
ATOM     10  C   UNL     1     -27.178 -22.311 103.084  1.00  0.00     0.146 A 
ATOM     11  O   UNL     1     -27.779 -21.270 103.649  1.00  0.00    -0.452 OA
ENDROOT
BRANCH   1  12
ATOM     12  C   UNL     1     -29.644 -19.925 104.372  1.00  0.00     0.025 A 
ATOM     13  C   UNL     1     -29.997 -20.006 105.728  1.00  0.00     0.016 A 
ATOM     14  C   UNL     1     -30.533 -18.898 106.389  1.00  0.00     0.051 A 
ATOM     15  C   UNL     1     -30.738 -17.696 105.699  1.00  0.00     0.157 A 
ATOM     16  C   UNL     1     -29.871 -18.723 103.678  1.00  0.00     0.062 A 
ATOM     17  C   UNL     1     -30.410 -17.611 104.336  1.00  0.00     0.158 A 
BRANCH  15  18
ATOM     18  O   UNL     1     -31.272 -16.590 106.360  1.00  0.00    -0.504 OA
ATOM     19  H   UNL     1     -30.958 -16.324 107.286  1.00  0.00     0.293 HD
ENDBRANCH  15  18
BRANCH  17  20
ATOM     20  O   UNL     1     -30.616 -16.434 103.618  1.00  0.00    -0.504 OA
ATOM     21  H   UNL     1     -31.470 -15.896 103.699  1.00  0.00     0.293 HD
ENDBRANCH  17  20
ENDBRANCH   1  12
BRANCH   2  22
ATOM     22  O   UNL     1     -31.310 -21.872 103.019  1.00  0.00    -0.502 OA
ATOM     23  H   UNL     1     -31.742 -20.987 103.252  1.00  0.00     0.293 HD
ENDBRANCH   2  22
BRANCH   6  24
ATOM     24  O   UNL     1     -27.866 -25.613 101.435  1.00  0.00    -0.507 OA
ATOM     25  H   UNL     1     -27.406 -26.495 101.266  1.00  0.00     0.293 HD
ENDBRANCH   6  24
BRANCH   8  26
ATOM     26  O   UNL     1     -23.717 -23.461 102.462  1.00  0.00    -0.508 OA
ATOM     27  H   UNL     1     -23.201 -23.367 101.596  1.00  0.00     0.293 HD
ENDBRANCH   8  26
TORSDOF 6
ENDMDL
MODEL 6
REMARK VINA RESULT:    -7.206      1.970      6.826
REMARK INTER + INTRA:          -9.003
REMARK INTER:                  -8.832
REMARK INTRA:                  -0.171
REMARK UNBOUND:                -0.323
REMARK SMILES O=c1c(O)c(-c2ccc(O)c(O)c2)oc2cc(O)cc(O)c12
REMARK SMILES IDX 5 1 3 2 2 3 1 4 22 5 20 6 19 7 17 8 16 9 15 10 14 11 6 12
REMARK SMILES IDX 7 13 8 14 9 15 13 16 11 17 10 18 12 20 4 22 21 24 18 26
REMARK H PARENT 10 19 12 21 4 23 21 25 18 27
REMARK Flexibility Score: inf
ROOT
ATOM      1  C   UNL     1     -27.276 -25.855 105.245  1.00  0.00     0.180 A 
ATOM      2  C   UNL     1     -27.204 -24.471 105.484  1.00  0.00     0.208 A 
ATOM      3  C   UNL     1     -27.437 -23.584 104.421  1.00  0.00     0.238 A 
ATOM      4  O   UNL     1     -27.318 -22.348 104.628  1.00  0.00    -0.285 OA
ATOM      5  C   UNL     1     -27.754 -24.091 103.136  1.00  0.00     0.111 A 
ATOM      6  C   UNL     1     -28.049 -23.283 101.998  1.00  0.00     0.134 A 
ATOM      7  C   UNL     1     -28.221 -23.889 100.747  1.00  0.00     0.093 A 
ATOM      8  C   UNL     1     -28.175 -25.276 100.607  1.00  0.00     0.123 A 
ATOM      9  C   UNL     1     -27.946 -26.079 101.725  1.00  0.00     0.094 A 
ATOM     10  C   UNL     1     -27.735 -25.500 102.979  1.00  0.00     0.146 A 
ATOM     11  O   UNL     1     -27.510 -26.299 104.016  1.00  0.00    -0.452 OA
ENDROOT
BRANCH   1  12
ATOM     12  C   UNL     1     -27.067 -26.851 106.320  1.00  0.00     0.025 A 
ATOM     13  C   UNL     1     -27.971 -26.912 107.391  1.00  0.00     0.016 A 
ATOM     14  C   UNL     1     -27.782 -27.831 108.427  1.00  0.00     0.051 A 
ATOM     15  C   UNL     1     -26.677 -28.692 108.414  1.00  0.00     0.157 A 
ATOM     16  C   UNL     1     -25.947 -27.704 106.321  1.00  0.00     0.062 A 
ATOM     17  C   UNL     1     -25.753 -28.623 107.358  1.00  0.00     0.158 A 
BRANCH  15  18
ATOM     18  O   UNL     1     -26.491 -29.609 109.448  1.00  0.00    -0.504 OA
ATOM     19  H   UNL     1     -25.596 -29.710 109.912  1.00  0.00     0.293 HD
ENDBRANCH  15  18
BRANCH  17  20
ATOM     20  O   UNL     1     -24.636 -29.457 107.324  1.00  0.00    -0.504 OA
ATOM     21  H   UNL     1     -24.713 -30.455 107.176  1.00  0.00     0.293 HD
ENDBRANCH  17  20
ENDBRANCH   1  12
BRANCH   2  22
ATOM     22  O   UNL     1     -26.867 -23.993 106.753  1.00  0.00    -0.502 OA
ATOM     23  H   UNL     1     -27.208 -24.422 107.604  1.00  0.00     0.293 HD
ENDBRANCH   2  22
BRANCH   6  24
ATOM     24  O   UNL     1     -28.209 -21.895 102.045  1.00  0.00    -0.507 OA
ATOM     25  H   UNL     1     -28.947 -21.386 101.581  1.00  0.00     0.293 HD
ENDBRANCH   6  24
BRANCH   8  26
ATOM     26  O   UNL     1     -28.366 -25.847  99.350  1.00  0.00    -0.508 OA
ATOM     27  H   UNL     1     -28.291 -26.846  99.205  1.00  0.00     0.293 HD
ENDBRANCH   8  26
TORSDOF 6
ENDMDL
MODEL 7
REMARK VINA RESULT:    -7.191      4.013      6.320
REMARK INTER + INTRA:          -8.985
REMARK INTER:                  -9.003
REMARK INTRA:                   0.018
REMARK UNBOUND:                -0.323
REMARK SMILES O=c1c(O)c(-c2ccc(O)c(O)c2)oc2cc(O)cc(O)c12
REMARK SMILES IDX 5 1 3 2 2 3 1 4 22 5 20 6 19 7 17 8 16 9 15 10 14 11 6 12
REMARK SMILES IDX 7 13 8 14 9 15 13 16 11 17 10 18 12 20 4 22 21 24 18 26
REMARK H PARENT 10 19 12 21 4 23 21 25 18 27
REMARK Flexibility Score: inf
ROOT
ATOM      1  C   UNL     1     -25.563 -23.761 102.582  1.00  0.00     0.180 A 
ATOM      2  C   UNL     1     -25.163 -24.576 103.656  1.00  0.00     0.208 A 
ATOM      3  C   UNL     1     -26.088 -25.475 104.211  1.00  0.00     0.238 A 
ATOM      4  O   UNL     1     -25.741 -26.161 105.207  1.00  0.00    -0.285 OA
ATOM      5  C   UNL     1     -27.397 -25.558 103.676  1.00  0.00     0.111 A 
ATOM      6  C   UNL     1     -28.403 -26.461 104.134  1.00  0.00     0.134 A 
ATOM      7  C   UNL     1     -29.701 -26.367 103.618  1.00  0.00     0.093 A 
ATOM      8  C   UNL     1     -30.014 -25.449 102.616  1.00  0.00     0.123 A 
ATOM      9  C   UNL     1     -29.023 -24.602 102.119  1.00  0.00     0.094 A 
ATOM     10  C   UNL     1     -27.727 -24.648 102.639  1.00  0.00     0.146 A 
ATOM     11  O   UNL     1     -26.816 -23.816 102.146  1.00  0.00    -0.452 OA
ENDROOT
BRANCH   1  12
ATOM     12  C   UNL     1     -24.638 -22.808 101.929  1.00  0.00     0.025 A 
ATOM     13  C   UNL     1     -23.370 -23.248 101.517  1.00  0.00     0.016 A 
ATOM     14  C   UNL     1     -22.472 -22.361 100.917  1.00  0.00     0.051 A 
ATOM     15  C   UNL     1     -22.824 -21.017 100.734  1.00  0.00     0.157 A 
ATOM     16  C   UNL     1     -24.979 -21.454 101.762  1.00  0.00     0.062 A 
ATOM     17  C   UNL     1     -24.081 -20.562 101.164  1.00  0.00     0.158 A 
BRANCH  15  18
ATOM     18  O   UNL     1     -21.928 -20.134 100.133  1.00  0.00    -0.504 OA
ATOM     19  H   UNL     1     -22.183 -19.173  99.935  1.00  0.00     0.293 HD
ENDBRANCH  15  18
BRANCH  17  20
ATOM     20  O   UNL     1     -24.455 -19.227 101.009  1.00  0.00    -0.504 OA
ATOM     21  H   UNL     1     -24.450 -18.767 100.107  1.00  0.00     0.293 HD
ENDBRANCH  17  20
ENDBRANCH   1  12
BRANCH   2  22
ATOM     22  O   UNL     1     -23.874 -24.461 104.184  1.00  0.00    -0.502 OA
ATOM     23  H   UNL     1     -23.587 -24.941 105.028  1.00  0.00     0.293 HD
ENDBRANCH   2  22
BRANCH   6  24
ATOM     24  O   UNL     1     -28.174 -27.478 105.065  1.00  0.00    -0.507 OA
ATOM     25  H   UNL     1     -28.122 -28.461 104.841  1.00  0.00     0.293 HD
ENDBRANCH   6  24
BRANCH   8  26
ATOM     26  O   UNL     1     -31.313 -25.394 102.115  1.00  0.00    -0.508 OA
ATOM     27  H   UNL     1     -31.918 -26.206 102.123  1.00  0.00     0.293 HD
ENDBRANCH   8  26
TORSDOF 6
ENDMDL
MODEL 8
REMARK VINA RESULT:    -7.173      4.695      7.212
REMARK INTER + INTRA:          -8.963
REMARK INTER:                  -8.992
REMARK INTRA:                   0.029
REMARK UNBOUND:                -0.323
REMARK SMILES O=c1c(O)c(-c2ccc(O)c(O)c2)oc2cc(O)cc(O)c12
REMARK SMILES IDX 5 1 3 2 2 3 1 4 22 5 20 6 19 7 17 8 16 9 15 10 14 11 6 12
REMARK SMILES IDX 7 13 8 14 9 15 13 16 11 17 10 18 12 20 4 22 21 24 18 26
REMARK H PARENT 10 19 12 21 4 23 21 25 18 27
REMARK Flexibility Score: inf
ROOT
ATOM      1  C   UNL     1     -29.218 -21.970 104.237  1.00  0.00     0.180 A 
ATOM      2  C   UNL     1     -29.485 -22.968 105.190  1.00  0.00     0.208 A 
ATOM      3  C   UNL     1     -29.409 -24.316 104.804  1.00  0.00     0.238 A 
ATOM      4  O   UNL     1     -29.703 -25.203 105.647  1.00  0.00    -0.285 OA
ATOM      5  C   UNL     1     -29.050 -24.650 103.475  1.00  0.00     0.111 A 
ATOM      6  C   UNL     1     -28.903 -25.982 102.987  1.00  0.00     0.134 A 
ATOM      7  C   UNL     1     -28.672 -26.196 101.622  1.00  0.00     0.093 A 
ATOM      8  C   UNL     1     -28.518 -25.125 100.741  1.00  0.00     0.123 A 
ATOM      9  C   UNL     1     -28.601 -23.817 101.220  1.00  0.00     0.094 A 
ATOM     10  C   UNL     1     -28.867 -23.573 102.569  1.00  0.00     0.146 A 
ATOM     11  O   UNL     1     -28.949 -22.313 102.982  1.00  0.00    -0.452 OA
ENDROOT
BRANCH   1  12
ATOM     12  C   UNL     1     -29.254 -20.529 104.573  1.00  0.00     0.025 A 
ATOM     13  C   UNL     1     -28.571 -20.067 105.709  1.00  0.00     0.016 A 
ATOM     14  C   UNL     1     -28.609 -18.714 106.058  1.00  0.00     0.051 A 
ATOM     15  C   UNL     1     -29.344 -17.806 105.284  1.00  0.00     0.157 A 
ATOM     16  C   UNL     1     -30.007 -19.617 103.811  1.00  0.00     0.062 A 
ATOM     17  C   UNL     1     -30.050 -18.263 104.158  1.00  0.00     0.158 A 
BRANCH  15  18
ATOM     18  O   UNL     1     -29.379 -16.457 105.632  1.00  0.00    -0.504 OA
ATOM     19  H   UNL     1     -30.235 -16.011 105.941  1.00  0.00     0.293 HD
ENDBRANCH  15  18
BRANCH  17  20
ATOM     20  O   UNL     1     -30.802 -17.386 103.376  1.00  0.00    -0.504 OA
ATOM     21  H   UNL     1     -30.721 -17.360 102.367  1.00  0.00     0.293 HD
ENDBRANCH  17  20
ENDBRANCH   1  12
BRANCH   2  22
ATOM     22  O   UNL     1     -29.860 -22.617 106.490  1.00  0.00    -0.502 OA
ATOM     23  H   UNL     1     -29.941 -23.298 107.235  1.00  0.00     0.293 HD
ENDBRANCH   2  22
BRANCH   6  24
ATOM     24  O   UNL     1     -28.946 -27.120 103.797  1.00  0.00    -0.507 OA
ATOM     25  H   UNL     1     -28.721 -28.054 103.488  1.00  0.00     0.293 HD
ENDBRANCH   6  24
BRANCH   8  26
ATOM     26  O   UNL     1     -28.275 -25.374  99.393  1.00  0.00    -0.508 OA
ATOM     27  H   UNL     1     -27.561 -26.029  99.096  1.00  0.00     0.293 HD
ENDBRANCH   8  26
TORSDOF 6
ENDMDL
MODEL 9
REMARK VINA RESULT:    -6.996      2.147      7.000
REMARK INTER + INTRA:          -8.750
REMARK INTER:                  -8.599
REMARK INTRA:                  -0.152
REMARK UNBOUND:                -0.323
REMARK SMILES O=c1c(O)c(-c2ccc(O)c(O)c2)oc2cc(O)cc(O)c12
REMARK SMILES IDX 5 1 3 2 2 3 1 4 22 5 20 6 19 7 17 8 16 9 15 10 14 11 6 12
REMARK SMILES IDX 7 13 8 14 9 15 13 16 11 17 10 18 12 20 4 22 21 24 18 26
REMARK H PARENT 10 19 12 21 4 23 21 25 18 27
REMARK Flexibility Score: inf
ROOT
ATOM      1  C   UNL     1     -26.873 -26.498 105.351  1.00  0.00     0.180 A 
ATOM      2  C   UNL     1     -25.986 -25.797 104.517  1.00  0.00     0.208 A 
ATOM      3  C   UNL     1     -26.494 -25.127 103.393  1.00  0.00     0.238 A 
ATOM      4  O   UNL     1     -25.687 -24.547 102.619  1.00  0.00    -0.285 OA
ATOM      5  C   UNL     1     -27.884 -25.152 103.126  1.00  0.00     0.111 A 
ATOM      6  C   UNL     1     -28.513 -24.475 102.038  1.00  0.00     0.134 A 
ATOM      7  C   UNL     1     -29.877 -24.676 101.795  1.00  0.00     0.093 A 
ATOM      8  C   UNL     1     -30.648 -25.477 102.637  1.00  0.00     0.123 A 
ATOM      9  C   UNL     1     -30.056 -26.096 103.739  1.00  0.00     0.094 A 
ATOM     10  C   UNL     1     -28.690 -25.943 103.986  1.00  0.00     0.146 A 
ATOM     11  O   UNL     1     -28.162 -26.559 105.038  1.00  0.00    -0.452 OA
ENDROOT
BRANCH   1  12
ATOM     12  C   UNL     1     -26.417 -27.208 106.568  1.00  0.00     0.025 A 
ATOM     13  C   UNL     1     -26.826 -26.750 107.830  1.00  0.00     0.016 A 
ATOM     14  C   UNL     1     -26.390 -27.392 108.992  1.00  0.00     0.051 A 
ATOM     15  C   UNL     1     -25.527 -28.493 108.909  1.00  0.00     0.157 A 
ATOM     16  C   UNL     1     -25.534 -28.301 106.490  1.00  0.00     0.062 A 
ATOM     17  C   UNL     1     -25.094 -28.945 107.652  1.00  0.00     0.158 A 
BRANCH  15  18
ATOM     18  O   UNL     1     -25.095 -29.134 110.070  1.00  0.00    -0.504 OA
ATOM     19  H   UNL     1     -25.728 -29.685 110.638  1.00  0.00     0.293 HD
ENDBRANCH  15  18
BRANCH  17  20
ATOM     20  O   UNL     1     -24.224 -30.029 107.537  1.00  0.00    -0.504 OA
ATOM     21  H   UNL     1     -23.279 -30.002 107.900  1.00  0.00     0.293 HD
ENDBRANCH  17  20
ENDBRANCH   1  12
BRANCH   2  22
ATOM     22  O   UNL     1     -24.614 -25.804 104.786  1.00  0.00    -0.502 OA
ATOM     23  H   UNL     1     -24.222 -26.252 105.604  1.00  0.00     0.293 HD
ENDBRANCH   2  22
BRANCH   6  24
ATOM     24  O   UNL     1     -27.854 -23.579 101.191  1.00  0.00    -0.507 OA
ATOM     25  H   UNL     1     -26.938 -23.194 101.363  1.00  0.00     0.293 HD
ENDBRANCH   6  24
BRANCH   8  26
ATOM     26  O   UNL     1     -32.006 -25.642 102.375  1.00  0.00    -0.508 OA
ATOM     27  H   UNL     1     -32.414 -26.562 102.256  1.00  0.00     0.293 HD
ENDBRANCH   8  26
TORSDOF 6
ENDMDL
