MODEL 1
REMARK VINA RESULT:    -5.578      0.000      0.000
REMARK INTER + INTRA:         -15.553
REMARK INTER:                 -12.751
REMARK INTRA:                  -2.802
REMARK UNBOUND:                -2.802
REMARK SMILES CCCCCCCCCCCCCCCCCCCCCCCC(=O)[O-]
REMARK SMILES IDX 13 1 14 2 15 3 16 4 17 5 18 6 19 7 20 8 21 9 22 10 23 11
REMARK SMILES IDX 24 12 25 13 26 14 12 15 11 16 10 17 9 18 8 19 7 20 6 21 5 22
REMARK SMILES IDX 4 23 3 24 2 25 1 26
REMARK H PARENT
REMARK Flexibility Score: inf
ROOT
ATOM      1  C   UNL     1      -9.196 -14.471  25.911  1.00  0.00     0.000 C 
ENDROOT
BRANCH   1   2
ATOM      2  C   UNL     1     -10.507 -15.237  26.191  1.00  0.00     0.000 C 
BRANCH   2   3
ATOM      3  C   UNL     1     -10.483 -15.967  27.546  1.00  0.00     0.000 C 
BRANCH   3   4
ATOM      4  C   UNL     1     -11.856 -16.547  27.928  1.00  0.00     0.000 C 
BRANCH   4   5
ATOM      5  C   UNL     1     -12.273 -16.172  29.361  1.00  0.00     0.000 C 
BRANCH   5   6
ATOM      6  C   UNL     1     -12.306 -17.382  30.311  1.00  0.00     0.000 C 
BRANCH   6   7
ATOM      7  C   UNL     1     -11.579 -18.641  29.795  1.00  0.00     0.000 C 
BRANCH   7   8
ATOM      8  C   UNL     1     -10.167 -18.865  30.367  1.00  0.00     0.000 C 
BRANCH   8   9
ATOM      9  C   UNL     1      -9.969 -18.209  31.745  1.00  0.00     0.000 C 
BRANCH   9  10
ATOM     10  C   UNL     1      -8.773 -17.242  31.764  1.00  0.00     0.006 C 
BRANCH  10  11
ATOM     11  C   UNL     1      -9.208 -15.773  31.663  1.00  0.00     0.053 C 
BRANCH  11  12
ATOM     12  C   UNL     1      -8.068 -14.859  31.989  1.00  0.00     0.041 C 
ATOM     13  O   UNL     1      -8.202 -13.611  31.878  1.00  0.00    -0.550 OA
ATOM     14  O   UNL     1      -6.856 -15.386  32.419  1.00  0.00    -0.550 OA
ENDBRANCH  11  12
ENDBRANCH  10  11
ENDBRANCH   9  10
ENDBRANCH   8   9
ENDBRANCH   7   8
ENDBRANCH   6   7
ENDBRANCH   5   6
ENDBRANCH   4   5
ENDBRANCH   3   4
ENDBRANCH   2   3
ENDBRANCH   1   2
BRANCH   1  15
ATOM     15  C   UNL     1      -7.926 -15.238  26.325  1.00  0.00     0.000 C 
BRANCH  15  16
ATOM     16  C   UNL     1      -6.871 -14.398  27.068  1.00  0.00     0.000 C 
BRANCH  16  17
ATOM     17  C   UNL     1      -6.953 -14.462  28.605  1.00  0.00     0.000 C 
BRANCH  17  18
ATOM     18  C   UNL     1      -5.611 -14.164  29.289  1.00  0.00    -0.000 C 
BRANCH  18  19
ATOM     19  C   UNL     1      -4.433 -14.469  28.351  1.00  0.00    -0.000 C 
BRANCH  19  20
ATOM     20  C   UNL     1      -3.078 -14.048  28.958  1.00  0.00    -0.000 C 
BRANCH  20  21
ATOM     21  C   UNL     1      -2.944 -12.531  29.182  1.00  0.00    -0.000 C 
BRANCH  21  22
ATOM     22  C   UNL     1      -2.299 -12.183  30.530  1.00  0.00    -0.000 C 
BRANCH  22  23
ATOM     23  C   UNL     1      -2.976 -10.960  31.169  1.00  0.00    -0.000 C 
BRANCH  23  24
ATOM     24  C   UNL     1      -3.737 -11.305  32.463  1.00  0.00    -0.000 C 
BRANCH  24  25
ATOM     25  C   UNL     1      -5.168 -11.833  32.254  1.00  0.00    -0.003 C 
ATOM     26  C   UNL     1      -5.963 -11.017  31.235  1.00  0.00     0.004 C 
ENDBRANCH  24  25
ENDBRANCH  23  24
ENDBRANCH  22  23
ENDBRANCH  21  22
ENDBRANCH  20  21
ENDBRANCH  19  20
ENDBRANCH  18  19
ENDBRANCH  17  18
ENDBRANCH  16  17
ENDBRANCH  15  16
ENDBRANCH   1  15
TORSDOF 22
ENDMDL
MODEL 2
REMARK VINA RESULT:    -5.563      2.002      6.947
REMARK INTER + INTRA:         -15.521
REMARK INTER:                 -13.006
REMARK INTRA:                  -2.515
REMARK UNBOUND:                -2.802
REMARK SMILES CCCCCCCCCCCCCCCCCCCCCCCC(=O)[O-]
REMARK SMILES IDX 13 1 14 2 15 3 16 4 17 5 18 6 19 7 20 8 21 9 22 10 23 11
REMARK SMILES IDX 24 12 25 13 26 14 12 15 11 16 10 17 9 18 8 19 7 20 6 21 5 22
REMARK SMILES IDX 4 23 3 24 2 25 1 26
REMARK H PARENT
REMARK Flexibility Score: inf
ROOT
ATOM      1  C   UNL     1      -9.561 -14.142  25.792  1.00  0.00     0.000 C 
ENDROOT
BRANCH   1   2
ATOM      2  C   UNL     1      -8.041 -13.879  25.869  1.00  0.00     0.000 C 
BRANCH   2   3
ATOM      3  C   UNL     1      -7.266 -15.078  26.444  1.00  0.00     0.000 C 
BRANCH   3   4
ATOM      4  C   UNL     1      -6.294 -14.669  27.564  1.00  0.00     0.000 C 
BRANCH   4   5
ATOM      5  C   UNL     1      -7.027 -14.191  28.830  1.00  0.00     0.000 C 
BRANCH   5   6
ATOM      6  C   UNL     1      -6.066 -13.799  29.966  1.00  0.00     0.000 C 
BRANCH   6   7
ATOM      7  C   UNL     1      -6.584 -14.081  31.391  1.00  0.00     0.000 C 
BRANCH   7   8
ATOM      8  C   UNL     1      -6.718 -12.844  32.298  1.00  0.00     0.000 C 
BRANCH   8   9
ATOM      9  C   UNL     1      -6.049 -11.592  31.704  1.00  0.00     0.000 C 
BRANCH   9  10
ATOM     10  C   UNL     1      -4.610 -11.402  32.215  1.00  0.00     0.006 C 
BRANCH  10  11
ATOM     11  C   UNL     1      -3.659 -10.914  31.113  1.00  0.00     0.053 C 
BRANCH  11  12
ATOM     12  C   UNL     1      -2.563 -11.907  30.882  1.00  0.00     0.041 C 
ATOM     13  O   UNL     1      -2.396 -12.416  29.741  1.00  0.00    -0.550 OA
ATOM     14  O   UNL     1      -1.723 -12.272  31.928  1.00  0.00    -0.550 OA
ENDBRANCH  11  12
ENDBRANCH  10  11
ENDBRANCH   9  10
ENDBRANCH   8   9
ENDBRANCH   7   8
ENDBRANCH   6   7
ENDBRANCH   5   6
ENDBRANCH   4   5
ENDBRANCH   3   4
ENDBRANCH   2   3
ENDBRANCH   1   2
BRANCH   1  15
ATOM     15  C   UNL     1     -10.032 -15.328  26.656  1.00  0.00     0.000 C 
BRANCH  15  16
ATOM     16  C   UNL     1     -11.535 -15.647  26.559  1.00  0.00     0.000 C 
BRANCH  16  17
ATOM     17  C   UNL     1     -12.018 -16.788  27.476  1.00  0.00     0.000 C 
BRANCH  17  18
ATOM     18  C   UNL     1     -12.554 -16.285  28.824  1.00  0.00    -0.000 C 
BRANCH  18  19
ATOM     19  C   UNL     1     -12.643 -17.429  29.846  1.00  0.00    -0.000 C 
BRANCH  19  20
ATOM     20  C   UNL     1     -11.842 -18.672  29.402  1.00  0.00    -0.000 C 
BRANCH  20  21
ATOM     21  C   UNL     1     -10.435 -18.755  30.020  1.00  0.00    -0.000 C 
BRANCH  21  22
ATOM     22  C   UNL     1     -10.461 -19.094  31.517  1.00  0.00    -0.000 C 
BRANCH  22  23
ATOM     23  C   UNL     1     -10.083 -17.871  32.368  1.00  0.00    -0.000 C 
BRANCH  23  24
ATOM     24  C   UNL     1      -9.046 -16.961  31.683  1.00  0.00    -0.000 C 
BRANCH  24  25
ATOM     25  C   UNL     1      -9.613 -15.653  31.102  1.00  0.00    -0.003 C 
ATOM     26  C   UNL     1     -10.525 -14.911  32.079  1.00  0.00     0.004 C 
ENDBRANCH  24  25
ENDBRANCH  23  24
ENDBRANCH  22  23
ENDBRANCH  21  22
ENDBRANCH  20  21
ENDBRANCH  19  20
ENDBRANCH  18  19
ENDBRANCH  17  18
ENDBRANCH  16  17
ENDBRANCH  15  16
ENDBRANCH   1  15
TORSDOF 22
ENDMDL
MODEL 3
REMARK VINA RESULT:    -5.553      2.402      7.565
REMARK INTER + INTRA:         -15.497
REMARK INTER:                 -12.783
REMARK INTRA:                  -2.715
REMARK UNBOUND:                -2.802
REMARK SMILES CCCCCCCCCCCCCCCCCCCCCCCC(=O)[O-]
REMARK SMILES IDX 13 1 14 2 15 3 16 4 17 5 18 6 19 7 20 8 21 9 22 10 23 11
REMARK SMILES IDX 24 12 25 13 26 14 12 15 11 16 10 17 9 18 8 19 7 20 6 21 5 22
REMARK SMILES IDX 4 23 3 24 2 25 1 26
REMARK H PARENT
REMARK Flexibility Score: inf
ROOT
ATOM      1  C   UNL     1      -7.367 -14.534  26.532  1.00  0.00     0.000 C 
ENDROOT
BRANCH   1   2
ATOM      2  C   UNL     1      -6.328 -14.369  27.663  1.00  0.00     0.000 C 
BRANCH   2   3
ATOM      3  C   UNL     1      -6.961 -14.472  29.062  1.00  0.00     0.000 C 
BRANCH   3   4
ATOM      4  C   UNL     1      -5.964 -14.142  30.186  1.00  0.00     0.000 C 
BRANCH   4   5
ATOM      5  C   UNL     1      -6.614 -14.186  31.579  1.00  0.00     0.000 C 
BRANCH   5   6
ATOM      6  C   UNL     1      -7.009 -12.792  32.100  1.00  0.00     0.000 C 
BRANCH   6   7
ATOM      7  C   UNL     1      -6.033 -11.655  31.737  1.00  0.00     0.000 C 
BRANCH   7   8
ATOM      8  C   UNL     1      -4.759 -11.582  32.599  1.00  0.00     0.000 C 
BRANCH   8   9
ATOM      9  C   UNL     1      -3.518 -11.155  31.796  1.00  0.00     0.000 C 
BRANCH   9  10
ATOM     10  C   UNL     1      -3.794 -11.092  30.284  1.00  0.00     0.006 C 
BRANCH  10  11
ATOM     11  C   UNL     1      -3.010 -12.157  29.503  1.00  0.00     0.053 C 
BRANCH  11  12
ATOM     12  C   UNL     1      -1.829 -11.546  28.815  1.00  0.00     0.041 C 
ATOM     13  O   UNL     1      -1.994 -10.767  27.839  1.00  0.00    -0.550 OA
ATOM     14  O   UNL     1      -0.542 -11.837  29.254  1.00  0.00    -0.550 OA
ENDBRANCH  11  12
ENDBRANCH  10  11
ENDBRANCH   9  10
ENDBRANCH   8   9
ENDBRANCH   7   8
ENDBRANCH   6   7
ENDBRANCH   5   6
ENDBRANCH   4   5
ENDBRANCH   3   4
ENDBRANCH   2   3
ENDBRANCH   1   2
BRANCH   1  15
ATOM     15  C   UNL     1      -8.656 -15.253  26.972  1.00  0.00     0.000 C 
BRANCH  15  16
ATOM     16  C   UNL     1      -9.902 -14.935  26.124  1.00  0.00     0.000 C 
BRANCH  16  17
ATOM     17  C   UNL     1     -11.194 -15.641  26.576  1.00  0.00     0.000 C 
BRANCH  17  18
ATOM     18  C   UNL     1     -11.115 -16.172  28.014  1.00  0.00    -0.000 C 
BRANCH  18  19
ATOM     19  C   UNL     1     -12.517 -16.446  28.581  1.00  0.00    -0.000 C 
BRANCH  19  20
ATOM     20  C   UNL     1     -12.563 -17.735  29.429  1.00  0.00    -0.000 C 
BRANCH  20  21
ATOM     21  C   UNL     1     -11.586 -18.825  28.952  1.00  0.00    -0.000 C 
BRANCH  21  22
ATOM     22  C   UNL     1     -10.300 -18.878  29.787  1.00  0.00    -0.000 C 
BRANCH  22  23
ATOM     23  C   UNL     1     -10.594 -18.638  31.276  1.00  0.00    -0.000 C 
BRANCH  23  24
ATOM     24  C   UNL     1      -9.583 -17.683  31.939  1.00  0.00    -0.000 C 
BRANCH  24  25
ATOM     25  C   UNL     1      -9.524 -16.272  31.326  1.00  0.00    -0.003 C 
ATOM     26  C   UNL     1     -10.583 -15.328  31.893  1.00  0.00     0.004 C 
ENDBRANCH  24  25
ENDBRANCH  23  24
ENDBRANCH  22  23
ENDBRANCH  21  22
ENDBRANCH  20  21
ENDBRANCH  19  20
ENDBRANCH  18  19
ENDBRANCH  17  18
ENDBRANCH  16  17
ENDBRANCH  15  16
ENDBRANCH   1  15
TORSDOF 22
ENDMDL
MODEL 4
REMARK VINA RESULT:    -5.551      1.489      2.502
REMARK INTER + INTRA:         -15.493
REMARK INTER:                 -12.842
REMARK INTRA:                  -2.651
REMARK UNBOUND:                -2.802
REMARK SMILES CCCCCCCCCCCCCCCCCCCCCCCC(=O)[O-]
REMARK SMILES IDX 13 1 14 2 15 3 16 4 17 5 18 6 19 7 20 8 21 9 22 10 23 11
REMARK SMILES IDX 24 12 25 13 26 14 12 15 11 16 10 17 9 18 8 19 7 20 6 21 5 22
REMARK SMILES IDX 4 23 3 24 2 25 1 26
REMARK H PARENT
REMARK Flexibility Score: inf
ROOT
ATOM      1  C   UNL     1      -9.463 -14.693  25.700  1.00  0.00     0.000 C 
ENDROOT
BRANCH   1   2
ATOM      2  C   UNL     1     -10.135 -15.459  26.860  1.00  0.00     0.000 C 
BRANCH   2   3
ATOM      3  C   UNL     1     -11.641 -15.673  26.628  1.00  0.00     0.000 C 
BRANCH   3   4
ATOM      4  C   UNL     1     -12.229 -16.763  27.541  1.00  0.00     0.000 C 
BRANCH   4   5
ATOM      5  C   UNL     1     -13.139 -16.183  28.638  1.00  0.00     0.000 C 
BRANCH   5   6
ATOM      6  C   UNL     1     -13.449 -17.193  29.756  1.00  0.00     0.000 C 
BRANCH   6   7
ATOM      7  C   UNL     1     -12.710 -18.542  29.645  1.00  0.00     0.000 C 
BRANCH   7   8
ATOM      8  C   UNL     1     -11.673 -18.816  30.749  1.00  0.00     0.000 C 
BRANCH   8   9
ATOM      9  C   UNL     1     -10.228 -18.554  30.290  1.00  0.00     0.000 C 
BRANCH   9  10
ATOM     10  C   UNL     1      -9.870 -17.058  30.314  1.00  0.00     0.006 C 
BRANCH  10  11
ATOM     11  C   UNL     1      -9.498 -16.569  31.722  1.00  0.00     0.053 C 
BRANCH  11  12
ATOM     12  C   UNL     1     -10.610 -15.758  32.311  1.00  0.00     0.041 C 
ATOM     13  O   UNL     1     -10.642 -14.510  32.147  1.00  0.00    -0.550 OA
ATOM     14  O   UNL     1     -11.613 -16.384  33.043  1.00  0.00    -0.550 OA
ENDBRANCH  11  12
ENDBRANCH  10  11
ENDBRANCH   9  10
ENDBRANCH   8   9
ENDBRANCH   7   8
ENDBRANCH   6   7
ENDBRANCH   5   6
ENDBRANCH   4   5
ENDBRANCH   3   4
ENDBRANCH   2   3
ENDBRANCH   1   2
BRANCH   1  15
ATOM     15  C   UNL     1      -8.071 -14.132  26.049  1.00  0.00     0.000 C 
BRANCH  15  16
ATOM     16  C   UNL     1      -7.151 -15.101  26.814  1.00  0.00     0.000 C 
BRANCH  16  17
ATOM     17  C   UNL     1      -5.740 -14.559  27.114  1.00  0.00     0.000 C 
BRANCH  17  18
ATOM     18  C   UNL     1      -5.628 -13.921  28.506  1.00  0.00    -0.000 C 
BRANCH  18  19
ATOM     19  C   UNL     1      -6.911 -14.142  29.321  1.00  0.00    -0.000 C 
BRANCH  19  20
ATOM     20  C   UNL     1      -6.616 -14.502  30.792  1.00  0.00    -0.000 C 
BRANCH  20  21
ATOM     21  C   UNL     1      -7.293 -13.564  31.806  1.00  0.00    -0.000 C 
BRANCH  21  22
ATOM     22  C   UNL     1      -6.289 -12.701  32.582  1.00  0.00    -0.000 C 
BRANCH  22  23
ATOM     23  C   UNL     1      -5.870 -11.468  31.766  1.00  0.00    -0.000 C 
BRANCH  23  24
ATOM     24  C   UNL     1      -4.347 -11.238  31.767  1.00  0.00    -0.000 C 
BRANCH  24  25
ATOM     25  C   UNL     1      -3.581 -11.954  30.640  1.00  0.00    -0.003 C 
ATOM     26  C   UNL     1      -2.078 -12.041  30.900  1.00  0.00     0.004 C 
ENDBRANCH  24  25
ENDBRANCH  23  24
ENDBRANCH  22  23
ENDBRANCH  21  22
ENDBRANCH  20  21
ENDBRANCH  19  20
ENDBRANCH  18  19
ENDBRANCH  17  18
ENDBRANCH  16  17
ENDBRANCH  15  16
ENDBRANCH   1  15
TORSDOF 22
ENDMDL
MODEL 5
REMARK VINA RESULT:    -5.477      1.867      8.021
REMARK INTER + INTRA:         -15.324
REMARK INTER:                 -12.571
REMARK INTRA:                  -2.754
REMARK UNBOUND:                -2.802
REMARK SMILES CCCCCCCCCCCCCCCCCCCCCCCC(=O)[O-]
REMARK SMILES IDX 13 1 14 2 15 3 16 4 17 5 18 6 19 7 20 8 21 9 22 10 23 11
REMARK SMILES IDX 24 12 25 13 26 14 12 15 11 16 10 17 9 18 8 19 7 20 6 21 5 22
REMARK SMILES IDX 4 23 3 24 2 25 1 26
REMARK H PARENT
REMARK Flexibility Score: inf
ROOT
ATOM      1  C   UNL     1      -8.449 -16.025  31.321  1.00  0.00     0.000 C 
ENDROOT
BRANCH   1   2
ATOM      2  C   UNL     1      -7.114 -15.256  31.222  1.00  0.00     0.000 C 
BRANCH   2   3
ATOM      3  C   UNL     1      -7.080 -14.288  30.025  1.00  0.00     0.000 C 
BRANCH   3   4
ATOM      4  C   UNL     1      -6.276 -13.011  30.323  1.00  0.00     0.000 C 
BRANCH   4   5
ATOM      5  C   UNL     1      -6.385 -12.580  31.796  1.00  0.00     0.000 C 
BRANCH   5   6
ATOM      6  C   UNL     1      -5.623 -11.277  32.096  1.00  0.00     0.000 C 
BRANCH   6   7
ATOM      7  C   UNL     1      -4.244 -11.461  32.762  1.00  0.00     0.000 C 
BRANCH   7   8
ATOM      8  C   UNL     1      -3.041 -11.008  31.916  1.00  0.00     0.000 C 
BRANCH   8   9
ATOM      9  C   UNL     1      -3.434 -10.605  30.484  1.00  0.00     0.000 C 
BRANCH   9  10
ATOM     10  C   UNL     1      -2.743 -11.478  29.422  1.00  0.00     0.006 C 
BRANCH  10  11
ATOM     11  C   UNL     1      -2.390 -12.874  29.954  1.00  0.00     0.053 C 
BRANCH  11  12
ATOM     12  C   UNL     1      -2.725 -13.926  28.943  1.00  0.00     0.041 C 
ATOM     13  O   UNL     1      -2.242 -13.868  27.781  1.00  0.00    -0.550 OA
ATOM     14  O   UNL     1      -3.572 -14.974  29.285  1.00  0.00    -0.550 OA
ENDBRANCH  11  12
ENDBRANCH  10  11
ENDBRANCH   9  10
ENDBRANCH   8   9
ENDBRANCH   7   8
ENDBRANCH   6   7
ENDBRANCH   5   6
ENDBRANCH   4   5
ENDBRANCH   3   4
ENDBRANCH   2   3
ENDBRANCH   1   2
BRANCH   1  15
ATOM     15  C   UNL     1      -9.655 -15.135  31.678  1.00  0.00     0.000 C 
BRANCH  15  16
ATOM     16  C   UNL     1     -10.879 -15.889  32.229  1.00  0.00     0.000 C 
BRANCH  16  17
ATOM     17  C   UNL     1     -10.768 -17.425  32.194  1.00  0.00     0.000 C 
BRANCH  17  18
ATOM     18  C   UNL     1     -11.716 -18.071  31.174  1.00  0.00    -0.000 C 
BRANCH  18  19
ATOM     19  C   UNL     1     -12.857 -17.113  30.797  1.00  0.00    -0.000 C 
BRANCH  19  20
ATOM     20  C   UNL     1     -12.638 -16.456  29.419  1.00  0.00    -0.000 C 
BRANCH  20  21
ATOM     21  C   UNL     1     -11.644 -17.215  28.522  1.00  0.00    -0.000 C 
BRANCH  21  22
ATOM     22  C   UNL     1     -10.495 -16.330  28.022  1.00  0.00    -0.000 C 
BRANCH  22  23
ATOM     23  C   UNL     1     -10.873 -15.616  26.714  1.00  0.00    -0.000 C 
BRANCH  23  24
ATOM     24  C   UNL     1      -9.699 -14.831  26.100  1.00  0.00    -0.000 C 
BRANCH  24  25
ATOM     25  C   UNL     1      -8.311 -15.200  26.653  1.00  0.00    -0.003 C 
ATOM     26  C   UNL     1      -7.242 -14.155  26.334  1.00  0.00     0.004 C 
ENDBRANCH  24  25
ENDBRANCH  23  24
ENDBRANCH  22  23
ENDBRANCH  21  22
ENDBRANCH  20  21
ENDBRANCH  19  20
ENDBRANCH  18  19
ENDBRANCH  17  18
ENDBRANCH  16  17
ENDBRANCH  15  16
ENDBRANCH   1  15
TORSDOF 22
ENDMDL
MODEL 6
REMARK VINA RESULT:    -5.455      1.213      2.983
REMARK INTER + INTRA:         -15.273
REMARK INTER:                 -12.578
REMARK INTRA:                  -2.695
REMARK UNBOUND:                -2.802
REMARK SMILES CCCCCCCCCCCCCCCCCCCCCCCC(=O)[O-]
REMARK SMILES IDX 13 1 14 2 15 3 16 4 17 5 18 6 19 7 20 8 21 9 22 10 23 11
REMARK SMILES IDX 24 12 25 13 26 14 12 15 11 16 10 17 9 18 8 19 7 20 6 21 5 22
REMARK SMILES IDX 4 23 3 24 2 25 1 26
REMARK H PARENT
REMARK Flexibility Score: inf
ROOT
ATOM      1  C   UNL     1     -12.708 -15.988  27.599  1.00  0.00     0.000 C 
ENDROOT
BRANCH   1   2
ATOM      2  C   UNL     1     -12.553 -16.132  29.129  1.00  0.00     0.000 C 
BRANCH   2   3
ATOM      3  C   UNL     1     -13.209 -17.417  29.667  1.00  0.00     0.000 C 
BRANCH   3   4
ATOM      4  C   UNL     1     -12.312 -18.654  29.492  1.00  0.00     0.000 C 
BRANCH   4   5
ATOM      5  C   UNL     1     -10.827 -18.342  29.743  1.00  0.00     0.000 C 
BRANCH   5   6
ATOM      6  C   UNL     1     -10.303 -18.943  31.059  1.00  0.00     0.000 C 
BRANCH   6   7
ATOM      7  C   UNL     1      -9.966 -17.917  32.161  1.00  0.00     0.000 C 
BRANCH   7   8
ATOM      8  C   UNL     1     -11.110 -16.957  32.535  1.00  0.00     0.000 C 
BRANCH   8   9
ATOM      9  C   UNL     1     -10.782 -15.486  32.222  1.00  0.00     0.000 C 
BRANCH   9  10
ATOM     10  C   UNL     1      -9.466 -15.335  31.439  1.00  0.00     0.006 C 
BRANCH  10  11
ATOM     11  C   UNL     1      -8.619 -14.158  31.943  1.00  0.00     0.053 C 
BRANCH  11  12
ATOM     12  C   UNL     1      -7.246 -14.618  32.324  1.00  0.00     0.041 C 
ATOM     13  O   UNL     1      -6.885 -15.802  32.087  1.00  0.00    -0.550 OA
ATOM     14  O   UNL     1      -6.364 -13.738  32.940  1.00  0.00    -0.550 OA
ENDBRANCH  11  12
ENDBRANCH  10  11
ENDBRANCH   9  10
ENDBRANCH   8   9
ENDBRANCH   7   8
ENDBRANCH   6   7
ENDBRANCH   5   6
ENDBRANCH   4   5
ENDBRANCH   3   4
ENDBRANCH   2   3
ENDBRANCH   1   2
BRANCH   1  15
ATOM     15  C   UNL     1     -11.440 -16.363  26.808  1.00  0.00     0.000 C 
BRANCH  15  16
ATOM     16  C   UNL     1     -10.531 -15.178  26.435  1.00  0.00     0.000 C 
BRANCH  16  17
ATOM     17  C   UNL     1      -9.063 -15.319  26.881  1.00  0.00     0.000 C 
BRANCH  17  18
ATOM     18  C   UNL     1      -8.121 -14.348  26.155  1.00  0.00    -0.000 C 
BRANCH  18  19
ATOM     19  C   UNL     1      -6.683 -14.473  26.683  1.00  0.00    -0.000 C 
BRANCH  19  20
ATOM     20  C   UNL     1      -6.634 -14.618  28.219  1.00  0.00    -0.000 C 
BRANCH  20  21
ATOM     21  C   UNL     1      -6.440 -13.284  28.960  1.00  0.00    -0.000 C 
BRANCH  21  22
ATOM     22  C   UNL     1      -5.020 -13.114  29.518  1.00  0.00    -0.000 C 
BRANCH  22  23
ATOM     23  C   UNL     1      -4.918 -11.861  30.402  1.00  0.00    -0.000 C 
BRANCH  23  24
ATOM     24  C   UNL     1      -3.567 -11.135  30.259  1.00  0.00    -0.000 C 
BRANCH  24  25
ATOM     25  C   UNL     1      -2.910 -10.718  31.587  1.00  0.00    -0.003 C 
ATOM     26  C   UNL     1      -3.623 -11.289  32.812  1.00  0.00     0.004 C 
ENDBRANCH  24  25
ENDBRANCH  23  24
ENDBRANCH  22  23
ENDBRANCH  21  22
ENDBRANCH  20  21
ENDBRANCH  19  20
ENDBRANCH  18  19
ENDBRANCH  17  18
ENDBRANCH  16  17
ENDBRANCH  15  16
ENDBRANCH   1  15
TORSDOF 22
ENDMDL
MODEL 7
REMARK VINA RESULT:    -5.336      1.633      3.896
REMARK INTER + INTRA:         -15.002
REMARK INTER:                 -12.355
REMARK INTRA:                  -2.647
REMARK UNBOUND:                -2.802
REMARK SMILES CCCCCCCCCCCCCCCCCCCCCCCC(=O)[O-]
REMARK SMILES IDX 13 1 14 2 15 3 16 4 17 5 18 6 19 7 20 8 21 9 22 10 23 11
REMARK SMILES IDX 24 12 25 13 26 14 12 15 11 16 10 17 9 18 8 19 7 20 6 21 5 22
REMARK SMILES IDX 4 23 3 24 2 25 1 26
REMARK H PARENT
REMARK Flexibility Score: inf
ROOT
ATOM      1  C   UNL     1      -6.096 -14.442  28.024  1.00  0.00     0.000 C 
ENDROOT
BRANCH   1   2
ATOM      2  C   UNL     1      -6.788 -14.465  26.644  1.00  0.00     0.000 C 
BRANCH   2   3
ATOM      3  C   UNL     1      -8.112 -15.249  26.663  1.00  0.00     0.000 C 
BRANCH   3   4
ATOM      4  C   UNL     1      -9.268 -14.470  26.011  1.00  0.00     0.000 C 
BRANCH   4   5
ATOM      5  C   UNL     1     -10.631 -15.149  26.230  1.00  0.00     0.000 C 
BRANCH   5   6
ATOM      6  C   UNL     1     -10.694 -15.955  27.539  1.00  0.00     0.000 C 
BRANCH   6   7
ATOM      7  C   UNL     1     -11.917 -16.885  27.679  1.00  0.00     0.000 C 
BRANCH   7   8
ATOM      8  C   UNL     1     -12.977 -16.428  28.697  1.00  0.00     0.000 C 
BRANCH   8   9
ATOM      9  C   UNL     1     -13.126 -17.398  29.882  1.00  0.00     0.000 C 
BRANCH   9  10
ATOM     10  C   UNL     1     -12.392 -16.900  31.139  1.00  0.00     0.006 C 
BRANCH  10  11
ATOM     11  C   UNL     1     -11.474 -17.974  31.743  1.00  0.00     0.053 C 
BRANCH  11  12
ATOM     12  C   UNL     1     -10.209 -18.095  30.951  1.00  0.00     0.041 C 
ATOM     13  O   UNL     1     -10.067 -19.030  30.119  1.00  0.00    -0.550 OA
ATOM     14  O   UNL     1      -9.185 -17.172  31.132  1.00  0.00    -0.550 OA
ENDBRANCH  11  12
ENDBRANCH  10  11
ENDBRANCH   9  10
ENDBRANCH   8   9
ENDBRANCH   7   8
ENDBRANCH   6   7
ENDBRANCH   5   6
ENDBRANCH   4   5
ENDBRANCH   3   4
ENDBRANCH   2   3
ENDBRANCH   1   2
BRANCH   1  15
ATOM     15  C   UNL     1      -7.071 -14.272  29.205  1.00  0.00     0.000 C 
BRANCH  15  16
ATOM     16  C   UNL     1      -6.542 -14.773  30.563  1.00  0.00     0.000 C 
BRANCH  16  17
ATOM     17  C   UNL     1      -6.730 -13.792  31.736  1.00  0.00     0.000 C 
BRANCH  17  18
ATOM     18  C   UNL     1      -6.395 -12.340  31.361  1.00  0.00    -0.000 C 
BRANCH  18  19
ATOM     19  C   UNL     1      -5.181 -11.831  32.153  1.00  0.00    -0.000 C 
BRANCH  19  20
ATOM     20  C   UNL     1      -4.085 -11.251  31.235  1.00  0.00    -0.000 C 
BRANCH  20  21
ATOM     21  C   UNL     1      -4.147 -11.775  29.789  1.00  0.00    -0.000 C 
BRANCH  21  22
ATOM     22  C   UNL     1      -2.760 -11.937  29.154  1.00  0.00    -0.000 C 
BRANCH  22  23
ATOM     23  C   UNL     1      -2.095 -13.249  29.602  1.00  0.00    -0.000 C 
BRANCH  23  24
ATOM     24  C   UNL     1      -2.918 -14.496  29.226  1.00  0.00    -0.000 C 
BRANCH  24  25
ATOM     25  C   UNL     1      -2.362 -15.308  28.042  1.00  0.00    -0.003 C 
ATOM     26  C   UNL     1      -2.558 -14.613  26.696  1.00  0.00     0.004 C 
ENDBRANCH  24  25
ENDBRANCH  23  24
ENDBRANCH  22  23
ENDBRANCH  21  22
ENDBRANCH  20  21
ENDBRANCH  19  20
ENDBRANCH  18  19
ENDBRANCH  17  18
ENDBRANCH  16  17
ENDBRANCH  15  16
ENDBRANCH   1  15
TORSDOF 22
ENDMDL
MODEL 8
REMARK VINA RESULT:    -5.301      2.040      5.830
REMARK INTER + INTRA:         -14.921
REMARK INTER:                 -12.223
REMARK INTRA:                  -2.698
REMARK UNBOUND:                -2.802
REMARK SMILES CCCCCCCCCCCCCCCCCCCCCCCC(=O)[O-]
REMARK SMILES IDX 13 1 14 2 15 3 16 4 17 5 18 6 19 7 20 8 21 9 22 10 23 11
REMARK SMILES IDX 24 12 25 13 26 14 12 15 11 16 10 17 9 18 8 19 7 20 6 21 5 22
REMARK SMILES IDX 4 23 3 24 2 25 1 26
REMARK H PARENT
REMARK Flexibility Score: inf
ROOT
ATOM      1  C   UNL     1     -12.205 -16.814  28.570  1.00  0.00     0.000 C 
ENDROOT
BRANCH   1   2
ATOM      2  C   UNL     1     -11.991 -16.006  27.272  1.00  0.00     0.000 C 
BRANCH   2   3
ATOM      3  C   UNL     1     -10.500 -15.794  26.951  1.00  0.00     0.000 C 
BRANCH   3   4
ATOM      4  C   UNL     1     -10.275 -14.690  25.903  1.00  0.00     0.000 C 
BRANCH   4   5
ATOM      5  C   UNL     1      -8.806 -14.238  25.834  1.00  0.00     0.000 C 
BRANCH   5   6
ATOM      6  C   UNL     1      -7.865 -15.131  26.661  1.00  0.00     0.000 C 
BRANCH   6   7
ATOM      7  C   UNL     1      -6.492 -14.511  26.989  1.00  0.00     0.000 C 
BRANCH   7   8
ATOM      8  C   UNL     1      -6.321 -14.024  28.440  1.00  0.00     0.000 C 
BRANCH   8   9
ATOM      9  C   UNL     1      -5.016 -14.521  29.087  1.00  0.00     0.000 C 
BRANCH   9  10
ATOM     10  C   UNL     1      -3.768 -13.899  28.437  1.00  0.00     0.006 C 
BRANCH  10  11
ATOM     11  C   UNL     1      -2.532 -13.989  29.344  1.00  0.00     0.053 C 
BRANCH  11  12
ATOM     12  C   UNL     1      -2.112 -12.627  29.803  1.00  0.00     0.041 C 
ATOM     13  O   UNL     1      -2.318 -12.267  30.992  1.00  0.00    -0.550 OA
ATOM     14  O   UNL     1      -1.491 -11.755  28.916  1.00  0.00    -0.550 OA
ENDBRANCH  11  12
ENDBRANCH  10  11
ENDBRANCH   9  10
ENDBRANCH   8   9
ENDBRANCH   7   8
ENDBRANCH   6   7
ENDBRANCH   5   6
ENDBRANCH   4   5
ENDBRANCH   3   4
ENDBRANCH   2   3
ENDBRANCH   1   2
BRANCH   1  15
ATOM     15  C   UNL     1     -11.619 -18.239  28.520  1.00  0.00     0.000 C 
BRANCH  15  16
ATOM     16  C   UNL     1     -10.799 -18.650  29.756  1.00  0.00     0.000 C 
BRANCH  16  17
ATOM     17  C   UNL     1     -11.574 -18.630  31.088  1.00  0.00     0.000 C 
BRANCH  17  18
ATOM     18  C   UNL     1     -10.680 -18.316  32.296  1.00  0.00    -0.000 C 
BRANCH  18  19
ATOM     19  C   UNL     1      -9.616 -17.267  31.939  1.00  0.00    -0.000 C 
BRANCH  19  20
ATOM     20  C   UNL     1     -10.197 -15.838  31.889  1.00  0.00    -0.000 C 
BRANCH  20  21
ATOM     21  C   UNL     1      -9.150 -14.755  31.572  1.00  0.00    -0.000 C 
BRANCH  21  22
ATOM     22  C   UNL     1      -7.717 -15.303  31.541  1.00  0.00    -0.000 C 
BRANCH  22  23
ATOM     23  C   UNL     1      -6.764 -14.408  32.350  1.00  0.00    -0.000 C 
BRANCH  23  24
ATOM     24  C   UNL     1      -7.065 -12.907  32.181  1.00  0.00    -0.000 C 
BRANCH  24  25
ATOM     25  C   UNL     1      -5.824 -11.999  32.112  1.00  0.00    -0.003 C 
ATOM     26  C   UNL     1      -5.722 -11.224  30.799  1.00  0.00     0.004 C 
ENDBRANCH  24  25
ENDBRANCH  23  24
ENDBRANCH  22  23
ENDBRANCH  21  22
ENDBRANCH  20  21
ENDBRANCH  19  20
ENDBRANCH  18  19
ENDBRANCH  17  18
ENDBRANCH  16  17
ENDBRANCH  15  16
ENDBRANCH   1  15
TORSDOF 22
ENDMDL
MODEL 9
REMARK VINA RESULT:    -5.286      1.161      3.100
REMARK INTER + INTRA:         -14.886
REMARK INTER:                 -12.613
REMARK INTRA:                  -2.273
REMARK UNBOUND:                -2.802
REMARK SMILES CCCCCCCCCCCCCCCCCCCCCCCC(=O)[O-]
REMARK SMILES IDX 13 1 14 2 15 3 16 4 17 5 18 6 19 7 20 8 21 9 22 10 23 11
REMARK SMILES IDX 24 12 25 13 26 14 12 15 11 16 10 17 9 18 8 19 7 20 6 21 5 22
REMARK SMILES IDX 4 23 3 24 2 25 1 26
REMARK H PARENT
REMARK Flexibility Score: inf
ROOT
ATOM      1  C   UNL     1      -7.204 -14.899  26.627  1.00  0.00     0.000 C 
ENDROOT
BRANCH   1   2
ATOM      2  C   UNL     1      -8.174 -13.925  25.924  1.00  0.00     0.000 C 
BRANCH   2   3
ATOM      3  C   UNL     1      -9.532 -14.575  25.606  1.00  0.00     0.000 C 
BRANCH   3   4
ATOM      4  C   UNL     1     -10.130 -15.313  26.817  1.00  0.00     0.000 C 
BRANCH   4   5
ATOM      5  C   UNL     1     -11.614 -15.666  26.614  1.00  0.00     0.000 C 
BRANCH   5   6
ATOM      6  C   UNL     1     -12.114 -16.737  27.599  1.00  0.00     0.000 C 
BRANCH   6   7
ATOM      7  C   UNL     1     -12.194 -16.288  29.072  1.00  0.00     0.000 C 
BRANCH   7   8
ATOM      8  C   UNL     1     -12.295 -17.428  30.102  1.00  0.00     0.000 C 
BRANCH   8   9
ATOM      9  C   UNL     1     -11.524 -18.689  29.675  1.00  0.00     0.000 C 
BRANCH   9  10
ATOM     10  C   UNL     1     -10.178 -18.825  30.408  1.00  0.00     0.006 C 
BRANCH  10  11
ATOM     11  C   UNL     1     -10.199 -18.168  31.795  1.00  0.00     0.053 C 
BRANCH  11  12
ATOM     12  C   UNL     1      -9.166 -17.088  31.885  1.00  0.00     0.041 C 
ATOM     13  O   UNL     1      -7.993 -17.360  32.255  1.00  0.00    -0.550 OA
ATOM     14  O   UNL     1      -9.499 -15.778  31.559  1.00  0.00    -0.550 OA
ENDBRANCH  11  12
ENDBRANCH  10  11
ENDBRANCH   9  10
ENDBRANCH   8   9
ENDBRANCH   7   8
ENDBRANCH   6   7
ENDBRANCH   5   6
ENDBRANCH   4   5
ENDBRANCH   3   4
ENDBRANCH   2   3
ENDBRANCH   1   2
BRANCH   1  15
ATOM     15  C   UNL     1      -6.008 -14.205  27.306  1.00  0.00     0.000 C 
BRANCH  15  16
ATOM     16  C   UNL     1      -5.848 -14.504  28.808  1.00  0.00     0.000 C 
BRANCH  16  17
ATOM     17  C   UNL     1      -6.798 -13.718  29.732  1.00  0.00     0.000 C 
BRANCH  17  18
ATOM     18  C   UNL     1      -6.539 -13.985  31.222  1.00  0.00    -0.000 C 
BRANCH  18  19
ATOM     19  C   UNL     1      -6.903 -12.759  32.075  1.00  0.00    -0.000 C 
BRANCH  19  20
ATOM     20  C   UNL     1      -6.041 -11.527  31.725  1.00  0.00    -0.000 C 
BRANCH  20  21
ATOM     21  C   UNL     1      -4.734 -11.437  32.532  1.00  0.00    -0.000 C 
BRANCH  21  22
ATOM     22  C   UNL     1      -3.510 -11.144  31.653  1.00  0.00    -0.000 C 
BRANCH  22  23
ATOM     23  C   UNL     1      -3.465 -12.082  30.436  1.00  0.00    -0.000 C 
BRANCH  23  24
ATOM     24  C   UNL     1      -2.162 -11.948  29.625  1.00  0.00    -0.000 C 
BRANCH  24  25
ATOM     25  C   UNL     1      -1.361 -13.252  29.461  1.00  0.00    -0.003 C 
ATOM     26  C   UNL     1      -2.252 -14.482  29.286  1.00  0.00     0.004 C 
ENDBRANCH  24  25
ENDBRANCH  23  24
ENDBRANCH  22  23
ENDBRANCH  21  22
ENDBRANCH  20  21
ENDBRANCH  19  20
ENDBRANCH  18  19
ENDBRANCH  17  18
ENDBRANCH  16  17
ENDBRANCH  15  16
ENDBRANCH   1  15
TORSDOF 22
ENDMDL
