MODEL 1
REMARK VINA RESULT:    -6.807      0.000      0.000
REMARK INTER + INTRA:          -8.401
REMARK INTER:                  -8.200
REMARK INTRA:                  -0.201
REMARK UNBOUND:                -0.201
REMARK SMILES O=c1c(O)c(-c2ccc(O)c(O)c2)oc2cc(O)cc(O)c12
REMARK SMILES IDX 5 1 3 2 2 3 1 4 22 5 20 6 19 7 17 8 16 9 15 10 14 11 6 12
REMARK SMILES IDX 7 13 8 14 9 15 13 16 11 17 10 18 12 20 4 22 21 24 18 26
REMARK H PARENT 10 19 12 21 4 23 21 25 18 27
REMARK Flexibility Score: inf
ROOT
ATOM      1  C   UNL     1     133.085   3.613  94.190  1.00  0.00     0.180 A 
ATOM      2  C   UNL     1     132.121   3.576  93.163  1.00  0.00     0.208 A 
ATOM      3  C   UNL     1     131.369   4.731  92.896  1.00  0.00     0.238 A 
ATOM      4  O   UNL     1     130.511   4.712  91.973  1.00  0.00    -0.285 OA
ATOM      5  C   UNL     1     131.578   5.892  93.669  1.00  0.00     0.111 A 
ATOM      6  C   UNL     1     130.859   7.095  93.466  1.00  0.00     0.134 A 
ATOM      7  C   UNL     1     131.119   8.206  94.284  1.00  0.00     0.093 A 
ATOM      8  C   UNL     1     132.079   8.137  95.296  1.00  0.00     0.123 A 
ATOM      9  C   UNL     1     132.792   6.952  95.499  1.00  0.00     0.094 A 
ATOM     10  C   UNL     1     132.550   5.834  94.695  1.00  0.00     0.146 A 
ATOM     11  O   UNL     1     133.244   4.722  94.907  1.00  0.00    -0.452 OA
ENDROOT
BRANCH   1  12
ATOM     12  C   UNL     1     133.930   2.443  94.519  1.00  0.00     0.025 A 
ATOM     13  C   UNL     1     133.381   1.279  95.086  1.00  0.00     0.016 A 
ATOM     14  C   UNL     1     134.195   0.179  95.365  1.00  0.00     0.051 A 
ATOM     15  C   UNL     1     135.565   0.219  95.072  1.00  0.00     0.157 A 
ATOM     16  C   UNL     1     135.299   2.470  94.207  1.00  0.00     0.062 A 
ATOM     17  C   UNL     1     136.118   1.370  94.486  1.00  0.00     0.158 A 
BRANCH  15  18
ATOM     18  O   UNL     1     136.375  -0.881  95.354  1.00  0.00    -0.504 OA
ATOM     19  H   UNL     1     136.320  -1.367  96.242  1.00  0.00     0.293 HD
ENDBRANCH  15  18
BRANCH  17  20
ATOM     20  O   UNL     1     137.475   1.439  94.176  1.00  0.00    -0.504 OA
ATOM     21  H   UNL     1     137.812   1.886  93.331  1.00  0.00     0.293 HD
ENDBRANCH  17  20
ENDBRANCH   1  12
BRANCH   2  22
ATOM     22  O   UNL     1     131.899   2.398  92.446  1.00  0.00    -0.502 OA
ATOM     23  H   UNL     1     131.195   2.328  91.720  1.00  0.00     0.293 HD
ENDBRANCH   2  22
BRANCH   6  24
ATOM     24  O   UNL     1     129.893   7.196  92.465  1.00  0.00    -0.507 OA
ATOM     25  H   UNL     1     129.966   7.880  91.720  1.00  0.00     0.293 HD
ENDBRANCH   6  24
BRANCH   8  26
ATOM     26  O   UNL     1     132.317   9.254  96.094  1.00  0.00    -0.508 OA
ATOM     27  H   UNL     1     131.659   9.546  96.805  1.00  0.00     0.293 HD
ENDBRANCH   8  26
TORSDOF 6
ENDMDL
MODEL 2
REMARK VINA RESULT:    -6.619      1.513      6.730
REMARK INTER + INTRA:          -8.175
REMARK INTER:                  -7.857
REMARK INTRA:                  -0.317
REMARK UNBOUND:                -0.201
REMARK SMILES O=c1c(O)c(-c2ccc(O)c(O)c2)oc2cc(O)cc(O)c12
REMARK SMILES IDX 5 1 3 2 2 3 1 4 22 5 20 6 19 7 17 8 16 9 15 10 14 11 6 12
REMARK SMILES IDX 7 13 8 14 9 15 13 16 11 17 10 18 12 20 4 22 21 24 18 26
REMARK H PARENT 10 19 12 21 4 23 21 25 18 27
REMARK Flexibility Score: inf
ROOT
ATOM      1  C   UNL     1     132.136   4.949  94.385  1.00  0.00     0.180 A 
ATOM      2  C   UNL     1     131.329   3.855  94.016  1.00  0.00     0.208 A 
ATOM      3  C   UNL     1     131.913   2.582  93.924  1.00  0.00     0.238 A 
ATOM      4  O   UNL     1     131.198   1.594  93.604  1.00  0.00    -0.285 OA
ATOM      5  C   UNL     1     133.291   2.427  94.184  1.00  0.00     0.111 A 
ATOM      6  C   UNL     1     133.956   1.179  94.110  1.00  0.00     0.134 A 
ATOM      7  C   UNL     1     135.332   1.109  94.373  1.00  0.00     0.093 A 
ATOM      8  C   UNL     1     136.054   2.257  94.708  1.00  0.00     0.123 A 
ATOM      9  C   UNL     1     135.401   3.491  94.783  1.00  0.00     0.094 A 
ATOM     10  C   UNL     1     134.030   3.583  94.526  1.00  0.00     0.146 A 
ATOM     11  O   UNL     1     133.434   4.767  94.609  1.00  0.00    -0.452 OA
ENDROOT
BRANCH   1  12
ATOM     12  C   UNL     1     131.590   6.319  94.522  1.00  0.00     0.025 A 
ATOM     13  C   UNL     1     131.202   6.831  95.773  1.00  0.00     0.016 A 
ATOM     14  C   UNL     1     130.712   8.135  95.880  1.00  0.00     0.051 A 
ATOM     15  C   UNL     1     130.615   8.951  94.745  1.00  0.00     0.157 A 
ATOM     16  C   UNL     1     131.510   7.148  93.391  1.00  0.00     0.062 A 
ATOM     17  C   UNL     1     131.020   8.454  93.495  1.00  0.00     0.158 A 
BRANCH  15  18
ATOM     18  O   UNL     1     130.124  10.251  94.856  1.00  0.00    -0.504 OA
ATOM     19  H   UNL     1     129.204  10.441  95.236  1.00  0.00     0.293 HD
ENDBRANCH  15  18
BRANCH  17  20
ATOM     20  O   UNL     1     130.942   9.242  92.347  1.00  0.00    -0.504 OA
ATOM     21  H   UNL     1     130.859   8.838  91.422  1.00  0.00     0.293 HD
ENDBRANCH  17  20
ENDBRANCH   1  12
BRANCH   2  22
ATOM     22  O   UNL     1     129.978   4.045  93.715  1.00  0.00    -0.502 OA
ATOM     23  H   UNL     1     129.237   3.776  94.353  1.00  0.00     0.293 HD
ENDBRANCH   2  22
BRANCH   6  24
ATOM     24  O   UNL     1     133.264   0.014  93.777  1.00  0.00    -0.507 OA
ATOM     25  H   UNL     1     132.808  -0.097  92.878  1.00  0.00     0.293 HD
ENDBRANCH   6  24
BRANCH   8  26
ATOM     26  O   UNL     1     137.419   2.160  94.964  1.00  0.00    -0.508 OA
ATOM     27  H   UNL     1     137.921   1.289  94.839  1.00  0.00     0.293 HD
ENDBRANCH   8  26
TORSDOF 6
ENDMDL
MODEL 3
REMARK VINA RESULT:    -6.434      1.576      7.220
REMARK INTER + INTRA:          -7.951
REMARK INTER:                  -8.134
REMARK INTRA:                   0.183
REMARK UNBOUND:                -0.201
REMARK SMILES O=c1c(O)c(-c2ccc(O)c(O)c2)oc2cc(O)cc(O)c12
REMARK SMILES IDX 5 1 3 2 2 3 1 4 22 5 20 6 19 7 17 8 16 9 15 10 14 11 6 12
REMARK SMILES IDX 7 13 8 14 9 15 13 16 11 17 10 18 12 20 4 22 21 24 18 26
REMARK H PARENT 10 19 12 21 4 23 21 25 18 27
REMARK Flexibility Score: inf
ROOT
ATOM      1  C   UNL     1     133.514   4.975  94.495  1.00  0.00     0.180 A 
ATOM      2  C   UNL     1     134.858   5.078  94.905  1.00  0.00     0.208 A 
ATOM      3  C   UNL     1     135.626   3.909  95.013  1.00  0.00     0.238 A 
ATOM      4  O   UNL     1     136.833   3.991  95.369  1.00  0.00    -0.285 OA
ATOM      5  C   UNL     1     135.037   2.659  94.730  1.00  0.00     0.111 A 
ATOM      6  C   UNL     1     135.741   1.434  94.819  1.00  0.00     0.134 A 
ATOM      7  C   UNL     1     135.080   0.230  94.530  1.00  0.00     0.093 A 
ATOM      8  C   UNL     1     133.735   0.227  94.155  1.00  0.00     0.123 A 
ATOM      9  C   UNL     1     133.035   1.435  94.066  1.00  0.00     0.094 A 
ATOM     10  C   UNL     1     133.675   2.645  94.348  1.00  0.00     0.146 A 
ATOM     11  O   UNL     1     132.988   3.778  94.250  1.00  0.00    -0.452 OA
ENDROOT
BRANCH   1  12
ATOM     12  C   UNL     1     132.645   6.163  94.339  1.00  0.00     0.025 A 
ATOM     13  C   UNL     1     131.709   6.254  93.292  1.00  0.00     0.016 A 
ATOM     14  C   UNL     1     130.883   7.374  93.179  1.00  0.00     0.051 A 
ATOM     15  C   UNL     1     130.969   8.415  94.114  1.00  0.00     0.157 A 
ATOM     16  C   UNL     1     132.712   7.199  95.285  1.00  0.00     0.062 A 
ATOM     17  C   UNL     1     131.887   8.323  95.174  1.00  0.00     0.158 A 
BRANCH  15  18
ATOM     18  O   UNL     1     130.144   9.533  93.997  1.00  0.00    -0.504 OA
ATOM     19  H   UNL     1     129.184   9.520  94.321  1.00  0.00     0.293 HD
ENDBRANCH  15  18
BRANCH  17  20
ATOM     20  O   UNL     1     131.992   9.337  96.125  1.00  0.00    -0.504 OA
ATOM     21  H   UNL     1     132.863   9.538  96.603  1.00  0.00     0.293 HD
ENDBRANCH  17  20
ENDBRANCH   1  12
BRANCH   2  22
ATOM     22  O   UNL     1     135.403   6.323  95.227  1.00  0.00    -0.502 OA
ATOM     23  H   UNL     1     135.000   6.925  95.937  1.00  0.00     0.293 HD
ENDBRANCH   2  22
BRANCH   6  24
ATOM     24  O   UNL     1     137.085   1.403  95.191  1.00  0.00    -0.507 OA
ATOM     25  H   UNL     1     137.378   1.073  96.104  1.00  0.00     0.293 HD
ENDBRANCH   6  24
BRANCH   8  26
ATOM     26  O   UNL     1     133.102  -0.982  93.875  1.00  0.00    -0.508 OA
ATOM     27  H   UNL     1     132.341  -1.326  94.446  1.00  0.00     0.293 HD
ENDBRANCH   8  26
TORSDOF 6
ENDMDL
MODEL 4
REMARK VINA RESULT:    -6.434      1.221      2.872
REMARK INTER + INTRA:          -7.951
REMARK INTER:                  -7.743
REMARK INTRA:                  -0.208
REMARK UNBOUND:                -0.201
REMARK SMILES O=c1c(O)c(-c2ccc(O)c(O)c2)oc2cc(O)cc(O)c12
REMARK SMILES IDX 5 1 3 2 2 3 1 4 22 5 20 6 19 7 17 8 16 9 15 10 14 11 6 12
REMARK SMILES IDX 7 13 8 14 9 15 13 16 11 17 10 18 12 20 4 22 21 24 18 26
REMARK H PARENT 10 19 12 21 4 23 21 25 18 27
REMARK Flexibility Score: inf
ROOT
ATOM      1  C   UNL     1     133.424   3.959  94.447  1.00  0.00     0.180 A 
ATOM      2  C   UNL     1     133.761   5.165  95.092  1.00  0.00     0.208 A 
ATOM      3  C   UNL     1     133.015   6.319  94.805  1.00  0.00     0.238 A 
ATOM      4  O   UNL     1     133.302   7.402  95.385  1.00  0.00    -0.285 OA
ATOM      5  C   UNL     1     131.963   6.254  93.869  1.00  0.00     0.111 A 
ATOM      6  C   UNL     1     131.167   7.372  93.522  1.00  0.00     0.134 A 
ATOM      7  C   UNL     1     130.143   7.229  92.573  1.00  0.00     0.093 A 
ATOM      8  C   UNL     1     129.901   5.994  91.967  1.00  0.00     0.123 A 
ATOM      9  C   UNL     1     130.684   4.887  92.307  1.00  0.00     0.094 A 
ATOM     10  C   UNL     1     131.708   5.008  93.251  1.00  0.00     0.146 A 
ATOM     11  O   UNL     1     132.434   3.939  93.559  1.00  0.00    -0.452 OA
ENDROOT
BRANCH   1  12
ATOM     12  C   UNL     1     134.149   2.695  94.710  1.00  0.00     0.025 A 
ATOM     13  C   UNL     1     133.529   1.618  95.368  1.00  0.00     0.016 A 
ATOM     14  C   UNL     1     134.227   0.427  95.584  1.00  0.00     0.051 A 
ATOM     15  C   UNL     1     135.548   0.289  95.136  1.00  0.00     0.157 A 
ATOM     16  C   UNL     1     135.466   2.544  94.245  1.00  0.00     0.062 A 
ATOM     17  C   UNL     1     136.168   1.353  94.460  1.00  0.00     0.158 A 
BRANCH  15  18
ATOM     18  O   UNL     1     136.241  -0.900  95.355  1.00  0.00    -0.504 OA
ATOM     19  H   UNL     1     136.546  -1.486  94.586  1.00  0.00     0.293 HD
ENDBRANCH  15  18
BRANCH  17  20
ATOM     20  O   UNL     1     137.478   1.246  93.995  1.00  0.00    -0.504 OA
ATOM     21  H   UNL     1     137.790   1.713  93.152  1.00  0.00     0.293 HD
ENDBRANCH  17  20
ENDBRANCH   1  12
BRANCH   2  22
ATOM     22  O   UNL     1     134.840   5.213  95.978  1.00  0.00    -0.502 OA
ATOM     23  H   UNL     1     134.842   4.712  96.859  1.00  0.00     0.293 HD
ENDBRANCH   2  22
BRANCH   6  24
ATOM     24  O   UNL     1     131.384   8.620  94.108  1.00  0.00    -0.507 OA
ATOM     25  H   UNL     1     132.076   9.266  93.746  1.00  0.00     0.293 HD
ENDBRANCH   6  24
BRANCH   8  26
ATOM     26  O   UNL     1     128.879   5.879  91.027  1.00  0.00    -0.508 OA
ATOM     27  H   UNL     1     127.915   5.746  91.307  1.00  0.00     0.293 HD
ENDBRANCH   8  26
TORSDOF 6
ENDMDL
MODEL 5
REMARK VINA RESULT:    -6.392      3.435      5.408
REMARK INTER + INTRA:          -7.901
REMARK INTER:                  -7.579
REMARK INTRA:                  -0.322
REMARK UNBOUND:                -0.201
REMARK SMILES O=c1c(O)c(-c2ccc(O)c(O)c2)oc2cc(O)cc(O)c12
REMARK SMILES IDX 5 1 3 2 2 3 1 4 22 5 20 6 19 7 17 8 16 9 15 10 14 11 6 12
REMARK SMILES IDX 7 13 8 14 9 15 13 16 11 17 10 18 12 20 4 22 21 24 18 26
REMARK H PARENT 10 19 12 21 4 23 21 25 18 27
REMARK Flexibility Score: inf
ROOT
ATOM      1  C   UNL     1     132.580   1.143  92.648  1.00  0.00     0.180 A 
ATOM      2  C   UNL     1     131.725   2.190  93.043  1.00  0.00     0.208 A 
ATOM      3  C   UNL     1     132.231   3.201  93.875  1.00  0.00     0.238 A 
ATOM      4  O   UNL     1     131.477   4.149  94.226  1.00  0.00    -0.285 OA
ATOM      5  C   UNL     1     133.570   3.140  94.311  1.00  0.00     0.111 A 
ATOM      6  C   UNL     1     134.155   4.116  95.153  1.00  0.00     0.134 A 
ATOM      7  C   UNL     1     135.494   3.978  95.552  1.00  0.00     0.093 A 
ATOM      8  C   UNL     1     136.255   2.887  95.127  1.00  0.00     0.123 A 
ATOM      9  C   UNL     1     135.682   1.920  94.295  1.00  0.00     0.094 A 
ATOM     10  C   UNL     1     134.351   2.040  93.885  1.00  0.00     0.146 A 
ATOM     11  O   UNL     1     133.833   1.110  93.091  1.00  0.00    -0.452 OA
ENDROOT
BRANCH   1  12
ATOM     12  C   UNL     1     132.126   0.050  91.757  1.00  0.00     0.025 A 
ATOM     13  C   UNL     1     131.488  -1.094  92.268  1.00  0.00     0.016 A 
ATOM     14  C   UNL     1     131.048  -2.101  91.406  1.00  0.00     0.051 A 
ATOM     15  C   UNL     1     131.227  -1.976  90.022  1.00  0.00     0.157 A 
ATOM     16  C   UNL     1     132.284   0.180  90.368  1.00  0.00     0.062 A 
ATOM     17  C   UNL     1     131.845  -0.827  89.501  1.00  0.00     0.158 A 
BRANCH  15  18
ATOM     18  O   UNL     1     130.787  -2.984  89.164  1.00  0.00    -0.504 OA
ATOM     19  H   UNL     1     131.110  -3.940  89.259  1.00  0.00     0.293 HD
ENDBRANCH  15  18
BRANCH  17  20
ATOM     20  O   UNL     1     132.032  -0.669  88.129  1.00  0.00    -0.504 OA
ATOM     21  H   UNL     1     132.943  -0.763  87.695  1.00  0.00     0.293 HD
ENDBRANCH  17  20
ENDBRANCH   1  12
BRANCH   2  22
ATOM     22  O   UNL     1     130.388   2.201  92.637  1.00  0.00    -0.502 OA
ATOM     23  H   UNL     1     130.097   2.566  91.738  1.00  0.00     0.293 HD
ENDBRANCH   2  22
BRANCH   6  24
ATOM     24  O   UNL     1     133.421   5.217  95.595  1.00  0.00    -0.507 OA
ATOM     25  H   UNL     1     132.838   5.171  96.423  1.00  0.00     0.293 HD
ENDBRANCH   6  24
BRANCH   8  26
ATOM     26  O   UNL     1     137.582   2.774  95.538  1.00  0.00    -0.508 OA
ATOM     27  H   UNL     1     138.164   3.590  95.679  1.00  0.00     0.293 HD
ENDBRANCH   8  26
TORSDOF 6
ENDMDL
MODEL 6
REMARK VINA RESULT:    -6.119      2.871      4.507
REMARK INTER + INTRA:          -7.572
REMARK INTER:                  -7.331
REMARK INTRA:                  -0.241
REMARK UNBOUND:                -0.201
REMARK SMILES O=c1c(O)c(-c2ccc(O)c(O)c2)oc2cc(O)cc(O)c12
REMARK SMILES IDX 5 1 3 2 2 3 1 4 22 5 20 6 19 7 17 8 16 9 15 10 14 11 6 12
REMARK SMILES IDX 7 13 8 14 9 15 13 16 11 17 10 18 12 20 4 22 21 24 18 26
REMARK H PARENT 10 19 12 21 4 23 21 25 18 27
REMARK Flexibility Score: inf
ROOT
ATOM      1  C   UNL     1     133.232   2.041  93.138  1.00  0.00     0.180 A 
ATOM      2  C   UNL     1     134.448   1.949  93.844  1.00  0.00     0.208 A 
ATOM      3  C   UNL     1     134.942   3.090  94.496  1.00  0.00     0.238 A 
ATOM      4  O   UNL     1     136.023   3.016  95.140  1.00  0.00    -0.285 OA
ATOM      5  C   UNL     1     134.227   4.303  94.415  1.00  0.00     0.111 A 
ATOM      6  C   UNL     1     134.659   5.498  95.039  1.00  0.00     0.134 A 
ATOM      7  C   UNL     1     133.895   6.668  94.904  1.00  0.00     0.093 A 
ATOM      8  C   UNL     1     132.714   6.666  94.159  1.00  0.00     0.123 A 
ATOM      9  C   UNL     1     132.283   5.488  93.541  1.00  0.00     0.094 A 
ATOM     10  C   UNL     1     133.027   4.312  93.665  1.00  0.00     0.146 A 
ATOM     11  O   UNL     1     132.593   3.206  93.072  1.00  0.00    -0.452 OA
ENDROOT
BRANCH   1  12
ATOM     12  C   UNL     1     132.636   0.878  92.441  1.00  0.00     0.025 A 
ATOM     13  C   UNL     1     132.095  -0.205  93.156  1.00  0.00     0.016 A 
ATOM     14  C   UNL     1     131.516  -1.280  92.477  1.00  0.00     0.051 A 
ATOM     15  C   UNL     1     131.459  -1.285  91.077  1.00  0.00     0.157 A 
ATOM     16  C   UNL     1     132.557   0.878  91.039  1.00  0.00     0.062 A 
ATOM     17  C   UNL     1     131.979  -0.197  90.356  1.00  0.00     0.158 A 
BRANCH  15  18
ATOM     18  O   UNL     1     130.882  -2.360  90.403  1.00  0.00    -0.504 OA
ATOM     19  H   UNL     1     129.923  -2.641  90.573  1.00  0.00     0.293 HD
ENDBRANCH  15  18
BRANCH  17  20
ATOM     20  O   UNL     1     131.931  -0.168  88.963  1.00  0.00    -0.504 OA
ATOM     21  H   UNL     1     131.084  -0.377  88.449  1.00  0.00     0.293 HD
ENDBRANCH  17  20
ENDBRANCH   1  12
BRANCH   2  22
ATOM     22  O   UNL     1     135.161   0.749  93.867  1.00  0.00    -0.502 OA
ATOM     23  H   UNL     1     134.896  -0.051  93.302  1.00  0.00     0.293 HD
ENDBRANCH   2  22
BRANCH   6  24
ATOM     24  O   UNL     1     135.835   5.533  95.789  1.00  0.00    -0.507 OA
ATOM     25  H   UNL     1     136.639   4.966  95.546  1.00  0.00     0.293 HD
ENDBRANCH   6  24
BRANCH   8  26
ATOM     26  O   UNL     1     131.975   7.841  94.040  1.00  0.00    -0.508 OA
ATOM     27  H   UNL     1     131.186   7.909  93.409  1.00  0.00     0.293 HD
ENDBRANCH   8  26
TORSDOF 6
ENDMDL
MODEL 7
REMARK VINA RESULT:    -6.024      3.316      6.346
REMARK INTER + INTRA:          -7.457
REMARK INTER:                  -7.343
REMARK INTRA:                  -0.114
REMARK UNBOUND:                -0.201
REMARK SMILES O=c1c(O)c(-c2ccc(O)c(O)c2)oc2cc(O)cc(O)c12
REMARK SMILES IDX 5 1 3 2 2 3 1 4 22 5 20 6 19 7 17 8 16 9 15 10 14 11 6 12
REMARK SMILES IDX 7 13 8 14 9 15 13 16 11 17 10 18 12 20 4 22 21 24 18 26
REMARK H PARENT 10 19 12 21 4 23 21 25 18 27
REMARK Flexibility Score: inf
ROOT
ATOM      1  C   UNL     1     133.647   1.188  93.430  1.00  0.00     0.180 A 
ATOM      2  C   UNL     1     133.379  -0.105  93.921  1.00  0.00     0.208 A 
ATOM      3  C   UNL     1     132.542  -0.952  93.178  1.00  0.00     0.238 A 
ATOM      4  O   UNL     1     132.304  -2.116  93.603  1.00  0.00    -0.285 OA
ATOM      5  C   UNL     1     131.973  -0.489  91.974  1.00  0.00     0.111 A 
ATOM      6  C   UNL     1     131.116  -1.278  91.170  1.00  0.00     0.134 A 
ATOM      7  C   UNL     1     130.581  -0.741  89.988  1.00  0.00     0.093 A 
ATOM      8  C   UNL     1     130.885   0.565  89.598  1.00  0.00     0.123 A 
ATOM      9  C   UNL     1     131.731   1.349  90.389  1.00  0.00     0.094 A 
ATOM     10  C   UNL     1     132.276   0.832  91.568  1.00  0.00     0.146 A 
ATOM     11  O   UNL     1     133.080   1.596  92.298  1.00  0.00    -0.452 OA
ENDROOT
BRANCH   1  12
ATOM     12  C   UNL     1     134.535   2.134  94.145  1.00  0.00     0.025 A 
ATOM     13  C   UNL     1     135.868   1.801  94.446  1.00  0.00     0.016 A 
ATOM     14  C   UNL     1     136.693   2.719  95.100  1.00  0.00     0.051 A 
ATOM     15  C   UNL     1     136.205   3.984  95.453  1.00  0.00     0.157 A 
ATOM     16  C   UNL     1     134.057   3.411  94.482  1.00  0.00     0.062 A 
ATOM     17  C   UNL     1     134.881   4.332  95.138  1.00  0.00     0.158 A 
BRANCH  15  18
ATOM     18  O   UNL     1     137.032   4.897  96.107  1.00  0.00    -0.504 OA
ATOM     19  H   UNL     1     137.665   5.501  95.596  1.00  0.00     0.293 HD
ENDBRANCH  15  18
BRANCH  17  20
ATOM     20  O   UNL     1     134.367   5.585  95.469  1.00  0.00    -0.504 OA
ATOM     21  H   UNL     1     133.447   5.885  95.170  1.00  0.00     0.293 HD
ENDBRANCH  17  20
ENDBRANCH   1  12
BRANCH   2  22
ATOM     22  O   UNL     1     133.916  -0.521  95.141  1.00  0.00    -0.502 OA
ATOM     23  H   UNL     1     134.482   0.088  95.721  1.00  0.00     0.293 HD
ENDBRANCH   2  22
BRANCH   6  24
ATOM     24  O   UNL     1     130.792  -2.586  91.533  1.00  0.00    -0.507 OA
ATOM     25  H   UNL     1     130.171  -2.786  92.309  1.00  0.00     0.293 HD
ENDBRANCH   6  24
BRANCH   8  26
ATOM     26  O   UNL     1     130.340   1.075  88.422  1.00  0.00    -0.508 OA
ATOM     27  H   UNL     1     129.395   0.850  88.135  1.00  0.00     0.293 HD
ENDBRANCH   8  26
TORSDOF 6
ENDMDL
MODEL 8
REMARK VINA RESULT:    -5.967      2.924      3.969
REMARK INTER + INTRA:          -7.388
REMARK INTER:                  -7.063
REMARK INTRA:                  -0.325
REMARK UNBOUND:                -0.201
REMARK SMILES O=c1c(O)c(-c2ccc(O)c(O)c2)oc2cc(O)cc(O)c12
REMARK SMILES IDX 5 1 3 2 2 3 1 4 22 5 20 6 19 7 17 8 16 9 15 10 14 11 6 12
REMARK SMILES IDX 7 13 8 14 9 15 13 16 11 17 10 18 12 20 4 22 21 24 18 26
REMARK H PARENT 10 19 12 21 4 23 21 25 18 27
REMARK Flexibility Score: inf
ROOT
ATOM      1  C   UNL     1     132.174   2.726  92.598  1.00  0.00     0.180 A 
ATOM      2  C   UNL     1     131.127   3.668  92.567  1.00  0.00     0.208 A 
ATOM      3  C   UNL     1     131.340   4.937  93.128  1.00  0.00     0.238 A 
ATOM      4  O   UNL     1     130.413   5.791  93.097  1.00  0.00    -0.285 OA
ATOM      5  C   UNL     1     132.582   5.235  93.726  1.00  0.00     0.111 A 
ATOM      6  C   UNL     1     132.875   6.488  94.316  1.00  0.00     0.134 A 
ATOM      7  C   UNL     1     134.133   6.705  94.899  1.00  0.00     0.093 A 
ATOM      8  C   UNL     1     135.100   5.697  94.903  1.00  0.00     0.123 A 
ATOM      9  C   UNL     1     134.815   4.458  94.321  1.00  0.00     0.094 A 
ATOM     10  C   UNL     1     133.569   4.222  93.733  1.00  0.00     0.146 A 
ATOM     11  O   UNL     1     133.327   3.038  93.182  1.00  0.00    -0.452 OA
ENDROOT
BRANCH   1  12
ATOM     12  C   UNL     1     132.034   1.374  92.010  1.00  0.00     0.025 A 
ATOM     13  C   UNL     1     131.523   0.299  92.759  1.00  0.00     0.016 A 
ATOM     14  C   UNL     1     131.378  -0.962  92.176  1.00  0.00     0.051 A 
ATOM     15  C   UNL     1     131.729  -1.166  90.834  1.00  0.00     0.157 A 
ATOM     16  C   UNL     1     132.364   1.169  90.660  1.00  0.00     0.062 A 
ATOM     17  C   UNL     1     132.220  -0.093  90.073  1.00  0.00     0.158 A 
BRANCH  15  18
ATOM     18  O   UNL     1     131.584  -2.427  90.256  1.00  0.00    -0.504 OA
ATOM     19  H   UNL     1     132.357  -3.080  90.207  1.00  0.00     0.293 HD
ENDBRANCH  15  18
BRANCH  17  20
ATOM     20  O   UNL     1     132.571  -0.261  88.734  1.00  0.00    -0.504 OA
ATOM     21  H   UNL     1     131.902  -0.139  87.983  1.00  0.00     0.293 HD
ENDBRANCH  17  20
ENDBRANCH   1  12
BRANCH   2  22
ATOM     22  O   UNL     1     129.890   3.330  92.014  1.00  0.00    -0.502 OA
ATOM     23  H   UNL     1     129.775   3.117  91.029  1.00  0.00     0.293 HD
ENDBRANCH   2  22
BRANCH   6  24
ATOM     24  O   UNL     1     131.930   7.515  94.330  1.00  0.00    -0.507 OA
ATOM     25  H   UNL     1     131.587   7.913  95.197  1.00  0.00     0.293 HD
ENDBRANCH   6  24
BRANCH   8  26
ATOM     26  O   UNL     1     136.340   5.937  95.489  1.00  0.00    -0.508 OA
ATOM     27  H   UNL     1     137.111   6.322  94.958  1.00  0.00     0.293 HD
ENDBRANCH   8  26
TORSDOF 6
ENDMDL
MODEL 9
REMARK VINA RESULT:    -5.767      2.828      6.775
REMARK INTER + INTRA:          -7.148
REMARK INTER:                  -6.834
REMARK INTRA:                  -0.314
REMARK UNBOUND:                -0.201
REMARK SMILES O=c1c(O)c(-c2ccc(O)c(O)c2)oc2cc(O)cc(O)c12
REMARK SMILES IDX 5 1 3 2 2 3 1 4 22 5 20 6 19 7 17 8 16 9 15 10 14 11 6 12
REMARK SMILES IDX 7 13 8 14 9 15 13 16 11 17 10 18 12 20 4 22 21 24 18 26
REMARK H PARENT 10 19 12 21 4 23 21 25 18 27
REMARK Flexibility Score: inf
ROOT
ATOM      1  C   UNL     1     132.444   3.190  93.394  1.00  0.00     0.180 A 
ATOM      2  C   UNL     1     132.848   1.993  94.019  1.00  0.00     0.208 A 
ATOM      3  C   UNL     1     132.681   0.780  93.332  1.00  0.00     0.238 A 
ATOM      4  O   UNL     1     133.049  -0.296  93.878  1.00  0.00    -0.285 OA
ATOM      5  C   UNL     1     132.099   0.780  92.048  1.00  0.00     0.111 A 
ATOM      6  C   UNL     1     131.893  -0.399  91.292  1.00  0.00     0.134 A 
ATOM      7  C   UNL     1     131.298  -0.317  90.023  1.00  0.00     0.093 A 
ATOM      8  C   UNL     1     130.906   0.917  89.499  1.00  0.00     0.123 A 
ATOM      9  C   UNL     1     131.108   2.085  90.242  1.00  0.00     0.094 A 
ATOM     10  C   UNL     1     131.701   2.025  91.506  1.00  0.00     0.146 A 
ATOM     11  O   UNL     1     131.885   3.149  92.188  1.00  0.00    -0.452 OA
ENDROOT
BRANCH   1  12
ATOM     12  C   UNL     1     132.604   4.510  94.045  1.00  0.00     0.025 A 
ATOM     13  C   UNL     1     133.838   5.184  94.040  1.00  0.00     0.016 A 
ATOM     14  C   UNL     1     133.959   6.440  94.640  1.00  0.00     0.051 A 
ATOM     15  C   UNL     1     132.848   7.047  95.241  1.00  0.00     0.157 A 
ATOM     16  C   UNL     1     131.489   5.132  94.630  1.00  0.00     0.062 A 
ATOM     17  C   UNL     1     131.606   6.390  95.232  1.00  0.00     0.158 A 
BRANCH  15  18
ATOM     18  O   UNL     1     132.973   8.300  95.840  1.00  0.00    -0.504 OA
ATOM     19  H   UNL     1     132.519   8.515  96.720  1.00  0.00     0.293 HD
ENDBRANCH  15  18
BRANCH  17  20
ATOM     20  O   UNL     1     130.480   6.970  95.815  1.00  0.00    -0.504 OA
ATOM     21  H   UNL     1     129.561   6.549  95.745  1.00  0.00     0.293 HD
ENDBRANCH  17  20
ENDBRANCH   1  12
BRANCH   2  22
ATOM     22  O   UNL     1     133.376   2.016  95.311  1.00  0.00    -0.502 OA
ATOM     23  H   UNL     1     132.792   2.104  96.135  1.00  0.00     0.293 HD
ENDBRANCH   2  22
BRANCH   6  24
ATOM     24  O   UNL     1     132.272  -1.647  91.789  1.00  0.00    -0.507 OA
ATOM     25  H   UNL     1     133.246  -1.924  91.848  1.00  0.00     0.293 HD
ENDBRANCH   6  24
BRANCH   8  26
ATOM     26  O   UNL     1     130.317   0.971  88.238  1.00  0.00    -0.508 OA
ATOM     27  H   UNL     1     129.333   1.179  88.122  1.00  0.00     0.293 HD
ENDBRANCH   8  26
TORSDOF 6
ENDMDL
