MODEL 1
REMARK VINA RESULT:    -3.825      0.000      0.000
REMARK INTER + INTRA:          -8.055
REMARK INTER:                  -6.955
REMARK INTRA:                  -1.099
REMARK UNBOUND:                -1.099
REMARK SMILES CCCCCCCCCCCCCCCC(=O)[O-]
REMARK SMILES IDX 9 1 10 2 11 3 12 4 13 5 14 6 15 7 16 8 17 9 18 10 8 11 7 12
REMARK SMILES IDX 6 13 5 14 4 15 3 16 2 17 1 18
REMARK H PARENT
REMARK Flexibility Score: inf
ROOT
ATOM      1  C   UNL     1      -3.383 -50.584   0.989  1.00  0.00     0.000 C 
ENDROOT
BRANCH   1   2
ATOM      2  C   UNL     1      -3.537 -51.748  -0.001  1.00  0.00     0.000 C 
BRANCH   2   3
ATOM      3  C   UNL     1      -5.013 -52.004  -0.375  1.00  0.00     0.000 C 
BRANCH   3   4
ATOM      4  C   UNL     1      -6.015 -51.249   0.515  1.00  0.00     0.000 C 
BRANCH   4   5
ATOM      5  C   UNL     1      -7.201 -52.125   0.951  1.00  0.00     0.000 C 
BRANCH   5   6
ATOM      6  C   UNL     1      -8.329 -51.309   1.604  1.00  0.00     0.006 C 
BRANCH   6   7
ATOM      7  C   UNL     1      -8.603 -51.733   3.053  1.00  0.00     0.053 C 
BRANCH   7   8
ATOM      8  C   UNL     1      -8.401 -50.578   3.981  1.00  0.00     0.041 C 
ATOM      9  O   UNL     1      -7.637 -50.691   4.976  1.00  0.00    -0.550 OA
ATOM     10  O   UNL     1      -9.016 -49.359   3.721  1.00  0.00    -0.550 OA
ENDBRANCH   7   8
ENDBRANCH   6   7
ENDBRANCH   5   6
ENDBRANCH   4   5
ENDBRANCH   3   4
ENDBRANCH   2   3
ENDBRANCH   1   2
BRANCH   1  11
ATOM     11  C   UNL     1      -2.145 -50.778   1.879  1.00  0.00     0.000 C 
BRANCH  11  12
ATOM     12  C   UNL     1      -2.326 -51.901   2.913  1.00  0.00    -0.000 C 
BRANCH  12  13
ATOM     13  C   UNL     1      -3.744 -51.931   3.511  1.00  0.00    -0.000 C 
BRANCH  13  14
ATOM     14  C   UNL     1      -3.735 -51.932   5.048  1.00  0.00    -0.000 C 
BRANCH  14  15
ATOM     15  C   UNL     1      -2.318 -51.786   5.630  1.00  0.00    -0.000 C 
BRANCH  15  16
ATOM     16  C   UNL     1      -2.290 -51.939   7.160  1.00  0.00    -0.000 C 
BRANCH  16  17
ATOM     17  C   UNL     1      -3.117 -50.863   7.879  1.00  0.00    -0.003 C 
ATOM     18  C   UNL     1      -3.868 -51.452   9.070  1.00  0.00     0.004 C 
ENDBRANCH  16  17
ENDBRANCH  15  16
ENDBRANCH  14  15
ENDBRANCH  13  14
ENDBRANCH  12  13
ENDBRANCH  11  12
ENDBRANCH   1  11
TORSDOF 14
ENDMDL
MODEL 2
REMARK VINA RESULT:    -3.510      1.886      5.936
REMARK INTER + INTRA:          -7.481
REMARK INTER:                  -6.818
REMARK INTRA:                  -0.663
REMARK UNBOUND:                -1.099
REMARK SMILES CCCCCCCCCCCCCCCC(=O)[O-]
REMARK SMILES IDX 9 1 10 2 11 3 12 4 13 5 14 6 15 7 16 8 17 9 18 10 8 11 7 12
REMARK SMILES IDX 6 13 5 14 4 15 3 16 2 17 1 18
REMARK H PARENT
REMARK Flexibility Score: inf
ROOT
ATOM      1  C   UNL     1      -2.754 -50.321   1.565  1.00  0.00     0.000 C 
ENDROOT
BRANCH   1   2
ATOM      2  C   UNL     1      -1.725 -51.359   2.037  1.00  0.00     0.000 C 
BRANCH   2   3
ATOM      3  C   UNL     1      -2.082 -51.946   3.419  1.00  0.00     0.000 C 
BRANCH   3   4
ATOM      4  C   UNL     1      -1.095 -51.551   4.532  1.00  0.00     0.000 C 
BRANCH   4   5
ATOM      5  C   UNL     1      -1.507 -52.089   5.912  1.00  0.00     0.000 C 
BRANCH   5   6
ATOM      6  C   UNL     1      -2.622 -51.253   6.562  1.00  0.00     0.006 C 
BRANCH   6   7
ATOM      7  C   UNL     1      -2.719 -51.473   8.077  1.00  0.00     0.053 C 
BRANCH   7   8
ATOM      8  C   UNL     1      -4.137 -51.341   8.534  1.00  0.00     0.041 C 
ATOM      9  O   UNL     1      -4.392 -50.987   9.715  1.00  0.00    -0.550 OA
ATOM     10  O   UNL     1      -5.179 -51.559   7.641  1.00  0.00    -0.550 OA
ENDBRANCH   7   8
ENDBRANCH   6   7
ENDBRANCH   5   6
ENDBRANCH   4   5
ENDBRANCH   3   4
ENDBRANCH   2   3
ENDBRANCH   1   2
BRANCH   1  11
ATOM     11  C   UNL     1      -3.519 -50.826   0.331  1.00  0.00     0.000 C 
BRANCH  11  12
ATOM     12  C   UNL     1      -4.489 -51.971   0.660  1.00  0.00    -0.000 C 
BRANCH  12  13
ATOM     13  C   UNL     1      -5.878 -51.770   0.026  1.00  0.00    -0.000 C 
BRANCH  13  14
ATOM     14  C   UNL     1      -7.022 -52.121   0.990  1.00  0.00    -0.000 C 
BRANCH  14  15
ATOM     15  C   UNL     1      -8.043 -50.979   1.136  1.00  0.00    -0.000 C 
BRANCH  15  16
ATOM     16  C   UNL     1      -9.109 -51.273   2.204  1.00  0.00    -0.000 C 
BRANCH  16  17
ATOM     17  C   UNL     1      -9.125 -50.228   3.330  1.00  0.00    -0.003 C 
ATOM     18  C   UNL     1      -8.139 -50.597   4.435  1.00  0.00     0.004 C 
ENDBRANCH  16  17
ENDBRANCH  15  16
ENDBRANCH  14  15
ENDBRANCH  13  14
ENDBRANCH  12  13
ENDBRANCH  11  12
ENDBRANCH   1  11
TORSDOF 14
ENDMDL
MODEL 3
REMARK VINA RESULT:    -3.236      2.165      4.206
REMARK INTER + INTRA:          -6.983
REMARK INTER:                  -6.117
REMARK INTRA:                  -0.866
REMARK UNBOUND:                -1.099
REMARK SMILES CCCCCCCCCCCCCCCC(=O)[O-]
REMARK SMILES IDX 9 1 10 2 11 3 12 4 13 5 14 6 15 7 16 8 17 9 18 10 8 11 7 12
REMARK SMILES IDX 6 13 5 14 4 15 3 16 2 17 1 18
REMARK H PARENT
REMARK Flexibility Score: inf
ROOT
ATOM      1  C   UNL     1      -3.073 -51.473   4.259  1.00  0.00     0.000 C 
ENDROOT
BRANCH   1   2
ATOM      2  C   UNL     1      -1.747 -51.993   3.684  1.00  0.00     0.000 C 
BRANCH   2   3
ATOM      3  C   UNL     1      -1.470 -51.443   2.269  1.00  0.00     0.000 C 
BRANCH   3   4
ATOM      4  C   UNL     1      -2.428 -50.317   1.844  1.00  0.00     0.000 C 
BRANCH   4   5
ATOM      5  C   UNL     1      -3.249 -50.673   0.594  1.00  0.00     0.000 C 
BRANCH   5   6
ATOM      6  C   UNL     1      -3.843 -52.089   0.660  1.00  0.00     0.006 C 
BRANCH   6   7
ATOM      7  C   UNL     1      -5.209 -52.125   1.359  1.00  0.00     0.053 C 
BRANCH   7   8
ATOM      8  C   UNL     1      -6.299 -51.802   0.388  1.00  0.00     0.041 C 
ATOM      9  O   UNL     1      -6.176 -52.108  -0.828  1.00  0.00    -0.550 OA
ATOM     10  O   UNL     1      -7.474 -51.208   0.832  1.00  0.00    -0.550 OA
ENDBRANCH   7   8
ENDBRANCH   6   7
ENDBRANCH   5   6
ENDBRANCH   4   5
ENDBRANCH   3   4
ENDBRANCH   2   3
ENDBRANCH   1   2
BRANCH   1  11
ATOM     11  C   UNL     1      -3.289 -51.982   5.693  1.00  0.00     0.000 C 
BRANCH  11  12
ATOM     12  C   UNL     1      -2.718 -51.028   6.755  1.00  0.00    -0.000 C 
BRANCH  12  13
ATOM     13  C   UNL     1      -2.051 -51.777   7.923  1.00  0.00    -0.000 C 
BRANCH  13  14
ATOM     14  C   UNL     1      -3.005 -51.984   9.111  1.00  0.00    -0.000 C 
BRANCH  14  15
ATOM     15  C   UNL     1      -4.471 -51.690   8.749  1.00  0.00    -0.000 C 
BRANCH  15  16
ATOM     16  C   UNL     1      -5.188 -50.857   9.825  1.00  0.00    -0.000 C 
BRANCH  16  17
ATOM     17  C   UNL     1      -6.604 -50.436   9.402  1.00  0.00    -0.003 C 
ATOM     18  C   UNL     1      -7.242 -51.486   8.497  1.00  0.00     0.004 C 
ENDBRANCH  16  17
ENDBRANCH  15  16
ENDBRANCH  14  15
ENDBRANCH  13  14
ENDBRANCH  12  13
ENDBRANCH  11  12
ENDBRANCH   1  11
TORSDOF 14
ENDMDL
MODEL 4
REMARK VINA RESULT:    -3.203      1.214      2.201
REMARK INTER + INTRA:          -6.924
REMARK INTER:                  -6.072
REMARK INTRA:                  -0.852
REMARK UNBOUND:                -1.099
REMARK SMILES CCCCCCCCCCCCCCCC(=O)[O-]
REMARK SMILES IDX 9 1 10 2 11 3 12 4 13 5 14 6 15 7 16 8 17 9 18 10 8 11 7 12
REMARK SMILES IDX 6 13 5 14 4 15 3 16 2 17 1 18
REMARK H PARENT
REMARK Flexibility Score: inf
ROOT
ATOM      1  C   UNL     1      -2.397 -51.607   2.730  1.00  0.00     0.000 C 
ENDROOT
BRANCH   1   2
ATOM      2  C   UNL     1      -2.564 -50.578   1.602  1.00  0.00     0.000 C 
BRANCH   2   3
ATOM      3  C   UNL     1      -3.440 -51.113   0.449  1.00  0.00     0.000 C 
BRANCH   3   4
ATOM      4  C   UNL     1      -4.507 -52.125   0.902  1.00  0.00     0.000 C 
BRANCH   4   5
ATOM      5  C   UNL     1      -5.862 -51.466   1.204  1.00  0.00     0.000 C 
BRANCH   5   6
ATOM      6  C   UNL     1      -6.353 -51.754   2.632  1.00  0.00     0.006 C 
BRANCH   6   7
ATOM      7  C   UNL     1      -7.870 -51.971   2.703  1.00  0.00     0.053 C 
BRANCH   7   8
ATOM      8  C   UNL     1      -8.581 -50.659   2.800  1.00  0.00     0.041 C 
ATOM      9  O   UNL     1      -9.122 -50.155   1.780  1.00  0.00    -0.550 OA
ATOM     10  O   UNL     1      -8.692 -50.016   4.026  1.00  0.00    -0.550 OA
ENDBRANCH   7   8
ENDBRANCH   6   7
ENDBRANCH   5   6
ENDBRANCH   4   5
ENDBRANCH   3   4
ENDBRANCH   2   3
ENDBRANCH   1   2
BRANCH   1  11
ATOM     11  C   UNL     1      -1.120 -51.333   3.540  1.00  0.00     0.000 C 
BRANCH  11  12
ATOM     12  C   UNL     1      -1.203 -51.866   4.979  1.00  0.00    -0.000 C 
BRANCH  12  13
ATOM     13  C   UNL     1      -2.581 -51.624   5.621  1.00  0.00    -0.000 C 
BRANCH  13  14
ATOM     14  C   UNL     1      -2.651 -52.123   7.073  1.00  0.00    -0.000 C 
BRANCH  14  15
ATOM     15  C   UNL     1      -2.931 -50.989   8.075  1.00  0.00    -0.000 C 
BRANCH  15  16
ATOM     16  C   UNL     1      -3.775 -51.454   9.272  1.00  0.00    -0.000 C 
BRANCH  16  17
ATOM     17  C   UNL     1      -5.244 -51.708   8.900  1.00  0.00    -0.003 C 
ATOM     18  C   UNL     1      -6.184 -50.945   9.829  1.00  0.00     0.004 C 
ENDBRANCH  16  17
ENDBRANCH  15  16
ENDBRANCH  14  15
ENDBRANCH  13  14
ENDBRANCH  12  13
ENDBRANCH  11  12
ENDBRANCH   1  11
TORSDOF 14
ENDMDL
MODEL 5
REMARK VINA RESULT:    -2.813      3.005      4.606
REMARK INTER + INTRA:          -6.214
REMARK INTER:                  -5.564
REMARK INTRA:                  -0.650
REMARK UNBOUND:                -1.099
REMARK SMILES CCCCCCCCCCCCCCCC(=O)[O-]
REMARK SMILES IDX 9 1 10 2 11 3 12 4 13 5 14 6 15 7 16 8 17 9 18 10 8 11 7 12
REMARK SMILES IDX 6 13 5 14 4 15 3 16 2 17 1 18
REMARK H PARENT
REMARK Flexibility Score: inf
ROOT
ATOM      1  C   UNL     1      -4.938 -52.063   2.655  1.00  0.00     0.000 C 
ENDROOT
BRANCH   1   2
ATOM      2  C   UNL     1      -6.414 -51.679   2.479  1.00  0.00     0.000 C 
BRANCH   2   3
ATOM      3  C   UNL     1      -6.791 -51.475   0.996  1.00  0.00     0.000 C 
BRANCH   3   4
ATOM      4  C   UNL     1      -5.786 -52.099   0.012  1.00  0.00     0.000 C 
BRANCH   4   5
ATOM      5  C   UNL     1      -4.884 -51.053  -0.662  1.00  0.00     0.000 C 
BRANCH   5   6
ATOM      6  C   UNL     1      -3.543 -50.871   0.069  1.00  0.00     0.006 C 
BRANCH   6   7
ATOM      7  C   UNL     1      -2.514 -51.944  -0.309  1.00  0.00     0.053 C 
BRANCH   7   8
ATOM      8  C   UNL     1      -1.220 -51.698   0.400  1.00  0.00     0.041 C 
ATOM      9  O   UNL     1      -0.128 -51.807  -0.217  1.00  0.00    -0.550 OA
ATOM     10  O   UNL     1      -1.221 -51.297   1.731  1.00  0.00    -0.550 OA
ENDBRANCH   7   8
ENDBRANCH   6   7
ENDBRANCH   5   6
ENDBRANCH   4   5
ENDBRANCH   3   4
ENDBRANCH   2   3
ENDBRANCH   1   2
BRANCH   1  11
ATOM     11  C   UNL     1      -4.556 -52.115   4.143  1.00  0.00     0.000 C 
BRANCH  11  12
ATOM     12  C   UNL     1      -3.306 -51.281   4.467  1.00  0.00    -0.000 C 
BRANCH  12  13
ATOM     13  C   UNL     1      -3.175 -50.973   5.969  1.00  0.00    -0.000 C 
BRANCH  13  14
ATOM     14  C   UNL     1      -2.523 -52.125   6.752  1.00  0.00    -0.000 C 
BRANCH  14  15
ATOM     15  C   UNL     1      -2.854 -52.080   8.254  1.00  0.00    -0.000 C 
BRANCH  15  16
ATOM     16  C   UNL     1      -3.684 -50.844   8.638  1.00  0.00    -0.000 C 
BRANCH  16  17
ATOM     17  C   UNL     1      -4.762 -51.156   9.686  1.00  0.00    -0.003 C 
ATOM     18  C   UNL     1      -6.138 -51.279   9.038  1.00  0.00     0.004 C 
ENDBRANCH  16  17
ENDBRANCH  15  16
ENDBRANCH  14  15
ENDBRANCH  13  14
ENDBRANCH  12  13
ENDBRANCH  11  12
ENDBRANCH   1  11
TORSDOF 14
ENDMDL
MODEL 6
REMARK VINA RESULT:    -2.799      4.553      6.264
REMARK INTER + INTRA:          -6.190
REMARK INTER:                  -5.597
REMARK INTRA:                  -0.593
REMARK UNBOUND:                -1.099
REMARK SMILES CCCCCCCCCCCCCCCC(=O)[O-]
REMARK SMILES IDX 9 1 10 2 11 3 12 4 13 5 14 6 15 7 16 8 17 9 18 10 8 11 7 12
REMARK SMILES IDX 6 13 5 14 4 15 3 16 2 17 1 18
REMARK H PARENT
REMARK Flexibility Score: inf
ROOT
ATOM      1  C   UNL     1      -1.902 -52.125   5.197  1.00  0.00     0.000 C 
ENDROOT
BRANCH   1   2
ATOM      2  C   UNL     1      -1.492 -51.840   3.744  1.00  0.00     0.000 C 
BRANCH   2   3
ATOM      3  C   UNL     1      -2.712 -51.581   2.834  1.00  0.00     0.000 C 
BRANCH   3   4
ATOM      4  C   UNL     1      -2.447 -50.550   1.724  1.00  0.00     0.000 C 
BRANCH   4   5
ATOM      5  C   UNL     1      -3.136 -50.911   0.398  1.00  0.00     0.000 C 
BRANCH   5   6
ATOM      6  C   UNL     1      -2.133 -51.144  -0.744  1.00  0.00     0.006 C 
BRANCH   6   7
ATOM      7  C   UNL     1      -0.935 -52.001  -0.314  1.00  0.00     0.053 C 
BRANCH   7   8
ATOM      8  C   UNL     1       0.113 -52.004  -1.381  1.00  0.00     0.041 C 
ATOM      9  O   UNL     1      -0.213 -51.863  -2.590  1.00  0.00    -0.550 OA
ATOM     10  O   UNL     1       1.455 -52.113  -1.038  1.00  0.00    -0.550 OA
ENDBRANCH   7   8
ENDBRANCH   6   7
ENDBRANCH   5   6
ENDBRANCH   4   5
ENDBRANCH   3   4
ENDBRANCH   2   3
ENDBRANCH   1   2
BRANCH   1  11
ATOM     11  C   UNL     1      -1.601 -50.920   6.101  1.00  0.00     0.000 C 
BRANCH  11  12
ATOM     12  C   UNL     1      -1.014 -51.328   7.462  1.00  0.00    -0.000 C 
BRANCH  12  13
ATOM     13  C   UNL     1      -2.072 -51.928   8.405  1.00  0.00    -0.000 C 
BRANCH  13  14
ATOM     14  C   UNL     1      -3.405 -51.164   8.357  1.00  0.00    -0.000 C 
BRANCH  14  15
ATOM     15  C   UNL     1      -4.450 -51.737   9.331  1.00  0.00    -0.000 C 
BRANCH  15  16
ATOM     16  C   UNL     1      -5.872 -51.721   8.748  1.00  0.00    -0.000 C 
BRANCH  16  17
ATOM     17  C   UNL     1      -6.706 -50.534   9.252  1.00  0.00    -0.003 C 
ATOM     18  C   UNL     1      -8.031 -51.006   9.844  1.00  0.00     0.004 C 
ENDBRANCH  16  17
ENDBRANCH  15  16
ENDBRANCH  14  15
ENDBRANCH  13  14
ENDBRANCH  12  13
ENDBRANCH  11  12
ENDBRANCH   1  11
TORSDOF 14
ENDMDL
MODEL 7
REMARK VINA RESULT:    -2.669      1.116      1.748
REMARK INTER + INTRA:          -5.953
REMARK INTER:                  -5.249
REMARK INTRA:                  -0.704
REMARK UNBOUND:                -1.099
REMARK SMILES CCCCCCCCCCCCCCCC(=O)[O-]
REMARK SMILES IDX 9 1 10 2 11 3 12 4 13 5 14 6 15 7 16 8 17 9 18 10 8 11 7 12
REMARK SMILES IDX 6 13 5 14 4 15 3 16 2 17 1 18
REMARK H PARENT
REMARK Flexibility Score: inf
ROOT
ATOM      1  C   UNL     1      -3.861 -50.402   0.469  1.00  0.00     0.000 C 
ENDROOT
BRANCH   1   2
ATOM      2  C   UNL     1      -4.950 -51.458   0.712  1.00  0.00     0.000 C 
BRANCH   2   3
ATOM      3  C   UNL     1      -6.295 -51.067   0.065  1.00  0.00     0.000 C 
BRANCH   3   4
ATOM      4  C   UNL     1      -7.398 -52.125   0.244  1.00  0.00     0.000 C 
BRANCH   4   5
ATOM      5  C   UNL     1      -8.713 -51.531   0.773  1.00  0.00     0.000 C 
BRANCH   5   6
ATOM      6  C   UNL     1      -8.928 -51.812   2.269  1.00  0.00     0.006 C 
BRANCH   6   7
ATOM      7  C   UNL     1      -7.688 -51.494   3.115  1.00  0.00     0.053 C 
BRANCH   7   8
ATOM      8  C   UNL     1      -8.062 -50.643   4.287  1.00  0.00     0.041 C 
ATOM      9  O   UNL     1      -8.681 -49.560   4.112  1.00  0.00    -0.550 OA
ATOM     10  O   UNL     1      -7.772 -51.070   5.577  1.00  0.00    -0.550 OA
ENDBRANCH   7   8
ENDBRANCH   6   7
ENDBRANCH   5   6
ENDBRANCH   4   5
ENDBRANCH   3   4
ENDBRANCH   2   3
ENDBRANCH   1   2
BRANCH   1  11
ATOM     11  C   UNL     1      -2.473 -50.947   0.842  1.00  0.00     0.000 C 
BRANCH  11  12
ATOM     12  C   UNL     1      -2.025 -50.523   2.249  1.00  0.00    -0.000 C 
BRANCH  12  13
ATOM     13  C   UNL     1      -0.850 -51.368   2.775  1.00  0.00    -0.000 C 
BRANCH  13  14
ATOM     14  C   UNL     1      -1.201 -52.125   4.067  1.00  0.00    -0.000 C 
BRANCH  14  15
ATOM     15  C   UNL     1      -1.767 -51.199   5.158  1.00  0.00    -0.000 C 
BRANCH  15  16
ATOM     16  C   UNL     1      -3.229 -51.524   5.506  1.00  0.00    -0.000 C 
BRANCH  16  17
ATOM     17  C   UNL     1      -3.511 -51.447   7.015  1.00  0.00    -0.003 C 
ATOM     18  C   UNL     1      -2.216 -51.293   7.807  1.00  0.00     0.004 C 
ENDBRANCH  16  17
ENDBRANCH  15  16
ENDBRANCH  14  15
ENDBRANCH  13  14
ENDBRANCH  12  13
ENDBRANCH  11  12
ENDBRANCH   1  11
TORSDOF 14
ENDMDL
MODEL 8
REMARK VINA RESULT:    -2.590      2.585      5.094
REMARK INTER + INTRA:          -5.810
REMARK INTER:                  -4.735
REMARK INTRA:                  -1.075
REMARK UNBOUND:                -1.099
REMARK SMILES CCCCCCCCCCCCCCCC(=O)[O-]
REMARK SMILES IDX 9 1 10 2 11 3 12 4 13 5 14 6 15 7 16 8 17 9 18 10 8 11 7 12
REMARK SMILES IDX 6 13 5 14 4 15 3 16 2 17 1 18
REMARK H PARENT
REMARK Flexibility Score: inf
ROOT
ATOM      1  C   UNL     1      -2.394 -50.705   6.833  1.00  0.00     0.000 C 
ENDROOT
BRANCH   1   2
ATOM      2  C   UNL     1      -1.355 -51.679   6.256  1.00  0.00     0.000 C 
BRANCH   2   3
ATOM      3  C   UNL     1      -1.662 -52.058   4.791  1.00  0.00     0.000 C 
BRANCH   3   4
ATOM      4  C   UNL     1      -2.816 -51.250   4.172  1.00  0.00     0.000 C 
BRANCH   4   5
ATOM      5  C   UNL     1      -4.027 -52.125   3.809  1.00  0.00     0.000 C 
BRANCH   5   6
ATOM      6  C   UNL     1      -5.356 -51.521   4.290  1.00  0.00     0.006 C 
BRANCH   6   7
ATOM      7  C   UNL     1      -6.508 -51.767   3.306  1.00  0.00     0.053 C 
BRANCH   7   8
ATOM      8  C   UNL     1      -7.825 -51.545   3.979  1.00  0.00     0.041 C 
ATOM      9  O   UNL     1      -7.881 -50.915   5.068  1.00  0.00    -0.550 OA
ATOM     10  O   UNL     1      -8.997 -51.989   3.379  1.00  0.00    -0.550 OA
ENDBRANCH   7   8
ENDBRANCH   6   7
ENDBRANCH   5   6
ENDBRANCH   4   5
ENDBRANCH   3   4
ENDBRANCH   2   3
ENDBRANCH   1   2
BRANCH   1  11
ATOM     11  C   UNL     1      -2.695 -51.030   8.304  1.00  0.00     0.000 C 
BRANCH  11  12
ATOM     12  C   UNL     1      -4.098 -50.576   8.739  1.00  0.00    -0.000 C 
BRANCH  12  13
ATOM     13  C   UNL     1      -5.005 -51.755   9.132  1.00  0.00    -0.000 C 
BRANCH  13  14
ATOM     14  C   UNL     1      -6.382 -51.693   8.449  1.00  0.00    -0.000 C 
BRANCH  14  15
ATOM     15  C   UNL     1      -7.536 -52.007   9.417  1.00  0.00    -0.000 C 
BRANCH  15  16
ATOM     16  C   UNL     1      -8.426 -50.784   9.691  1.00  0.00    -0.000 C 
BRANCH  16  17
ATOM     17  C   UNL     1      -7.886 -49.501   9.041  1.00  0.00    -0.003 C 
ATOM     18  C   UNL     1      -8.752 -48.297   9.402  1.00  0.00     0.004 C 
ENDBRANCH  16  17
ENDBRANCH  15  16
ENDBRANCH  14  15
ENDBRANCH  13  14
ENDBRANCH  12  13
ENDBRANCH  11  12
ENDBRANCH   1  11
TORSDOF 14
ENDMDL
