MODEL 1
REMARK VINA RESULT:    -4.259      0.000      0.000
REMARK INTER + INTRA:          -8.187
REMARK INTER:                  -6.749
REMARK INTRA:                  -1.438
REMARK UNBOUND:                -1.438
REMARK SMILES CCCCCCCCCCCC(=O)[O-]
REMARK SMILES IDX 7 1 8 2 9 3 10 4 11 5 12 6 13 7 14 8 6 9 5 10 4 11 3 12 2 13
REMARK SMILES IDX 1 14
REMARK H PARENT
REMARK Flexibility Score: inf
ROOT
ATOM      1  C   UNL     1      -9.301 -26.639  31.958  1.00  0.00     0.000 C 
ENDROOT
BRANCH   1   2
ATOM      2  C   UNL     1      -8.704 -27.982  31.500  1.00  0.00     0.000 C 
BRANCH   2   3
ATOM      3  C   UNL     1      -7.166 -28.008  31.389  1.00  0.00     0.000 C 
BRANCH   3   4
ATOM      4  C   UNL     1      -6.580 -27.198  30.215  1.00  0.00     0.006 C 
BRANCH   4   5
ATOM      5  C   UNL     1      -5.316 -26.396  30.567  1.00  0.00     0.053 C 
BRANCH   5   6
ATOM      6  C   UNL     1      -5.623 -25.225  31.449  1.00  0.00     0.041 C 
ATOM      7  O   UNL     1      -6.563 -24.440  31.155  1.00  0.00    -0.550 OA
ATOM      8  O   UNL     1      -4.893 -25.021  32.613  1.00  0.00    -0.550 OA
ENDBRANCH   5   6
ENDBRANCH   4   5
ENDBRANCH   3   4
ENDBRANCH   2   3
ENDBRANCH   1   2
BRANCH   1   9
ATOM      9  C   UNL     1     -10.415 -26.131  31.030  1.00  0.00     0.000 C 
BRANCH   9  10
ATOM     10  C   UNL     1      -9.878 -25.068  30.059  1.00  0.00    -0.000 C 
BRANCH  10  11
ATOM     11  C   UNL     1     -10.285 -25.338  28.602  1.00  0.00    -0.000 C 
BRANCH  11  12
ATOM     12  C   UNL     1      -9.154 -25.980  27.781  1.00  0.00    -0.000 C 
BRANCH  12  13
ATOM     13  C   UNL     1      -9.285 -27.508  27.695  1.00  0.00    -0.003 C 
ATOM     14  C   UNL     1     -10.737 -27.982  27.777  1.00  0.00     0.004 C 
ENDBRANCH  12  13
ENDBRANCH  11  12
ENDBRANCH  10  11
ENDBRANCH   9  10
ENDBRANCH   1   9
TORSDOF 10
ENDMDL
MODEL 2
REMARK VINA RESULT:    -4.219      3.350      5.249
REMARK INTER + INTRA:          -8.124
REMARK INTER:                  -6.868
REMARK INTRA:                  -1.256
REMARK UNBOUND:                -1.438
REMARK SMILES CCCCCCCCCCCC(=O)[O-]
REMARK SMILES IDX 7 1 8 2 9 3 10 4 11 5 12 6 13 7 14 8 6 9 5 10 4 11 3 12 2 13
REMARK SMILES IDX 1 14
REMARK H PARENT
REMARK Flexibility Score: inf
ROOT
ATOM      1  C   UNL     1      -7.380 -27.148  29.014  1.00  0.00     0.000 C 
ENDROOT
BRANCH   1   2
ATOM      2  C   UNL     1      -8.539 -27.309  28.014  1.00  0.00     0.000 C 
BRANCH   2   3
ATOM      3  C   UNL     1      -9.950 -27.245  28.636  1.00  0.00     0.000 C 
BRANCH   3   4
ATOM      4  C   UNL     1     -10.739 -25.954  28.338  1.00  0.00     0.006 C 
BRANCH   4   5
ATOM      5  C   UNL     1      -9.931 -24.873  27.603  1.00  0.00     0.053 C 
BRANCH   5   6
ATOM      6  C   UNL     1     -10.660 -24.347  26.405  1.00  0.00     0.041 C 
ATOM      7  O   UNL     1     -10.978 -23.130  26.341  1.00  0.00    -0.550 OA
ATOM      8  O   UNL     1     -10.956 -25.193  25.344  1.00  0.00    -0.550 OA
ENDBRANCH   5   6
ENDBRANCH   4   5
ENDBRANCH   3   4
ENDBRANCH   2   3
ENDBRANCH   1   2
BRANCH   1   9
ATOM      9  C   UNL     1      -7.855 -26.765  30.424  1.00  0.00     0.000 C 
BRANCH   9  10
ATOM     10  C   UNL     1      -7.757 -25.248  30.642  1.00  0.00    -0.000 C 
BRANCH  10  11
ATOM     11  C   UNL     1      -8.723 -24.743  31.725  1.00  0.00    -0.000 C 
BRANCH  11  12
ATOM     12  C   UNL     1      -9.050 -25.819  32.774  1.00  0.00    -0.000 C 
BRANCH  12  13
ATOM     13  C   UNL     1     -10.544 -25.862  33.127  1.00  0.00    -0.003 C 
ATOM     14  C   UNL     1     -11.398 -26.460  32.008  1.00  0.00     0.004 C 
ENDBRANCH  12  13
ENDBRANCH  11  12
ENDBRANCH  10  11
ENDBRANCH   9  10
ENDBRANCH   1   9
TORSDOF 10
ENDMDL
MODEL 3
REMARK VINA RESULT:    -4.163      3.289      5.202
REMARK INTER + INTRA:          -8.035
REMARK INTER:                  -6.709
REMARK INTRA:                  -1.326
REMARK UNBOUND:                -1.438
REMARK SMILES CCCCCCCCCCCC(=O)[O-]
REMARK SMILES IDX 7 1 8 2 9 3 10 4 11 5 12 6 13 7 14 8 6 9 5 10 4 11 3 12 2 13
REMARK SMILES IDX 1 14
REMARK H PARENT
REMARK Flexibility Score: inf
ROOT
ATOM      1  C   UNL     1      -6.797 -27.250  30.315  1.00  0.00     0.000 C 
ENDROOT
BRANCH   1   2
ATOM      2  C   UNL     1      -6.964 -27.261  28.785  1.00  0.00     0.000 C 
BRANCH   2   3
ATOM      3  C   UNL     1      -8.420 -27.160  28.286  1.00  0.00     0.000 C 
BRANCH   3   4
ATOM      4  C   UNL     1      -8.991 -25.729  28.218  1.00  0.00     0.006 C 
BRANCH   4   5
ATOM      5  C   UNL     1     -10.525 -25.661  28.145  1.00  0.00     0.053 C 
BRANCH   5   6
ATOM      6  C   UNL     1     -11.050 -26.230  26.863  1.00  0.00     0.041 C 
ATOM      7  O   UNL     1     -10.805 -25.657  25.768  1.00  0.00    -0.550 OA
ATOM      8  O   UNL     1     -11.782 -27.411  26.873  1.00  0.00    -0.550 OA
ENDBRANCH   5   6
ENDBRANCH   4   5
ENDBRANCH   3   4
ENDBRANCH   2   3
ENDBRANCH   1   2
BRANCH   1   9
ATOM      9  C   UNL     1      -5.942 -26.075  30.814  1.00  0.00     0.000 C 
BRANCH   9  10
ATOM     10  C   UNL     1      -6.615 -25.374  32.004  1.00  0.00    -0.000 C 
BRANCH  10  11
ATOM     11  C   UNL     1      -7.411 -24.129  31.583  1.00  0.00    -0.000 C 
BRANCH  11  12
ATOM     12  C   UNL     1      -8.914 -24.413  31.424  1.00  0.00    -0.000 C 
BRANCH  12  13
ATOM     13  C   UNL     1      -9.417 -25.483  32.405  1.00  0.00    -0.003 C 
ATOM     14  C   UNL     1     -10.628 -26.250  31.872  1.00  0.00     0.004 C 
ENDBRANCH  12  13
ENDBRANCH  11  12
ENDBRANCH  10  11
ENDBRANCH   9  10
ENDBRANCH   1   9
TORSDOF 10
ENDMDL
MODEL 4
REMARK VINA RESULT:    -4.106      2.062      3.332
REMARK INTER + INTRA:          -7.945
REMARK INTER:                  -7.159
REMARK INTRA:                  -0.786
REMARK UNBOUND:                -1.438
REMARK SMILES CCCCCCCCCCCC(=O)[O-]
REMARK SMILES IDX 7 1 8 2 9 3 10 4 11 5 12 6 13 7 14 8 6 9 5 10 4 11 3 12 2 13
REMARK SMILES IDX 1 14
REMARK H PARENT
REMARK Flexibility Score: inf
ROOT
ATOM      1  C   UNL     1      -9.667 -27.267  29.589  1.00  0.00     0.000 C 
ENDROOT
BRANCH   1   2
ATOM      2  C   UNL     1     -10.512 -26.166  30.254  1.00  0.00     0.000 C 
BRANCH   2   3
ATOM      3  C   UNL     1     -10.568 -26.228  31.795  1.00  0.00     0.000 C 
BRANCH   3   4
ATOM      4  C   UNL     1      -9.458 -25.444  32.523  1.00  0.00     0.006 C 
BRANCH   4   5
ATOM      5  C   UNL     1      -8.495 -24.693  31.589  1.00  0.00     0.053 C 
BRANCH   5   6
ATOM      6  C   UNL     1      -7.141 -25.332  31.550  1.00  0.00     0.041 C 
ATOM      7  O   UNL     1      -7.007 -26.550  31.840  1.00  0.00    -0.550 OA
ATOM      8  O   UNL     1      -6.033 -24.590  31.160  1.00  0.00    -0.550 OA
ENDBRANCH   5   6
ENDBRANCH   4   5
ENDBRANCH   3   4
ENDBRANCH   2   3
ENDBRANCH   1   2
BRANCH   1   9
ATOM      9  C   UNL     1      -8.878 -26.760  28.372  1.00  0.00     0.000 C 
BRANCH   9  10
ATOM     10  C   UNL     1      -9.594 -25.574  27.708  1.00  0.00    -0.000 C 
BRANCH  10  11
ATOM     11  C   UNL     1     -10.530 -26.011  26.570  1.00  0.00    -0.000 C 
BRANCH  11  12
ATOM     12  C   UNL     1     -10.879 -24.856  25.615  1.00  0.00    -0.000 C 
BRANCH  12  13
ATOM     13  C   UNL     1     -10.699 -23.478  26.269  1.00  0.00    -0.003 C 
ATOM     14  C   UNL     1     -11.795 -22.489  25.873  1.00  0.00     0.004 C 
ENDBRANCH  12  13
ENDBRANCH  11  12
ENDBRANCH  10  11
ENDBRANCH   9  10
ENDBRANCH   1   9
TORSDOF 10
ENDMDL
MODEL 5
REMARK VINA RESULT:    -4.083      3.025      4.987
REMARK INTER + INTRA:          -7.907
REMARK INTER:                  -6.442
REMARK INTRA:                  -1.465
REMARK UNBOUND:                -1.438
REMARK SMILES CCCCCCCCCCCC(=O)[O-]
REMARK SMILES IDX 7 1 8 2 9 3 10 4 11 5 12 6 13 7 14 8 6 9 5 10 4 11 3 12 2 13
REMARK SMILES IDX 1 14
REMARK H PARENT
REMARK Flexibility Score: inf
ROOT
ATOM      1  C   UNL     1      -8.826 -24.377  31.284  1.00  0.00     0.000 C 
ENDROOT
BRANCH   1   2
ATOM      2  C   UNL     1      -9.807 -25.562  31.261  1.00  0.00     0.000 C 
BRANCH   2   3
ATOM      3  C   UNL     1      -9.962 -26.254  29.891  1.00  0.00     0.000 C 
BRANCH   3   4
ATOM      4  C   UNL     1      -8.779 -26.059  28.921  1.00  0.00     0.006 C 
BRANCH   4   5
ATOM      5  C   UNL     1      -8.489 -27.272  28.023  1.00  0.00     0.053 C 
BRANCH   5   6
ATOM      6  C   UNL     1      -9.616 -27.550  27.076  1.00  0.00     0.041 C 
ATOM      7  O   UNL     1     -10.182 -26.602  26.469  1.00  0.00    -0.550 OA
ATOM      8  O   UNL     1     -10.018 -28.858  26.837  1.00  0.00    -0.550 OA
ENDBRANCH   5   6
ENDBRANCH   4   5
ENDBRANCH   3   4
ENDBRANCH   2   3
ENDBRANCH   1   2
BRANCH   1   9
ATOM      9  C   UNL     1      -7.569 -24.658  32.121  1.00  0.00     0.000 C 
BRANCH   9  10
ATOM     10  C   UNL     1      -7.761 -25.904  32.999  1.00  0.00    -0.000 C 
BRANCH  10  11
ATOM     11  C   UNL     1      -6.645 -26.942  32.805  1.00  0.00    -0.000 C 
BRANCH  11  12
ATOM     12  C   UNL     1      -6.907 -27.877  31.612  1.00  0.00    -0.000 C 
BRANCH  12  13
ATOM     13  C   UNL     1      -5.673 -28.041  30.712  1.00  0.00    -0.003 C 
ATOM     14  C   UNL     1      -5.187 -26.713  30.130  1.00  0.00     0.004 C 
ENDBRANCH  12  13
ENDBRANCH  11  12
ENDBRANCH  10  11
ENDBRANCH   9  10
ENDBRANCH   1   9
TORSDOF 10
ENDMDL
MODEL 6
REMARK VINA RESULT:    -4.081      2.569      3.859
REMARK INTER + INTRA:          -7.904
REMARK INTER:                  -7.016
REMARK INTRA:                  -0.888
REMARK UNBOUND:                -1.438
REMARK SMILES CCCCCCCCCCCC(=O)[O-]
REMARK SMILES IDX 7 1 8 2 9 3 10 4 11 5 12 6 13 7 14 8 6 9 5 10 4 11 3 12 2 13
REMARK SMILES IDX 1 14
REMARK H PARENT
REMARK Flexibility Score: inf
ROOT
ATOM      1  C   UNL     1      -8.272 -26.926  28.250  1.00  0.00     0.000 C 
ENDROOT
BRANCH   1   2
ATOM      2  C   UNL     1      -8.173 -27.172  29.766  1.00  0.00     0.000 C 
BRANCH   2   3
ATOM      3  C   UNL     1      -7.335 -26.136  30.542  1.00  0.00     0.000 C 
BRANCH   3   4
ATOM      4  C   UNL     1      -8.141 -24.988  31.183  1.00  0.00     0.006 C 
BRANCH   4   5
ATOM      5  C   UNL     1      -9.584 -25.361  31.562  1.00  0.00     0.053 C 
BRANCH   5   6
ATOM      6  C   UNL     1      -9.712 -25.697  33.015  1.00  0.00     0.041 C 
ATOM      7  O   UNL     1      -8.716 -25.597  33.779  1.00  0.00    -0.550 OA
ATOM      8  O   UNL     1     -10.941 -26.088  33.533  1.00  0.00    -0.550 OA
ENDBRANCH   5   6
ENDBRANCH   4   5
ENDBRANCH   3   4
ENDBRANCH   2   3
ENDBRANCH   1   2
BRANCH   1   9
ATOM      9  C   UNL     1      -9.607 -27.397  27.653  1.00  0.00     0.000 C 
BRANCH   9  10
ATOM     10  C   UNL     1     -10.746 -26.439  28.032  1.00  0.00    -0.000 C 
BRANCH  10  11
ATOM     11  C   UNL     1     -10.335 -24.962  27.932  1.00  0.00    -0.000 C 
BRANCH  11  12
ATOM     12  C   UNL     1     -10.416 -24.422  26.494  1.00  0.00    -0.000 C 
BRANCH  12  13
ATOM     13  C   UNL     1     -10.814 -22.939  26.444  1.00  0.00    -0.003 C 
ATOM     14  C   UNL     1     -12.042 -22.686  25.569  1.00  0.00     0.004 C 
ENDBRANCH  12  13
ENDBRANCH  11  12
ENDBRANCH  10  11
ENDBRANCH   9  10
ENDBRANCH   1   9
TORSDOF 10
ENDMDL
MODEL 7
REMARK VINA RESULT:    -4.072      3.213      4.824
REMARK INTER + INTRA:          -7.890
REMARK INTER:                  -6.447
REMARK INTRA:                  -1.443
REMARK UNBOUND:                -1.438
REMARK SMILES CCCCCCCCCCCC(=O)[O-]
REMARK SMILES IDX 7 1 8 2 9 3 10 4 11 5 12 6 13 7 14 8 6 9 5 10 4 11 3 12 2 13
REMARK SMILES IDX 1 14
REMARK H PARENT
REMARK Flexibility Score: inf
ROOT
ATOM      1  C   UNL     1     -10.729 -26.251  31.709  1.00  0.00     0.000 C 
ENDROOT
BRANCH   1   2
ATOM      2  C   UNL     1     -10.716 -26.162  30.173  1.00  0.00     0.000 C 
BRANCH   2   3
ATOM      3  C   UNL     1      -9.940 -27.288  29.460  1.00  0.00     0.000 C 
BRANCH   3   4
ATOM      4  C   UNL     1      -9.269 -26.883  28.132  1.00  0.00     0.006 C 
BRANCH   4   5
ATOM      5  C   UNL     1      -9.529 -25.428  27.708  1.00  0.00     0.053 C 
BRANCH   5   6
ATOM      6  C   UNL     1     -10.514 -25.340  26.583  1.00  0.00     0.041 C 
ATOM      7  O   UNL     1     -11.326 -26.281  26.377  1.00  0.00    -0.550 OA
ATOM      8  O   UNL     1     -10.558 -24.205  25.784  1.00  0.00    -0.550 OA
ENDBRANCH   5   6
ENDBRANCH   4   5
ENDBRANCH   3   4
ENDBRANCH   2   3
ENDBRANCH   1   2
BRANCH   1   9
ATOM      9  C   UNL     1      -9.430 -25.737  32.349  1.00  0.00     0.000 C 
BRANCH   9  10
ATOM     10  C   UNL     1      -8.791 -24.639  31.485  1.00  0.00    -0.000 C 
BRANCH  10  11
ATOM     11  C   UNL     1      -7.370 -25.002  31.025  1.00  0.00    -0.000 C 
BRANCH  11  12
ATOM     12  C   UNL     1      -6.780 -26.190  31.805  1.00  0.00    -0.000 C 
BRANCH  12  13
ATOM     13  C   UNL     1      -6.552 -27.421  30.916  1.00  0.00    -0.003 C 
ATOM     14  C   UNL     1      -5.886 -27.073  29.585  1.00  0.00     0.004 C 
ENDBRANCH  12  13
ENDBRANCH  11  12
ENDBRANCH  10  11
ENDBRANCH   9  10
ENDBRANCH   1   9
TORSDOF 10
ENDMDL
MODEL 8
REMARK VINA RESULT:    -4.048      1.439      2.689
REMARK INTER + INTRA:          -7.853
REMARK INTER:                  -6.715
REMARK INTRA:                  -1.138
REMARK UNBOUND:                -1.438
REMARK SMILES CCCCCCCCCCCC(=O)[O-]
REMARK SMILES IDX 7 1 8 2 9 3 10 4 11 5 12 6 13 7 14 8 6 9 5 10 4 11 3 12 2 13
REMARK SMILES IDX 1 14
REMARK H PARENT
REMARK Flexibility Score: inf
ROOT
ATOM      1  C   UNL     1      -8.685 -27.609  30.730  1.00  0.00     0.000 C 
ENDROOT
BRANCH   1   2
ATOM      2  C   UNL     1      -8.812 -26.591  31.878  1.00  0.00     0.000 C 
BRANCH   2   3
ATOM      3  C   UNL     1      -9.054 -25.134  31.434  1.00  0.00     0.000 C 
BRANCH   3   4
ATOM      4  C   UNL     1      -7.846 -24.190  31.600  1.00  0.00     0.006 C 
BRANCH   4   5
ATOM      5  C   UNL     1      -6.932 -24.531  32.787  1.00  0.00     0.053 C 
BRANCH   5   6
ATOM      6  C   UNL     1      -5.543 -24.876  32.345  1.00  0.00     0.041 C 
ATOM      7  O   UNL     1      -4.618 -24.987  33.192  1.00  0.00    -0.550 OA
ATOM      8  O   UNL     1      -5.278 -25.107  31.001  1.00  0.00    -0.550 OA
ENDBRANCH   5   6
ENDBRANCH   4   5
ENDBRANCH   3   4
ENDBRANCH   2   3
ENDBRANCH   1   2
BRANCH   1   9
ATOM      9  C   UNL     1      -7.683 -27.171  29.651  1.00  0.00     0.000 C 
BRANCH   9  10
ATOM     10  C   UNL     1      -8.383 -26.986  28.296  1.00  0.00    -0.000 C 
BRANCH  10  11
ATOM     11  C   UNL     1      -9.875 -27.349  28.347  1.00  0.00    -0.000 C 
BRANCH  11  12
ATOM     12  C   UNL     1     -10.789 -26.119  28.216  1.00  0.00    -0.000 C 
BRANCH  12  13
ATOM     13  C   UNL     1     -10.041 -24.884  27.692  1.00  0.00    -0.003 C 
ATOM     14  C   UNL     1     -10.576 -24.398  26.344  1.00  0.00     0.004 C 
ENDBRANCH  12  13
ENDBRANCH  11  12
ENDBRANCH  10  11
ENDBRANCH   9  10
ENDBRANCH   1   9
TORSDOF 10
ENDMDL
MODEL 9
REMARK VINA RESULT:    -4.026      1.927      2.717
REMARK INTER + INTRA:          -7.818
REMARK INTER:                  -6.699
REMARK INTRA:                  -1.119
REMARK UNBOUND:                -1.438
REMARK SMILES CCCCCCCCCCCC(=O)[O-]
REMARK SMILES IDX 7 1 8 2 9 3 10 4 11 5 12 6 13 7 14 8 6 9 5 10 4 11 3 12 2 13
REMARK SMILES IDX 1 14
REMARK H PARENT
REMARK Flexibility Score: inf
ROOT
ATOM      1  C   UNL     1     -10.532 -26.462  31.667  1.00  0.00     0.000 C 
ENDROOT
BRANCH   1   2
ATOM      2  C   UNL     1      -9.344 -25.709  32.292  1.00  0.00     0.000 C 
BRANCH   2   3
ATOM      3  C   UNL     1      -8.740 -24.596  31.411  1.00  0.00     0.000 C 
BRANCH   3   4
ATOM      4  C   UNL     1      -7.300 -24.854  30.923  1.00  0.00     0.006 C 
BRANCH   4   5
ATOM      5  C   UNL     1      -6.796 -26.286  31.165  1.00  0.00     0.053 C 
BRANCH   5   6
ATOM      6  C   UNL     1      -5.916 -26.765  30.052  1.00  0.00     0.041 C 
ATOM      7  O   UNL     1      -6.422 -27.142  28.962  1.00  0.00    -0.550 OA
ATOM      8  O   UNL     1      -4.535 -26.764  30.207  1.00  0.00    -0.550 OA
ENDBRANCH   5   6
ENDBRANCH   4   5
ENDBRANCH   3   4
ENDBRANCH   2   3
ENDBRANCH   1   2
BRANCH   1   9
ATOM      9  C   UNL     1     -10.748 -26.114  30.186  1.00  0.00     0.000 C 
BRANCH   9  10
ATOM     10  C   UNL     1      -9.984 -27.088  29.276  1.00  0.00    -0.000 C 
BRANCH  10  11
ATOM     11  C   UNL     1      -9.674 -26.487  27.896  1.00  0.00    -0.000 C 
BRANCH  11  12
ATOM     12  C   UNL     1      -9.872 -24.962  27.856  1.00  0.00    -0.000 C 
BRANCH  12  13
ATOM     13  C   UNL     1     -10.385 -24.471  26.494  1.00  0.00    -0.003 C 
ATOM     14  C   UNL     1     -10.995 -23.071  26.563  1.00  0.00     0.004 C 
ENDBRANCH  12  13
ENDBRANCH  11  12
ENDBRANCH  10  11
ENDBRANCH   9  10
ENDBRANCH   1   9
TORSDOF 10
ENDMDL
