MODEL 1
REMARK VINA RESULT:    67.347      0.000      0.000
REMARK INTER + INTRA:          73.020
REMARK INTER:                  73.253
REMARK INTRA:                  -0.233
REMARK UNBOUND:                -0.233
REMARK SMILES C[C@H]1[C@H](C)CC[C@@]2(C(=O)[O-])CC[C@@]3(C)C(=CC[C@@H]4[C@@]5(C)CC[C@@H](O)C(C)(C)[C@@H]5CC[C@@]43C)[C@@H]12
REMARK SMILES IDX 7 1 6 2 11 3 33 4 5 5 12 6 15 7 2 8 3 9 13 10 16 11 1 12
REMARK SMILES IDX 4 13 14 14 31 15 17 16 18 17 30 18 32 19 19 20 29 21 28 22
REMARK SMILES IDX 21 23 20 24 25 25 22 26 23 27 26 28 27 29 8 30 9 31 10 32
REMARK SMILES IDX 24 33
REMARK H PARENT 24 34
REMARK Flexibility Score: inf
ROOT
ATOM      1  C   UNL     1      73.502  39.726  21.117  1.00  0.00     0.017 C 
ATOM      2  C   UNL     1      73.586  38.847  19.817  1.00  0.00     0.014 C 
ATOM      3  C   UNL     1      73.147  38.822  22.337  1.00  0.00     0.014 C 
ATOM      4  C   UNL     1      74.803  40.573  21.471  1.00  0.00     0.030 C 
ATOM      5  C   UNL     1      74.932  38.781  19.109  1.00  0.00     0.004 C 
ATOM      6  C   UNL     1      74.316  37.944  22.821  1.00  0.00     0.013 C 
ATOM      7  C   UNL     1      75.419  40.189  22.859  1.00  0.00    -0.063 C 
ATOM      8  C   UNL     1      75.790  40.936  20.290  1.00  0.00    -0.003 C 
ATOM      9  C   UNL     1      75.613  40.145  18.951  1.00  0.00    -0.011 C 
ATOM     10  C   UNL     1      75.639  38.715  23.242  1.00  0.00    -0.006 C 
ATOM     11  C   UNL     1      75.325  41.123  23.821  1.00  0.00    -0.027 C 
ATOM     12  C   UNL     1      77.276  41.035  20.689  1.00  0.00     0.008 C 
ATOM     13  C   UNL     1      74.897  40.987  17.878  1.00  0.00     0.008 C 
ATOM     14  C   UNL     1      76.823  38.187  22.388  1.00  0.00     0.017 C 
ATOM     15  C   UNL     1      76.027  38.468  24.806  1.00  0.00    -0.020 C 
ATOM     16  C   UNL     1      75.289  40.853  25.284  1.00  0.00     0.032 C 
ATOM     17  C   UNL     1      75.113  39.364  25.744  1.00  0.00     0.006 C 
ATOM     18  C   UNL     1      77.518  38.876  25.147  1.00  0.00     0.008 C 
ATOM     19  C   UNL     1      75.885  36.913  25.070  1.00  0.00     0.012 C 
ATOM     20  C   UNL     1      75.371  39.219  27.347  1.00  0.00    -0.025 C 
ATOM     21  C   UNL     1      77.844  39.103  26.661  1.00  0.00     0.005 C 
ATOM     22  C   UNL     1      76.759  38.535  27.607  1.00  0.00     0.003 C 
ATOM     23  C   UNL     1      74.284  38.323  28.016  1.00  0.00     0.010 C 
ATOM     24  C   UNL     1      75.265  40.617  28.056  1.00  0.00     0.012 C 
ATOM     25  C   UNL     1      77.148  38.244  29.109  1.00  0.00    -0.006 C 
ATOM     26  C   UNL     1      74.569  38.010  29.508  1.00  0.00     0.033 C 
ATOM     27  C   UNL     1      75.975  37.421  29.765  1.00  0.00     0.120 C 
ATOM     28  C   UNL     1      78.432  37.361  29.156  1.00  0.00     0.014 C 
ATOM     29  C   UNL     1      77.466  39.517  29.942  1.00  0.00     0.014 C 
ENDROOT
BRANCH   1  30
ATOM     30  C   UNL     1      72.305  40.666  20.909  1.00  0.00     0.048 C 
ATOM     31  O   UNL     1      72.000  41.071  19.756  1.00  0.00    -0.550 OA
ATOM     32  O   UNL     1      71.466  40.997  21.969  1.00  0.00    -0.550 OA
ENDBRANCH   1  30
BRANCH  27  33
ATOM     33  O   UNL     1      75.974  36.096  29.281  1.00  0.00    -0.393 OA
ATOM     34  H   UNL     1      75.061  35.729  29.404  1.00  0.00     0.210 HD
ENDBRANCH  27  33
TORSDOF 2
ENDMDL
