MODEL 1
REMARK VINA RESULT:    -5.608      0.000      0.000
REMARK INTER + INTRA:          -6.143
REMARK INTER:                  -6.099
REMARK INTRA:                  -0.044
REMARK UNBOUND:                -0.044
REMARK SMILES COc1cc2ccc(=O)oc2cc1O
REMARK SMILES IDX 3 1 13 2 12 3 11 4 5 5 4 6 6 7 7 8 8 9 9 10 10 11 2 12 1 13
REMARK SMILES IDX 14 14
REMARK H PARENT 14 15
REMARK Flexibility Score: inf
ROOT
ATOM      1  C   UNL     1       5.536   9.507   2.615  1.00  0.00     0.161 A 
ATOM      2  C   UNL     1       5.982  10.822   2.843  1.00  0.00     0.161 A 
ATOM      3  C   UNL     1       5.391  11.606   3.842  1.00  0.00     0.098 A 
ATOM      4  C   UNL     1       4.352  11.090   4.621  1.00  0.00     0.142 A 
ATOM      5  C   UNL     1       3.898   9.774   4.401  1.00  0.00     0.022 A 
ATOM      6  C   UNL     1       4.488   8.987   3.403  1.00  0.00     0.062 A 
ATOM      7  C   UNL     1       2.857   9.286   5.198  1.00  0.00     0.019 A 
ATOM      8  C   UNL     1       2.303  10.107   6.179  1.00  0.00     0.094 A 
ATOM      9  C   UNL     1       2.805  11.403   6.340  1.00  0.00     0.336 A 
ATOM     10  O   UNL     1       2.319  12.161   7.220  1.00  0.00    -0.246 OA
ATOM     11  O   UNL     1       3.796  11.842   5.568  1.00  0.00    -0.423 OA
ENDROOT
BRANCH   1  12
ATOM     12  O   UNL     1       6.151   8.748   1.605  1.00  0.00    -0.493 OA
ATOM     13  C   UNL     1       5.640   7.526   1.088  1.00  0.00     0.278 C 
ENDBRANCH   1  12
BRANCH   2  14
ATOM     14  O   UNL     1       7.016  11.373   2.085  1.00  0.00    -0.504 OA
ATOM     15  H   UNL     1       6.883  11.670   1.126  1.00  0.00     0.293 HD
ENDBRANCH   2  14
TORSDOF 2
ENDMDL
MODEL 2
REMARK VINA RESULT:    -5.279      1.923      5.043
REMARK INTER + INTRA:          -5.785
REMARK INTER:                  -5.742
REMARK INTRA:                  -0.043
REMARK UNBOUND:                -0.044
REMARK SMILES COc1cc2ccc(=O)oc2cc1O
REMARK SMILES IDX 3 1 13 2 12 3 11 4 5 5 4 6 6 7 7 8 8 9 9 10 10 11 2 12 1 13
REMARK SMILES IDX 14 14
REMARK H PARENT 14 15
REMARK Flexibility Score: inf
ROOT
ATOM      1  C   UNL     1       5.288  10.313   3.277  1.00  0.00     0.161 A 
ATOM      2  C   UNL     1       6.297  10.197   2.302  1.00  0.00     0.161 A 
ATOM      3  C   UNL     1       6.474   8.992   1.610  1.00  0.00     0.098 A 
ATOM      4  C   UNL     1       5.652   7.896   1.879  1.00  0.00     0.142 A 
ATOM      5  C   UNL     1       4.639   8.003   2.854  1.00  0.00     0.022 A 
ATOM      6  C   UNL     1       4.458   9.206   3.548  1.00  0.00     0.062 A 
ATOM      7  C   UNL     1       3.831   6.887   3.100  1.00  0.00     0.019 A 
ATOM      8  C   UNL     1       4.050   5.711   2.383  1.00  0.00     0.094 A 
ATOM      9  C   UNL     1       5.074   5.679   1.431  1.00  0.00     0.336 A 
ATOM     10  O   UNL     1       5.289   4.628   0.772  1.00  0.00    -0.246 OA
ATOM     11  O   UNL     1       5.828   6.755   1.216  1.00  0.00    -0.423 OA
ENDROOT
BRANCH   1  12
ATOM     12  O   UNL     1       5.138  11.536   3.953  1.00  0.00    -0.493 OA
ATOM     13  C   UNL     1       4.088  11.830   4.867  1.00  0.00     0.278 C 
ENDBRANCH   1  12
BRANCH   2  14
ATOM     14  O   UNL     1       7.139  11.269   2.006  1.00  0.00    -0.504 OA
ATOM     15  H   UNL     1       7.078  11.777   1.131  1.00  0.00     0.293 HD
ENDBRANCH   2  14
TORSDOF 2
ENDMDL
MODEL 3
REMARK VINA RESULT:    -5.157      1.321      4.661
REMARK INTER + INTRA:          -5.653
REMARK INTER:                  -5.605
REMARK INTRA:                  -0.048
REMARK UNBOUND:                -0.044
REMARK SMILES COc1cc2ccc(=O)oc2cc1O
REMARK SMILES IDX 3 1 13 2 12 3 11 4 5 5 4 6 6 7 7 8 8 9 9 10 10 11 2 12 1 13
REMARK SMILES IDX 14 14
REMARK H PARENT 14 15
REMARK Flexibility Score: inf
ROOT
ATOM      1  C   UNL     1       4.405  11.568   4.521  1.00  0.00     0.161 A 
ATOM      2  C   UNL     1       5.385  11.878   3.559  1.00  0.00     0.161 A 
ATOM      3  C   UNL     1       5.841  10.895   2.673  1.00  0.00     0.098 A 
ATOM      4  C   UNL     1       5.329   9.596   2.734  1.00  0.00     0.142 A 
ATOM      5  C   UNL     1       4.347   9.276   3.694  1.00  0.00     0.022 A 
ATOM      6  C   UNL     1       3.888  10.257   4.582  1.00  0.00     0.062 A 
ATOM      7  C   UNL     1       3.852   7.967   3.730  1.00  0.00     0.019 A 
ATOM      8  C   UNL     1       4.341   7.025   2.824  1.00  0.00     0.094 A 
ATOM      9  C   UNL     1       5.315   7.416   1.900  1.00  0.00     0.336 A 
ATOM     10  O   UNL     1       5.769   6.582   1.074  1.00  0.00    -0.246 OA
ATOM     11  O   UNL     1       5.768   8.668   1.888  1.00  0.00    -0.423 OA
ENDROOT
BRANCH   1  12
ATOM     12  O   UNL     1       3.970  12.578   5.395  1.00  0.00    -0.493 OA
ATOM     13  C   UNL     1       3.652  12.379   6.767  1.00  0.00     0.278 C 
ENDBRANCH   1  12
BRANCH   2  14
ATOM     14  O   UNL     1       5.922  13.162   3.467  1.00  0.00    -0.504 OA
ATOM     15  H   UNL     1       6.588  13.419   2.748  1.00  0.00     0.293 HD
ENDBRANCH   2  14
TORSDOF 2
ENDMDL
MODEL 4
REMARK VINA RESULT:    -5.060      1.718      5.483
REMARK INTER + INTRA:          -5.547
REMARK INTER:                  -5.504
REMARK INTRA:                  -0.043
REMARK UNBOUND:                -0.044
REMARK SMILES COc1cc2ccc(=O)oc2cc1O
REMARK SMILES IDX 3 1 13 2 12 3 11 4 5 5 4 6 6 7 7 8 8 9 9 10 10 11 2 12 1 13
REMARK SMILES IDX 14 14
REMARK H PARENT 14 15
REMARK Flexibility Score: inf
ROOT
ATOM      1  C   UNL     1       3.880  10.556   4.583  1.00  0.00     0.161 A 
ATOM      2  C   UNL     1       3.249   9.300   4.654  1.00  0.00     0.161 A 
ATOM      3  C   UNL     1       3.723   8.227   3.889  1.00  0.00     0.098 A 
ATOM      4  C   UNL     1       4.825   8.393   3.047  1.00  0.00     0.142 A 
ATOM      5  C   UNL     1       5.465   9.648   2.970  1.00  0.00     0.022 A 
ATOM      6  C   UNL     1       4.994  10.723   3.735  1.00  0.00     0.062 A 
ATOM      7  C   UNL     1       6.568   9.782   2.119  1.00  0.00     0.019 A 
ATOM      8  C   UNL     1       6.999   8.682   1.378  1.00  0.00     0.094 A 
ATOM      9  C   UNL     1       6.315   7.469   1.507  1.00  0.00     0.336 A 
ATOM     10  O   UNL     1       6.688   6.463   0.847  1.00  0.00    -0.246 OA
ATOM     11  O   UNL     1       5.269   7.368   2.323  1.00  0.00    -0.423 OA
ENDROOT
BRANCH   1  12
ATOM     12  O   UNL     1       3.379  11.611   5.365  1.00  0.00    -0.493 OA
ATOM     13  C   UNL     1       3.985  12.893   5.476  1.00  0.00     0.278 C 
ENDBRANCH   1  12
BRANCH   2  14
ATOM     14  O   UNL     1       2.144   9.095   5.481  1.00  0.00    -0.504 OA
ATOM     15  H   UNL     1       1.627   9.863   5.893  1.00  0.00     0.293 HD
ENDBRANCH   2  14
TORSDOF 2
ENDMDL
MODEL 5
REMARK VINA RESULT:    -4.913      5.274      7.290
REMARK INTER + INTRA:          -5.387
REMARK INTER:                  -5.344
REMARK INTRA:                  -0.043
REMARK UNBOUND:                -0.044
REMARK SMILES COc1cc2ccc(=O)oc2cc1O
REMARK SMILES IDX 3 1 13 2 12 3 11 4 5 5 4 6 6 7 7 8 8 9 9 10 10 11 2 12 1 13
REMARK SMILES IDX 14 14
REMARK H PARENT 14 15
REMARK Flexibility Score: inf
ROOT
ATOM      1  C   UNL     1       5.350   6.769   0.916  1.00  0.00     0.161 A 
ATOM      2  C   UNL     1       5.667   5.791   1.877  1.00  0.00     0.161 A 
ATOM      3  C   UNL     1       4.957   4.585   1.918  1.00  0.00     0.098 A 
ATOM      4  C   UNL     1       3.926   4.341   1.007  1.00  0.00     0.142 A 
ATOM      5  C   UNL     1       3.601   5.315   0.040  1.00  0.00     0.022 A 
ATOM      6  C   UNL     1       4.311   6.523  -0.004  1.00  0.00     0.062 A 
ATOM      7  C   UNL     1       2.565   5.041  -0.860  1.00  0.00     0.019 A 
ATOM      8  C   UNL     1       1.889   3.824  -0.776  1.00  0.00     0.094 A 
ATOM      9  C   UNL     1       2.267   2.906   0.210  1.00  0.00     0.336 A 
ATOM     10  O   UNL     1       1.670   1.801   0.303  1.00  0.00    -0.246 OA
ATOM     11  O   UNL     1       3.256   3.192   1.053  1.00  0.00    -0.423 OA
ENDROOT
BRANCH   1  12
ATOM     12  O   UNL     1       6.083   7.968   0.903  1.00  0.00    -0.493 OA
ATOM     13  C   UNL     1       7.302   8.162   0.194  1.00  0.00     0.278 C 
ENDBRANCH   1  12
BRANCH   2  14
ATOM     14  O   UNL     1       6.688   5.997   2.805  1.00  0.00    -0.504 OA
ATOM     15  H   UNL     1       6.514   6.026   3.802  1.00  0.00     0.293 HD
ENDBRANCH   2  14
TORSDOF 2
ENDMDL
MODEL 6
REMARK VINA RESULT:    -4.862      6.960     10.010
REMARK INTER + INTRA:          -5.332
REMARK INTER:                  -5.267
REMARK INTRA:                  -0.065
REMARK UNBOUND:                -0.044
REMARK SMILES COc1cc2ccc(=O)oc2cc1O
REMARK SMILES IDX 3 1 13 2 12 3 11 4 5 5 4 6 6 7 7 8 8 9 9 10 10 11 2 12 1 13
REMARK SMILES IDX 14 14
REMARK H PARENT 14 15
REMARK Flexibility Score: inf
ROOT
ATOM      1  C   UNL     1       4.397   0.290  -1.473  1.00  0.00     0.161 A 
ATOM      2  C   UNL     1       3.650   0.870  -2.515  1.00  0.00     0.161 A 
ATOM      3  C   UNL     1       3.292   2.222  -2.460  1.00  0.00     0.098 A 
ATOM      4  C   UNL     1       3.671   3.009  -1.370  1.00  0.00     0.142 A 
ATOM      5  C   UNL     1       4.419   2.438  -0.320  1.00  0.00     0.022 A 
ATOM      6  C   UNL     1       4.780   1.085  -0.373  1.00  0.00     0.062 A 
ATOM      7  C   UNL     1       4.785   3.252   0.758  1.00  0.00     0.019 A 
ATOM      8  C   UNL     1       4.401   4.593   0.764  1.00  0.00     0.094 A 
ATOM      9  C   UNL     1       3.660   5.090  -0.312  1.00  0.00     0.336 A 
ATOM     10  O   UNL     1       3.303   6.298  -0.326  1.00  0.00    -0.246 OA
ATOM     11  O   UNL     1       3.325   4.294  -1.325  1.00  0.00    -0.423 OA
ENDROOT
BRANCH   1  12
ATOM     12  O   UNL     1       4.741  -1.069  -1.561  1.00  0.00    -0.493 OA
ATOM     13  C   UNL     1       6.006  -1.557  -1.992  1.00  0.00     0.278 C 
ENDBRANCH   1  12
BRANCH   2  14
ATOM     14  O   UNL     1       3.252   0.117  -3.620  1.00  0.00    -0.504 OA
ATOM     15  H   UNL     1       3.741   0.158  -4.506  1.00  0.00     0.293 HD
ENDBRANCH   2  14
TORSDOF 2
ENDMDL
MODEL 7
REMARK VINA RESULT:    -4.849      1.276      1.637
REMARK INTER + INTRA:          -5.317
REMARK INTER:                  -5.252
REMARK INTRA:                  -0.065
REMARK UNBOUND:                -0.044
REMARK SMILES COc1cc2ccc(=O)oc2cc1O
REMARK SMILES IDX 3 1 13 2 12 3 11 4 5 5 4 6 6 7 7 8 8 9 9 10 10 11 2 12 1 13
REMARK SMILES IDX 14 14
REMARK H PARENT 14 15
REMARK Flexibility Score: inf
ROOT
ATOM      1  C   UNL     1       5.158   7.803   2.485  1.00  0.00     0.161 A 
ATOM      2  C   UNL     1       5.978   8.909   2.193  1.00  0.00     0.161 A 
ATOM      3  C   UNL     1       5.762  10.136   2.834  1.00  0.00     0.098 A 
ATOM      4  C   UNL     1       4.732  10.274   3.768  1.00  0.00     0.142 A 
ATOM      5  C   UNL     1       3.906   9.171   4.067  1.00  0.00     0.022 A 
ATOM      6  C   UNL     1       4.119   7.942   3.428  1.00  0.00     0.062 A 
ATOM      7  C   UNL     1       2.884   9.340   5.007  1.00  0.00     0.019 A 
ATOM      8  C   UNL     1       2.712  10.583   5.616  1.00  0.00     0.094 A 
ATOM      9  C   UNL     1       3.570  11.631   5.269  1.00  0.00     0.336 A 
ATOM     10  O   UNL     1       3.432  12.761   5.807  1.00  0.00    -0.246 OA
ATOM     11  O   UNL     1       4.534  11.443   4.371  1.00  0.00    -0.423 OA
ENDROOT
BRANCH   1  12
ATOM     12  O   UNL     1       5.402   6.587   1.825  1.00  0.00    -0.493 OA
ATOM     13  C   UNL     1       4.678   6.123   0.691  1.00  0.00     0.278 C 
ENDBRANCH   1  12
BRANCH   2  14
ATOM     14  O   UNL     1       7.015   8.812   1.266  1.00  0.00    -0.504 OA
ATOM     15  H   UNL     1       7.303   7.926   0.868  1.00  0.00     0.293 HD
ENDBRANCH   2  14
TORSDOF 2
ENDMDL
MODEL 8
REMARK VINA RESULT:    -4.799      2.182      5.285
REMARK INTER + INTRA:          -5.264
REMARK INTER:                  -5.209
REMARK INTRA:                  -0.055
REMARK UNBOUND:                -0.044
REMARK SMILES COc1cc2ccc(=O)oc2cc1O
REMARK SMILES IDX 3 1 13 2 12 3 11 4 5 5 4 6 6 7 7 8 8 9 9 10 10 11 2 12 1 13
REMARK SMILES IDX 14 14
REMARK H PARENT 14 15
REMARK Flexibility Score: inf
ROOT
ATOM      1  C   UNL     1       5.411   9.881   3.494  1.00  0.00     0.161 A 
ATOM      2  C   UNL     1       4.449   9.331   4.362  1.00  0.00     0.161 A 
ATOM      3  C   UNL     1       3.821   8.120   4.043  1.00  0.00     0.098 A 
ATOM      4  C   UNL     1       4.142   7.448   2.861  1.00  0.00     0.142 A 
ATOM      5  C   UNL     1       5.104   7.992   1.986  1.00  0.00     0.022 A 
ATOM      6  C   UNL     1       5.735   9.203   2.302  1.00  0.00     0.062 A 
ATOM      7  C   UNL     1       5.405   7.295   0.810  1.00  0.00     0.019 A 
ATOM      8  C   UNL     1       4.750   6.094   0.540  1.00  0.00     0.094 A 
ATOM      9  C   UNL     1       3.807   5.616   1.455  1.00  0.00     0.336 A 
ATOM     10  O   UNL     1       3.204   4.533   1.231  1.00  0.00    -0.246 OA
ATOM     11  O   UNL     1       3.539   6.299   2.566  1.00  0.00    -0.423 OA
ENDROOT
BRANCH   1  12
ATOM     12  O   UNL     1       6.022  11.097   3.845  1.00  0.00    -0.493 OA
ATOM     13  C   UNL     1       5.542  12.382   3.467  1.00  0.00     0.278 C 
ENDBRANCH   1  12
BRANCH   2  14
ATOM     14  O   UNL     1       4.100   9.972   5.551  1.00  0.00    -0.504 OA
ATOM     15  H   UNL     1       3.138  10.062   5.854  1.00  0.00     0.293 HD
ENDBRANCH   2  14
TORSDOF 2
ENDMDL
MODEL 9
REMARK VINA RESULT:    -4.755      4.278      6.998
REMARK INTER + INTRA:          -5.215
REMARK INTER:                  -5.173
REMARK INTRA:                  -0.043
REMARK UNBOUND:                -0.044
REMARK SMILES COc1cc2ccc(=O)oc2cc1O
REMARK SMILES IDX 3 1 13 2 12 3 11 4 5 5 4 6 6 7 7 8 8 9 9 10 10 11 2 12 1 13
REMARK SMILES IDX 14 14
REMARK H PARENT 14 15
REMARK Flexibility Score: inf
ROOT
ATOM      1  C   UNL     1       3.943   3.249  -0.256  1.00  0.00     0.161 A 
ATOM      2  C   UNL     1       3.268   4.255  -0.972  1.00  0.00     0.161 A 
ATOM      3  C   UNL     1       3.412   5.599  -0.606  1.00  0.00     0.098 A 
ATOM      4  C   UNL     1       4.224   5.954   0.474  1.00  0.00     0.142 A 
ATOM      5  C   UNL     1       4.904   4.953   1.197  1.00  0.00     0.022 A 
ATOM      6  C   UNL     1       4.764   3.607   0.833  1.00  0.00     0.062 A 
ATOM      7  C   UNL     1       5.711   5.340   2.272  1.00  0.00     0.019 A 
ATOM      8  C   UNL     1       5.819   6.693   2.596  1.00  0.00     0.094 A 
ATOM      9  C   UNL     1       5.115   7.630   1.833  1.00  0.00     0.336 A 
ATOM     10  O   UNL     1       5.198   8.856   2.107  1.00  0.00    -0.246 OA
ATOM     11  O   UNL     1       4.354   7.234   0.815  1.00  0.00    -0.423 OA
ENDROOT
BRANCH   1  12
ATOM     12  O   UNL     1       3.778   1.910  -0.650  1.00  0.00    -0.493 OA
ATOM     13  C   UNL     1       4.568   1.255  -1.636  1.00  0.00     0.278 C 
ENDBRANCH   1  12
BRANCH   2  14
ATOM     14  O   UNL     1       2.447   3.941  -2.055  1.00  0.00    -0.504 OA
ATOM     15  H   UNL     1       2.032   3.024  -2.170  1.00  0.00     0.293 HD
ENDBRANCH   2  14
TORSDOF 2
ENDMDL
