MODEL 1
REMARK VINA RESULT:    -5.500      0.000      0.000
REMARK INTER + INTRA:         -18.678
REMARK INTER:                 -14.504
REMARK INTRA:                  -4.174
REMARK UNBOUND:                -4.174
REMARK SMILES CCCCCCCCCCCCCCCCCCCCCCCCCCCCCC(=O)[O-]
REMARK SMILES IDX 16 1 17 2 18 3 19 4 20 5 21 6 22 7 23 8 24 9 25 10 26 11
REMARK SMILES IDX 27 12 28 13 29 14 30 15 31 16 32 17 15 18 14 19 13 20 12 21
REMARK SMILES IDX 11 22 10 23 9 24 8 25 7 26 6 27 5 28 4 29 3 30 2 31 1 32
REMARK H PARENT
REMARK Flexibility Score: inf
ROOT
ATOM      1  C   UNL     1      91.074 326.191 201.118  1.00  0.00     0.000 C 
ENDROOT
BRANCH   1   2
ATOM      2  C   UNL     1      89.594 326.511 200.854  1.00  0.00     0.000 C 
BRANCH   2   3
ATOM      3  C   UNL     1      89.114 325.991 199.491  1.00  0.00     0.000 C 
BRANCH   3   4
ATOM      4  C   UNL     1      89.343 324.478 199.371  1.00  0.00     0.000 C 
BRANCH   4   5
ATOM      5  C   UNL     1      88.854 323.957 198.012  1.00  0.00     0.000 C 
BRANCH   5   6
ATOM      6  C   UNL     1      89.138 324.934 196.858  1.00  0.00     0.000 C 
BRANCH   6   7
ATOM      7  C   UNL     1      87.902 325.340 196.028  1.00  0.00     0.000 C 
BRANCH   7   8
ATOM      8  C   UNL     1      88.118 326.528 195.070  1.00  0.00     0.000 C 
BRANCH   8   9
ATOM      9  C   UNL     1      87.239 326.515 193.801  1.00  0.00     0.000 C 
BRANCH   9  10
ATOM     10  C   UNL     1      86.313 325.292 193.668  1.00  0.00     0.000 C 
BRANCH  10  11
ATOM     11  C   UNL     1      86.664 324.345 192.505  1.00  0.00     0.000 C 
BRANCH  11  12
ATOM     12  C   UNL     1      88.108 324.521 191.979  1.00  0.00     0.000 C 
BRANCH  12  13
ATOM     13  C   UNL     1      88.400 323.731 190.685  1.00  0.00     0.006 C 
BRANCH  13  14
ATOM     14  C   UNL     1      87.262 322.784 190.275  1.00  0.00     0.053 C 
BRANCH  14  15
ATOM     15  C   UNL     1      87.432 322.259 188.884  1.00  0.00     0.041 C 
ATOM     16  O   UNL     1      86.426 322.027 188.165  1.00  0.00    -0.550 OA
ATOM     17  O   UNL     1      88.704 321.993 188.394  1.00  0.00    -0.550 OA
ENDBRANCH  14  15
ENDBRANCH  13  14
ENDBRANCH  12  13
ENDBRANCH  11  12
ENDBRANCH  10  11
ENDBRANCH   9  10
ENDBRANCH   8   9
ENDBRANCH   7   8
ENDBRANCH   6   7
ENDBRANCH   5   6
ENDBRANCH   4   5
ENDBRANCH   3   4
ENDBRANCH   2   3
ENDBRANCH   1   2
BRANCH   1  18
ATOM     18  C   UNL     1      91.601 326.858 202.402  1.00  0.00     0.000 C 
BRANCH  18  19
ATOM     19  C   UNL     1      90.475 327.229 203.383  1.00  0.00     0.000 C 
BRANCH  19  20
ATOM     20  C   UNL     1      90.946 327.551 204.816  1.00  0.00     0.000 C 
BRANCH  20  21
ATOM     21  C   UNL     1      89.973 327.133 205.936  1.00  0.00     0.000 C 
BRANCH  21  22
ATOM     22  C   UNL     1      88.664 326.481 205.454  1.00  0.00     0.000 C 
BRANCH  22  23
ATOM     23  C   UNL     1      88.129 325.353 206.356  1.00  0.00     0.000 C 
BRANCH  23  24
ATOM     24  C   UNL     1      86.716 324.859 205.967  1.00  0.00    -0.000 C 
BRANCH  24  25
ATOM     25  C   UNL     1      86.696 323.610 205.061  1.00  0.00    -0.000 C 
BRANCH  25  26
ATOM     26  C   UNL     1      86.442 323.883 203.564  1.00  0.00    -0.000 C 
BRANCH  26  27
ATOM     27  C   UNL     1      87.703 323.966 202.683  1.00  0.00    -0.000 C 
BRANCH  27  28
ATOM     28  C   UNL     1      88.738 322.849 202.914  1.00  0.00    -0.000 C 
BRANCH  28  29
ATOM     29  C   UNL     1      90.176 323.382 203.030  1.00  0.00    -0.000 C 
BRANCH  29  30
ATOM     30  C   UNL     1      90.625 323.582 204.489  1.00  0.00    -0.000 C 
BRANCH  30  31
ATOM     31  C   UNL     1      92.102 323.978 204.669  1.00  0.00    -0.003 C 
ATOM     32  C   UNL     1      92.459 324.324 206.113  1.00  0.00     0.004 C 
ENDBRANCH  30  31
ENDBRANCH  29  30
ENDBRANCH  28  29
ENDBRANCH  27  28
ENDBRANCH  26  27
ENDBRANCH  25  26
ENDBRANCH  24  25
ENDBRANCH  23  24
ENDBRANCH  22  23
ENDBRANCH  21  22
ENDBRANCH  20  21
ENDBRANCH  19  20
ENDBRANCH  18  19
ENDBRANCH   1  18
TORSDOF 28
ENDMDL
MODEL 2
REMARK VINA RESULT:    -5.486      1.611      3.531
REMARK INTER + INTRA:         -18.640
REMARK INTER:                 -15.128
REMARK INTRA:                  -3.512
REMARK UNBOUND:                -4.174
REMARK SMILES CCCCCCCCCCCCCCCCCCCCCCCCCCCCCC(=O)[O-]
REMARK SMILES IDX 16 1 17 2 18 3 19 4 20 5 21 6 22 7 23 8 24 9 25 10 26 11
REMARK SMILES IDX 27 12 28 13 29 14 30 15 31 16 32 17 15 18 14 19 13 20 12 21
REMARK SMILES IDX 11 22 10 23 9 24 8 25 7 26 6 27 5 28 4 29 3 30 2 31 1 32
REMARK H PARENT
REMARK Flexibility Score: inf
ROOT
ATOM      1  C   UNL     1      87.556 322.425 200.939  1.00  0.00     0.000 C 
ENDROOT
BRANCH   1   2
ATOM      2  C   UNL     1      87.499 321.929 199.485  1.00  0.00     0.000 C 
BRANCH   2   3
ATOM      3  C   UNL     1      88.408 322.742 198.551  1.00  0.00     0.000 C 
BRANCH   3   4
ATOM      4  C   UNL     1      87.965 322.594 197.090  1.00  0.00     0.000 C 
BRANCH   4   5
ATOM      5  C   UNL     1      88.740 323.560 196.182  1.00  0.00     0.000 C 
BRANCH   5   6
ATOM      6  C   UNL     1      89.224 324.819 196.923  1.00  0.00     0.000 C 
BRANCH   6   7
ATOM      7  C   UNL     1      88.372 326.083 196.687  1.00  0.00     0.000 C 
BRANCH   7   8
ATOM      8  C   UNL     1      88.112 326.432 195.208  1.00  0.00     0.000 C 
BRANCH   8   9
ATOM      9  C   UNL     1      86.656 326.237 194.734  1.00  0.00     0.000 C 
BRANCH   9  10
ATOM     10  C   UNL     1      86.497 325.380 193.465  1.00  0.00     0.000 C 
BRANCH  10  11
ATOM     11  C   UNL     1      87.822 324.987 192.785  1.00  0.00     0.000 C 
BRANCH  11  12
ATOM     12  C   UNL     1      87.640 324.030 191.584  1.00  0.00     0.000 C 
BRANCH  12  13
ATOM     13  C   UNL     1      86.195 323.512 191.414  1.00  0.00     0.006 C 
BRANCH  13  14
ATOM     14  C   UNL     1      86.110 322.172 190.667  1.00  0.00     0.053 C 
BRANCH  14  15
ATOM     15  C   UNL     1      87.304 321.928 189.798  1.00  0.00     0.041 C 
ATOM     16  O   UNL     1      88.310 321.329 190.257  1.00  0.00    -0.550 OA
ATOM     17  O   UNL     1      87.318 322.395 188.490  1.00  0.00    -0.550 OA
ENDBRANCH  14  15
ENDBRANCH  13  14
ENDBRANCH  12  13
ENDBRANCH  11  12
ENDBRANCH  10  11
ENDBRANCH   9  10
ENDBRANCH   8   9
ENDBRANCH   7   8
ENDBRANCH   6   7
ENDBRANCH   5   6
ENDBRANCH   4   5
ENDBRANCH   3   4
ENDBRANCH   2   3
ENDBRANCH   1   2
BRANCH   1  18
ATOM     18  C   UNL     1      86.157 322.697 201.523  1.00  0.00     0.000 C 
BRANCH  18  19
ATOM     19  C   UNL     1      86.155 323.842 202.551  1.00  0.00     0.000 C 
BRANCH  19  20
ATOM     20  C   UNL     1      87.004 323.580 203.813  1.00  0.00     0.000 C 
BRANCH  20  21
ATOM     21  C   UNL     1      86.272 323.796 205.152  1.00  0.00     0.000 C 
BRANCH  21  22
ATOM     22  C   UNL     1      86.821 324.945 206.018  1.00  0.00     0.000 C 
BRANCH  22  23
ATOM     23  C   UNL     1      88.349 324.940 206.211  1.00  0.00     0.000 C 
BRANCH  23  24
ATOM     24  C   UNL     1      88.948 326.337 206.498  1.00  0.00    -0.000 C 
BRANCH  24  25
ATOM     25  C   UNL     1      89.275 327.169 205.240  1.00  0.00    -0.000 C 
BRANCH  25  26
ATOM     26  C   UNL     1      89.538 326.352 203.957  1.00  0.00    -0.000 C 
BRANCH  26  27
ATOM     27  C   UNL     1      88.956 326.949 202.662  1.00  0.00    -0.000 C 
BRANCH  27  28
ATOM     28  C   UNL     1      88.724 325.939 201.522  1.00  0.00    -0.000 C 
BRANCH  28  29
ATOM     29  C   UNL     1      89.688 326.141 200.341  1.00  0.00    -0.000 C 
BRANCH  29  30
ATOM     30  C   UNL     1      91.045 325.443 200.548  1.00  0.00    -0.000 C 
BRANCH  30  31
ATOM     31  C   UNL     1      90.961 323.979 201.015  1.00  0.00    -0.003 C 
ATOM     32  C   UNL     1      91.655 323.004 200.064  1.00  0.00     0.004 C 
ENDBRANCH  30  31
ENDBRANCH  29  30
ENDBRANCH  28  29
ENDBRANCH  27  28
ENDBRANCH  26  27
ENDBRANCH  25  26
ENDBRANCH  24  25
ENDBRANCH  23  24
ENDBRANCH  22  23
ENDBRANCH  21  22
ENDBRANCH  20  21
ENDBRANCH  19  20
ENDBRANCH  18  19
ENDBRANCH   1  18
TORSDOF 28
ENDMDL
MODEL 3
REMARK VINA RESULT:    -5.465      1.678      3.791
REMARK INTER + INTRA:         -18.584
REMARK INTER:                 -15.093
REMARK INTRA:                  -3.492
REMARK UNBOUND:                -4.174
REMARK SMILES CCCCCCCCCCCCCCCCCCCCCCCCCCCCCC(=O)[O-]
REMARK SMILES IDX 16 1 17 2 18 3 19 4 20 5 21 6 22 7 23 8 24 9 25 10 26 11
REMARK SMILES IDX 27 12 28 13 29 14 30 15 31 16 32 17 15 18 14 19 13 20 12 21
REMARK SMILES IDX 11 22 10 23 9 24 8 25 7 26 6 27 5 28 4 29 3 30 2 31 1 32
REMARK H PARENT
REMARK Flexibility Score: inf
ROOT
ATOM      1  C   UNL     1      88.883 322.412 199.492  1.00  0.00     0.000 C 
ENDROOT
BRANCH   1   2
ATOM      2  C   UNL     1      90.226 323.117 199.245  1.00  0.00     0.000 C 
BRANCH   2   3
ATOM      3  C   UNL     1      90.455 323.443 197.761  1.00  0.00     0.000 C 
BRANCH   3   4
ATOM      4  C   UNL     1      89.468 322.674 196.873  1.00  0.00     0.000 C 
BRANCH   4   5
ATOM      5  C   UNL     1      88.805 323.610 195.853  1.00  0.00     0.000 C 
BRANCH   5   6
ATOM      6  C   UNL     1      88.130 324.828 196.509  1.00  0.00     0.000 C 
BRANCH   6   7
ATOM      7  C   UNL     1      88.599 326.198 195.978  1.00  0.00     0.000 C 
BRANCH   7   8
ATOM      8  C   UNL     1      88.140 326.539 194.546  1.00  0.00     0.000 C 
BRANCH   8   9
ATOM      9  C   UNL     1      86.660 326.221 194.239  1.00  0.00     0.000 C 
BRANCH   9  10
ATOM     10  C   UNL     1      86.439 325.048 193.267  1.00  0.00     0.000 C 
BRANCH  10  11
ATOM     11  C   UNL     1      87.713 324.550 192.560  1.00  0.00     0.000 C 
BRANCH  11  12
ATOM     12  C   UNL     1      87.447 323.942 191.163  1.00  0.00     0.000 C 
BRANCH  12  13
ATOM     13  C   UNL     1      88.644 323.153 190.588  1.00  0.00     0.006 C 
BRANCH  13  14
ATOM     14  C   UNL     1      88.701 323.159 189.053  1.00  0.00     0.053 C 
BRANCH  14  15
ATOM     15  C   UNL     1      90.028 322.703 188.532  1.00  0.00     0.041 C 
ATOM     16  O   UNL     1      91.045 323.431 188.661  1.00  0.00    -0.550 OA
ATOM     17  O   UNL     1      90.133 321.485 187.872  1.00  0.00    -0.550 OA
ENDBRANCH  14  15
ENDBRANCH  13  14
ENDBRANCH  12  13
ENDBRANCH  11  12
ENDBRANCH  10  11
ENDBRANCH   9  10
ENDBRANCH   8   9
ENDBRANCH   7   8
ENDBRANCH   6   7
ENDBRANCH   5   6
ENDBRANCH   4   5
ENDBRANCH   3   4
ENDBRANCH   2   3
ENDBRANCH   1   2
BRANCH   1  18
ATOM     18  C   UNL     1      88.549 322.291 200.990  1.00  0.00     0.000 C 
BRANCH  18  19
ATOM     19  C   UNL     1      87.095 322.679 201.308  1.00  0.00     0.000 C 
BRANCH  19  20
ATOM     20  C   UNL     1      86.693 322.528 202.790  1.00  0.00     0.000 C 
BRANCH  20  21
ATOM     21  C   UNL     1      86.552 323.851 203.570  1.00  0.00     0.000 C 
BRANCH  21  22
ATOM     22  C   UNL     1      86.657 323.719 205.101  1.00  0.00     0.000 C 
BRANCH  22  23
ATOM     23  C   UNL     1      87.949 324.288 205.715  1.00  0.00     0.000 C 
BRANCH  23  24
ATOM     24  C   UNL     1      87.879 325.799 206.035  1.00  0.00    -0.000 C 
BRANCH  24  25
ATOM     25  C   UNL     1      89.091 326.351 206.814  1.00  0.00    -0.000 C 
BRANCH  25  26
ATOM     26  C   UNL     1      90.085 327.190 205.983  1.00  0.00    -0.000 C 
BRANCH  26  27
ATOM     27  C   UNL     1      89.744 327.329 204.487  1.00  0.00    -0.000 C 
BRANCH  27  28
ATOM     28  C   UNL     1      90.958 327.372 203.540  1.00  0.00    -0.000 C 
BRANCH  28  29
ATOM     29  C   UNL     1      90.811 326.423 202.338  1.00  0.00    -0.000 C 
BRANCH  29  30
ATOM     30  C   UNL     1      89.444 325.716 202.297  1.00  0.00    -0.000 C 
BRANCH  30  31
ATOM     31  C   UNL     1      88.565 326.065 201.082  1.00  0.00    -0.003 C 
ATOM     32  C   UNL     1      89.369 326.571 199.885  1.00  0.00     0.004 C 
ENDBRANCH  30  31
ENDBRANCH  29  30
ENDBRANCH  28  29
ENDBRANCH  27  28
ENDBRANCH  26  27
ENDBRANCH  25  26
ENDBRANCH  24  25
ENDBRANCH  23  24
ENDBRANCH  22  23
ENDBRANCH  21  22
ENDBRANCH  20  21
ENDBRANCH  19  20
ENDBRANCH  18  19
ENDBRANCH   1  18
TORSDOF 28
ENDMDL
MODEL 4
REMARK VINA RESULT:    -5.437      1.898      3.278
REMARK INTER + INTRA:         -18.510
REMARK INTER:                 -15.777
REMARK INTRA:                  -2.733
REMARK UNBOUND:                -4.174
REMARK SMILES CCCCCCCCCCCCCCCCCCCCCCCCCCCCCC(=O)[O-]
REMARK SMILES IDX 16 1 17 2 18 3 19 4 20 5 21 6 22 7 23 8 24 9 25 10 26 11
REMARK SMILES IDX 27 12 28 13 29 14 30 15 31 16 32 17 15 18 14 19 13 20 12 21
REMARK SMILES IDX 11 22 10 23 9 24 8 25 7 26 6 27 5 28 4 29 3 30 2 31 1 32
REMARK H PARENT
REMARK Flexibility Score: inf
ROOT
ATOM      1  C   UNL     1      89.946 326.153 200.413  1.00  0.00     0.000 C 
ENDROOT
BRANCH   1   2
ATOM      2  C   UNL     1      89.181 325.747 199.142  1.00  0.00     0.000 C 
BRANCH   2   3
ATOM      3  C   UNL     1      88.863 326.948 198.239  1.00  0.00     0.000 C 
BRANCH   3   4
ATOM      4  C   UNL     1      88.525 326.487 196.815  1.00  0.00     0.000 C 
BRANCH   4   5
ATOM      5  C   UNL     1      88.588 324.957 196.705  1.00  0.00     0.000 C 
BRANCH   5   6
ATOM      6  C   UNL     1      88.314 324.448 195.278  1.00  0.00     0.000 C 
BRANCH   6   7
ATOM      7  C   UNL     1      87.777 325.511 194.298  1.00  0.00     0.000 C 
BRANCH   7   8
ATOM      8  C   UNL     1      87.565 325.022 192.852  1.00  0.00     0.000 C 
BRANCH   8   9
ATOM      9  C   UNL     1      86.781 323.700 192.715  1.00  0.00     0.000 C 
BRANCH   9  10
ATOM     10  C   UNL     1      86.095 323.492 191.352  1.00  0.00     0.000 C 
BRANCH  10  11
ATOM     11  C   UNL     1      86.657 322.322 190.522  1.00  0.00     0.000 C 
BRANCH  11  12
ATOM     12  C   UNL     1      87.598 322.772 189.380  1.00  0.00     0.000 C 
BRANCH  12  13
ATOM     13  C   UNL     1      88.961 323.306 189.869  1.00  0.00     0.006 C 
BRANCH  13  14
ATOM     14  C   UNL     1      89.958 323.574 188.732  1.00  0.00     0.053 C 
BRANCH  14  15
ATOM     15  C   UNL     1      91.068 322.570 188.701  1.00  0.00     0.041 C 
ATOM     16  O   UNL     1      91.881 322.551 187.741  1.00  0.00    -0.550 OA
ATOM     17  O   UNL     1      91.183 321.631 189.718  1.00  0.00    -0.550 OA
ENDBRANCH  14  15
ENDBRANCH  13  14
ENDBRANCH  12  13
ENDBRANCH  11  12
ENDBRANCH  10  11
ENDBRANCH   9  10
ENDBRANCH   8   9
ENDBRANCH   7   8
ENDBRANCH   6   7
ENDBRANCH   5   6
ENDBRANCH   4   5
ENDBRANCH   3   4
ENDBRANCH   2   3
ENDBRANCH   1   2
BRANCH   1  18
ATOM     18  C   UNL     1      89.026 326.267 201.642  1.00  0.00     0.000 C 
BRANCH  18  19
ATOM     19  C   UNL     1      89.810 326.369 202.962  1.00  0.00     0.000 C 
BRANCH  19  20
ATOM     20  C   UNL     1      89.220 327.356 203.990  1.00  0.00     0.000 C 
BRANCH  20  21
ATOM     21  C   UNL     1      89.774 327.221 205.423  1.00  0.00     0.000 C 
BRANCH  21  22
ATOM     22  C   UNL     1      88.815 326.567 206.434  1.00  0.00     0.000 C 
BRANCH  22  23
ATOM     23  C   UNL     1      88.364 325.140 206.073  1.00  0.00     0.000 C 
BRANCH  23  24
ATOM     24  C   UNL     1      86.829 324.954 206.055  1.00  0.00    -0.000 C 
BRANCH  24  25
ATOM     25  C   UNL     1      86.322 323.878 205.071  1.00  0.00    -0.000 C 
BRANCH  25  26
ATOM     26  C   UNL     1      87.048 323.833 203.709  1.00  0.00    -0.000 C 
BRANCH  26  27
ATOM     27  C   UNL     1      86.145 324.006 202.473  1.00  0.00    -0.000 C 
BRANCH  27  28
ATOM     28  C   UNL     1      86.039 322.768 201.562  1.00  0.00    -0.000 C 
BRANCH  28  29
ATOM     29  C   UNL     1      87.334 321.939 201.529  1.00  0.00    -0.000 C 
BRANCH  29  30
ATOM     30  C   UNL     1      88.323 322.416 200.449  1.00  0.00    -0.000 C 
BRANCH  30  31
ATOM     31  C   UNL     1      87.862 322.192 198.997  1.00  0.00    -0.003 C 
ATOM     32  C   UNL     1      87.142 320.860 198.794  1.00  0.00     0.004 C 
ENDBRANCH  30  31
ENDBRANCH  29  30
ENDBRANCH  28  29
ENDBRANCH  27  28
ENDBRANCH  26  27
ENDBRANCH  25  26
ENDBRANCH  24  25
ENDBRANCH  23  24
ENDBRANCH  22  23
ENDBRANCH  21  22
ENDBRANCH  20  21
ENDBRANCH  19  20
ENDBRANCH  18  19
ENDBRANCH   1  18
TORSDOF 28
ENDMDL
MODEL 5
REMARK VINA RESULT:    -5.400      2.551      4.489
REMARK INTER + INTRA:         -18.414
REMARK INTER:                 -14.479
REMARK INTRA:                  -3.935
REMARK UNBOUND:                -4.174
REMARK SMILES CCCCCCCCCCCCCCCCCCCCCCCCCCCCCC(=O)[O-]
REMARK SMILES IDX 16 1 17 2 18 3 19 4 20 5 21 6 22 7 23 8 24 9 25 10 26 11
REMARK SMILES IDX 27 12 28 13 29 14 30 15 31 16 32 17 15 18 14 19 13 20 12 21
REMARK SMILES IDX 11 22 10 23 9 24 8 25 7 26 6 27 5 28 4 29 3 30 2 31 1 32
REMARK H PARENT
REMARK Flexibility Score: inf
ROOT
ATOM      1  C   UNL     1      89.272 324.920 198.849  1.00  0.00     0.000 C 
ENDROOT
BRANCH   1   2
ATOM      2  C   UNL     1      88.903 324.968 197.358  1.00  0.00     0.000 C 
BRANCH   2   3
ATOM      3  C   UNL     1      88.551 326.386 196.884  1.00  0.00     0.000 C 
BRANCH   3   4
ATOM      4  C   UNL     1      88.268 326.406 195.376  1.00  0.00     0.000 C 
BRANCH   4   5
ATOM      5  C   UNL     1      86.826 325.968 195.084  1.00  0.00     0.000 C 
BRANCH   5   6
ATOM      6  C   UNL     1      86.603 325.589 193.609  1.00  0.00     0.000 C 
BRANCH   6   7
ATOM      7  C   UNL     1      87.888 325.278 192.814  1.00  0.00     0.000 C 
BRANCH   7   8
ATOM      8  C   UNL     1      87.726 324.240 191.686  1.00  0.00     0.000 C 
BRANCH   8   9
ATOM      9  C   UNL     1      86.359 323.525 191.645  1.00  0.00     0.000 C 
BRANCH   9  10
ATOM     10  C   UNL     1      86.433 321.987 191.637  1.00  0.00     0.000 C 
BRANCH  10  11
ATOM     11  C   UNL     1      86.953 321.362 192.946  1.00  0.00     0.000 C 
BRANCH  11  12
ATOM     12  C   UNL     1      86.341 321.994 194.218  1.00  0.00     0.000 C 
BRANCH  12  13
ATOM     13  C   UNL     1      87.370 322.257 195.339  1.00  0.00     0.006 C 
BRANCH  13  14
ATOM     14  C   UNL     1      88.816 322.356 194.832  1.00  0.00     0.053 C 
BRANCH  14  15
ATOM     15  C   UNL     1      89.745 321.455 195.584  1.00  0.00     0.041 C 
ATOM     16  O   UNL     1      90.416 321.899 196.551  1.00  0.00    -0.550 OA
ATOM     17  O   UNL     1      89.895 320.130 195.194  1.00  0.00    -0.550 OA
ENDBRANCH  14  15
ENDBRANCH  13  14
ENDBRANCH  12  13
ENDBRANCH  11  12
ENDBRANCH  10  11
ENDBRANCH   9  10
ENDBRANCH   8   9
ENDBRANCH   7   8
ENDBRANCH   6   7
ENDBRANCH   5   6
ENDBRANCH   4   5
ENDBRANCH   3   4
ENDBRANCH   2   3
ENDBRANCH   1   2
BRANCH   1  18
ATOM     18  C   UNL     1      89.247 326.312 199.507  1.00  0.00     0.000 C 
BRANCH  18  19
ATOM     19  C   UNL     1      89.789 326.299 200.947  1.00  0.00     0.000 C 
BRANCH  19  20
ATOM     20  C   UNL     1      88.728 326.533 202.041  1.00  0.00     0.000 C 
BRANCH  20  21
ATOM     21  C   UNL     1      89.204 326.274 203.484  1.00  0.00     0.000 C 
BRANCH  21  22
ATOM     22  C   UNL     1      90.119 327.364 204.074  1.00  0.00     0.000 C 
BRANCH  22  23
ATOM     23  C   UNL     1      90.203 327.380 205.611  1.00  0.00     0.000 C 
BRANCH  23  24
ATOM     24  C   UNL     1      89.021 326.667 206.310  1.00  0.00    -0.000 C 
BRANCH  24  25
ATOM     25  C   UNL     1      89.312 325.215 206.745  1.00  0.00    -0.000 C 
BRANCH  25  26
ATOM     26  C   UNL     1      88.219 324.186 206.388  1.00  0.00    -0.000 C 
BRANCH  26  27
ATOM     27  C   UNL     1      86.887 324.782 205.893  1.00  0.00    -0.000 C 
BRANCH  27  28
ATOM     28  C   UNL     1      86.185 323.980 204.781  1.00  0.00    -0.000 C 
BRANCH  28  29
ATOM     29  C   UNL     1      87.027 322.796 204.276  1.00  0.00    -0.000 C 
BRANCH  29  30
ATOM     30  C   UNL     1      87.571 323.012 202.851  1.00  0.00    -0.000 C 
BRANCH  30  31
ATOM     31  C   UNL     1      86.548 322.789 201.722  1.00  0.00    -0.003 C 
ATOM     32  C   UNL     1      87.185 322.302 200.422  1.00  0.00     0.004 C 
ENDBRANCH  30  31
ENDBRANCH  29  30
ENDBRANCH  28  29
ENDBRANCH  27  28
ENDBRANCH  26  27
ENDBRANCH  25  26
ENDBRANCH  24  25
ENDBRANCH  23  24
ENDBRANCH  22  23
ENDBRANCH  21  22
ENDBRANCH  20  21
ENDBRANCH  19  20
ENDBRANCH  18  19
ENDBRANCH   1  18
TORSDOF 28
ENDMDL
MODEL 6
REMARK VINA RESULT:    -5.396      2.681      4.028
REMARK INTER + INTRA:         -18.404
REMARK INTER:                 -14.113
REMARK INTRA:                  -4.290
REMARK UNBOUND:                -4.174
REMARK SMILES CCCCCCCCCCCCCCCCCCCCCCCCCCCCCC(=O)[O-]
REMARK SMILES IDX 16 1 17 2 18 3 19 4 20 5 21 6 22 7 23 8 24 9 25 10 26 11
REMARK SMILES IDX 27 12 28 13 29 14 30 15 31 16 32 17 15 18 14 19 13 20 12 21
REMARK SMILES IDX 11 22 10 23 9 24 8 25 7 26 6 27 5 28 4 29 3 30 2 31 1 32
REMARK H PARENT
REMARK Flexibility Score: inf
ROOT
ATOM      1  C   UNL     1      89.797 324.664 199.281  1.00  0.00     0.000 C 
ENDROOT
BRANCH   1   2
ATOM      2  C   UNL     1      88.891 323.809 198.381  1.00  0.00     0.000 C 
BRANCH   2   3
ATOM      3  C   UNL     1      89.162 324.038 196.886  1.00  0.00     0.000 C 
BRANCH   3   4
ATOM      4  C   UNL     1      88.011 324.813 196.233  1.00  0.00     0.000 C 
BRANCH   4   5
ATOM      5  C   UNL     1      88.508 326.143 195.649  1.00  0.00     0.000 C 
BRANCH   5   6
ATOM      6  C   UNL     1      87.808 326.515 194.330  1.00  0.00     0.000 C 
BRANCH   6   7
ATOM      7  C   UNL     1      86.486 325.768 194.059  1.00  0.00     0.000 C 
BRANCH   7   8
ATOM      8  C   UNL     1      86.509 324.811 192.851  1.00  0.00     0.000 C 
BRANCH   8   9
ATOM      9  C   UNL     1      87.845 324.762 192.079  1.00  0.00     0.000 C 
BRANCH   9  10
ATOM     10  C   UNL     1      88.488 323.366 191.985  1.00  0.00     0.000 C 
BRANCH  10  11
ATOM     11  C   UNL     1      88.669 322.650 193.337  1.00  0.00     0.000 C 
BRANCH  11  12
ATOM     12  C   UNL     1      88.054 321.232 193.373  1.00  0.00     0.000 C 
BRANCH  12  13
ATOM     13  C   UNL     1      86.571 321.206 193.804  1.00  0.00     0.006 C 
BRANCH  13  14
ATOM     14  C   UNL     1      86.343 321.700 195.241  1.00  0.00     0.053 C 
BRANCH  14  15
ATOM     15  C   UNL     1      86.718 320.672 196.261  1.00  0.00     0.041 C 
ATOM     16  O   UNL     1      87.092 321.024 197.409  1.00  0.00    -0.550 OA
ATOM     17  O   UNL     1      86.686 319.323 195.931  1.00  0.00    -0.550 OA
ENDBRANCH  14  15
ENDBRANCH  13  14
ENDBRANCH  12  13
ENDBRANCH  11  12
ENDBRANCH  10  11
ENDBRANCH   9  10
ENDBRANCH   8   9
ENDBRANCH   7   8
ENDBRANCH   6   7
ENDBRANCH   5   6
ENDBRANCH   4   5
ENDBRANCH   3   4
ENDBRANCH   2   3
ENDBRANCH   1   2
BRANCH   1  18
ATOM     18  C   UNL     1      89.216 326.067 199.539  1.00  0.00     0.000 C 
BRANCH  18  19
ATOM     19  C   UNL     1      89.397 326.526 200.996  1.00  0.00     0.000 C 
BRANCH  19  20
ATOM     20  C   UNL     1      90.855 326.533 201.497  1.00  0.00     0.000 C 
BRANCH  20  21
ATOM     21  C   UNL     1      91.072 327.184 202.877  1.00  0.00     0.000 C 
BRANCH  21  22
ATOM     22  C   UNL     1      89.800 327.347 203.729  1.00  0.00     0.000 C 
BRANCH  22  23
ATOM     23  C   UNL     1      89.943 326.915 205.201  1.00  0.00     0.000 C 
BRANCH  23  24
ATOM     24  C   UNL     1      88.597 326.606 205.896  1.00  0.00    -0.000 C 
BRANCH  24  25
ATOM     25  C   UNL     1      88.253 325.105 205.997  1.00  0.00    -0.000 C 
BRANCH  25  26
ATOM     26  C   UNL     1      86.746 324.771 206.009  1.00  0.00    -0.000 C 
BRANCH  26  27
ATOM     27  C   UNL     1      86.223 324.029 204.764  1.00  0.00    -0.000 C 
BRANCH  27  28
ATOM     28  C   UNL     1      86.941 322.705 204.441  1.00  0.00    -0.000 C 
BRANCH  28  29
ATOM     29  C   UNL     1      86.992 322.406 202.933  1.00  0.00    -0.000 C 
BRANCH  29  30
ATOM     30  C   UNL     1      88.035 323.259 202.188  1.00  0.00    -0.000 C 
BRANCH  30  31
ATOM     31  C   UNL     1      89.338 323.520 202.965  1.00  0.00    -0.003 C 
ATOM     32  C   UNL     1      90.530 322.736 202.418  1.00  0.00     0.004 C 
ENDBRANCH  30  31
ENDBRANCH  29  30
ENDBRANCH  28  29
ENDBRANCH  27  28
ENDBRANCH  26  27
ENDBRANCH  25  26
ENDBRANCH  24  25
ENDBRANCH  23  24
ENDBRANCH  22  23
ENDBRANCH  21  22
ENDBRANCH  20  21
ENDBRANCH  19  20
ENDBRANCH  18  19
ENDBRANCH   1  18
TORSDOF 28
ENDMDL
MODEL 7
REMARK VINA RESULT:    -5.384      1.620      3.813
REMARK INTER + INTRA:         -18.371
REMARK INTER:                 -13.767
REMARK INTRA:                  -4.605
REMARK UNBOUND:                -4.174
REMARK SMILES CCCCCCCCCCCCCCCCCCCCCCCCCCCCCC(=O)[O-]
REMARK SMILES IDX 16 1 17 2 18 3 19 4 20 5 21 6 22 7 23 8 24 9 25 10 26 11
REMARK SMILES IDX 27 12 28 13 29 14 30 15 31 16 32 17 15 18 14 19 13 20 12 21
REMARK SMILES IDX 11 22 10 23 9 24 8 25 7 26 6 27 5 28 4 29 3 30 2 31 1 32
REMARK H PARENT
REMARK Flexibility Score: inf
ROOT
ATOM      1  C   UNL     1      88.750 323.653 202.354  1.00  0.00     0.000 C 
ENDROOT
BRANCH   1   2
ATOM      2  C   UNL     1      88.973 322.580 201.275  1.00  0.00     0.000 C 
BRANCH   2   3
ATOM      3  C   UNL     1      87.731 322.361 200.398  1.00  0.00     0.000 C 
BRANCH   3   4
ATOM      4  C   UNL     1      88.102 322.377 198.909  1.00  0.00     0.000 C 
BRANCH   4   5
ATOM      5  C   UNL     1      89.561 322.815 198.713  1.00  0.00     0.000 C 
BRANCH   5   6
ATOM      6  C   UNL     1      89.732 323.833 197.572  1.00  0.00     0.000 C 
BRANCH   6   7
ATOM      7  C   UNL     1      88.419 324.441 197.038  1.00  0.00     0.000 C 
BRANCH   7   8
ATOM      8  C   UNL     1      88.473 325.950 196.730  1.00  0.00     0.000 C 
BRANCH   8   9
ATOM      9  C   UNL     1      87.142 326.570 196.254  1.00  0.00     0.000 C 
BRANCH   9  10
ATOM     10  C   UNL     1      86.729 326.194 194.819  1.00  0.00     0.000 C 
BRANCH  10  11
ATOM     11  C   UNL     1      87.899 326.065 193.827  1.00  0.00     0.000 C 
BRANCH  11  12
ATOM     12  C   UNL     1      88.062 324.641 193.245  1.00  0.00     0.000 C 
BRANCH  12  13
ATOM     13  C   UNL     1      88.026 324.591 191.702  1.00  0.00     0.006 C 
BRANCH  13  14
ATOM     14  C   UNL     1      88.327 323.198 191.128  1.00  0.00     0.053 C 
BRANCH  14  15
ATOM     15  C   UNL     1      87.211 322.231 191.369  1.00  0.00     0.041 C 
ATOM     16  O   UNL     1      86.015 322.589 191.210  1.00  0.00    -0.550 OA
ATOM     17  O   UNL     1      87.490 320.941 191.803  1.00  0.00    -0.550 OA
ENDBRANCH  14  15
ENDBRANCH  13  14
ENDBRANCH  12  13
ENDBRANCH  11  12
ENDBRANCH  10  11
ENDBRANCH   9  10
ENDBRANCH   8   9
ENDBRANCH   7   8
ENDBRANCH   6   7
ENDBRANCH   5   6
ENDBRANCH   4   5
ENDBRANCH   3   4
ENDBRANCH   2   3
ENDBRANCH   1   2
BRANCH   1  18
ATOM     18  C   UNL     1      87.734 324.724 201.918  1.00  0.00     0.000 C 
BRANCH  18  19
ATOM     19  C   UNL     1      88.378 326.108 201.724  1.00  0.00     0.000 C 
BRANCH  19  20
ATOM     20  C   UNL     1      89.225 326.255 200.444  1.00  0.00     0.000 C 
BRANCH  20  21
ATOM     21  C   UNL     1      90.747 326.112 200.644  1.00  0.00     0.000 C 
BRANCH  21  22
ATOM     22  C   UNL     1      91.311 326.826 201.886  1.00  0.00     0.000 C 
BRANCH  22  23
ATOM     23  C   UNL     1      91.847 325.892 202.987  1.00  0.00     0.000 C 
BRANCH  23  24
ATOM     24  C   UNL     1      91.570 326.393 204.423  1.00  0.00    -0.000 C 
BRANCH  24  25
ATOM     25  C   UNL     1      90.582 327.574 204.514  1.00  0.00    -0.000 C 
BRANCH  25  26
ATOM     26  C   UNL     1      89.180 327.224 205.056  1.00  0.00    -0.000 C 
BRANCH  26  27
ATOM     27  C   UNL     1      89.062 325.851 205.745  1.00  0.00    -0.000 C 
BRANCH  27  28
ATOM     28  C   UNL     1      87.653 325.228 205.727  1.00  0.00    -0.000 C 
BRANCH  28  29
ATOM     29  C   UNL     1      87.665 323.716 206.010  1.00  0.00    -0.000 C 
BRANCH  29  30
ATOM     30  C   UNL     1      86.693 322.930 205.112  1.00  0.00    -0.000 C 
BRANCH  30  31
ATOM     31  C   UNL     1      86.930 321.409 205.069  1.00  0.00    -0.003 C 
ATOM     32  C   UNL     1      86.646 320.795 203.699  1.00  0.00     0.004 C 
ENDBRANCH  30  31
ENDBRANCH  29  30
ENDBRANCH  28  29
ENDBRANCH  27  28
ENDBRANCH  26  27
ENDBRANCH  25  26
ENDBRANCH  24  25
ENDBRANCH  23  24
ENDBRANCH  22  23
ENDBRANCH  21  22
ENDBRANCH  20  21
ENDBRANCH  19  20
ENDBRANCH  18  19
ENDBRANCH   1  18
TORSDOF 28
ENDMDL
MODEL 8
REMARK VINA RESULT:    -5.352      3.803     11.534
REMARK INTER + INTRA:         -18.286
REMARK INTER:                 -15.575
REMARK INTRA:                  -2.711
REMARK UNBOUND:                -4.174
REMARK SMILES CCCCCCCCCCCCCCCCCCCCCCCCCCCCCC(=O)[O-]
REMARK SMILES IDX 16 1 17 2 18 3 19 4 20 5 21 6 22 7 23 8 24 9 25 10 26 11
REMARK SMILES IDX 27 12 28 13 29 14 30 15 31 16 32 17 15 18 14 19 13 20 12 21
REMARK SMILES IDX 11 22 10 23 9 24 8 25 7 26 6 27 5 28 4 29 3 30 2 31 1 32
REMARK H PARENT
REMARK Flexibility Score: inf
ROOT
ATOM      1  C   UNL     1      90.234 324.079 198.703  1.00  0.00     0.000 C 
ENDROOT
BRANCH   1   2
ATOM      2  C   UNL     1      90.407 324.992 199.928  1.00  0.00     0.000 C 
BRANCH   2   3
ATOM      3  C   UNL     1      89.310 326.063 200.022  1.00  0.00     0.000 C 
BRANCH   3   4
ATOM      4  C   UNL     1      88.767 326.167 201.453  1.00  0.00     0.000 C 
BRANCH   4   5
ATOM      5  C   UNL     1      89.874 325.885 202.480  1.00  0.00     0.000 C 
BRANCH   5   6
ATOM      6  C   UNL     1      90.212 327.111 203.347  1.00  0.00     0.000 C 
BRANCH   6   7
ATOM      7  C   UNL     1      89.139 327.490 204.388  1.00  0.00     0.000 C 
BRANCH   7   8
ATOM      8  C   UNL     1      89.538 327.249 205.858  1.00  0.00     0.000 C 
BRANCH   8   9
ATOM      9  C   UNL     1      88.683 326.204 206.607  1.00  0.00     0.000 C 
BRANCH   9  10
ATOM     10  C   UNL     1      88.158 325.050 205.733  1.00  0.00     0.000 C 
BRANCH  10  11
ATOM     11  C   UNL     1      86.663 324.732 205.919  1.00  0.00     0.000 C 
BRANCH  11  12
ATOM     12  C   UNL     1      86.022 324.034 204.697  1.00  0.00     0.000 C 
BRANCH  12  13
ATOM     13  C   UNL     1      87.019 323.741 203.554  1.00  0.00     0.006 C 
BRANCH  13  14
ATOM     14  C   UNL     1      86.348 323.205 202.279  1.00  0.00     0.053 C 
BRANCH  14  15
ATOM     15  C   UNL     1      87.338 322.626 201.318  1.00  0.00     0.041 C 
ATOM     16  O   UNL     1      86.965 322.237 200.181  1.00  0.00    -0.550 OA
ATOM     17  O   UNL     1      88.668 322.485 201.691  1.00  0.00    -0.550 OA
ENDBRANCH  14  15
ENDBRANCH  13  14
ENDBRANCH  12  13
ENDBRANCH  11  12
ENDBRANCH  10  11
ENDBRANCH   9  10
ENDBRANCH   8   9
ENDBRANCH   7   8
ENDBRANCH   6   7
ENDBRANCH   5   6
ENDBRANCH   4   5
ENDBRANCH   3   4
ENDBRANCH   2   3
ENDBRANCH   1   2
BRANCH   1  18
ATOM     18  C   UNL     1      88.834 324.198 198.072  1.00  0.00     0.000 C 
BRANCH  18  19
ATOM     19  C   UNL     1      88.882 324.654 196.603  1.00  0.00     0.000 C 
BRANCH  19  20
ATOM     20  C   UNL     1      88.522 326.136 196.373  1.00  0.00     0.000 C 
BRANCH  20  21
ATOM     21  C   UNL     1      88.115 326.496 194.931  1.00  0.00     0.000 C 
BRANCH  21  22
ATOM     22  C   UNL     1      86.680 326.099 194.539  1.00  0.00     0.000 C 
BRANCH  22  23
ATOM     23  C   UNL     1      86.569 325.225 193.275  1.00  0.00     0.000 C 
BRANCH  23  24
ATOM     24  C   UNL     1      87.932 324.898 192.620  1.00  0.00    -0.000 C 
BRANCH  24  25
ATOM     25  C   UNL     1      87.920 323.666 191.690  1.00  0.00    -0.000 C 
BRANCH  25  26
ATOM     26  C   UNL     1      88.620 323.859 190.328  1.00  0.00    -0.000 C 
BRANCH  26  27
ATOM     27  C   UNL     1      89.518 322.691 189.875  1.00  0.00    -0.000 C 
BRANCH  27  28
ATOM     28  C   UNL     1      90.110 322.831 188.460  1.00  0.00    -0.000 C 
BRANCH  28  29
ATOM     29  C   UNL     1      91.520 322.230 188.341  1.00  0.00    -0.000 C 
BRANCH  29  30
ATOM     30  C   UNL     1      92.634 323.290 188.428  1.00  0.00    -0.000 C 
BRANCH  30  31
ATOM     31  C   UNL     1      93.861 322.880 189.262  1.00  0.00    -0.003 C 
ATOM     32  C   UNL     1      93.907 321.384 189.568  1.00  0.00     0.004 C 
ENDBRANCH  30  31
ENDBRANCH  29  30
ENDBRANCH  28  29
ENDBRANCH  27  28
ENDBRANCH  26  27
ENDBRANCH  25  26
ENDBRANCH  24  25
ENDBRANCH  23  24
ENDBRANCH  22  23
ENDBRANCH  21  22
ENDBRANCH  20  21
ENDBRANCH  19  20
ENDBRANCH  18  19
ENDBRANCH   1  18
TORSDOF 28
ENDMDL
MODEL 9
REMARK VINA RESULT:    -5.321      1.516      2.861
REMARK INTER + INTRA:         -18.204
REMARK INTER:                 -14.554
REMARK INTRA:                  -3.650
REMARK UNBOUND:                -4.174
REMARK SMILES CCCCCCCCCCCCCCCCCCCCCCCCCCCCCC(=O)[O-]
REMARK SMILES IDX 16 1 17 2 18 3 19 4 20 5 21 6 22 7 23 8 24 9 25 10 26 11
REMARK SMILES IDX 27 12 28 13 29 14 30 15 31 16 32 17 15 18 14 19 13 20 12 21
REMARK SMILES IDX 11 22 10 23 9 24 8 25 7 26 6 27 5 28 4 29 3 30 2 31 1 32
REMARK H PARENT
REMARK Flexibility Score: inf
ROOT
ATOM      1  C   UNL     1      89.563 326.381 200.616  1.00  0.00     0.000 C 
ENDROOT
BRANCH   1   2
ATOM      2  C   UNL     1      90.723 325.371 200.609  1.00  0.00     0.000 C 
BRANCH   2   3
ATOM      3  C   UNL     1      90.541 324.274 199.550  1.00  0.00     0.000 C 
BRANCH   3   4
ATOM      4  C   UNL     1      89.318 324.560 198.670  1.00  0.00     0.000 C 
BRANCH   4   5
ATOM      5  C   UNL     1      89.437 323.843 197.317  1.00  0.00     0.000 C 
BRANCH   5   6
ATOM      6  C   UNL     1      88.504 324.432 196.244  1.00  0.00     0.000 C 
BRANCH   6   7
ATOM      7  C   UNL     1      88.465 325.973 196.187  1.00  0.00     0.000 C 
BRANCH   7   8
ATOM      8  C   UNL     1      87.733 326.565 194.967  1.00  0.00     0.000 C 
BRANCH   8   9
ATOM      9  C   UNL     1      86.404 325.871 194.599  1.00  0.00     0.000 C 
BRANCH   9  10
ATOM     10  C   UNL     1      86.419 325.115 193.257  1.00  0.00     0.000 C 
BRANCH  10  11
ATOM     11  C   UNL     1      87.804 325.016 192.591  1.00  0.00     0.000 C 
BRANCH  11  12
ATOM     12  C   UNL     1      87.841 324.051 191.383  1.00  0.00     0.000 C 
BRANCH  12  13
ATOM     13  C   UNL     1      88.571 322.721 191.670  1.00  0.00     0.006 C 
BRANCH  13  14
ATOM     14  C   UNL     1      89.310 322.152 190.449  1.00  0.00     0.053 C 
BRANCH  14  15
ATOM     15  C   UNL     1      88.973 322.885 189.189  1.00  0.00     0.041 C 
ATOM     16  O   UNL     1      89.706 323.825 188.786  1.00  0.00    -0.550 OA
ATOM     17  O   UNL     1      87.828 322.551 188.476  1.00  0.00    -0.550 OA
ENDBRANCH  14  15
ENDBRANCH  13  14
ENDBRANCH  12  13
ENDBRANCH  11  12
ENDBRANCH  10  11
ENDBRANCH   9  10
ENDBRANCH   8   9
ENDBRANCH   7   8
ENDBRANCH   6   7
ENDBRANCH   5   6
ENDBRANCH   4   5
ENDBRANCH   3   4
ENDBRANCH   2   3
ENDBRANCH   1   2
BRANCH   1  18
ATOM     18  C   UNL     1      88.739 326.322 201.915  1.00  0.00     0.000 C 
BRANCH  18  19
ATOM     19  C   UNL     1      89.616 326.382 203.178  1.00  0.00     0.000 C 
BRANCH  19  20
ATOM     20  C   UNL     1      89.225 327.481 204.187  1.00  0.00     0.000 C 
BRANCH  20  21
ATOM     21  C   UNL     1      89.622 327.200 205.650  1.00  0.00     0.000 C 
BRANCH  21  22
ATOM     22  C   UNL     1      88.642 326.305 206.431  1.00  0.00     0.000 C 
BRANCH  22  23
ATOM     23  C   UNL     1      89.011 324.810 206.462  1.00  0.00     0.000 C 
BRANCH  23  24
ATOM     24  C   UNL     1      87.804 323.863 206.267  1.00  0.00    -0.000 C 
BRANCH  24  25
ATOM     25  C   UNL     1      86.828 324.285 205.149  1.00  0.00    -0.000 C 
BRANCH  25  26
ATOM     26  C   UNL     1      86.865 323.413 203.875  1.00  0.00    -0.000 C 
BRANCH  26  27
ATOM     27  C   UNL     1      88.241 322.819 203.520  1.00  0.00    -0.000 C 
BRANCH  27  28
ATOM     28  C   UNL     1      88.495 322.608 202.016  1.00  0.00    -0.000 C 
BRANCH  28  29
ATOM     29  C   UNL     1      87.237 322.839 201.161  1.00  0.00    -0.000 C 
BRANCH  29  30
ATOM     30  C   UNL     1      86.740 321.557 200.468  1.00  0.00    -0.000 C 
BRANCH  30  31
ATOM     31  C   UNL     1      87.123 321.428 198.982  1.00  0.00    -0.003 C 
ATOM     32  C   UNL     1      88.348 320.544 198.753  1.00  0.00     0.004 C 
ENDBRANCH  30  31
ENDBRANCH  29  30
ENDBRANCH  28  29
ENDBRANCH  27  28
ENDBRANCH  26  27
ENDBRANCH  25  26
ENDBRANCH  24  25
ENDBRANCH  23  24
ENDBRANCH  22  23
ENDBRANCH  21  22
ENDBRANCH  20  21
ENDBRANCH  19  20
ENDBRANCH  18  19
ENDBRANCH   1  18
TORSDOF 28
ENDMDL
