MODEL 1
REMARK VINA RESULT:    -6.079      0.000      0.000
REMARK INTER + INTRA:          -7.272
REMARK INTER:                  -7.145
REMARK INTRA:                  -0.127
REMARK UNBOUND:                -0.127
REMARK SMILES O=C([O-])C=Cc1ccc(O)c(O)c1
REMARK SMILES IDX 6 1 13 2 7 3 11 4 8 5 9 6 5 7 4 8 2 9 1 10 3 11 12 12 10 14
REMARK H PARENT 12 13 10 15
REMARK Flexibility Score: inf
ROOT
ATOM      1  C   UNL     1     -32.714  -3.531 -17.901  1.00  0.00    -0.022 A 
ATOM      2  C   UNL     1     -33.255  -3.012 -19.089  1.00  0.00     0.058 A 
ATOM      3  C   UNL     1     -31.318  -3.485 -17.713  1.00  0.00     0.012 A 
ATOM      4  C   UNL     1     -32.427  -2.433 -20.062  1.00  0.00     0.157 A 
ATOM      5  C   UNL     1     -30.493  -2.909 -18.683  1.00  0.00     0.051 A 
ATOM      6  C   UNL     1     -31.040  -2.380 -19.855  1.00  0.00     0.157 A 
ENDROOT
BRANCH   1   7
ATOM      7  C   UNL     1     -33.633  -4.141 -16.909  1.00  0.00     0.010 C 
ATOM      8  C   UNL     1     -34.178  -5.358 -17.047  1.00  0.00     0.025 C 
BRANCH   8   9
ATOM      9  C   UNL     1     -35.076  -5.928 -16.031  1.00  0.00     0.064 C 
ATOM     10  O   UNL     1     -35.987  -6.722 -16.383  1.00  0.00    -0.545 OA
ATOM     11  O   UNL     1     -34.936  -5.604 -14.686  1.00  0.00    -0.545 OA
ENDBRANCH   8   9
ENDBRANCH   1   7
BRANCH   4  12
ATOM     12  O   UNL     1     -32.978  -1.912 -21.233  1.00  0.00    -0.504 OA
ATOM     13  H   UNL     1     -32.405  -1.455 -21.931  1.00  0.00     0.293 HD
ENDBRANCH   4  12
BRANCH   6  14
ATOM     14  O   UNL     1     -30.189  -1.812 -20.803  1.00  0.00    -0.504 OA
ATOM     15  H   UNL     1     -29.202  -1.668 -20.623  1.00  0.00     0.293 HD
ENDBRANCH   6  14
TORSDOF 4
ENDMDL
MODEL 2
REMARK VINA RESULT:    -5.688      3.355      7.966
REMARK INTER + INTRA:          -6.813
REMARK INTER:                  -6.686
REMARK INTRA:                  -0.127
REMARK UNBOUND:                -0.127
REMARK SMILES O=C([O-])C=Cc1ccc(O)c(O)c1
REMARK SMILES IDX 6 1 13 2 7 3 11 4 8 5 9 6 5 7 4 8 2 9 1 10 3 11 12 12 10 14
REMARK H PARENT 12 13 10 15
REMARK Flexibility Score: inf
ROOT
ATOM      1  C   UNL     1     -36.409  -6.895 -14.980  1.00  0.00    -0.022 A 
ATOM      2  C   UNL     1     -37.538  -7.421 -15.629  1.00  0.00     0.058 A 
ATOM      3  C   UNL     1     -36.078  -7.374 -13.698  1.00  0.00     0.012 A 
ATOM      4  C   UNL     1     -38.312  -8.423 -15.025  1.00  0.00     0.157 A 
ATOM      5  C   UNL     1     -36.849  -8.372 -13.095  1.00  0.00     0.051 A 
ATOM      6  C   UNL     1     -37.962  -8.901 -13.753  1.00  0.00     0.157 A 
ENDROOT
BRANCH   1   7
ATOM      7  C   UNL     1     -35.631  -5.829 -15.660  1.00  0.00     0.010 C 
ATOM      8  C   UNL     1     -34.810  -6.051 -16.696  1.00  0.00     0.025 C 
BRANCH   8   9
ATOM      9  C   UNL     1     -34.068  -4.961 -17.347  1.00  0.00     0.064 C 
ATOM     10  O   UNL     1     -33.462  -4.113 -16.640  1.00  0.00    -0.545 OA
ATOM     11  O   UNL     1     -34.025  -4.849 -18.733  1.00  0.00    -0.545 OA
ENDBRANCH   8   9
ENDBRANCH   1   7
BRANCH   4  12
ATOM     12  O   UNL     1     -39.425  -8.943 -15.685  1.00  0.00    -0.504 OA
ATOM     13  H   UNL     1     -40.273  -8.401 -15.802  1.00  0.00     0.293 HD
ENDBRANCH   4  12
BRANCH   6  14
ATOM     14  O   UNL     1     -38.710  -9.897 -13.125  1.00  0.00    -0.504 OA
ATOM     15  H   UNL     1     -39.682 -10.067 -13.356  1.00  0.00     0.293 HD
ENDBRANCH   6  14
TORSDOF 4
ENDMDL
MODEL 3
REMARK VINA RESULT:    -5.643      4.368      8.839
REMARK INTER + INTRA:          -6.760
REMARK INTER:                  -6.633
REMARK INTRA:                  -0.126
REMARK UNBOUND:                -0.127
REMARK SMILES O=C([O-])C=Cc1ccc(O)c(O)c1
REMARK SMILES IDX 6 1 13 2 7 3 11 4 8 5 9 6 5 7 4 8 2 9 1 10 3 11 12 12 10 14
REMARK H PARENT 12 13 10 15
REMARK Flexibility Score: inf
ROOT
ATOM      1  C   UNL     1     -37.180  -7.182 -13.762  1.00  0.00    -0.022 A 
ATOM      2  C   UNL     1     -38.471  -6.628 -13.751  1.00  0.00     0.058 A 
ATOM      3  C   UNL     1     -37.033  -8.566 -13.540  1.00  0.00     0.012 A 
ATOM      4  C   UNL     1     -39.599  -7.438 -13.548  1.00  0.00     0.157 A 
ATOM      5  C   UNL     1     -38.156  -9.373 -13.337  1.00  0.00     0.051 A 
ATOM      6  C   UNL     1     -39.438  -8.817 -13.342  1.00  0.00     0.157 A 
ENDROOT
BRANCH   1   7
ATOM      7  C   UNL     1     -36.021  -6.279 -13.972  1.00  0.00     0.010 C 
ATOM      8  C   UNL     1     -35.474  -6.036 -15.170  1.00  0.00     0.025 C 
BRANCH   8   9
ATOM      9  C   UNL     1     -34.332  -5.123 -15.332  1.00  0.00     0.064 C 
ATOM     10  O   UNL     1     -34.164  -4.186 -14.509  1.00  0.00    -0.545 OA
ATOM     11  O   UNL     1     -33.434  -5.276 -16.384  1.00  0.00    -0.545 OA
ENDBRANCH   8   9
ENDBRANCH   1   7
BRANCH   4  12
ATOM     12  O   UNL     1     -40.875  -6.876 -13.548  1.00  0.00    -0.504 OA
ATOM     13  H   UNL     1     -41.040  -5.936 -13.210  1.00  0.00     0.293 HD
ENDBRANCH   4  12
BRANCH   6  14
ATOM     14  O   UNL     1     -40.538  -9.650 -13.138  1.00  0.00    -0.504 OA
ATOM     15  H   UNL     1     -40.764 -10.408 -13.770  1.00  0.00     0.293 HD
ENDBRANCH   6  14
TORSDOF 4
ENDMDL
MODEL 4
REMARK VINA RESULT:    -5.623      3.568      4.490
REMARK INTER + INTRA:          -6.736
REMARK INTER:                  -6.607
REMARK INTRA:                  -0.129
REMARK UNBOUND:                -0.127
REMARK SMILES O=C([O-])C=Cc1ccc(O)c(O)c1
REMARK SMILES IDX 6 1 13 2 7 3 11 4 8 5 9 6 5 7 4 8 2 9 1 10 3 11 12 12 10 14
REMARK H PARENT 12 13 10 15
REMARK Flexibility Score: inf
ROOT
ATOM      1  C   UNL     1     -31.469  -4.874 -17.068  1.00  0.00    -0.022 A 
ATOM      2  C   UNL     1     -32.680  -5.526 -17.357  1.00  0.00     0.058 A 
ATOM      3  C   UNL     1     -31.302  -3.536 -17.477  1.00  0.00     0.012 A 
ATOM      4  C   UNL     1     -33.717  -4.852 -18.018  1.00  0.00     0.157 A 
ATOM      5  C   UNL     1     -32.336  -2.865 -18.137  1.00  0.00     0.051 A 
ATOM      6  C   UNL     1     -33.543  -3.515 -18.407  1.00  0.00     0.157 A 
ENDROOT
BRANCH   1   7
ATOM      7  C   UNL     1     -30.400  -5.636 -16.375  1.00  0.00     0.010 C 
ATOM      8  C   UNL     1     -30.112  -6.919 -16.633  1.00  0.00     0.025 C 
BRANCH   8   9
ATOM      9  C   UNL     1     -29.035  -7.631 -15.929  1.00  0.00     0.064 C 
ATOM     10  O   UNL     1     -28.168  -8.259 -16.593  1.00  0.00    -0.545 OA
ATOM     11  O   UNL     1     -28.958  -7.626 -14.540  1.00  0.00    -0.545 OA
ENDBRANCH   8   9
ENDBRANCH   1   7
BRANCH   4  12
ATOM     12  O   UNL     1     -34.917  -5.508 -18.289  1.00  0.00    -0.504 OA
ATOM     13  H   UNL     1     -34.951  -6.328 -18.883  1.00  0.00     0.293 HD
ENDBRANCH   4  12
BRANCH   6  14
ATOM     14  O   UNL     1     -34.555  -2.817 -19.066  1.00  0.00    -0.504 OA
ATOM     15  H   UNL     1     -34.766  -2.972 -20.045  1.00  0.00     0.293 HD
ENDBRANCH   6  14
TORSDOF 4
ENDMDL
MODEL 5
REMARK VINA RESULT:    -5.509      3.645      8.180
REMARK INTER + INTRA:          -6.601
REMARK INTER:                  -6.472
REMARK INTRA:                  -0.129
REMARK UNBOUND:                -0.127
REMARK SMILES O=C([O-])C=Cc1ccc(O)c(O)c1
REMARK SMILES IDX 6 1 13 2 7 3 11 4 8 5 9 6 5 7 4 8 2 9 1 10 3 11 12 12 10 14
REMARK H PARENT 12 13 10 15
REMARK Flexibility Score: inf
ROOT
ATOM      1  C   UNL     1     -37.024  -6.996 -15.448  1.00  0.00    -0.022 A 
ATOM      2  C   UNL     1     -36.208  -7.373 -14.368  1.00  0.00     0.058 A 
ATOM      3  C   UNL     1     -38.268  -7.637 -15.616  1.00  0.00     0.012 A 
ATOM      4  C   UNL     1     -36.631  -8.352 -13.456  1.00  0.00     0.157 A 
ATOM      5  C   UNL     1     -38.688  -8.613 -14.708  1.00  0.00     0.051 A 
ATOM      6  C   UNL     1     -37.878  -8.972 -13.628  1.00  0.00     0.157 A 
ENDROOT
BRANCH   1   7
ATOM      7  C   UNL     1     -36.525  -5.962 -16.388  1.00  0.00     0.010 C 
ATOM      8  C   UNL     1     -35.284  -5.951 -16.893  1.00  0.00     0.025 C 
BRANCH   8   9
ATOM      9  C   UNL     1     -34.836  -4.912 -17.833  1.00  0.00     0.064 C 
ATOM     10  O   UNL     1     -34.120  -5.232 -18.818  1.00  0.00    -0.545 OA
ATOM     11  O   UNL     1     -35.188  -3.579 -17.651  1.00  0.00    -0.545 OA
ENDBRANCH   8   9
ENDBRANCH   1   7
BRANCH   4  12
ATOM     12  O   UNL     1     -35.815  -8.709 -12.383  1.00  0.00    -0.504 OA
ATOM     13  H   UNL     1     -35.307  -8.014 -11.849  1.00  0.00     0.293 HD
ENDBRANCH   4  12
BRANCH   6  14
ATOM     14  O   UNL     1     -38.327  -9.948 -12.739  1.00  0.00    -0.504 OA
ATOM     15  H   UNL     1     -39.313 -10.124 -12.585  1.00  0.00     0.293 HD
ENDBRANCH   6  14
TORSDOF 4
ENDMDL
MODEL 6
REMARK VINA RESULT:    -5.403      5.428      9.376
REMARK INTER + INTRA:          -6.477
REMARK INTER:                  -6.334
REMARK INTRA:                  -0.143
REMARK UNBOUND:                -0.127
REMARK SMILES O=C([O-])C=Cc1ccc(O)c(O)c1
REMARK SMILES IDX 6 1 13 2 7 3 11 4 8 5 9 6 5 7 4 8 2 9 1 10 3 11 12 12 10 14
REMARK H PARENT 12 13 10 15
REMARK Flexibility Score: inf
ROOT
ATOM      1  C   UNL     1     -38.403  -6.694 -13.796  1.00  0.00    -0.022 A 
ATOM      2  C   UNL     1     -39.798  -6.582 -13.679  1.00  0.00     0.058 A 
ATOM      3  C   UNL     1     -37.806  -7.960 -13.633  1.00  0.00     0.012 A 
ATOM      4  C   UNL     1     -40.591  -7.712 -13.430  1.00  0.00     0.157 A 
ATOM      5  C   UNL     1     -38.596  -9.086 -13.384  1.00  0.00     0.051 A 
ATOM      6  C   UNL     1     -39.985  -8.970 -13.284  1.00  0.00     0.157 A 
ENDROOT
BRANCH   1   7
ATOM      7  C   UNL     1     -37.610  -5.465 -14.050  1.00  0.00     0.010 C 
ATOM      8  C   UNL     1     -36.271  -5.426 -14.036  1.00  0.00     0.025 C 
BRANCH   8   9
ATOM      9  C   UNL     1     -35.526  -4.186 -14.306  1.00  0.00     0.064 C 
ATOM     10  O   UNL     1     -34.284  -4.239 -14.503  1.00  0.00    -0.545 OA
ATOM     11  O   UNL     1     -36.172  -2.955 -14.345  1.00  0.00    -0.545 OA
ENDBRANCH   8   9
ENDBRANCH   1   7
BRANCH   4  12
ATOM     12  O   UNL     1     -41.976  -7.588 -13.326  1.00  0.00    -0.504 OA
ATOM     13  H   UNL     1     -42.423  -7.356 -12.447  1.00  0.00     0.293 HD
ENDBRANCH   4  12
BRANCH   6  14
ATOM     14  O   UNL     1     -40.744 -10.113 -13.036  1.00  0.00    -0.504 OA
ATOM     15  H   UNL     1     -40.960 -10.422 -12.095  1.00  0.00     0.293 HD
ENDBRANCH   6  14
TORSDOF 4
ENDMDL
MODEL 7
REMARK VINA RESULT:    -5.392      2.992      4.325
REMARK INTER + INTRA:          -6.464
REMARK INTER:                  -6.336
REMARK INTRA:                  -0.128
REMARK UNBOUND:                -0.127
REMARK SMILES O=C([O-])C=Cc1ccc(O)c(O)c1
REMARK SMILES IDX 6 1 13 2 7 3 11 4 8 5 9 6 5 7 4 8 2 9 1 10 3 11 12 12 10 14
REMARK H PARENT 12 13 10 15
REMARK Flexibility Score: inf
ROOT
ATOM      1  C   UNL     1     -35.390  -5.998 -16.472  1.00  0.00    -0.022 A 
ATOM      2  C   UNL     1     -34.022  -5.679 -16.507  1.00  0.00     0.058 A 
ATOM      3  C   UNL     1     -36.179  -5.734 -17.609  1.00  0.00     0.012 A 
ATOM      4  C   UNL     1     -33.442  -5.131 -17.660  1.00  0.00     0.157 A 
ATOM      5  C   UNL     1     -35.601  -5.187 -18.758  1.00  0.00     0.051 A 
ATOM      6  C   UNL     1     -34.237  -4.886 -18.791  1.00  0.00     0.157 A 
ENDROOT
BRANCH   1   7
ATOM      7  C   UNL     1     -35.955  -6.567 -15.223  1.00  0.00     0.010 C 
ATOM      8  C   UNL     1     -36.418  -7.820 -15.118  1.00  0.00     0.025 C 
BRANCH   8   9
ATOM      9  C   UNL     1     -36.959  -8.347 -13.855  1.00  0.00     0.064 C 
ATOM     10  O   UNL     1     -36.209  -8.435 -12.848  1.00  0.00    -0.545 OA
ATOM     11  O   UNL     1     -38.286  -8.751 -13.756  1.00  0.00    -0.545 OA
ENDBRANCH   8   9
ENDBRANCH   1   7
BRANCH   4  12
ATOM     12  O   UNL     1     -32.081  -4.828 -17.684  1.00  0.00    -0.504 OA
ATOM     13  H   UNL     1     -31.724  -4.030 -18.197  1.00  0.00     0.293 HD
ENDBRANCH   4  12
BRANCH   6  14
ATOM     14  O   UNL     1     -33.691  -4.342 -19.953  1.00  0.00    -0.504 OA
ATOM     15  H   UNL     1     -33.380  -3.379 -20.002  1.00  0.00     0.293 HD
ENDBRANCH   6  14
TORSDOF 4
ENDMDL
MODEL 8
REMARK VINA RESULT:    -5.387      2.194      3.147
REMARK INTER + INTRA:          -6.458
REMARK INTER:                  -6.330
REMARK INTRA:                  -0.128
REMARK UNBOUND:                -0.127
REMARK SMILES O=C([O-])C=Cc1ccc(O)c(O)c1
REMARK SMILES IDX 6 1 13 2 7 3 11 4 8 5 9 6 5 7 4 8 2 9 1 10 3 11 12 12 10 14
REMARK H PARENT 12 13 10 15
REMARK Flexibility Score: inf
ROOT
ATOM      1  C   UNL     1     -34.866  -4.975 -16.666  1.00  0.00    -0.022 A 
ATOM      2  C   UNL     1     -35.846  -4.437 -17.517  1.00  0.00     0.058 A 
ATOM      3  C   UNL     1     -33.512  -4.674 -16.913  1.00  0.00     0.012 A 
ATOM      4  C   UNL     1     -35.489  -3.594 -18.580  1.00  0.00     0.157 A 
ATOM      5  C   UNL     1     -33.156  -3.835 -17.973  1.00  0.00     0.051 A 
ATOM      6  C   UNL     1     -34.138  -3.291 -18.806  1.00  0.00     0.157 A 
ENDROOT
BRANCH   1   7
ATOM      7  C   UNL     1     -35.297  -5.869 -15.562  1.00  0.00     0.010 C 
ATOM      8  C   UNL     1     -36.068  -6.951 -15.738  1.00  0.00     0.025 C 
BRANCH   8   9
ATOM      9  C   UNL     1     -36.461  -7.816 -14.615  1.00  0.00     0.064 C 
ATOM     10  O   UNL     1     -36.678  -9.039 -14.820  1.00  0.00    -0.545 OA
ATOM     11  O   UNL     1     -36.598  -7.305 -13.329  1.00  0.00    -0.545 OA
ENDBRANCH   8   9
ENDBRANCH   1   7
BRANCH   4  12
ATOM     12  O   UNL     1     -36.473  -3.059 -19.411  1.00  0.00    -0.504 OA
ATOM     13  H   UNL     1     -36.866  -3.592 -20.178  1.00  0.00     0.293 HD
ENDBRANCH   4  12
BRANCH   6  14
ATOM     14  O   UNL     1     -33.750  -2.457 -19.854  1.00  0.00    -0.504 OA
ATOM     15  H   UNL     1     -33.397  -1.520 -19.694  1.00  0.00     0.293 HD
ENDBRANCH   6  14
TORSDOF 4
ENDMDL
MODEL 9
REMARK VINA RESULT:    -5.373      3.736      5.209
REMARK INTER + INTRA:          -6.442
REMARK INTER:                  -6.301
REMARK INTRA:                  -0.141
REMARK UNBOUND:                -0.127
REMARK SMILES O=C([O-])C=Cc1ccc(O)c(O)c1
REMARK SMILES IDX 6 1 13 2 7 3 11 4 8 5 9 6 5 7 4 8 2 9 1 10 3 11 12 12 10 14
REMARK H PARENT 12 13 10 15
REMARK Flexibility Score: inf
ROOT
ATOM      1  C   UNL     1     -35.880  -6.269 -15.178  1.00  0.00    -0.022 A 
ATOM      2  C   UNL     1     -35.242  -6.399 -16.423  1.00  0.00     0.058 A 
ATOM      3  C   UNL     1     -35.400  -5.310 -14.265  1.00  0.00     0.012 A 
ATOM      4  C   UNL     1     -34.162  -5.572 -16.765  1.00  0.00     0.157 A 
ATOM      5  C   UNL     1     -34.323  -4.487 -14.605  1.00  0.00     0.051 A 
ATOM      6  C   UNL     1     -33.703  -4.611 -15.851  1.00  0.00     0.157 A 
ENDROOT
BRANCH   1   7
ATOM      7  C   UNL     1     -37.012  -7.176 -14.862  1.00  0.00     0.010 C 
ATOM      8  C   UNL     1     -37.487  -7.371 -13.624  1.00  0.00     0.025 C 
BRANCH   8   9
ATOM      9  C   UNL     1     -38.621  -8.270 -13.359  1.00  0.00     0.064 C 
ATOM     10  O   UNL     1     -38.442  -9.516 -13.377  1.00  0.00    -0.545 OA
ATOM     11  O   UNL     1     -39.889  -7.767 -13.091  1.00  0.00    -0.545 OA
ENDBRANCH   8   9
ENDBRANCH   1   7
BRANCH   4  12
ATOM     12  O   UNL     1     -33.544  -5.705 -18.008  1.00  0.00    -0.504 OA
ATOM     13  H   UNL     1     -33.582  -4.966 -18.701  1.00  0.00     0.293 HD
ENDBRANCH   4  12
BRANCH   6  14
ATOM     14  O   UNL     1     -32.631  -3.774 -16.161  1.00  0.00    -0.504 OA
ATOM     15  H   UNL     1     -32.764  -2.868 -16.595  1.00  0.00     0.293 HD
ENDBRANCH   6  14
TORSDOF 4
ENDMDL
