MODEL 1
REMARK VINA RESULT:    25.807      0.000      0.000
REMARK INTER + INTRA:          64.471
REMARK INTER:                  65.032
REMARK INTRA:                  -0.561
REMARK UNBOUND:                -0.561
REMARK SMILES CCCCCCCCCCCCCCCCCCCCCCCCCCCC(=O)[O-]
REMARK SMILES IDX 15 1 16 2 17 3 18 4 19 5 20 6 21 7 22 8 23 9 24 10 25 11
REMARK SMILES IDX 26 12 27 13 28 14 29 15 30 16 14 17 13 18 12 19 11 20 10 21
REMARK SMILES IDX 9 22 8 23 7 24 6 25 5 26 4 27 3 28 2 29 1 30
REMARK H PARENT
REMARK Flexibility Score: inf
ROOT
ATOM      1  C   UNL     1     -16.520 -13.761 -20.958  1.00  0.00     0.000 C 
ENDROOT
BRANCH   1   2
ATOM      2  C   UNL     1     -15.974 -15.091 -20.419  1.00  0.00     0.000 C 
BRANCH   2   3
ATOM      3  C   UNL     1     -16.955 -15.730 -19.425  1.00  0.00     0.000 C 
BRANCH   3   4
ATOM      4  C   UNL     1     -17.004 -14.987 -18.081  1.00  0.00     0.000 C 
BRANCH   4   5
ATOM      5  C   UNL     1     -16.765 -15.918 -16.881  1.00  0.00     0.000 C 
BRANCH   5   6
ATOM      6  C   UNL     1     -17.974 -15.994 -15.933  1.00  0.00     0.000 C 
BRANCH   6   7
ATOM      7  C   UNL     1     -18.573 -17.409 -15.797  1.00  0.00     0.000 C 
BRANCH   7   8
ATOM      8  C   UNL     1     -19.970 -17.515 -16.428  1.00  0.00     0.000 C 
BRANCH   8   9
ATOM      9  C   UNL     1     -20.891 -18.498 -15.685  1.00  0.00     0.000 C 
BRANCH   9  10
ATOM     10  C   UNL     1     -22.085 -17.812 -14.987  1.00  0.00     0.000 C 
BRANCH  10  11
ATOM     11  C   UNL     1     -21.869 -16.301 -14.812  1.00  0.00     0.000 C 
BRANCH  11  12
ATOM     12  C   UNL     1     -22.328 -15.838 -13.425  1.00  0.00     0.006 C 
BRANCH  12  13
ATOM     13  C   UNL     1     -23.789 -15.378 -13.452  1.00  0.00     0.053 C 
BRANCH  13  14
ATOM     14  C   UNL     1     -24.073 -14.467 -12.298  1.00  0.00     0.041 C 
ATOM     15  O   UNL     1     -25.240 -14.377 -11.833  1.00  0.00    -0.550 OA
ATOM     16  O   UNL     1     -23.040 -13.751 -11.707  1.00  0.00    -0.550 OA
ENDBRANCH  13  14
ENDBRANCH  12  13
ENDBRANCH  11  12
ENDBRANCH  10  11
ENDBRANCH   9  10
ENDBRANCH   8   9
ENDBRANCH   7   8
ENDBRANCH   6   7
ENDBRANCH   5   6
ENDBRANCH   4   5
ENDBRANCH   3   4
ENDBRANCH   2   3
ENDBRANCH   1   2
BRANCH   1  17
ATOM     17  C   UNL     1     -16.113 -13.556 -22.425  1.00  0.00     0.000 C 
BRANCH  17  18
ATOM     18  C   UNL     1     -15.241 -12.303 -22.638  1.00  0.00     0.000 C 
BRANCH  18  19
ATOM     19  C   UNL     1     -14.454 -12.272 -23.962  1.00  0.00     0.000 C 
BRANCH  19  20
ATOM     20  C   UNL     1     -13.855 -10.888 -24.267  1.00  0.00     0.000 C 
BRANCH  20  21
ATOM     21  C   UNL     1     -14.273  -9.813 -23.247  1.00  0.00     0.000 C 
BRANCH  21  22
ATOM     22  C   UNL     1     -14.746  -8.479 -23.853  1.00  0.00    -0.000 C 
BRANCH  22  23
ATOM     23  C   UNL     1     -14.279  -7.255 -23.051  1.00  0.00    -0.000 C 
BRANCH  23  24
ATOM     24  C   UNL     1     -13.786  -7.662 -21.657  1.00  0.00    -0.000 C 
BRANCH  24  25
ATOM     25  C   UNL     1     -12.520  -8.524 -21.755  1.00  0.00    -0.000 C 
BRANCH  25  26
ATOM     26  C   UNL     1     -12.072  -9.080 -20.395  1.00  0.00    -0.000 C 
BRANCH  26  27
ATOM     27  C   UNL     1     -12.086  -8.013 -19.289  1.00  0.00    -0.000 C 
BRANCH  27  28
ATOM     28  C   UNL     1     -12.926  -8.475 -18.093  1.00  0.00    -0.000 C 
BRANCH  28  29
ATOM     29  C   UNL     1     -14.346  -7.901 -18.164  1.00  0.00    -0.003 C 
ATOM     30  C   UNL     1     -15.218  -8.442 -17.036  1.00  0.00     0.004 C 
ENDBRANCH  28  29
ENDBRANCH  27  28
ENDBRANCH  26  27
ENDBRANCH  25  26
ENDBRANCH  24  25
ENDBRANCH  23  24
ENDBRANCH  22  23
ENDBRANCH  21  22
ENDBRANCH  20  21
ENDBRANCH  19  20
ENDBRANCH  18  19
ENDBRANCH  17  18
ENDBRANCH   1  17
TORSDOF 26
ENDMDL
MODEL 2
REMARK VINA RESULT:    26.153      3.454     11.488
REMARK INTER + INTRA:          65.343
REMARK INTER:                  65.859
REMARK INTRA:                  -0.516
REMARK UNBOUND:                -0.561
REMARK SMILES CCCCCCCCCCCCCCCCCCCCCCCCCCCC(=O)[O-]
REMARK SMILES IDX 15 1 16 2 17 3 18 4 19 5 20 6 21 7 22 8 23 9 24 10 25 11
REMARK SMILES IDX 26 12 27 13 28 14 29 15 30 16 14 17 13 18 12 19 11 20 10 21
REMARK SMILES IDX 9 22 8 23 7 24 6 25 5 26 4 27 3 28 2 29 1 30
REMARK H PARENT
REMARK Flexibility Score: inf
ROOT
ATOM      1  C   UNL     1     -16.869 -13.961 -21.449  1.00  0.00     0.000 C 
ENDROOT
BRANCH   1   2
ATOM      2  C   UNL     1     -16.158 -13.712 -22.787  1.00  0.00     0.000 C 
BRANCH   2   3
ATOM      3  C   UNL     1     -15.355 -12.402 -22.751  1.00  0.00     0.000 C 
BRANCH   3   4
ATOM      4  C   UNL     1     -14.125 -12.438 -23.672  1.00  0.00     0.000 C 
BRANCH   4   5
ATOM      5  C   UNL     1     -13.837 -11.078 -24.329  1.00  0.00     0.000 C 
BRANCH   5   6
ATOM      6  C   UNL     1     -14.652  -9.930 -23.710  1.00  0.00     0.000 C 
BRANCH   6   7
ATOM      7  C   UNL     1     -13.858  -8.618 -23.545  1.00  0.00     0.000 C 
BRANCH   7   8
ATOM      8  C   UNL     1     -14.774  -7.404 -23.329  1.00  0.00     0.000 C 
BRANCH   8   9
ATOM      9  C   UNL     1     -15.159  -7.197 -21.854  1.00  0.00     0.000 C 
BRANCH   9  10
ATOM     10  C   UNL     1     -13.942  -6.981 -20.928  1.00  0.00     0.000 C 
BRANCH  10  11
ATOM     11  C   UNL     1     -12.718  -7.794 -21.374  1.00  0.00     0.000 C 
BRANCH  11  12
ATOM     12  C   UNL     1     -12.277  -8.770 -20.277  1.00  0.00     0.006 C 
BRANCH  12  13
ATOM     13  C   UNL     1     -12.234  -8.080 -18.910  1.00  0.00     0.053 C 
BRANCH  13  14
ATOM     14  C   UNL     1     -13.190  -8.737 -17.962  1.00  0.00     0.041 C 
ATOM     15  O   UNL     1     -14.205  -8.113 -17.551  1.00  0.00    -0.550 OA
ATOM     16  O   UNL     1     -12.986 -10.053 -17.568  1.00  0.00    -0.550 OA
ENDBRANCH  13  14
ENDBRANCH  12  13
ENDBRANCH  11  12
ENDBRANCH  10  11
ENDBRANCH   9  10
ENDBRANCH   8   9
ENDBRANCH   7   8
ENDBRANCH   6   7
ENDBRANCH   5   6
ENDBRANCH   4   5
ENDBRANCH   3   4
ENDBRANCH   2   3
ENDBRANCH   1   2
BRANCH   1  17
ATOM     17  C   UNL     1     -15.858 -14.334 -20.354  1.00  0.00     0.000 C 
BRANCH  17  18
ATOM     18  C   UNL     1     -16.064 -15.759 -19.805  1.00  0.00     0.000 C 
BRANCH  18  19
ATOM     19  C   UNL     1     -17.330 -15.953 -18.949  1.00  0.00     0.000 C 
BRANCH  19  20
ATOM     20  C   UNL     1     -17.206 -15.327 -17.548  1.00  0.00     0.000 C 
BRANCH  20  21
ATOM     21  C   UNL     1     -16.666 -16.313 -16.496  1.00  0.00     0.000 C 
BRANCH  21  22
ATOM     22  C   UNL     1     -17.683 -16.756 -15.428  1.00  0.00    -0.000 C 
BRANCH  22  23
ATOM     23  C   UNL     1     -19.141 -16.528 -15.856  1.00  0.00    -0.000 C 
BRANCH  23  24
ATOM     24  C   UNL     1     -19.864 -17.860 -16.090  1.00  0.00    -0.000 C 
BRANCH  24  25
ATOM     25  C   UNL     1     -21.231 -17.869 -15.392  1.00  0.00    -0.000 C 
BRANCH  25  26
ATOM     26  C   UNL     1     -21.827 -16.462 -15.232  1.00  0.00    -0.000 C 
BRANCH  26  27
ATOM     27  C   UNL     1     -23.078 -16.450 -14.341  1.00  0.00    -0.000 C 
BRANCH  27  28
ATOM     28  C   UNL     1     -23.475 -15.015 -13.975  1.00  0.00    -0.000 C 
BRANCH  28  29
ATOM     29  C   UNL     1     -24.029 -14.945 -12.547  1.00  0.00    -0.003 C 
ATOM     30  C   UNL     1     -23.009 -14.341 -11.587  1.00  0.00     0.004 C 
ENDBRANCH  28  29
ENDBRANCH  27  28
ENDBRANCH  26  27
ENDBRANCH  25  26
ENDBRANCH  24  25
ENDBRANCH  23  24
ENDBRANCH  22  23
ENDBRANCH  21  22
ENDBRANCH  20  21
ENDBRANCH  19  20
ENDBRANCH  18  19
ENDBRANCH  17  18
ENDBRANCH   1  17
TORSDOF 26
ENDMDL
MODEL 3
REMARK VINA RESULT:    26.710      0.870      1.583
REMARK INTER + INTRA:          66.748
REMARK INTER:                  66.873
REMARK INTRA:                  -0.126
REMARK UNBOUND:                -0.561
REMARK SMILES CCCCCCCCCCCCCCCCCCCCCCCCCCCC(=O)[O-]
REMARK SMILES IDX 15 1 16 2 17 3 18 4 19 5 20 6 21 7 22 8 23 9 24 10 25 11
REMARK SMILES IDX 26 12 27 13 28 14 29 15 30 16 14 17 13 18 12 19 11 20 10 21
REMARK SMILES IDX 9 22 8 23 7 24 6 25 5 26 4 27 3 28 2 29 1 30
REMARK H PARENT
REMARK Flexibility Score: inf
ROOT
ATOM      1  C   UNL     1     -16.853 -14.761 -20.208  1.00  0.00     0.000 C 
ENDROOT
BRANCH   1   2
ATOM      2  C   UNL     1     -16.366 -15.925 -19.334  1.00  0.00     0.000 C 
BRANCH   2   3
ATOM      3  C   UNL     1     -17.418 -16.305 -18.280  1.00  0.00     0.000 C 
BRANCH   3   4
ATOM      4  C   UNL     1     -17.494 -15.291 -17.128  1.00  0.00     0.000 C 
BRANCH   4   5
ATOM      5  C   UNL     1     -17.375 -15.954 -15.746  1.00  0.00     0.000 C 
BRANCH   5   6
ATOM      6  C   UNL     1     -18.554 -16.891 -15.430  1.00  0.00     0.000 C 
BRANCH   6   7
ATOM      7  C   UNL     1     -18.994 -17.765 -16.622  1.00  0.00     0.000 C 
BRANCH   7   8
ATOM      8  C   UNL     1     -20.444 -18.254 -16.483  1.00  0.00     0.000 C 
BRANCH   8   9
ATOM      9  C   UNL     1     -21.063 -17.914 -15.116  1.00  0.00     0.000 C 
BRANCH   9  10
ATOM     10  C   UNL     1     -21.475 -16.432 -14.981  1.00  0.00     0.000 C 
BRANCH  10  11
ATOM     11  C   UNL     1     -22.993 -16.235 -15.106  1.00  0.00     0.000 C 
BRANCH  11  12
ATOM     12  C   UNL     1     -23.439 -14.946 -14.406  1.00  0.00     0.006 C 
BRANCH  12  13
ATOM     13  C   UNL     1     -24.443 -15.244 -13.288  1.00  0.00     0.053 C 
BRANCH  13  14
ATOM     14  C   UNL     1     -24.035 -14.557 -12.021  1.00  0.00     0.041 C 
ATOM     15  O   UNL     1     -22.826 -14.546 -11.667  1.00  0.00    -0.550 OA
ATOM     16  O   UNL     1     -24.982 -13.890 -11.255  1.00  0.00    -0.550 OA
ENDBRANCH  13  14
ENDBRANCH  12  13
ENDBRANCH  11  12
ENDBRANCH  10  11
ENDBRANCH   9  10
ENDBRANCH   8   9
ENDBRANCH   7   8
ENDBRANCH   6   7
ENDBRANCH   5   6
ENDBRANCH   4   5
ENDBRANCH   3   4
ENDBRANCH   2   3
ENDBRANCH   1   2
BRANCH   1  17
ATOM     17  C   UNL     1     -15.817 -14.417 -21.289  1.00  0.00     0.000 C 
BRANCH  17  18
ATOM     18  C   UNL     1     -16.343 -13.406 -22.326  1.00  0.00     0.000 C 
BRANCH  18  19
ATOM     19  C   UNL     1     -15.408 -12.215 -22.610  1.00  0.00     0.000 C 
BRANCH  19  20
ATOM     20  C   UNL     1     -14.598 -12.389 -23.907  1.00  0.00     0.000 C 
BRANCH  20  21
ATOM     21  C   UNL     1     -13.799 -11.129 -24.289  1.00  0.00     0.000 C 
BRANCH  21  22
ATOM     22  C   UNL     1     -13.958  -9.934 -23.331  1.00  0.00    -0.000 C 
BRANCH  22  23
ATOM     23  C   UNL     1     -14.831  -8.811 -23.911  1.00  0.00    -0.000 C 
BRANCH  23  24
ATOM     24  C   UNL     1     -14.491  -7.459 -23.271  1.00  0.00    -0.000 C 
BRANCH  24  25
ATOM     25  C   UNL     1     -13.539  -7.642 -22.080  1.00  0.00    -0.000 C 
BRANCH  25  26
ATOM     26  C   UNL     1     -13.786  -6.620 -20.960  1.00  0.00    -0.000 C 
BRANCH  26  27
ATOM     27  C   UNL     1     -13.805  -7.267 -19.566  1.00  0.00    -0.000 C 
BRANCH  27  28
ATOM     28  C   UNL     1     -12.441  -7.880 -19.228  1.00  0.00    -0.000 C 
BRANCH  28  29
ATOM     29  C   UNL     1     -12.566  -8.913 -18.103  1.00  0.00    -0.003 C 
ATOM     30  C   UNL     1     -13.950  -8.869 -17.463  1.00  0.00     0.004 C 
ENDBRANCH  28  29
ENDBRANCH  27  28
ENDBRANCH  26  27
ENDBRANCH  25  26
ENDBRANCH  24  25
ENDBRANCH  23  24
ENDBRANCH  22  23
ENDBRANCH  21  22
ENDBRANCH  20  21
ENDBRANCH  19  20
ENDBRANCH  18  19
ENDBRANCH  17  18
ENDBRANCH   1  17
TORSDOF 26
ENDMDL
MODEL 4
REMARK VINA RESULT:    26.951      3.635     11.682
REMARK INTER + INTRA:          67.355
REMARK INTER:                  66.782
REMARK INTRA:                   0.573
REMARK UNBOUND:                -0.561
REMARK SMILES CCCCCCCCCCCCCCCCCCCCCCCCCCCC(=O)[O-]
REMARK SMILES IDX 15 1 16 2 17 3 18 4 19 5 20 6 21 7 22 8 23 9 24 10 25 11
REMARK SMILES IDX 26 12 27 13 28 14 29 15 30 16 14 17 13 18 12 19 11 20 10 21
REMARK SMILES IDX 9 22 8 23 7 24 6 25 5 26 4 27 3 28 2 29 1 30
REMARK H PARENT
REMARK Flexibility Score: inf
ROOT
ATOM      1  C   UNL     1     -16.190 -14.937 -19.517  1.00  0.00     0.000 C 
ENDROOT
BRANCH   1   2
ATOM      2  C   UNL     1     -15.963 -14.930 -21.036  1.00  0.00     0.000 C 
BRANCH   2   3
ATOM      3  C   UNL     1     -16.321 -13.564 -21.642  1.00  0.00     0.000 C 
BRANCH   3   4
ATOM      4  C   UNL     1     -16.714 -13.660 -23.125  1.00  0.00     0.000 C 
BRANCH   4   5
ATOM      5  C   UNL     1     -15.609 -13.150 -24.064  1.00  0.00     0.000 C 
BRANCH   5   6
ATOM      6  C   UNL     1     -14.595 -12.236 -23.354  1.00  0.00     0.000 C 
BRANCH   6   7
ATOM      7  C   UNL     1     -13.907 -11.222 -24.291  1.00  0.00     0.000 C 
BRANCH   7   8
ATOM      8  C   UNL     1     -13.574  -9.902 -23.577  1.00  0.00     0.000 C 
BRANCH   8   9
ATOM      9  C   UNL     1     -14.741  -8.899 -23.597  1.00  0.00     0.000 C 
BRANCH   9  10
ATOM     10  C   UNL     1     -14.434  -7.587 -22.844  1.00  0.00     0.000 C 
BRANCH  10  11
ATOM     11  C   UNL     1     -13.191  -7.705 -21.949  1.00  0.00     0.000 C 
BRANCH  11  12
ATOM     12  C   UNL     1     -13.547  -7.464 -20.478  1.00  0.00     0.006 C 
BRANCH  12  13
ATOM     13  C   UNL     1     -12.376  -7.827 -19.560  1.00  0.00     0.053 C 
BRANCH  13  14
ATOM     14  C   UNL     1     -12.865  -8.572 -18.357  1.00  0.00     0.041 C 
ATOM     15  O   UNL     1     -13.455  -7.959 -17.428  1.00  0.00    -0.550 OA
ATOM     16  O   UNL     1     -12.708  -9.950 -18.281  1.00  0.00    -0.550 OA
ENDBRANCH  13  14
ENDBRANCH  12  13
ENDBRANCH  11  12
ENDBRANCH  10  11
ENDBRANCH   9  10
ENDBRANCH   8   9
ENDBRANCH   7   8
ENDBRANCH   6   7
ENDBRANCH   5   6
ENDBRANCH   4   5
ENDBRANCH   3   4
ENDBRANCH   2   3
ENDBRANCH   1   2
BRANCH   1  17
ATOM     17  C   UNL     1     -17.282 -15.947 -19.133  1.00  0.00     0.000 C 
BRANCH  17  18
ATOM     18  C   UNL     1     -17.749 -15.801 -17.672  1.00  0.00     0.000 C 
BRANCH  18  19
ATOM     19  C   UNL     1     -16.626 -15.840 -16.619  1.00  0.00     0.000 C 
BRANCH  19  20
ATOM     20  C   UNL     1     -16.880 -16.879 -15.512  1.00  0.00     0.000 C 
BRANCH  20  21
ATOM     21  C   UNL     1     -18.266 -16.732 -14.857  1.00  0.00     0.000 C 
BRANCH  21  22
ATOM     22  C   UNL     1     -19.460 -16.774 -15.828  1.00  0.00    -0.000 C 
BRANCH  22  23
ATOM     23  C   UNL     1     -19.875 -18.204 -16.208  1.00  0.00    -0.000 C 
BRANCH  23  24
ATOM     24  C   UNL     1     -21.242 -18.560 -15.612  1.00  0.00    -0.000 C 
BRANCH  24  25
ATOM     25  C   UNL     1     -21.770 -17.419 -14.732  1.00  0.00    -0.000 C 
BRANCH  25  26
ATOM     26  C   UNL     1     -21.888 -16.089 -15.492  1.00  0.00    -0.000 C 
BRANCH  26  27
ATOM     27  C   UNL     1     -22.636 -15.015 -14.688  1.00  0.00    -0.000 C 
BRANCH  27  28
ATOM     28  C   UNL     1     -23.570 -15.656 -13.655  1.00  0.00    -0.000 C 
BRANCH  28  29
ATOM     29  C   UNL     1     -23.314 -15.087 -12.254  1.00  0.00    -0.003 C 
ATOM     30  C   UNL     1     -24.503 -14.265 -11.766  1.00  0.00     0.004 C 
ENDBRANCH  28  29
ENDBRANCH  27  28
ENDBRANCH  26  27
ENDBRANCH  25  26
ENDBRANCH  24  25
ENDBRANCH  23  24
ENDBRANCH  22  23
ENDBRANCH  21  22
ENDBRANCH  20  21
ENDBRANCH  19  20
ENDBRANCH  18  19
ENDBRANCH  17  18
ENDBRANCH   1  17
TORSDOF 26
ENDMDL
MODEL 5
REMARK VINA RESULT:    27.515      3.492     12.081
REMARK INTER + INTRA:          68.775
REMARK INTER:                  70.278
REMARK INTRA:                  -1.503
REMARK UNBOUND:                -0.561
REMARK SMILES CCCCCCCCCCCCCCCCCCCCCCCCCCCC(=O)[O-]
REMARK SMILES IDX 15 1 16 2 17 3 18 4 19 5 20 6 21 7 22 8 23 9 24 10 25 11
REMARK SMILES IDX 26 12 27 13 28 14 29 15 30 16 14 17 13 18 12 19 11 20 10 21
REMARK SMILES IDX 9 22 8 23 7 24 6 25 5 26 4 27 3 28 2 29 1 30
REMARK H PARENT
REMARK Flexibility Score: inf
ROOT
ATOM      1  C   UNL     1     -17.080 -15.343 -19.108  1.00  0.00     0.000 C 
ENDROOT
BRANCH   1   2
ATOM      2  C   UNL     1     -16.171 -15.329 -20.345  1.00  0.00     0.000 C 
BRANCH   2   3
ATOM      3  C   UNL     1     -16.135 -13.935 -20.990  1.00  0.00     0.000 C 
BRANCH   3   4
ATOM      4  C   UNL     1     -16.329 -13.983 -22.514  1.00  0.00     0.000 C 
BRANCH   4   5
ATOM      5  C   UNL     1     -15.990 -12.648 -23.196  1.00  0.00     0.000 C 
BRANCH   5   6
ATOM      6  C   UNL     1     -14.525 -12.226 -22.990  1.00  0.00     0.000 C 
BRANCH   6   7
ATOM      7  C   UNL     1     -13.920 -11.464 -24.188  1.00  0.00     0.000 C 
BRANCH   7   8
ATOM      8  C   UNL     1     -14.150  -9.948 -24.091  1.00  0.00     0.000 C 
BRANCH   8   9
ATOM      9  C   UNL     1     -13.533  -9.327 -22.826  1.00  0.00     0.000 C 
BRANCH   9  10
ATOM     10  C   UNL     1     -13.995  -7.878 -22.565  1.00  0.00     0.000 C 
BRANCH  10  11
ATOM     11  C   UNL     1     -13.564  -7.368 -21.182  1.00  0.00     0.000 C 
BRANCH  11  12
ATOM     12  C   UNL     1     -12.470  -8.259 -20.584  1.00  0.00     0.006 C 
BRANCH  12  13
ATOM     13  C   UNL     1     -12.206  -7.901 -19.118  1.00  0.00     0.053 C 
BRANCH  13  14
ATOM     14  C   UNL     1     -13.170  -8.617 -18.222  1.00  0.00     0.041 C 
ATOM     15  O   UNL     1     -12.915  -9.784 -17.822  1.00  0.00    -0.550 OA
ATOM     16  O   UNL     1     -14.327  -7.980 -17.794  1.00  0.00    -0.550 OA
ENDBRANCH  13  14
ENDBRANCH  12  13
ENDBRANCH  11  12
ENDBRANCH  10  11
ENDBRANCH   9  10
ENDBRANCH   8   9
ENDBRANCH   7   8
ENDBRANCH   6   7
ENDBRANCH   5   6
ENDBRANCH   4   5
ENDBRANCH   3   4
ENDBRANCH   2   3
ENDBRANCH   1   2
BRANCH   1  17
ATOM     17  C   UNL     1     -16.464 -16.191 -17.985  1.00  0.00     0.000 C 
BRANCH  17  18
ATOM     18  C   UNL     1     -16.772 -15.641 -16.579  1.00  0.00     0.000 C 
BRANCH  18  19
ATOM     19  C   UNL     1     -17.395 -16.656 -15.602  1.00  0.00     0.000 C 
BRANCH  19  20
ATOM     20  C   UNL     1     -18.530 -17.479 -16.238  1.00  0.00     0.000 C 
BRANCH  20  21
ATOM     21  C   UNL     1     -19.929 -17.014 -15.795  1.00  0.00     0.000 C 
BRANCH  21  22
ATOM     22  C   UNL     1     -21.016 -18.105 -15.799  1.00  0.00    -0.000 C 
BRANCH  22  23
ATOM     23  C   UNL     1     -22.286 -17.692 -15.041  1.00  0.00    -0.000 C 
BRANCH  23  24
ATOM     24  C   UNL     1     -22.224 -16.220 -14.617  1.00  0.00    -0.000 C 
BRANCH  24  25
ATOM     25  C   UNL     1     -23.622 -15.587 -14.630  1.00  0.00    -0.000 C 
BRANCH  25  26
ATOM     26  C   UNL     1     -23.882 -14.695 -13.406  1.00  0.00    -0.000 C 
BRANCH  26  27
ATOM     27  C   UNL     1     -23.173 -15.206 -12.143  1.00  0.00    -0.000 C 
BRANCH  27  28
ATOM     28  C   UNL     1     -23.741 -16.562 -11.707  1.00  0.00    -0.000 C 
BRANCH  28  29
ATOM     29  C   UNL     1     -22.616 -17.544 -11.359  1.00  0.00    -0.003 C 
ATOM     30  C   UNL     1     -22.935 -18.949 -11.858  1.00  0.00     0.004 C 
ENDBRANCH  28  29
ENDBRANCH  27  28
ENDBRANCH  26  27
ENDBRANCH  25  26
ENDBRANCH  24  25
ENDBRANCH  23  24
ENDBRANCH  22  23
ENDBRANCH  21  22
ENDBRANCH  20  21
ENDBRANCH  19  20
ENDBRANCH  18  19
ENDBRANCH  17  18
ENDBRANCH   1  17
TORSDOF 26
ENDMDL
MODEL 6
REMARK VINA RESULT:    27.682      2.616      3.578
REMARK INTER + INTRA:          69.197
REMARK INTER:                  70.365
REMARK INTRA:                  -1.167
REMARK UNBOUND:                -0.561
REMARK SMILES CCCCCCCCCCCCCCCCCCCCCCCCCCCC(=O)[O-]
REMARK SMILES IDX 15 1 16 2 17 3 18 4 19 5 20 6 21 7 22 8 23 9 24 10 25 11
REMARK SMILES IDX 26 12 27 13 28 14 29 15 30 16 14 17 13 18 12 19 11 20 10 21
REMARK SMILES IDX 9 22 8 23 7 24 6 25 5 26 4 27 3 28 2 29 1 30
REMARK H PARENT
REMARK Flexibility Score: inf
ROOT
ATOM      1  C   UNL     1     -16.499 -15.669 -19.020  1.00  0.00     0.000 C 
ENDROOT
BRANCH   1   2
ATOM      2  C   UNL     1     -17.684 -16.004 -18.102  1.00  0.00     0.000 C 
BRANCH   2   3
ATOM      3  C   UNL     1     -17.250 -16.034 -16.628  1.00  0.00     0.000 C 
BRANCH   3   4
ATOM      4  C   UNL     1     -18.210 -16.849 -15.746  1.00  0.00     0.000 C 
BRANCH   4   5
ATOM      5  C   UNL     1     -19.234 -17.650 -16.567  1.00  0.00     0.000 C 
BRANCH   5   6
ATOM      6  C   UNL     1     -20.479 -18.041 -15.752  1.00  0.00     0.000 C 
BRANCH   6   7
ATOM      7  C   UNL     1     -21.171 -16.850 -15.059  1.00  0.00     0.000 C 
BRANCH   7   8
ATOM      8  C   UNL     1     -22.481 -17.258 -14.367  1.00  0.00     0.000 C 
BRANCH   8   9
ATOM      9  C   UNL     1     -22.266 -18.265 -13.223  1.00  0.00     0.000 C 
BRANCH   9  10
ATOM     10  C   UNL     1     -22.919 -17.832 -11.894  1.00  0.00     0.000 C 
BRANCH  10  11
ATOM     11  C   UNL     1     -23.734 -18.962 -11.248  1.00  0.00     0.000 C 
BRANCH  11  12
ATOM     12  C   UNL     1     -24.943 -18.404 -10.489  1.00  0.00     0.006 C 
BRANCH  12  13
ATOM     13  C   UNL     1     -25.787 -19.533  -9.887  1.00  0.00     0.053 C 
BRANCH  13  14
ATOM     14  C   UNL     1     -26.663 -19.006  -8.793  1.00  0.00     0.041 C 
ATOM     15  O   UNL     1     -27.856 -19.395  -8.693  1.00  0.00    -0.550 OA
ATOM     16  O   UNL     1     -26.148 -18.119  -7.856  1.00  0.00    -0.550 OA
ENDBRANCH  13  14
ENDBRANCH  12  13
ENDBRANCH  11  12
ENDBRANCH  10  11
ENDBRANCH   9  10
ENDBRANCH   8   9
ENDBRANCH   7   8
ENDBRANCH   6   7
ENDBRANCH   5   6
ENDBRANCH   4   5
ENDBRANCH   3   4
ENDBRANCH   2   3
ENDBRANCH   1   2
BRANCH   1  17
ATOM     17  C   UNL     1     -16.990 -15.221 -20.405  1.00  0.00     0.000 C 
BRANCH  17  18
ATOM     18  C   UNL     1     -16.176 -14.047 -20.981  1.00  0.00     0.000 C 
BRANCH  18  19
ATOM     19  C   UNL     1     -16.749 -13.421 -22.266  1.00  0.00     0.000 C 
BRANCH  19  20
ATOM     20  C   UNL     1     -15.669 -13.136 -23.325  1.00  0.00     0.000 C 
BRANCH  20  21
ATOM     21  C   UNL     1     -14.643 -12.083 -22.868  1.00  0.00     0.000 C 
BRANCH  21  22
ATOM     22  C   UNL     1     -14.037 -11.224 -23.993  1.00  0.00    -0.000 C 
BRANCH  22  23
ATOM     23  C   UNL     1     -13.624  -9.821 -23.523  1.00  0.00    -0.000 C 
BRANCH  23  24
ATOM     24  C   UNL     1     -14.772  -8.819 -23.698  1.00  0.00    -0.000 C 
BRANCH  24  25
ATOM     25  C   UNL     1     -14.589  -7.611 -22.769  1.00  0.00    -0.000 C 
BRANCH  25  26
ATOM     26  C   UNL     1     -13.297  -7.687 -21.941  1.00  0.00    -0.000 C 
BRANCH  26  27
ATOM     27  C   UNL     1     -13.507  -7.266 -20.480  1.00  0.00    -0.000 C 
BRANCH  27  28
ATOM     28  C   UNL     1     -12.438  -7.885 -19.572  1.00  0.00    -0.000 C 
BRANCH  28  29
ATOM     29  C   UNL     1     -13.005  -8.186 -18.180  1.00  0.00    -0.003 C 
ATOM     30  C   UNL     1     -12.833  -9.658 -17.819  1.00  0.00     0.004 C 
ENDBRANCH  28  29
ENDBRANCH  27  28
ENDBRANCH  26  27
ENDBRANCH  25  26
ENDBRANCH  24  25
ENDBRANCH  23  24
ENDBRANCH  22  23
ENDBRANCH  21  22
ENDBRANCH  20  21
ENDBRANCH  19  20
ENDBRANCH  18  19
ENDBRANCH  17  18
ENDBRANCH   1  17
TORSDOF 26
ENDMDL
MODEL 7
REMARK VINA RESULT:    27.765      3.731     11.862
REMARK INTER + INTRA:          69.407
REMARK INTER:                  70.561
REMARK INTRA:                  -1.154
REMARK UNBOUND:                -0.561
REMARK SMILES CCCCCCCCCCCCCCCCCCCCCCCCCCCC(=O)[O-]
REMARK SMILES IDX 15 1 16 2 17 3 18 4 19 5 20 6 21 7 22 8 23 9 24 10 25 11
REMARK SMILES IDX 26 12 27 13 28 14 29 15 30 16 14 17 13 18 12 19 11 20 10 21
REMARK SMILES IDX 9 22 8 23 7 24 6 25 5 26 4 27 3 28 2 29 1 30
REMARK H PARENT
REMARK Flexibility Score: inf
ROOT
ATOM      1  C   UNL     1     -15.863 -12.658 -22.064  1.00  0.00     0.000 C 
ENDROOT
BRANCH   1   2
ATOM      2  C   UNL     1     -15.075 -12.516 -23.374  1.00  0.00     0.000 C 
BRANCH   2   3
ATOM      3  C   UNL     1     -13.941 -11.490 -23.229  1.00  0.00     0.000 C 
BRANCH   3   4
ATOM      4  C   UNL     1     -14.114 -10.282 -24.164  1.00  0.00     0.000 C 
BRANCH   4   5
ATOM      5  C   UNL     1     -14.048  -8.941 -23.416  1.00  0.00     0.000 C 
BRANCH   5   6
ATOM      6  C   UNL     1     -15.410  -8.229 -23.343  1.00  0.00     0.000 C 
BRANCH   6   7
ATOM      7  C   UNL     1     -15.593  -7.121 -24.401  1.00  0.00     0.000 C 
BRANCH   7   8
ATOM      8  C   UNL     1     -14.308  -6.309 -24.623  1.00  0.00     0.000 C 
BRANCH   8   9
ATOM      9  C   UNL     1     -14.027  -5.309 -23.487  1.00  0.00     0.000 C 
BRANCH   9  10
ATOM     10  C   UNL     1     -13.105  -5.875 -22.386  1.00  0.00     0.000 C 
BRANCH  10  11
ATOM     11  C   UNL     1     -13.758  -5.827 -20.996  1.00  0.00     0.000 C 
BRANCH  11  12
ATOM     12  C   UNL     1     -14.033  -7.240 -20.470  1.00  0.00     0.006 C 
BRANCH  12  13
ATOM     13  C   UNL     1     -12.730  -7.948 -20.081  1.00  0.00     0.053 C 
BRANCH  13  14
ATOM     14  C   UNL     1     -12.763  -8.348 -18.638  1.00  0.00     0.041 C 
ATOM     15  O   UNL     1     -12.784  -7.468 -17.737  1.00  0.00    -0.550 OA
ATOM     16  O   UNL     1     -12.814  -9.691 -18.289  1.00  0.00    -0.550 OA
ENDBRANCH  13  14
ENDBRANCH  12  13
ENDBRANCH  11  12
ENDBRANCH  10  11
ENDBRANCH   9  10
ENDBRANCH   8   9
ENDBRANCH   7   8
ENDBRANCH   6   7
ENDBRANCH   5   6
ENDBRANCH   4   5
ENDBRANCH   3   4
ENDBRANCH   2   3
ENDBRANCH   1   2
BRANCH   1  17
ATOM     17  C   UNL     1     -16.194 -14.132 -21.781  1.00  0.00     0.000 C 
BRANCH  17  18
ATOM     18  C   UNL     1     -16.111 -14.491 -20.285  1.00  0.00     0.000 C 
BRANCH  18  19
ATOM     19  C   UNL     1     -17.241 -15.400 -19.767  1.00  0.00     0.000 C 
BRANCH  19  20
ATOM     20  C   UNL     1     -17.517 -15.212 -18.264  1.00  0.00     0.000 C 
BRANCH  20  21
ATOM     21  C   UNL     1     -16.778 -16.238 -17.385  1.00  0.00     0.000 C 
BRANCH  21  22
ATOM     22  C   UNL     1     -16.928 -16.030 -15.867  1.00  0.00    -0.000 C 
BRANCH  22  23
ATOM     23  C   UNL     1     -18.270 -16.538 -15.320  1.00  0.00    -0.000 C 
BRANCH  23  24
ATOM     24  C   UNL     1     -19.069 -17.269 -16.405  1.00  0.00    -0.000 C 
BRANCH  24  25
ATOM     25  C   UNL     1     -20.163 -18.147 -15.781  1.00  0.00    -0.000 C 
BRANCH  25  26
ATOM     26  C   UNL     1     -21.558 -17.508 -15.866  1.00  0.00    -0.000 C 
BRANCH  26  27
ATOM     27  C   UNL     1     -22.134 -17.165 -14.483  1.00  0.00    -0.000 C 
BRANCH  27  28
ATOM     28  C   UNL     1     -22.275 -15.649 -14.310  1.00  0.00    -0.000 C 
BRANCH  28  29
ATOM     29  C   UNL     1     -23.750 -15.228 -14.324  1.00  0.00    -0.003 C 
ATOM     30  C   UNL     1     -24.325 -15.185 -12.912  1.00  0.00     0.004 C 
ENDBRANCH  28  29
ENDBRANCH  27  28
ENDBRANCH  26  27
ENDBRANCH  25  26
ENDBRANCH  24  25
ENDBRANCH  23  24
ENDBRANCH  22  23
ENDBRANCH  21  22
ENDBRANCH  20  21
ENDBRANCH  19  20
ENDBRANCH  18  19
ENDBRANCH  17  18
ENDBRANCH   1  17
TORSDOF 26
ENDMDL
MODEL 8
REMARK VINA RESULT:    28.005      4.170      5.248
REMARK INTER + INTRA:          70.010
REMARK INTER:                  71.229
REMARK INTRA:                  -1.218
REMARK UNBOUND:                -0.561
REMARK SMILES CCCCCCCCCCCCCCCCCCCCCCCCCCCC(=O)[O-]
REMARK SMILES IDX 15 1 16 2 17 3 18 4 19 5 20 6 21 7 22 8 23 9 24 10 25 11
REMARK SMILES IDX 26 12 27 13 28 14 29 15 30 16 14 17 13 18 12 19 11 20 10 21
REMARK SMILES IDX 9 22 8 23 7 24 6 25 5 26 4 27 3 28 2 29 1 30
REMARK H PARENT
REMARK Flexibility Score: inf
ROOT
ATOM      1  C   UNL     1     -16.145 -15.305 -20.290  1.00  0.00     0.000 C 
ENDROOT
BRANCH   1   2
ATOM      2  C   UNL     1     -16.176 -15.307 -18.755  1.00  0.00     0.000 C 
BRANCH   2   3
ATOM      3  C   UNL     1     -17.297 -16.215 -18.225  1.00  0.00     0.000 C 
BRANCH   3   4
ATOM      4  C   UNL     1     -17.927 -15.682 -16.928  1.00  0.00     0.000 C 
BRANCH   4   5
ATOM      5  C   UNL     1     -17.899 -16.713 -15.788  1.00  0.00     0.000 C 
BRANCH   5   6
ATOM      6  C   UNL     1     -16.509 -16.858 -15.146  1.00  0.00     0.000 C 
BRANCH   6   7
ATOM      7  C   UNL     1     -16.366 -16.128 -13.794  1.00  0.00     0.000 C 
BRANCH   7   8
ATOM      8  C   UNL     1     -14.907 -15.768 -13.477  1.00  0.00     0.000 C 
BRANCH   8   9
ATOM      9  C   UNL     1     -14.705 -15.313 -12.021  1.00  0.00     0.000 C 
BRANCH   9  10
ATOM     10  C   UNL     1     -16.018 -15.244 -11.212  1.00  0.00     0.000 C 
BRANCH  10  11
ATOM     11  C   UNL     1     -15.914 -15.980  -9.868  1.00  0.00     0.000 C 
BRANCH  11  12
ATOM     12  C   UNL     1     -16.108 -17.489 -10.052  1.00  0.00     0.006 C 
BRANCH  12  13
ATOM     13  C   UNL     1     -15.635 -18.261  -8.816  1.00  0.00     0.053 C 
BRANCH  13  14
ATOM     14  C   UNL     1     -14.543 -17.511  -8.116  1.00  0.00     0.041 C 
ATOM     15  O   UNL     1     -13.477 -17.230  -8.726  1.00  0.00    -0.550 OA
ATOM     16  O   UNL     1     -14.720 -17.085  -6.807  1.00  0.00    -0.550 OA
ENDBRANCH  13  14
ENDBRANCH  12  13
ENDBRANCH  11  12
ENDBRANCH  10  11
ENDBRANCH   9  10
ENDBRANCH   8   9
ENDBRANCH   7   8
ENDBRANCH   6   7
ENDBRANCH   5   6
ENDBRANCH   4   5
ENDBRANCH   3   4
ENDBRANCH   2   3
ENDBRANCH   1   2
BRANCH   1  17
ATOM     17  C   UNL     1     -16.099 -13.869 -20.834  1.00  0.00     0.000 C 
BRANCH  17  18
ATOM     18  C   UNL     1     -16.748 -13.732 -22.225  1.00  0.00     0.000 C 
BRANCH  18  19
ATOM     19  C   UNL     1     -15.821 -13.188 -23.328  1.00  0.00     0.000 C 
BRANCH  19  20
ATOM     20  C   UNL     1     -14.744 -12.232 -22.785  1.00  0.00     0.000 C 
BRANCH  20  21
ATOM     21  C   UNL     1     -13.975 -11.499 -23.900  1.00  0.00     0.000 C 
BRANCH  21  22
ATOM     22  C   UNL     1     -13.755  -9.993 -23.664  1.00  0.00    -0.000 C 
BRANCH  22  23
ATOM     23  C   UNL     1     -15.061  -9.229 -23.398  1.00  0.00    -0.000 C 
BRANCH  23  24
ATOM     24  C   UNL     1     -14.847  -7.714 -23.500  1.00  0.00    -0.000 C 
BRANCH  24  25
ATOM     25  C   UNL     1     -13.541  -7.299 -22.807  1.00  0.00    -0.000 C 
BRANCH  25  26
ATOM     26  C   UNL     1     -13.624  -7.394 -21.276  1.00  0.00    -0.000 C 
BRANCH  26  27
ATOM     27  C   UNL     1     -12.598  -8.376 -20.691  1.00  0.00    -0.000 C 
BRANCH  27  28
ATOM     28  C   UNL     1     -12.108  -7.902 -19.318  1.00  0.00    -0.000 C 
BRANCH  28  29
ATOM     29  C   UNL     1     -13.104  -8.283 -18.216  1.00  0.00    -0.003 C 
ATOM     30  C   UNL     1     -12.882  -9.715 -17.741  1.00  0.00     0.004 C 
ENDBRANCH  28  29
ENDBRANCH  27  28
ENDBRANCH  26  27
ENDBRANCH  25  26
ENDBRANCH  24  25
ENDBRANCH  23  24
ENDBRANCH  22  23
ENDBRANCH  21  22
ENDBRANCH  20  21
ENDBRANCH  19  20
ENDBRANCH  18  19
ENDBRANCH  17  18
ENDBRANCH   1  17
TORSDOF 26
ENDMDL
MODEL 9
REMARK VINA RESULT:    28.321      1.639      3.291
REMARK INTER + INTRA:          70.807
REMARK INTER:                  71.631
REMARK INTRA:                  -0.824
REMARK UNBOUND:                -0.561
REMARK SMILES CCCCCCCCCCCCCCCCCCCCCCCCCCCC(=O)[O-]
REMARK SMILES IDX 15 1 16 2 17 3 18 4 19 5 20 6 21 7 22 8 23 9 24 10 25 11
REMARK SMILES IDX 26 12 27 13 28 14 29 15 30 16 14 17 13 18 12 19 11 20 10 21
REMARK SMILES IDX 9 22 8 23 7 24 6 25 5 26 4 27 3 28 2 29 1 30
REMARK H PARENT
REMARK Flexibility Score: inf
ROOT
ATOM      1  C   UNL     1     -17.427 -15.593 -18.268  1.00  0.00     0.000 C 
ENDROOT
BRANCH   1   2
ATOM      2  C   UNL     1     -16.605 -15.639 -16.972  1.00  0.00     0.000 C 
BRANCH   2   3
ATOM      3  C   UNL     1     -17.325 -16.456 -15.888  1.00  0.00     0.000 C 
BRANCH   3   4
ATOM      4  C   UNL     1     -18.541 -17.221 -16.434  1.00  0.00     0.000 C 
BRANCH   4   5
ATOM      5  C   UNL     1     -19.573 -17.550 -15.343  1.00  0.00     0.000 C 
BRANCH   5   6
ATOM      6  C   UNL     1     -20.920 -18.020 -15.917  1.00  0.00     0.000 C 
BRANCH   6   7
ATOM      7  C   UNL     1     -22.142 -17.578 -15.084  1.00  0.00     0.000 C 
BRANCH   7   8
ATOM      8  C   UNL     1     -22.083 -16.090 -14.707  1.00  0.00     0.000 C 
BRANCH   8   9
ATOM      9  C   UNL     1     -23.399 -15.346 -14.994  1.00  0.00     0.000 C 
BRANCH   9  10
ATOM     10  C   UNL     1     -24.180 -14.968 -13.717  1.00  0.00     0.000 C 
BRANCH  10  11
ATOM     11  C   UNL     1     -23.251 -14.590 -12.554  1.00  0.00     0.000 C 
BRANCH  11  12
ATOM     12  C   UNL     1     -23.279 -15.662 -11.459  1.00  0.00     0.006 C 
BRANCH  12  13
ATOM     13  C   UNL     1     -23.397 -17.065 -12.063  1.00  0.00     0.053 C 
BRANCH  13  14
ATOM     14  C   UNL     1     -22.608 -18.050 -11.256  1.00  0.00     0.041 C 
ATOM     15  O   UNL     1     -22.931 -19.268 -11.251  1.00  0.00    -0.550 OA
ATOM     16  O   UNL     1     -21.490 -17.632 -10.547  1.00  0.00    -0.550 OA
ENDBRANCH  13  14
ENDBRANCH  12  13
ENDBRANCH  11  12
ENDBRANCH  10  11
ENDBRANCH   9  10
ENDBRANCH   8   9
ENDBRANCH   7   8
ENDBRANCH   6   7
ENDBRANCH   5   6
ENDBRANCH   4   5
ENDBRANCH   3   4
ENDBRANCH   2   3
ENDBRANCH   1   2
BRANCH   1  17
ATOM     17  C   UNL     1     -16.510 -15.634 -19.499  1.00  0.00     0.000 C 
BRANCH  17  18
ATOM     18  C   UNL     1     -16.848 -14.546 -20.537  1.00  0.00     0.000 C 
BRANCH  18  19
ATOM     19  C   UNL     1     -15.790 -14.340 -21.637  1.00  0.00     0.000 C 
BRANCH  19  20
ATOM     20  C   UNL     1     -16.198 -13.271 -22.666  1.00  0.00     0.000 C 
BRANCH  20  21
ATOM     21  C   UNL     1     -15.433 -11.946 -22.491  1.00  0.00     0.000 C 
BRANCH  21  22
ATOM     22  C   UNL     1     -14.143 -11.817 -23.322  1.00  0.00    -0.000 C 
BRANCH  22  23
ATOM     23  C   UNL     1     -13.944 -10.412 -23.910  1.00  0.00    -0.000 C 
BRANCH  23  24
ATOM     24  C   UNL     1     -14.620  -9.347 -23.039  1.00  0.00    -0.000 C 
BRANCH  24  25
ATOM     25  C   UNL     1     -13.934  -7.984 -23.210  1.00  0.00    -0.000 C 
BRANCH  25  26
ATOM     26  C   UNL     1     -13.559  -7.335 -21.869  1.00  0.00    -0.000 C 
BRANCH  26  27
ATOM     27  C   UNL     1     -12.927  -8.334 -20.887  1.00  0.00    -0.000 C 
BRANCH  27  28
ATOM     28  C   UNL     1     -12.410  -7.617 -19.634  1.00  0.00    -0.000 C 
BRANCH  28  29
ATOM     29  C   UNL     1     -13.045  -8.200 -18.366  1.00  0.00    -0.003 C 
ATOM     30  C   UNL     1     -12.755  -9.692 -18.238  1.00  0.00     0.004 C 
ENDBRANCH  28  29
ENDBRANCH  27  28
ENDBRANCH  26  27
ENDBRANCH  25  26
ENDBRANCH  24  25
ENDBRANCH  23  24
ENDBRANCH  22  23
ENDBRANCH  21  22
ENDBRANCH  20  21
ENDBRANCH  19  20
ENDBRANCH  18  19
ENDBRANCH  17  18
ENDBRANCH   1  17
TORSDOF 26
ENDMDL
