MODEL 1
REMARK VINA RESULT:    -5.949      0.000      0.000
REMARK INTER + INTRA:          -7.665
REMARK INTER:                  -7.341
REMARK INTRA:                  -0.325
REMARK UNBOUND:                -0.325
REMARK SMILES Oc1cc(O)c2cc(O)c(-c3cc(O)c(O)c(O)c3)[o+]c2c1.[Cl-]
REMARK SMILES IDX 10 1 20 2 21 3 22 4 2 5 3 6 4 7 6 8 7 9 8 10 11 11 12 12
REMARK SMILES IDX 13 13 19 14 15 15 17 16 14 17 16 19 18 21 9 23 1 25 5 27
REMARK H PARENT 14 18 16 20 18 22 9 24 1 26 5 28
REMARK Flexibility Score: inf
ROOT
ATOM      1  C   UNL     1      24.619  -0.890  16.867  1.00  0.00     0.402 A 
ATOM      2  O   UNL     1      24.982  -0.176  17.931  1.00  0.00    -0.202 OA
ATOM      3  C   UNL     1      24.466  -0.362  19.142  1.00  0.00     0.368 A 
ATOM      4  C   UNL     1      24.898   0.433  20.208  1.00  0.00     0.162 A 
ATOM      5  C   UNL     1      24.362   0.249  21.486  1.00  0.00     0.128 A 
ATOM      6  C   UNL     1      23.389  -0.735  21.701  1.00  0.00     0.093 A 
ATOM      7  C   UNL     1      22.946  -1.542  20.642  1.00  0.00     0.136 A 
ATOM      8  C   UNL     1      23.486  -1.356  19.355  1.00  0.00     0.125 A 
ATOM      9  C   UNL     1      23.089  -2.136  18.264  1.00  0.00     0.078 A 
ATOM     10  C   UNL     1      23.662  -1.916  17.006  1.00  0.00     0.223 A 
ENDROOT
BRANCH   1  11
ATOM     11  C   UNL     1      25.258  -0.582  15.566  1.00  0.00     0.091 A 
ATOM     12  C   UNL     1      26.253  -1.411  15.027  1.00  0.00     0.068 A 
ATOM     13  C   UNL     1      26.829  -1.117  13.787  1.00  0.00     0.162 A 
ATOM     14  C   UNL     1      24.821   0.526  14.829  1.00  0.00     0.068 A 
ATOM     15  C   UNL     1      26.408   0.009  13.058  1.00  0.00     0.200 A 
ATOM     16  C   UNL     1      25.387   0.837  13.586  1.00  0.00     0.162 A 
BRANCH  13  17
ATOM     17  O   UNL     1      27.820  -1.966  13.293  1.00  0.00    -0.504 OA
ATOM     18  H   UNL     1      28.752  -1.637  13.070  1.00  0.00     0.293 HD
ENDBRANCH  13  17
BRANCH  15  19
ATOM     19  O   UNL     1      27.016   0.271  11.827  1.00  0.00    -0.502 OA
ATOM     20  H   UNL     1      27.891   0.762  11.719  1.00  0.00     0.293 HD
ENDBRANCH  15  19
BRANCH  16  21
ATOM     21  O   UNL     1      24.907   1.965  12.918  1.00  0.00    -0.504 OA
ATOM     22  H   UNL     1      24.702   1.994  11.931  1.00  0.00     0.293 HD
ENDBRANCH  16  21
ENDBRANCH   1  11
BRANCH  10  23
ATOM     23  O   UNL     1      23.308  -2.722  15.926  1.00  0.00    -0.500 OA
ATOM     24  H   UNL     1      22.753  -3.561  16.047  1.00  0.00     0.294 HD
ENDBRANCH  10  23
BRANCH   5  25
ATOM     25  O   UNL     1      24.803   1.051  22.536  1.00  0.00    -0.507 OA
ATOM     26  H   UNL     1      24.276   1.861  22.843  1.00  0.00     0.293 HD
ENDBRANCH   5  25
BRANCH   7  27
ATOM     27  O   UNL     1      21.978  -2.521  20.867  1.00  0.00    -0.507 OA
ATOM     28  H   UNL     1      21.784  -2.872  21.798  1.00  0.00     0.293 HD
ENDBRANCH   7  27
TORSDOF 7
ENDMDL
MODEL 2
REMARK VINA RESULT:    -5.587      1.404      2.673
REMARK INTER + INTRA:          -7.218
REMARK INTER:                  -6.930
REMARK INTRA:                  -0.288
REMARK UNBOUND:                -0.325
REMARK SMILES Oc1cc(O)c2cc(O)c(-c3cc(O)c(O)c(O)c3)[o+]c2c1.[Cl-]
REMARK SMILES IDX 10 1 20 2 21 3 22 4 2 5 3 6 4 7 6 8 7 9 8 10 11 11 12 12
REMARK SMILES IDX 13 13 19 14 15 15 17 16 14 17 16 19 18 21 9 23 1 25 5 27
REMARK H PARENT 14 18 16 20 18 22 9 24 1 26 5 28
REMARK Flexibility Score: inf
ROOT
ATOM      1  C   UNL     1      24.820  -1.104  16.867  1.00  0.00     0.402 A 
ATOM      2  O   UNL     1      23.539  -1.464  16.925  1.00  0.00    -0.202 OA
ATOM      3  C   UNL     1      22.932  -1.813  18.055  1.00  0.00     0.368 A 
ATOM      4  C   UNL     1      21.583  -2.182  18.031  1.00  0.00     0.162 A 
ATOM      5  C   UNL     1      20.934  -2.555  19.212  1.00  0.00     0.128 A 
ATOM      6  C   UNL     1      21.636  -2.558  20.425  1.00  0.00     0.093 A 
ATOM      7  C   UNL     1      22.989  -2.189  20.465  1.00  0.00     0.136 A 
ATOM      8  C   UNL     1      23.642  -1.814  19.275  1.00  0.00     0.125 A 
ATOM      9  C   UNL     1      24.986  -1.428  19.257  1.00  0.00     0.078 A 
ATOM     10  C   UNL     1      25.588  -1.059  18.049  1.00  0.00     0.223 A 
ENDROOT
BRANCH   1  11
ATOM     11  C   UNL     1      25.388  -0.746  15.547  1.00  0.00     0.091 A 
ATOM     12  C   UNL     1      26.360  -1.545  14.928  1.00  0.00     0.068 A 
ATOM     13  C   UNL     1      26.869  -1.202  13.671  1.00  0.00     0.162 A 
ATOM     14  C   UNL     1      24.905   0.384  14.873  1.00  0.00     0.068 A 
ATOM     15  C   UNL     1      26.401  -0.055  13.006  1.00  0.00     0.200 A 
ATOM     16  C   UNL     1      25.403   0.744  13.615  1.00  0.00     0.162 A 
BRANCH  13  17
ATOM     17  O   UNL     1      27.839  -2.024  13.096  1.00  0.00    -0.504 OA
ATOM     18  H   UNL     1      28.809  -2.002  13.389  1.00  0.00     0.293 HD
ENDBRANCH  13  17
BRANCH  15  19
ATOM     19  O   UNL     1      26.942   0.256  11.755  1.00  0.00    -0.502 OA
ATOM     20  H   UNL     1      27.931   0.327  11.566  1.00  0.00     0.293 HD
ENDBRANCH  15  19
BRANCH  16  21
ATOM     21  O   UNL     1      24.880   1.890  13.013  1.00  0.00    -0.504 OA
ATOM     22  H   UNL     1      25.294   2.807  13.087  1.00  0.00     0.293 HD
ENDBRANCH  16  21
ENDBRANCH   1  11
BRANCH  10  23
ATOM     23  O   UNL     1      26.912  -0.626  18.030  1.00  0.00    -0.500 OA
ATOM     24  H   UNL     1      27.446  -0.585  17.170  1.00  0.00     0.294 HD
ENDBRANCH  10  23
BRANCH   5  25
ATOM     25  O   UNL     1      19.591  -2.921  19.169  1.00  0.00    -0.507 OA
ATOM     26  H   UNL     1      18.851  -2.234  19.265  1.00  0.00     0.293 HD
ENDBRANCH   5  25
BRANCH   7  27
ATOM     27  O   UNL     1      23.677  -2.193  21.679  1.00  0.00    -0.507 OA
ATOM     28  H   UNL     1      23.718  -3.021  22.263  1.00  0.00     0.293 HD
ENDBRANCH   7  27
TORSDOF 7
ENDMDL
MODEL 3
REMARK VINA RESULT:    -5.460      3.383      5.580
REMARK INTER + INTRA:          -7.061
REMARK INTER:                  -6.711
REMARK INTRA:                  -0.350
REMARK UNBOUND:                -0.325
REMARK SMILES Oc1cc(O)c2cc(O)c(-c3cc(O)c(O)c(O)c3)[o+]c2c1.[Cl-]
REMARK SMILES IDX 10 1 20 2 21 3 22 4 2 5 3 6 4 7 6 8 7 9 8 10 11 11 12 12
REMARK SMILES IDX 13 13 19 14 15 15 17 16 14 17 16 19 18 21 9 23 1 25 5 27
REMARK H PARENT 14 18 16 20 18 22 9 24 1 26 5 28
REMARK Flexibility Score: inf
ROOT
ATOM      1  C   UNL     1      23.659  -2.505  18.066  1.00  0.00     0.402 A 
ATOM      2  O   UNL     1      22.637  -2.884  18.830  1.00  0.00    -0.202 OA
ATOM      3  C   UNL     1      21.681  -3.707  18.411  1.00  0.00     0.368 A 
ATOM      4  C   UNL     1      20.637  -4.054  19.275  1.00  0.00     0.162 A 
ATOM      5  C   UNL     1      19.624  -4.916  18.845  1.00  0.00     0.128 A 
ATOM      6  C   UNL     1      19.654  -5.436  17.545  1.00  0.00     0.093 A 
ATOM      7  C   UNL     1      20.695  -5.099  16.666  1.00  0.00     0.136 A 
ATOM      8  C   UNL     1      21.715  -4.230  17.100  1.00  0.00     0.125 A 
ATOM      9  C   UNL     1      22.781  -3.866  16.271  1.00  0.00     0.078 A 
ATOM     10  C   UNL     1      23.773  -3.005  16.752  1.00  0.00     0.223 A 
ENDROOT
BRANCH   1  11
ATOM     11  C   UNL     1      24.658  -1.574  18.642  1.00  0.00     0.091 A 
ATOM     12  C   UNL     1      25.887  -2.036  19.135  1.00  0.00     0.068 A 
ATOM     13  C   UNL     1      26.827  -1.140  19.655  1.00  0.00     0.162 A 
ATOM     14  C   UNL     1      24.396  -0.198  18.644  1.00  0.00     0.068 A 
ATOM     15  C   UNL     1      26.554   0.239  19.679  1.00  0.00     0.200 A 
ATOM     16  C   UNL     1      25.324   0.713  19.162  1.00  0.00     0.162 A 
BRANCH  13  17
ATOM     17  O   UNL     1      28.034  -1.645  20.140  1.00  0.00    -0.504 OA
ATOM     18  H   UNL     1      28.641  -1.106  20.747  1.00  0.00     0.293 HD
ENDBRANCH  13  17
BRANCH  15  19
ATOM     19  O   UNL     1      27.517   1.099  20.215  1.00  0.00    -0.502 OA
ATOM     20  H   UNL     1      27.310   1.866  20.838  1.00  0.00     0.293 HD
ENDBRANCH  15  19
BRANCH  16  21
ATOM     21  O   UNL     1      24.986   2.068  19.140  1.00  0.00    -0.504 OA
ATOM     22  H   UNL     1      25.552   2.800  19.542  1.00  0.00     0.293 HD
ENDBRANCH  16  21
ENDBRANCH   1  11
BRANCH  10  23
ATOM     23  O   UNL     1      24.864  -2.677  15.949  1.00  0.00    -0.500 OA
ATOM     24  H   UNL     1      24.776  -2.041  15.165  1.00  0.00     0.294 HD
ENDBRANCH  10  23
BRANCH   5  25
ATOM     25  O   UNL     1      18.592  -5.249  19.719  1.00  0.00    -0.507 OA
ATOM     26  H   UNL     1      17.729  -4.717  19.748  1.00  0.00     0.293 HD
ENDBRANCH   5  25
BRANCH   7  27
ATOM     27  O   UNL     1      20.716  -5.625  15.374  1.00  0.00    -0.507 OA
ATOM     28  H   UNL     1      20.241  -5.164  14.606  1.00  0.00     0.293 HD
ENDBRANCH   7  27
TORSDOF 7
ENDMDL
MODEL 4
REMARK VINA RESULT:    -5.434      2.080      2.967
REMARK INTER + INTRA:          -7.030
REMARK INTER:                  -7.404
REMARK INTRA:                   0.374
REMARK UNBOUND:                -0.325
REMARK SMILES Oc1cc(O)c2cc(O)c(-c3cc(O)c(O)c(O)c3)[o+]c2c1.[Cl-]
REMARK SMILES IDX 10 1 20 2 21 3 22 4 2 5 3 6 4 7 6 8 7 9 8 10 11 11 12 12
REMARK SMILES IDX 13 13 19 14 15 15 17 16 14 17 16 19 18 21 9 23 1 25 5 27
REMARK H PARENT 14 18 16 20 18 22 9 24 1 26 5 28
REMARK Flexibility Score: inf
ROOT
ATOM      1  C   UNL     1      25.348   0.032  15.130  1.00  0.00     0.402 A 
ATOM      2  O   UNL     1      24.848   0.640  16.204  1.00  0.00    -0.202 OA
ATOM      3  C   UNL     1      25.037   0.198  17.444  1.00  0.00     0.368 A 
ATOM      4  C   UNL     1      24.475   0.893  18.519  1.00  0.00     0.162 A 
ATOM      5  C   UNL     1      24.662   0.437  19.828  1.00  0.00     0.128 A 
ATOM      6  C   UNL     1      25.418  -0.719  20.063  1.00  0.00     0.093 A 
ATOM      7  C   UNL     1      25.989  -1.426  18.995  1.00  0.00     0.136 A 
ATOM      8  C   UNL     1      25.799  -0.967  17.678  1.00  0.00     0.125 A 
ATOM      9  C   UNL     1      26.352  -1.626  16.575  1.00  0.00     0.078 A 
ATOM     10  C   UNL     1      26.139  -1.125  15.286  1.00  0.00     0.223 A 
ENDROOT
BRANCH   1  11
ATOM     11  C   UNL     1      25.061   0.614  13.798  1.00  0.00     0.091 A 
ATOM     12  C   UNL     1      25.477  -0.020  12.618  1.00  0.00     0.068 A 
ATOM     13  C   UNL     1      25.179   0.533  11.369  1.00  0.00     0.162 A 
ATOM     14  C   UNL     1      24.309   1.793  13.709  1.00  0.00     0.068 A 
ATOM     15  C   UNL     1      24.444   1.729  11.281  1.00  0.00     0.200 A 
ATOM     16  C   UNL     1      24.001   2.362  12.467  1.00  0.00     0.162 A 
BRANCH  13  17
ATOM     17  O   UNL     1      25.619  -0.130  10.222  1.00  0.00    -0.504 OA
ATOM     18  H   UNL     1      26.598  -0.175   9.967  1.00  0.00     0.293 HD
ENDBRANCH  13  17
BRANCH  15  19
ATOM     19  O   UNL     1      24.175   2.252  10.013  1.00  0.00    -0.502 OA
ATOM     20  H   UNL     1      23.368   2.816   9.791  1.00  0.00     0.293 HD
ENDBRANCH  15  19
BRANCH  16  21
ATOM     21  O   UNL     1      23.258   3.544  12.461  1.00  0.00    -0.504 OA
ATOM     22  H   UNL     1      22.631   3.815  11.719  1.00  0.00     0.293 HD
ENDBRANCH  16  21
ENDBRANCH   1  11
BRANCH  10  23
ATOM     23  O   UNL     1      26.728  -1.748  14.187  1.00  0.00    -0.500 OA
ATOM     24  H   UNL     1      27.719  -1.957  14.162  1.00  0.00     0.294 HD
ENDBRANCH  10  23
BRANCH   5  25
ATOM     25  O   UNL     1      24.094   1.142  20.886  1.00  0.00    -0.507 OA
ATOM     26  H   UNL     1      24.562   1.937  21.306  1.00  0.00     0.293 HD
ENDBRANCH   5  25
BRANCH   7  27
ATOM     27  O   UNL     1      26.741  -2.576  19.241  1.00  0.00    -0.507 OA
ATOM     28  H   UNL     1      26.325  -3.404  19.652  1.00  0.00     0.293 HD
ENDBRANCH   7  27
TORSDOF 7
ENDMDL
MODEL 5
REMARK VINA RESULT:    -5.420      2.363      7.138
REMARK INTER + INTRA:          -7.012
REMARK INTER:                  -6.631
REMARK INTRA:                  -0.381
REMARK UNBOUND:                -0.325
REMARK SMILES Oc1cc(O)c2cc(O)c(-c3cc(O)c(O)c(O)c3)[o+]c2c1.[Cl-]
REMARK SMILES IDX 10 1 20 2 21 3 22 4 2 5 3 6 4 7 6 8 7 9 8 10 11 11 12 12
REMARK SMILES IDX 13 13 19 14 15 15 17 16 14 17 16 19 18 21 9 23 1 25 5 27
REMARK H PARENT 14 18 16 20 18 22 9 24 1 26 5 28
REMARK Flexibility Score: inf
ROOT
ATOM      1  C   UNL     1      23.999  -1.782  16.263  1.00  0.00     0.402 A 
ATOM      2  O   UNL     1      23.524  -1.091  15.229  1.00  0.00    -0.202 OA
ATOM      3  C   UNL     1      24.300  -0.403  14.396  1.00  0.00     0.368 A 
ATOM      4  C   UNL     1      23.722   0.301  13.335  1.00  0.00     0.162 A 
ATOM      5  C   UNL     1      24.525   1.032  12.454  1.00  0.00     0.128 A 
ATOM      6  C   UNL     1      25.914   1.058  12.633  1.00  0.00     0.093 A 
ATOM      7  C   UNL     1      26.509   0.355  13.692  1.00  0.00     0.136 A 
ATOM      8  C   UNL     1      25.699  -0.379  14.579  1.00  0.00     0.125 A 
ATOM      9  C   UNL     1      26.237  -1.105  15.647  1.00  0.00     0.078 A 
ATOM     10  C   UNL     1      25.390  -1.825  16.496  1.00  0.00     0.223 A 
ENDROOT
BRANCH   1  11
ATOM     11  C   UNL     1      23.035  -2.502  17.127  1.00  0.00     0.091 A 
ATOM     12  C   UNL     1      22.672  -3.832  16.868  1.00  0.00     0.068 A 
ATOM     13  C   UNL     1      21.777  -4.503  17.707  1.00  0.00     0.162 A 
ATOM     14  C   UNL     1      22.516  -1.863  18.261  1.00  0.00     0.068 A 
ATOM     15  C   UNL     1      21.238  -3.853  18.831  1.00  0.00     0.200 A 
ATOM     16  C   UNL     1      21.618  -2.518  19.112  1.00  0.00     0.162 A 
BRANCH  13  17
ATOM     17  O   UNL     1      21.441  -5.823  17.406  1.00  0.00    -0.504 OA
ATOM     18  H   UNL     1      21.525  -6.570  18.085  1.00  0.00     0.293 HD
ENDBRANCH  13  17
BRANCH  15  19
ATOM     19  O   UNL     1      20.341  -4.557  19.639  1.00  0.00    -0.502 OA
ATOM     20  H   UNL     1      20.149  -4.333  20.605  1.00  0.00     0.293 HD
ENDBRANCH  15  19
BRANCH  16  21
ATOM     21  O   UNL     1      21.136  -1.811  20.215  1.00  0.00    -0.504 OA
ATOM     22  H   UNL     1      21.706  -1.226  20.806  1.00  0.00     0.293 HD
ENDBRANCH  16  21
ENDBRANCH   1  11
BRANCH  10  23
ATOM     23  O   UNL     1      25.923  -2.590  17.532  1.00  0.00    -0.500 OA
ATOM     24  H   UNL     1      25.837  -2.307  18.501  1.00  0.00     0.294 HD
ENDBRANCH  10  23
BRANCH   5  25
ATOM     25  O   UNL     1      23.932   1.728  11.403  1.00  0.00    -0.507 OA
ATOM     26  H   UNL     1      24.078   1.455  10.437  1.00  0.00     0.293 HD
ENDBRANCH   5  25
BRANCH   7  27
ATOM     27  O   UNL     1      27.894   0.387  13.860  1.00  0.00    -0.507 OA
ATOM     28  H   UNL     1      28.505   0.787  13.158  1.00  0.00     0.293 HD
ENDBRANCH   7  27
TORSDOF 7
ENDMDL
MODEL 6
REMARK VINA RESULT:    -5.363      4.177      6.337
REMARK INTER + INTRA:          -6.941
REMARK INTER:                  -6.598
REMARK INTRA:                  -0.344
REMARK UNBOUND:                -0.325
REMARK SMILES Oc1cc(O)c2cc(O)c(-c3cc(O)c(O)c(O)c3)[o+]c2c1.[Cl-]
REMARK SMILES IDX 10 1 20 2 21 3 22 4 2 5 3 6 4 7 6 8 7 9 8 10 11 11 12 12
REMARK SMILES IDX 13 13 19 14 15 15 17 16 14 17 16 19 18 21 9 23 1 25 5 27
REMARK H PARENT 14 18 16 20 18 22 9 24 1 26 5 28
REMARK Flexibility Score: inf
ROOT
ATOM      1  C   UNL     1      22.252  -4.736  17.099  1.00  0.00     0.402 A 
ATOM      2  O   UNL     1      23.363  -4.002  17.047  1.00  0.00    -0.202 OA
ATOM      3  C   UNL     1      23.532  -2.888  17.754  1.00  0.00     0.368 A 
ATOM      4  C   UNL     1      24.728  -2.172  17.639  1.00  0.00     0.162 A 
ATOM      5  C   UNL     1      24.918  -0.998  18.374  1.00  0.00     0.128 A 
ATOM      6  C   UNL     1      23.908  -0.537  19.229  1.00  0.00     0.093 A 
ATOM      7  C   UNL     1      22.704  -1.246  19.356  1.00  0.00     0.136 A 
ATOM      8  C   UNL     1      22.513  -2.428  18.615  1.00  0.00     0.125 A 
ATOM      9  C   UNL     1      21.337  -3.180  18.708  1.00  0.00     0.078 A 
ATOM     10  C   UNL     1      21.199  -4.351  17.955  1.00  0.00     0.223 A 
ENDROOT
BRANCH   1  11
ATOM     11  C   UNL     1      22.176  -5.952  16.257  1.00  0.00     0.091 A 
ATOM     12  C   UNL     1      21.918  -5.873  14.881  1.00  0.00     0.068 A 
ATOM     13  C   UNL     1      21.872  -7.030  14.097  1.00  0.00     0.162 A 
ATOM     14  C   UNL     1      22.423  -7.206  16.833  1.00  0.00     0.068 A 
ATOM     15  C   UNL     1      22.095  -8.290  14.680  1.00  0.00     0.200 A 
ATOM     16  C   UNL     1      22.379  -8.375  16.065  1.00  0.00     0.162 A 
BRANCH  13  17
ATOM     17  O   UNL     1      21.606  -6.904  12.733  1.00  0.00    -0.504 OA
ATOM     18  H   UNL     1      20.741  -7.232  12.318  1.00  0.00     0.293 HD
ENDBRANCH  13  17
BRANCH  15  19
ATOM     19  O   UNL     1      22.031  -9.422  13.863  1.00  0.00    -0.502 OA
ATOM     20  H   UNL     1      22.427 -10.319  14.103  1.00  0.00     0.293 HD
ENDBRANCH  15  19
BRANCH  16  21
ATOM     21  O   UNL     1      22.624  -9.587  16.714  1.00  0.00    -0.504 OA
ATOM     22  H   UNL     1      23.317 -10.257  16.418  1.00  0.00     0.293 HD
ENDBRANCH  16  21
ENDBRANCH   1  11
BRANCH  10  23
ATOM     23  O   UNL     1      20.051  -5.131  18.079  1.00  0.00    -0.500 OA
ATOM     24  H   UNL     1      19.298  -5.081  17.403  1.00  0.00     0.294 HD
ENDBRANCH  10  23
BRANCH   5  25
ATOM     25  O   UNL     1      26.115  -0.297  18.247  1.00  0.00    -0.507 OA
ATOM     26  H   UNL     1      26.158   0.707  18.384  1.00  0.00     0.293 HD
ENDBRANCH   5  25
BRANCH   7  27
ATOM     27  O   UNL     1      21.706  -0.779  20.212  1.00  0.00    -0.507 OA
ATOM     28  H   UNL     1      21.582  -1.162  21.142  1.00  0.00     0.293 HD
ENDBRANCH   7  27
TORSDOF 7
ENDMDL
MODEL 7
REMARK VINA RESULT:    -5.237      4.702      6.524
REMARK INTER + INTRA:          -6.786
REMARK INTER:                  -6.486
REMARK INTRA:                  -0.301
REMARK UNBOUND:                -0.325
REMARK SMILES Oc1cc(O)c2cc(O)c(-c3cc(O)c(O)c(O)c3)[o+]c2c1.[Cl-]
REMARK SMILES IDX 10 1 20 2 21 3 22 4 2 5 3 6 4 7 6 8 7 9 8 10 11 11 12 12
REMARK SMILES IDX 13 13 19 14 15 15 17 16 14 17 16 19 18 21 9 23 1 25 5 27
REMARK H PARENT 14 18 16 20 18 22 9 24 1 26 5 28
REMARK Flexibility Score: inf
ROOT
ATOM      1  C   UNL     1      21.646  -4.999  16.014  1.00  0.00     0.402 A 
ATOM      2  O   UNL     1      22.697  -4.205  15.825  1.00  0.00    -0.202 OA
ATOM      3  C   UNL     1      23.154  -3.369  16.753  1.00  0.00     0.368 A 
ATOM      4  C   UNL     1      24.263  -2.564  16.473  1.00  0.00     0.162 A 
ATOM      5  C   UNL     1      24.751  -1.678  17.439  1.00  0.00     0.128 A 
ATOM      6  C   UNL     1      24.129  -1.597  18.692  1.00  0.00     0.093 A 
ATOM      7  C   UNL     1      23.017  -2.400  18.987  1.00  0.00     0.136 A 
ATOM      8  C   UNL     1      22.525  -3.291  18.014  1.00  0.00     0.125 A 
ATOM      9  C   UNL     1      21.425  -4.121  18.256  1.00  0.00     0.078 A 
ATOM     10  C   UNL     1      20.980  -4.993  17.257  1.00  0.00     0.223 A 
ENDROOT
BRANCH   1  11
ATOM     11  C   UNL     1      21.224  -5.881  14.901  1.00  0.00     0.091 A 
ATOM     12  C   UNL     1      21.966  -7.017  14.547  1.00  0.00     0.068 A 
ATOM     13  C   UNL     1      21.541  -7.851  13.508  1.00  0.00     0.162 A 
ATOM     14  C   UNL     1      20.029  -5.609  14.221  1.00  0.00     0.068 A 
ATOM     15  C   UNL     1      20.355  -7.564  12.810  1.00  0.00     0.200 A 
ATOM     16  C   UNL     1      19.589  -6.431  13.177  1.00  0.00     0.162 A 
BRANCH  13  17
ATOM     17  O   UNL     1      22.315  -8.967  13.187  1.00  0.00    -0.504 OA
ATOM     18  H   UNL     1      22.625  -9.156  12.241  1.00  0.00     0.293 HD
ENDBRANCH  13  17
BRANCH  15  19
ATOM     19  O   UNL     1      19.970  -8.418  11.773  1.00  0.00    -0.502 OA
ATOM     20  H   UNL     1      20.224  -9.393  11.716  1.00  0.00     0.293 HD
ENDBRANCH  15  19
BRANCH  16  21
ATOM     21  O   UNL     1      18.394  -6.088  12.541  1.00  0.00    -0.504 OA
ATOM     22  H   UNL     1      18.223  -6.209  11.554  1.00  0.00     0.293 HD
ENDBRANCH  16  21
ENDBRANCH   1  11
BRANCH  10  23
ATOM     23  O   UNL     1      19.916  -5.858  17.508  1.00  0.00    -0.500 OA
ATOM     24  H   UNL     1      18.954  -5.577  17.355  1.00  0.00     0.294 HD
ENDBRANCH  10  23
BRANCH   5  25
ATOM     25  O   UNL     1      25.856  -0.884  17.143  1.00  0.00    -0.507 OA
ATOM     26  H   UNL     1      26.699  -1.276  16.738  1.00  0.00     0.293 HD
ENDBRANCH   5  25
BRANCH   7  27
ATOM     27  O   UNL     1      22.406  -2.312  20.238  1.00  0.00    -0.507 OA
ATOM     28  H   UNL     1      22.704  -1.632  20.928  1.00  0.00     0.293 HD
ENDBRANCH   7  27
TORSDOF 7
ENDMDL
MODEL 8
REMARK VINA RESULT:    -5.165      4.059      6.634
REMARK INTER + INTRA:          -6.698
REMARK INTER:                  -6.580
REMARK INTRA:                  -0.117
REMARK UNBOUND:                -0.325
REMARK SMILES Oc1cc(O)c2cc(O)c(-c3cc(O)c(O)c(O)c3)[o+]c2c1.[Cl-]
REMARK SMILES IDX 10 1 20 2 21 3 22 4 2 5 3 6 4 7 6 8 7 9 8 10 11 11 12 12
REMARK SMILES IDX 13 13 19 14 15 15 17 16 14 17 16 19 18 21 9 23 1 25 5 27
REMARK H PARENT 14 18 16 20 18 22 9 24 1 26 5 28
REMARK Flexibility Score: inf
ROOT
ATOM      1  C   UNL     1      22.764  -3.006  18.390  1.00  0.00     0.402 A 
ATOM      2  O   UNL     1      23.033  -3.662  17.263  1.00  0.00    -0.202 OA
ATOM      3  C   UNL     1      22.267  -4.641  16.790  1.00  0.00     0.368 A 
ATOM      4  C   UNL     1      22.621  -5.284  15.600  1.00  0.00     0.162 A 
ATOM      5  C   UNL     1      21.826  -6.317  15.094  1.00  0.00     0.128 A 
ATOM      6  C   UNL     1      20.670  -6.709  15.780  1.00  0.00     0.093 A 
ATOM      7  C   UNL     1      20.300  -6.072  16.975  1.00  0.00     0.136 A 
ATOM      8  C   UNL     1      21.102  -5.033  17.484  1.00  0.00     0.125 A 
ATOM      9  C   UNL     1      20.778  -4.357  18.665  1.00  0.00     0.078 A 
ATOM     10  C   UNL     1      21.604  -3.326  19.126  1.00  0.00     0.223 A 
ENDROOT
BRANCH   1  11
ATOM     11  C   UNL     1      23.699  -1.941  18.821  1.00  0.00     0.091 A 
ATOM     12  C   UNL     1      23.254  -0.633  19.064  1.00  0.00     0.068 A 
ATOM     13  C   UNL     1      24.147   0.355  19.491  1.00  0.00     0.162 A 
ATOM     14  C   UNL     1      25.046  -2.255  19.045  1.00  0.00     0.068 A 
ATOM     15  C   UNL     1      25.503   0.045  19.694  1.00  0.00     0.200 A 
ATOM     16  C   UNL     1      25.954  -1.279  19.472  1.00  0.00     0.162 A 
BRANCH  13  17
ATOM     17  O   UNL     1      23.660   1.644  19.715  1.00  0.00    -0.504 OA
ATOM     18  H   UNL     1      23.871   2.162  20.560  1.00  0.00     0.293 HD
ENDBRANCH  13  17
BRANCH  15  19
ATOM     19  O   UNL     1      26.363   1.064  20.113  1.00  0.00    -0.502 OA
ATOM     20  H   UNL     1      26.649   1.208  21.070  1.00  0.00     0.293 HD
ENDBRANCH  15  19
BRANCH  16  21
ATOM     21  O   UNL     1      27.282  -1.667  19.662  1.00  0.00    -0.504 OA
ATOM     22  H   UNL     1      27.565  -2.471  20.202  1.00  0.00     0.293 HD
ENDBRANCH  16  21
ENDBRANCH   1  11
BRANCH  10  23
ATOM     23  O   UNL     1      21.262  -2.616  20.275  1.00  0.00    -0.500 OA
ATOM     24  H   UNL     1      21.161  -3.074  21.173  1.00  0.00     0.294 HD
ENDBRANCH  10  23
BRANCH   5  25
ATOM     25  O   UNL     1      22.195  -6.947  13.908  1.00  0.00    -0.507 OA
ATOM     26  H   UNL     1      23.168  -7.123  13.681  1.00  0.00     0.293 HD
ENDBRANCH   5  25
BRANCH   7  27
ATOM     27  O   UNL     1      19.145  -6.470  17.649  1.00  0.00    -0.507 OA
ATOM     28  H   UNL     1      18.473  -7.100  17.226  1.00  0.00     0.293 HD
ENDBRANCH   7  27
TORSDOF 7
ENDMDL
MODEL 9
REMARK VINA RESULT:    -5.156      4.004      7.194
REMARK INTER + INTRA:          -6.686
REMARK INTER:                  -6.601
REMARK INTRA:                  -0.085
REMARK UNBOUND:                -0.325
REMARK SMILES Oc1cc(O)c2cc(O)c(-c3cc(O)c(O)c(O)c3)[o+]c2c1.[Cl-]
REMARK SMILES IDX 10 1 20 2 21 3 22 4 2 5 3 6 4 7 6 8 7 9 8 10 11 11 12 12
REMARK SMILES IDX 13 13 19 14 15 15 17 16 14 17 16 19 18 21 9 23 1 25 5 27
REMARK H PARENT 14 18 16 20 18 22 9 24 1 26 5 28
REMARK Flexibility Score: inf
ROOT
ATOM      1  C   UNL     1      22.188  -3.785  17.044  1.00  0.00     0.402 A 
ATOM      2  O   UNL     1      22.650  -4.773  16.280  1.00  0.00    -0.202 OA
ATOM      3  C   UNL     1      21.859  -5.598  15.600  1.00  0.00     0.368 A 
ATOM      4  C   UNL     1      22.423  -6.613  14.822  1.00  0.00     0.162 A 
ATOM      5  C   UNL     1      21.603  -7.489  14.106  1.00  0.00     0.128 A 
ATOM      6  C   UNL     1      20.210  -7.349  14.165  1.00  0.00     0.093 A 
ATOM      7  C   UNL     1      19.629  -6.334  14.940  1.00  0.00     0.136 A 
ATOM      8  C   UNL     1      20.456  -5.453  15.662  1.00  0.00     0.125 A 
ATOM      9  C   UNL     1      19.933  -4.417  16.444  1.00  0.00     0.078 A 
ATOM     10  C   UNL     1      20.798  -3.564  17.137  1.00  0.00     0.223 A 
ENDROOT
BRANCH   1  11
ATOM     11  C   UNL     1      23.168  -2.937  17.762  1.00  0.00     0.091 A 
ATOM     12  C   UNL     1      23.034  -2.665  19.132  1.00  0.00     0.068 A 
ATOM     13  C   UNL     1      23.981  -1.880  19.797  1.00  0.00     0.162 A 
ATOM     14  C   UNL     1      24.284  -2.442  17.075  1.00  0.00     0.068 A 
ATOM     15  C   UNL     1      25.088  -1.363  19.101  1.00  0.00     0.200 A 
ATOM     16  C   UNL     1      25.241  -1.653  17.724  1.00  0.00     0.162 A 
BRANCH  13  17
ATOM     17  O   UNL     1      23.805  -1.631  21.159  1.00  0.00    -0.504 OA
ATOM     18  H   UNL     1      24.241  -0.844  21.625  1.00  0.00     0.293 HD
ENDBRANCH  13  17
BRANCH  15  19
ATOM     19  O   UNL     1      26.007  -0.577  19.803  1.00  0.00    -0.502 OA
ATOM     20  H   UNL     1      26.987  -0.800  19.901  1.00  0.00     0.293 HD
ENDBRANCH  15  19
BRANCH  16  21
ATOM     21  O   UNL     1      26.318  -1.187  16.968  1.00  0.00    -0.504 OA
ATOM     22  H   UNL     1      26.367  -0.266  16.559  1.00  0.00     0.293 HD
ENDBRANCH  16  21
ENDBRANCH   1  11
BRANCH  10  23
ATOM     23  O   UNL     1      20.286  -2.500  17.878  1.00  0.00    -0.500 OA
ATOM     24  H   UNL     1      19.457  -1.997  17.584  1.00  0.00     0.294 HD
ENDBRANCH  10  23
BRANCH   5  25
ATOM     25  O   UNL     1      22.182  -8.496  13.337  1.00  0.00    -0.507 OA
ATOM     26  H   UNL     1      21.851  -8.706  12.401  1.00  0.00     0.293 HD
ENDBRANCH   5  25
BRANCH   7  27
ATOM     27  O   UNL     1      18.241  -6.203  14.991  1.00  0.00    -0.507 OA
ATOM     28  H   UNL     1      17.799  -5.317  15.208  1.00  0.00     0.293 HD
ENDBRANCH   7  27
TORSDOF 7
ENDMDL
