MODEL 1
REMARK VINA RESULT:    -4.143      0.000      0.000
REMARK INTER + INTRA:         -15.141
REMARK INTER:                 -10.441
REMARK INTRA:                  -4.700
REMARK UNBOUND:                -4.700
REMARK SMILES CCCCCCCCCCCCCCCCCCCCCCCCCCCC(=O)[O-]
REMARK SMILES IDX 15 1 16 2 17 3 18 4 19 5 20 6 21 7 22 8 23 9 24 10 25 11
REMARK SMILES IDX 26 12 27 13 28 14 29 15 30 16 14 17 13 18 12 19 11 20 10 21
REMARK SMILES IDX 9 22 8 23 7 24 6 25 5 26 4 27 3 28 2 29 1 30
REMARK H PARENT
REMARK Flexibility Score: inf
ROOT
ATOM      1  C   UNL     1     -30.248  17.430  21.747  1.00  0.00     0.000 C 
ENDROOT
BRANCH   1   2
ATOM      2  C   UNL     1     -28.761  17.822  21.887  1.00  0.00     0.000 C 
BRANCH   2   3
ATOM      3  C   UNL     1     -27.986  17.784  20.559  1.00  0.00     0.000 C 
BRANCH   3   4
ATOM      4  C   UNL     1     -28.887  18.025  19.337  1.00  0.00     0.000 C 
BRANCH   4   5
ATOM      5  C   UNL     1     -28.938  16.808  18.398  1.00  0.00     0.000 C 
BRANCH   5   6
ATOM      6  C   UNL     1     -27.700  15.909  18.529  1.00  0.00     0.000 C 
BRANCH   6   7
ATOM      7  C   UNL     1     -28.105  14.456  18.813  1.00  0.00     0.000 C 
BRANCH   7   8
ATOM      8  C   UNL     1     -29.004  14.315  20.053  1.00  0.00     0.000 C 
BRANCH   8   9
ATOM      9  C   UNL     1     -30.328  13.573  19.772  1.00  0.00     0.000 C 
BRANCH   9  10
ATOM     10  C   UNL     1     -30.455  13.152  18.297  1.00  0.00     0.000 C 
BRANCH  10  11
ATOM     11  C   UNL     1     -31.547  13.932  17.543  1.00  0.00     0.000 C 
BRANCH  11  12
ATOM     12  C   UNL     1     -31.359  13.993  16.015  1.00  0.00     0.006 C 
BRANCH  12  13
ATOM     13  C   UNL     1     -30.366  15.079  15.578  1.00  0.00     0.053 C 
BRANCH  13  14
ATOM     14  C   UNL     1     -29.194  14.465  14.879  1.00  0.00     0.041 C 
ATOM     15  O   UNL     1     -28.070  15.035  14.906  1.00  0.00    -0.550 OA
ATOM     16  O   UNL     1     -29.330  13.242  14.234  1.00  0.00    -0.550 OA
ENDBRANCH  13  14
ENDBRANCH  12  13
ENDBRANCH  11  12
ENDBRANCH  10  11
ENDBRANCH   9  10
ENDBRANCH   8   9
ENDBRANCH   7   8
ENDBRANCH   6   7
ENDBRANCH   5   6
ENDBRANCH   4   5
ENDBRANCH   3   4
ENDBRANCH   2   3
ENDBRANCH   1   2
BRANCH   1  17
ATOM     17  C   UNL     1     -30.887  17.081  23.103  1.00  0.00     0.000 C 
BRANCH  17  18
ATOM     18  C   UNL     1     -30.562  15.641  23.553  1.00  0.00     0.000 C 
BRANCH  18  19
ATOM     19  C   UNL     1     -31.720  14.644  23.349  1.00  0.00     0.000 C 
BRANCH  19  20
ATOM     20  C   UNL     1     -32.384  14.137  24.641  1.00  0.00     0.000 C 
BRANCH  20  21
ATOM     21  C   UNL     1     -32.643  15.262  25.659  1.00  0.00     0.000 C 
BRANCH  21  22
ATOM     22  C   UNL     1     -32.802  14.734  27.094  1.00  0.00    -0.000 C 
BRANCH  22  23
ATOM     23  C   UNL     1     -31.500  14.136  27.656  1.00  0.00    -0.000 C 
BRANCH  23  24
ATOM     24  C   UNL     1     -30.273  15.012  27.355  1.00  0.00    -0.000 C 
BRANCH  24  25
ATOM     25  C   UNL     1     -29.119  14.217  26.719  1.00  0.00    -0.000 C 
BRANCH  25  26
ATOM     26  C   UNL     1     -29.461  12.731  26.527  1.00  0.00    -0.000 C 
BRANCH  26  27
ATOM     27  C   UNL     1     -28.654  12.079  25.389  1.00  0.00    -0.000 C 
BRANCH  27  28
ATOM     28  C   UNL     1     -27.477  12.950  24.925  1.00  0.00    -0.000 C 
BRANCH  28  29
ATOM     29  C   UNL     1     -27.590  13.369  23.451  1.00  0.00    -0.003 C 
ATOM     30  C   UNL     1     -27.042  14.777  23.236  1.00  0.00     0.004 C 
ENDBRANCH  28  29
ENDBRANCH  27  28
ENDBRANCH  26  27
ENDBRANCH  25  26
ENDBRANCH  24  25
ENDBRANCH  23  24
ENDBRANCH  22  23
ENDBRANCH  21  22
ENDBRANCH  20  21
ENDBRANCH  19  20
ENDBRANCH  18  19
ENDBRANCH  17  18
ENDBRANCH   1  17
TORSDOF 26
ENDMDL
MODEL 2
REMARK VINA RESULT:    -4.085      1.383      3.349
REMARK INTER + INTRA:         -14.993
REMARK INTER:                 -10.429
REMARK INTRA:                  -4.564
REMARK UNBOUND:                -4.700
REMARK SMILES CCCCCCCCCCCCCCCCCCCCCCCCCCCC(=O)[O-]
REMARK SMILES IDX 15 1 16 2 17 3 18 4 19 5 20 6 21 7 22 8 23 9 24 10 25 11
REMARK SMILES IDX 26 12 27 13 28 14 29 15 30 16 14 17 13 18 12 19 11 20 10 21
REMARK SMILES IDX 9 22 8 23 7 24 6 25 5 26 4 27 3 28 2 29 1 30
REMARK H PARENT
REMARK Flexibility Score: inf
ROOT
ATOM      1  C   UNL     1     -31.443  14.158  23.943  1.00  0.00     0.000 C 
ENDROOT
BRANCH   1   2
ATOM      2  C   UNL     1     -31.173  15.610  23.494  1.00  0.00     0.000 C 
BRANCH   2   3
ATOM      3  C   UNL     1     -29.782  16.130  23.892  1.00  0.00     0.000 C 
BRANCH   3   4
ATOM      4  C   UNL     1     -28.866  16.369  22.681  1.00  0.00     0.000 C 
BRANCH   4   5
ATOM      5  C   UNL     1     -29.643  16.851  21.444  1.00  0.00     0.000 C 
BRANCH   5   6
ATOM      6  C   UNL     1     -28.937  18.003  20.715  1.00  0.00     0.000 C 
BRANCH   6   7
ATOM      7  C   UNL     1     -28.810  17.707  19.213  1.00  0.00     0.000 C 
BRANCH   7   8
ATOM      8  C   UNL     1     -29.007  16.219  18.877  1.00  0.00     0.000 C 
BRANCH   8   9
ATOM      9  C   UNL     1     -28.967  15.919  17.364  1.00  0.00     0.000 C 
BRANCH   9  10
ATOM     10  C   UNL     1     -29.560  14.538  17.031  1.00  0.00     0.000 C 
BRANCH  10  11
ATOM     11  C   UNL     1     -31.098  14.521  17.067  1.00  0.00     0.000 C 
BRANCH  11  12
ATOM     12  C   UNL     1     -31.771  14.079  15.753  1.00  0.00     0.006 C 
BRANCH  12  13
ATOM     13  C   UNL     1     -31.190  14.782  14.519  1.00  0.00     0.053 C 
BRANCH  13  14
ATOM     14  C   UNL     1     -31.212  13.866  13.336  1.00  0.00     0.041 C 
ATOM     15  O   UNL     1     -31.471  12.643  13.486  1.00  0.00    -0.550 OA
ATOM     16  O   UNL     1     -30.992  14.372  12.060  1.00  0.00    -0.550 OA
ENDBRANCH  13  14
ENDBRANCH  12  13
ENDBRANCH  11  12
ENDBRANCH  10  11
ENDBRANCH   9  10
ENDBRANCH   8   9
ENDBRANCH   7   8
ENDBRANCH   6   7
ENDBRANCH   5   6
ENDBRANCH   4   5
ENDBRANCH   3   4
ENDBRANCH   2   3
ENDBRANCH   1   2
BRANCH   1  17
ATOM     17  C   UNL     1     -32.745  14.033  24.754  1.00  0.00     0.000 C 
BRANCH  17  18
ATOM     18  C   UNL     1     -32.933  15.199  25.748  1.00  0.00     0.000 C 
BRANCH  18  19
ATOM     19  C   UNL     1     -32.942  14.766  27.228  1.00  0.00     0.000 C 
BRANCH  19  20
ATOM     20  C   UNL     1     -31.622  14.169  27.744  1.00  0.00     0.000 C 
BRANCH  20  21
ATOM     21  C   UNL     1     -30.395  15.015  27.361  1.00  0.00     0.000 C 
BRANCH  21  22
ATOM     22  C   UNL     1     -29.177  14.153  26.987  1.00  0.00    -0.000 C 
BRANCH  22  23
ATOM     23  C   UNL     1     -29.555  12.695  26.673  1.00  0.00    -0.000 C 
BRANCH  23  24
ATOM     24  C   UNL     1     -28.535  12.010  25.749  1.00  0.00    -0.000 C 
BRANCH  24  25
ATOM     25  C   UNL     1     -28.032  12.938  24.629  1.00  0.00    -0.000 C 
BRANCH  25  26
ATOM     26  C   UNL     1     -28.216  12.330  23.230  1.00  0.00    -0.000 C 
BRANCH  26  27
ATOM     27  C   UNL     1     -27.311  12.988  22.173  1.00  0.00    -0.000 C 
BRANCH  27  28
ATOM     28  C   UNL     1     -28.028  13.198  20.830  1.00  0.00    -0.000 C 
BRANCH  28  29
ATOM     29  C   UNL     1     -29.558  13.136  20.955  1.00  0.00    -0.003 C 
ATOM     30  C   UNL     1     -30.164  12.268  19.855  1.00  0.00     0.004 C 
ENDBRANCH  28  29
ENDBRANCH  27  28
ENDBRANCH  26  27
ENDBRANCH  25  26
ENDBRANCH  24  25
ENDBRANCH  23  24
ENDBRANCH  22  23
ENDBRANCH  21  22
ENDBRANCH  20  21
ENDBRANCH  19  20
ENDBRANCH  18  19
ENDBRANCH  17  18
ENDBRANCH   1  17
TORSDOF 26
ENDMDL
MODEL 3
REMARK VINA RESULT:    -4.002      1.702      2.578
REMARK INTER + INTRA:         -14.784
REMARK INTER:                 -10.340
REMARK INTRA:                  -4.444
REMARK UNBOUND:                -4.700
REMARK SMILES CCCCCCCCCCCCCCCCCCCCCCCCCCCC(=O)[O-]
REMARK SMILES IDX 15 1 16 2 17 3 18 4 19 5 20 6 21 7 22 8 23 9 24 10 25 11
REMARK SMILES IDX 26 12 27 13 28 14 29 15 30 16 14 17 13 18 12 19 11 20 10 21
REMARK SMILES IDX 9 22 8 23 7 24 6 25 5 26 4 27 3 28 2 29 1 30
REMARK H PARENT
REMARK Flexibility Score: inf
ROOT
ATOM      1  C   UNL     1     -29.622  14.857  21.766  1.00  0.00     0.000 C 
ENDROOT
BRANCH   1   2
ATOM      2  C   UNL     1     -30.128  16.211  21.225  1.00  0.00     0.000 C 
BRANCH   2   3
ATOM      3  C   UNL     1     -29.015  17.257  21.042  1.00  0.00     0.000 C 
BRANCH   3   4
ATOM      4  C   UNL     1     -28.391  17.222  19.637  1.00  0.00     0.000 C 
BRANCH   4   5
ATOM      5  C   UNL     1     -27.149  16.318  19.569  1.00  0.00     0.000 C 
BRANCH   5   6
ATOM      6  C   UNL     1     -27.369  15.080  18.687  1.00  0.00     0.000 C 
BRANCH   6   7
ATOM      7  C   UNL     1     -28.065  15.459  17.372  1.00  0.00     0.000 C 
BRANCH   7   8
ATOM      8  C   UNL     1     -29.295  14.585  17.072  1.00  0.00     0.000 C 
BRANCH   8   9
ATOM      9  C   UNL     1     -30.592  15.097  17.733  1.00  0.00     0.000 C 
BRANCH   9  10
ATOM     10  C   UNL     1     -31.836  14.345  17.227  1.00  0.00     0.000 C 
BRANCH  10  11
ATOM     11  C   UNL     1     -31.487  13.120  16.365  1.00  0.00     0.000 C 
BRANCH  11  12
ATOM     12  C   UNL     1     -32.207  13.059  15.005  1.00  0.00     0.006 C 
BRANCH  12  13
ATOM     13  C   UNL     1     -31.952  14.299  14.138  1.00  0.00     0.053 C 
BRANCH  13  14
ATOM     14  C   UNL     1     -30.730  14.107  13.295  1.00  0.00     0.041 C 
ATOM     15  O   UNL     1     -29.589  14.363  13.764  1.00  0.00    -0.550 OA
ATOM     16  O   UNL     1     -30.847  13.601  12.006  1.00  0.00    -0.550 OA
ENDBRANCH  13  14
ENDBRANCH  12  13
ENDBRANCH  11  12
ENDBRANCH  10  11
ENDBRANCH   9  10
ENDBRANCH   8   9
ENDBRANCH   7   8
ENDBRANCH   6   7
ENDBRANCH   5   6
ENDBRANCH   4   5
ENDBRANCH   3   4
ENDBRANCH   2   3
ENDBRANCH   1   2
BRANCH   1  17
ATOM     17  C   UNL     1     -30.748  13.812  21.862  1.00  0.00     0.000 C 
BRANCH  17  18
ATOM     18  C   UNL     1     -31.936  14.140  20.933  1.00  0.00     0.000 C 
BRANCH  18  19
ATOM     19  C   UNL     1     -33.272  14.350  21.673  1.00  0.00     0.000 C 
BRANCH  19  20
ATOM     20  C   UNL     1     -33.752  15.809  21.757  1.00  0.00     0.000 C 
BRANCH  20  21
ATOM     21  C   UNL     1     -34.118  16.235  23.190  1.00  0.00     0.000 C 
BRANCH  21  22
ATOM     22  C   UNL     1     -33.018  17.080  23.853  1.00  0.00    -0.000 C 
BRANCH  22  23
ATOM     23  C   UNL     1     -31.915  16.222  24.497  1.00  0.00    -0.000 C 
BRANCH  23  24
ATOM     24  C   UNL     1     -32.450  15.332  25.631  1.00  0.00    -0.000 C 
BRANCH  24  25
ATOM     25  C   UNL     1     -32.401  13.833  25.281  1.00  0.00    -0.000 C 
BRANCH  25  26
ATOM     26  C   UNL     1     -31.004  13.225  25.481  1.00  0.00    -0.000 C 
BRANCH  26  27
ATOM     27  C   UNL     1     -30.387  13.591  26.843  1.00  0.00    -0.000 C 
BRANCH  27  28
ATOM     28  C   UNL     1     -28.917  14.023  26.729  1.00  0.00    -0.000 C 
BRANCH  28  29
ATOM     29  C   UNL     1     -28.640  14.867  25.475  1.00  0.00    -0.003 C 
ATOM     30  C   UNL     1     -27.373  14.398  24.765  1.00  0.00     0.004 C 
ENDBRANCH  28  29
ENDBRANCH  27  28
ENDBRANCH  26  27
ENDBRANCH  25  26
ENDBRANCH  24  25
ENDBRANCH  23  24
ENDBRANCH  22  23
ENDBRANCH  21  22
ENDBRANCH  20  21
ENDBRANCH  19  20
ENDBRANCH  18  19
ENDBRANCH  17  18
ENDBRANCH   1  17
TORSDOF 26
ENDMDL
MODEL 4
REMARK VINA RESULT:    -3.979      3.913      9.262
REMARK INTER + INTRA:         -14.728
REMARK INTER:                  -9.895
REMARK INTRA:                  -4.833
REMARK UNBOUND:                -4.700
REMARK SMILES CCCCCCCCCCCCCCCCCCCCCCCCCCCC(=O)[O-]
REMARK SMILES IDX 15 1 16 2 17 3 18 4 19 5 20 6 21 7 22 8 23 9 24 10 25 11
REMARK SMILES IDX 26 12 27 13 28 14 29 15 30 16 14 17 13 18 12 19 11 20 10 21
REMARK SMILES IDX 9 22 8 23 7 24 6 25 5 26 4 27 3 28 2 29 1 30
REMARK H PARENT
REMARK Flexibility Score: inf
ROOT
ATOM      1  C   UNL     1     -33.313  12.592  13.079  1.00  0.00     0.000 C 
ENDROOT
BRANCH   1   2
ATOM      2  C   UNL     1     -32.884  13.996  13.553  1.00  0.00     0.000 C 
BRANCH   2   3
ATOM      3  C   UNL     1     -31.499  14.424  13.038  1.00  0.00     0.000 C 
BRANCH   3   4
ATOM      4  C   UNL     1     -30.547  14.846  14.169  1.00  0.00     0.000 C 
BRANCH   4   5
ATOM      5  C   UNL     1     -31.188  14.701  15.559  1.00  0.00     0.000 C 
BRANCH   5   6
ATOM      6  C   UNL     1     -30.240  15.122  16.692  1.00  0.00     0.000 C 
BRANCH   6   7
ATOM      7  C   UNL     1     -28.784  15.160  16.206  1.00  0.00     0.000 C 
BRANCH   7   8
ATOM      8  C   UNL     1     -27.795  15.580  17.306  1.00  0.00     0.000 C 
BRANCH   8   9
ATOM      9  C   UNL     1     -27.840  14.673  18.554  1.00  0.00     0.000 C 
BRANCH   9  10
ATOM     10  C   UNL     1     -27.902  15.486  19.859  1.00  0.00     0.000 C 
BRANCH  10  11
ATOM     11  C   UNL     1     -28.049  16.999  19.617  1.00  0.00     0.000 C 
BRANCH  11  12
ATOM     12  C   UNL     1     -28.577  17.799  20.822  1.00  0.00     0.006 C 
BRANCH  12  13
ATOM     13  C   UNL     1     -29.947  17.309  21.311  1.00  0.00     0.053 C 
BRANCH  13  14
ATOM     14  C   UNL     1     -29.891  16.963  22.766  1.00  0.00     0.041 C 
ATOM     15  O   UNL     1     -28.986  16.203  23.202  1.00  0.00    -0.550 OA
ATOM     16  O   UNL     1     -30.812  17.514  23.648  1.00  0.00    -0.550 OA
ENDBRANCH  13  14
ENDBRANCH  12  13
ENDBRANCH  11  12
ENDBRANCH  10  11
ENDBRANCH   9  10
ENDBRANCH   8   9
ENDBRANCH   7   8
ENDBRANCH   6   7
ENDBRANCH   5   6
ENDBRANCH   4   5
ENDBRANCH   3   4
ENDBRANCH   2   3
ENDBRANCH   1   2
BRANCH   1  17
ATOM     17  C   UNL     1     -33.689  11.672  14.255  1.00  0.00     0.000 C 
BRANCH  17  18
ATOM     18  C   UNL     1     -33.493  10.178  13.920  1.00  0.00     0.000 C 
BRANCH  18  19
ATOM     19  C   UNL     1     -32.818   9.925  12.557  1.00  0.00     0.000 C 
BRANCH  19  20
ATOM     20  C   UNL     1     -31.536   9.077  12.608  1.00  0.00     0.000 C 
BRANCH  20  21
ATOM     21  C   UNL     1     -30.357   9.734  11.869  1.00  0.00     0.000 C 
BRANCH  21  22
ATOM     22  C   UNL     1     -30.069  11.160  12.367  1.00  0.00    -0.000 C 
BRANCH  22  23
ATOM     23  C   UNL     1     -28.892  11.218  13.357  1.00  0.00    -0.000 C 
BRANCH  23  24
ATOM     24  C   UNL     1     -29.312  11.747  14.738  1.00  0.00    -0.000 C 
BRANCH  24  25
ATOM     25  C   UNL     1     -29.963  10.662  15.615  1.00  0.00    -0.000 C 
BRANCH  25  26
ATOM     26  C   UNL     1     -31.052  11.226  16.541  1.00  0.00    -0.000 C 
BRANCH  26  27
ATOM     27  C   UNL     1     -30.493  11.700  17.895  1.00  0.00    -0.000 C 
BRANCH  27  28
ATOM     28  C   UNL     1     -31.600  12.095  18.886  1.00  0.00    -0.000 C 
BRANCH  28  29
ATOM     29  C   UNL     1     -31.344  13.454  19.554  1.00  0.00    -0.003 C 
ATOM     30  C   UNL     1     -30.694  13.279  20.924  1.00  0.00     0.004 C 
ENDBRANCH  28  29
ENDBRANCH  27  28
ENDBRANCH  26  27
ENDBRANCH  25  26
ENDBRANCH  24  25
ENDBRANCH  23  24
ENDBRANCH  22  23
ENDBRANCH  21  22
ENDBRANCH  20  21
ENDBRANCH  19  20
ENDBRANCH  18  19
ENDBRANCH  17  18
ENDBRANCH   1  17
TORSDOF 26
ENDMDL
MODEL 5
REMARK VINA RESULT:    -3.945      4.150      7.996
REMARK INTER + INTRA:         -14.642
REMARK INTER:                  -9.491
REMARK INTRA:                  -5.151
REMARK UNBOUND:                -4.700
REMARK SMILES CCCCCCCCCCCCCCCCCCCCCCCCCCCC(=O)[O-]
REMARK SMILES IDX 15 1 16 2 17 3 18 4 19 5 20 6 21 7 22 8 23 9 24 10 25 11
REMARK SMILES IDX 26 12 27 13 28 14 29 15 30 16 14 17 13 18 12 19 11 20 10 21
REMARK SMILES IDX 9 22 8 23 7 24 6 25 5 26 4 27 3 28 2 29 1 30
REMARK H PARENT
REMARK Flexibility Score: inf
ROOT
ATOM      1  C   UNL     1     -28.516  15.892  24.942  1.00  0.00     0.000 C 
ENDROOT
BRANCH   1   2
ATOM      2  C   UNL     1     -29.893  15.644  25.593  1.00  0.00     0.000 C 
BRANCH   2   3
ATOM      3  C   UNL     1     -29.851  14.644  26.762  1.00  0.00     0.000 C 
BRANCH   3   4
ATOM      4  C   UNL     1     -30.498  13.294  26.413  1.00  0.00     0.000 C 
BRANCH   4   5
ATOM      5  C   UNL     1     -29.522  12.117  26.577  1.00  0.00     0.000 C 
BRANCH   5   6
ATOM      6  C   UNL     1     -28.305  12.225  25.646  1.00  0.00     0.000 C 
BRANCH   6   7
ATOM      7  C   UNL     1     -28.648  11.732  24.234  1.00  0.00     0.000 C 
BRANCH   7   8
ATOM      8  C   UNL     1     -28.018  12.595  23.128  1.00  0.00     0.000 C 
BRANCH   8   9
ATOM      9  C   UNL     1     -26.903  11.873  22.342  1.00  0.00     0.000 C 
BRANCH   9  10
ATOM     10  C   UNL     1     -25.576  11.835  23.122  1.00  0.00     0.000 C 
BRANCH  10  11
ATOM     11  C   UNL     1     -25.141  13.219  23.633  1.00  0.00     0.000 C 
BRANCH  11  12
ATOM     12  C   UNL     1     -24.967  13.319  25.160  1.00  0.00     0.006 C 
BRANCH  12  13
ATOM     13  C   UNL     1     -25.250  14.727  25.703  1.00  0.00     0.053 C 
BRANCH  13  14
ATOM     14  C   UNL     1     -24.374  15.020  26.880  1.00  0.00     0.041 C 
ATOM     15  O   UNL     1     -23.779  16.127  26.967  1.00  0.00    -0.550 OA
ATOM     16  O   UNL     1     -24.249  14.089  27.904  1.00  0.00    -0.550 OA
ENDBRANCH  13  14
ENDBRANCH  12  13
ENDBRANCH  11  12
ENDBRANCH  10  11
ENDBRANCH   9  10
ENDBRANCH   8   9
ENDBRANCH   7   8
ENDBRANCH   6   7
ENDBRANCH   5   6
ENDBRANCH   4   5
ENDBRANCH   3   4
ENDBRANCH   2   3
ENDBRANCH   1   2
BRANCH   1  17
ATOM     17  C   UNL     1     -28.625  16.135  23.427  1.00  0.00     0.000 C 
BRANCH  17  18
ATOM     18  C   UNL     1     -29.980  16.755  23.026  1.00  0.00     0.000 C 
BRANCH  18  19
ATOM     19  C   UNL     1     -29.874  17.849  21.945  1.00  0.00     0.000 C 
BRANCH  19  20
ATOM     20  C   UNL     1     -28.587  17.816  21.103  1.00  0.00     0.000 C 
BRANCH  20  21
ATOM     21  C   UNL     1     -28.861  17.884  19.590  1.00  0.00     0.000 C 
BRANCH  21  22
ATOM     22  C   UNL     1     -28.673  16.525  18.895  1.00  0.00    -0.000 C 
BRANCH  22  23
ATOM     23  C   UNL     1     -28.104  15.449  19.836  1.00  0.00    -0.000 C 
BRANCH  23  24
ATOM     24  C   UNL     1     -26.782  14.857  19.320  1.00  0.00    -0.000 C 
BRANCH  24  25
ATOM     25  C   UNL     1     -25.549  15.622  19.835  1.00  0.00    -0.000 C 
BRANCH  25  26
ATOM     26  C   UNL     1     -25.530  15.749  21.367  1.00  0.00    -0.000 C 
BRANCH  26  27
ATOM     27  C   UNL     1     -25.094  17.147  21.841  1.00  0.00    -0.000 C 
BRANCH  27  28
ATOM     28  C   UNL     1     -24.715  17.174  23.330  1.00  0.00    -0.000 C 
BRANCH  28  29
ATOM     29  C   UNL     1     -25.451  18.272  24.113  1.00  0.00    -0.003 C 
ATOM     30  C   UNL     1     -26.134  19.257  23.167  1.00  0.00     0.004 C 
ENDBRANCH  28  29
ENDBRANCH  27  28
ENDBRANCH  26  27
ENDBRANCH  25  26
ENDBRANCH  24  25
ENDBRANCH  23  24
ENDBRANCH  22  23
ENDBRANCH  21  22
ENDBRANCH  20  21
ENDBRANCH  19  20
ENDBRANCH  18  19
ENDBRANCH  17  18
ENDBRANCH   1  17
TORSDOF 26
ENDMDL
MODEL 6
REMARK VINA RESULT:    -3.945      2.599      5.799
REMARK INTER + INTRA:         -14.641
REMARK INTER:                  -9.690
REMARK INTRA:                  -4.951
REMARK UNBOUND:                -4.700
REMARK SMILES CCCCCCCCCCCCCCCCCCCCCCCCCCCC(=O)[O-]
REMARK SMILES IDX 15 1 16 2 17 3 18 4 19 5 20 6 21 7 22 8 23 9 24 10 25 11
REMARK SMILES IDX 26 12 27 13 28 14 29 15 30 16 14 17 13 18 12 19 11 20 10 21
REMARK SMILES IDX 9 22 8 23 7 24 6 25 5 26 4 27 3 28 2 29 1 30
REMARK H PARENT
REMARK Flexibility Score: inf
ROOT
ATOM      1  C   UNL     1     -28.830  14.963  15.615  1.00  0.00     0.000 C 
ENDROOT
BRANCH   1   2
ATOM      2  C   UNL     1     -30.085  14.793  14.734  1.00  0.00     0.000 C 
BRANCH   2   3
ATOM      3  C   UNL     1     -29.990  13.616  13.747  1.00  0.00     0.000 C 
BRANCH   3   4
ATOM      4  C   UNL     1     -31.231  13.492  12.848  1.00  0.00     0.000 C 
BRANCH   4   5
ATOM      5  C   UNL     1     -32.424  14.303  13.380  1.00  0.00     0.000 C 
BRANCH   5   6
ATOM      6  C   UNL     1     -33.493  13.418  14.039  1.00  0.00     0.000 C 
BRANCH   6   7
ATOM      7  C   UNL     1     -33.347  13.428  15.567  1.00  0.00     0.000 C 
BRANCH   7   8
ATOM      8  C   UNL     1     -32.651  12.169  16.111  1.00  0.00     0.000 C 
BRANCH   8   9
ATOM      9  C   UNL     1     -31.578  12.470  17.178  1.00  0.00     0.000 C 
BRANCH   9  10
ATOM     10  C   UNL     1     -30.255  11.736  16.894  1.00  0.00     0.000 C 
BRANCH  10  11
ATOM     11  C   UNL     1     -30.442  10.472  16.036  1.00  0.00     0.000 C 
BRANCH  11  12
ATOM     12  C   UNL     1     -29.338  10.230  14.991  1.00  0.00     0.006 C 
BRANCH  12  13
ATOM     13  C   UNL     1     -29.848   9.504  13.739  1.00  0.00     0.053 C 
BRANCH  13  14
ATOM     14  C   UNL     1     -29.330  10.166  12.501  1.00  0.00     0.041 C 
ATOM     15  O   UNL     1     -29.955  10.053  11.413  1.00  0.00    -0.550 OA
ATOM     16  O   UNL     1     -28.181  10.945  12.557  1.00  0.00    -0.550 OA
ENDBRANCH  13  14
ENDBRANCH  12  13
ENDBRANCH  11  12
ENDBRANCH  10  11
ENDBRANCH   9  10
ENDBRANCH   8   9
ENDBRANCH   7   8
ENDBRANCH   6   7
ENDBRANCH   5   6
ENDBRANCH   4   5
ENDBRANCH   3   4
ENDBRANCH   2   3
ENDBRANCH   1   2
BRANCH   1  17
ATOM     17  C   UNL     1     -29.175  15.474  17.026  1.00  0.00     0.000 C 
BRANCH  17  18
ATOM     18  C   UNL     1     -28.057  15.182  18.048  1.00  0.00     0.000 C 
BRANCH  18  19
ATOM     19  C   UNL     1     -28.507  14.312  19.239  1.00  0.00     0.000 C 
BRANCH  19  20
ATOM     20  C   UNL     1     -29.934  14.585  19.747  1.00  0.00     0.000 C 
BRANCH  20  21
ATOM     21  C   UNL     1     -30.192  13.994  21.144  1.00  0.00     0.000 C 
BRANCH  21  22
ATOM     22  C   UNL     1     -30.437  15.078  22.207  1.00  0.00    -0.000 C 
BRANCH  22  23
ATOM     23  C   UNL     1     -30.802  16.441  21.594  1.00  0.00    -0.000 C 
BRANCH  23  24
ATOM     24  C   UNL     1     -29.903  17.577  22.108  1.00  0.00    -0.000 C 
BRANCH  24  25
ATOM     25  C   UNL     1     -28.950  18.115  21.026  1.00  0.00    -0.000 C 
BRANCH  25  26
ATOM     26  C   UNL     1     -27.622  17.343  20.971  1.00  0.00    -0.000 C 
BRANCH  26  27
ATOM     27  C   UNL     1     -27.054  17.040  22.369  1.00  0.00    -0.000 C 
BRANCH  27  28
ATOM     28  C   UNL     1     -26.809  15.540  22.595  1.00  0.00    -0.000 C 
BRANCH  28  29
ATOM     29  C   UNL     1     -26.853  15.146  24.079  1.00  0.00    -0.003 C 
ATOM     30  C   UNL     1     -27.965  15.891  24.813  1.00  0.00     0.004 C 
ENDBRANCH  28  29
ENDBRANCH  27  28
ENDBRANCH  26  27
ENDBRANCH  25  26
ENDBRANCH  24  25
ENDBRANCH  23  24
ENDBRANCH  22  23
ENDBRANCH  21  22
ENDBRANCH  20  21
ENDBRANCH  19  20
ENDBRANCH  18  19
ENDBRANCH  17  18
ENDBRANCH   1  17
TORSDOF 26
ENDMDL
MODEL 7
REMARK VINA RESULT:    -3.927      1.549      3.599
REMARK INTER + INTRA:         -14.596
REMARK INTER:                  -9.719
REMARK INTRA:                  -4.877
REMARK UNBOUND:                -4.700
REMARK SMILES CCCCCCCCCCCCCCCCCCCCCCCCCCCC(=O)[O-]
REMARK SMILES IDX 15 1 16 2 17 3 18 4 19 5 20 6 21 7 22 8 23 9 24 10 25 11
REMARK SMILES IDX 26 12 27 13 28 14 29 15 30 16 14 17 13 18 12 19 11 20 10 21
REMARK SMILES IDX 9 22 8 23 7 24 6 25 5 26 4 27 3 28 2 29 1 30
REMARK H PARENT
REMARK Flexibility Score: inf
ROOT
ATOM      1  C   UNL     1     -28.826  16.738  22.361  1.00  0.00     0.000 C 
ENDROOT
BRANCH   1   2
ATOM      2  C   UNL     1     -28.106  16.747  20.996  1.00  0.00     0.000 C 
BRANCH   2   3
ATOM      3  C   UNL     1     -28.730  17.715  19.977  1.00  0.00     0.000 C 
BRANCH   3   4
ATOM      4  C   UNL     1     -28.943  17.071  18.597  1.00  0.00     0.000 C 
BRANCH   4   5
ATOM      5  C   UNL     1     -27.895  15.989  18.287  1.00  0.00     0.000 C 
BRANCH   5   6
ATOM      6  C   UNL     1     -28.058  15.396  16.879  1.00  0.00     0.000 C 
BRANCH   6   7
ATOM      7  C   UNL     1     -29.163  14.331  16.857  1.00  0.00     0.000 C 
BRANCH   7   8
ATOM      8  C   UNL     1     -30.460  14.827  16.194  1.00  0.00     0.000 C 
BRANCH   8   9
ATOM      9  C   UNL     1     -31.715  14.043  16.633  1.00  0.00     0.000 C 
BRANCH   9  10
ATOM     10  C   UNL     1     -32.578  13.613  15.433  1.00  0.00     0.000 C 
BRANCH  10  11
ATOM     11  C   UNL     1     -31.918  13.920  14.078  1.00  0.00     0.000 C 
BRANCH  11  12
ATOM     12  C   UNL     1     -31.889  12.738  13.090  1.00  0.00     0.006 C 
BRANCH  12  13
ATOM     13  C   UNL     1     -30.496  12.490  12.496  1.00  0.00     0.053 C 
BRANCH  13  14
ATOM     14  C   UNL     1     -29.493  12.273  13.584  1.00  0.00     0.041 C 
ATOM     15  O   UNL     1     -28.488  13.026  13.679  1.00  0.00    -0.550 OA
ATOM     16  O   UNL     1     -29.691  11.266  14.522  1.00  0.00    -0.550 OA
ENDBRANCH  13  14
ENDBRANCH  12  13
ENDBRANCH  11  12
ENDBRANCH  10  11
ENDBRANCH   9  10
ENDBRANCH   8   9
ENDBRANCH   7   8
ENDBRANCH   6   7
ENDBRANCH   5   6
ENDBRANCH   4   5
ENDBRANCH   3   4
ENDBRANCH   2   3
ENDBRANCH   1   2
BRANCH   1  17
ATOM     17  C   UNL     1     -29.995  17.738  22.408  1.00  0.00     0.000 C 
BRANCH  17  18
ATOM     18  C   UNL     1     -31.370  17.039  22.371  1.00  0.00     0.000 C 
BRANCH  18  19
ATOM     19  C   UNL     1     -31.411  15.695  23.125  1.00  0.00     0.000 C 
BRANCH  19  20
ATOM     20  C   UNL     1     -31.780  14.473  22.266  1.00  0.00     0.000 C 
BRANCH  20  21
ATOM     21  C   UNL     1     -31.685  14.754  20.756  1.00  0.00     0.000 C 
BRANCH  21  22
ATOM     22  C   UNL     1     -30.541  13.979  20.082  1.00  0.00    -0.000 C 
BRANCH  22  23
ATOM     23  C   UNL     1     -29.774  13.077  21.064  1.00  0.00    -0.000 C 
BRANCH  23  24
ATOM     24  C   UNL     1     -28.249  13.224  20.929  1.00  0.00    -0.000 C 
BRANCH  24  25
ATOM     25  C   UNL     1     -27.515  13.041  22.270  1.00  0.00    -0.000 C 
BRANCH  25  26
ATOM     26  C   UNL     1     -28.456  13.161  23.480  1.00  0.00    -0.000 C 
BRANCH  26  27
ATOM     27  C   UNL     1     -27.835  13.962  24.638  1.00  0.00    -0.000 C 
BRANCH  27  28
ATOM     28  C   UNL     1     -28.895  14.603  25.547  1.00  0.00    -0.000 C 
BRANCH  28  29
ATOM     29  C   UNL     1     -28.977  13.935  26.928  1.00  0.00    -0.003 C 
ATOM     30  C   UNL     1     -29.951  12.760  26.913  1.00  0.00     0.004 C 
ENDBRANCH  28  29
ENDBRANCH  27  28
ENDBRANCH  26  27
ENDBRANCH  25  26
ENDBRANCH  24  25
ENDBRANCH  23  24
ENDBRANCH  22  23
ENDBRANCH  21  22
ENDBRANCH  20  21
ENDBRANCH  19  20
ENDBRANCH  18  19
ENDBRANCH  17  18
ENDBRANCH   1  17
TORSDOF 26
ENDMDL
MODEL 8
REMARK VINA RESULT:    -3.899      1.816      2.886
REMARK INTER + INTRA:         -14.525
REMARK INTER:                 -11.046
REMARK INTRA:                  -3.480
REMARK UNBOUND:                -4.700
REMARK SMILES CCCCCCCCCCCCCCCCCCCCCCCCCCCC(=O)[O-]
REMARK SMILES IDX 15 1 16 2 17 3 18 4 19 5 20 6 21 7 22 8 23 9 24 10 25 11
REMARK SMILES IDX 26 12 27 13 28 14 29 15 30 16 14 17 13 18 12 19 11 20 10 21
REMARK SMILES IDX 9 22 8 23 7 24 6 25 5 26 4 27 3 28 2 29 1 30
REMARK H PARENT
REMARK Flexibility Score: inf
ROOT
ATOM      1  C   UNL     1     -28.032  17.944  21.087  1.00  0.00     0.000 C 
ENDROOT
BRANCH   1   2
ATOM      2  C   UNL     1     -27.172  16.664  21.146  1.00  0.00     0.000 C 
BRANCH   2   3
ATOM      3  C   UNL     1     -25.790  16.820  20.489  1.00  0.00     0.000 C 
BRANCH   3   4
ATOM      4  C   UNL     1     -25.577  15.853  19.313  1.00  0.00     0.000 C 
BRANCH   4   5
ATOM      5  C   UNL     1     -26.868  15.116  18.919  1.00  0.00     0.000 C 
BRANCH   5   6
ATOM      6  C   UNL     1     -27.380  15.524  17.529  1.00  0.00     0.000 C 
BRANCH   6   7
ATOM      7  C   UNL     1     -28.836  16.007  17.600  1.00  0.00     0.000 C 
BRANCH   7   8
ATOM      8  C   UNL     1     -29.847  14.851  17.681  1.00  0.00     0.000 C 
BRANCH   8   9
ATOM      9  C   UNL     1     -30.882  14.857  16.536  1.00  0.00     0.000 C 
BRANCH   9  10
ATOM     10  C   UNL     1     -30.213  14.930  15.151  1.00  0.00     0.000 C 
BRANCH  10  11
ATOM     11  C   UNL     1     -31.194  14.662  13.996  1.00  0.00     0.000 C 
BRANCH  11  12
ATOM     12  C   UNL     1     -31.404  13.174  13.658  1.00  0.00     0.006 C 
BRANCH  12  13
ATOM     13  C   UNL     1     -30.412  12.653  12.610  1.00  0.00     0.053 C 
BRANCH  13  14
ATOM     14  C   UNL     1     -29.425  11.721  13.240  1.00  0.00     0.041 C 
ATOM     15  O   UNL     1     -29.414  11.559  14.489  1.00  0.00    -0.550 OA
ATOM     16  O   UNL     1     -28.547  10.995  12.444  1.00  0.00    -0.550 OA
ENDBRANCH  13  14
ENDBRANCH  12  13
ENDBRANCH  11  12
ENDBRANCH  10  11
ENDBRANCH   9  10
ENDBRANCH   8   9
ENDBRANCH   7   8
ENDBRANCH   6   7
ENDBRANCH   5   6
ENDBRANCH   4   5
ENDBRANCH   3   4
ENDBRANCH   2   3
ENDBRANCH   1   2
BRANCH   1  17
ATOM     17  C   UNL     1     -29.355  17.791  21.859  1.00  0.00     0.000 C 
BRANCH  17  18
ATOM     18  C   UNL     1     -30.215  16.625  21.328  1.00  0.00     0.000 C 
BRANCH  18  19
ATOM     19  C   UNL     1     -31.565  16.460  22.055  1.00  0.00     0.000 C 
BRANCH  19  20
ATOM     20  C   UNL     1     -31.854  17.507  23.145  1.00  0.00     0.000 C 
BRANCH  20  21
ATOM     21  C   UNL     1     -33.266  17.370  23.743  1.00  0.00     0.000 C 
BRANCH  21  22
ATOM     22  C   UNL     1     -33.583  15.932  24.185  1.00  0.00    -0.000 C 
BRANCH  22  23
ATOM     23  C   UNL     1     -32.830  15.523  25.463  1.00  0.00    -0.000 C 
BRANCH  23  24
ATOM     24  C   UNL     1     -32.017  14.231  25.278  1.00  0.00    -0.000 C 
BRANCH  24  25
ATOM     25  C   UNL     1     -30.750  14.199  26.151  1.00  0.00    -0.000 C 
BRANCH  25  26
ATOM     26  C   UNL     1     -29.978  15.528  26.120  1.00  0.00    -0.000 C 
BRANCH  26  27
ATOM     27  C   UNL     1     -29.150  15.704  24.835  1.00  0.00    -0.000 C 
BRANCH  27  28
ATOM     28  C   UNL     1     -28.024  14.665  24.710  1.00  0.00    -0.000 C 
BRANCH  28  29
ATOM     29  C   UNL     1     -26.624  15.287  24.824  1.00  0.00    -0.003 C 
ATOM     30  C   UNL     1     -26.682  16.804  24.669  1.00  0.00     0.004 C 
ENDBRANCH  28  29
ENDBRANCH  27  28
ENDBRANCH  26  27
ENDBRANCH  25  26
ENDBRANCH  24  25
ENDBRANCH  23  24
ENDBRANCH  22  23
ENDBRANCH  21  22
ENDBRANCH  20  21
ENDBRANCH  19  20
ENDBRANCH  18  19
ENDBRANCH  17  18
ENDBRANCH   1  17
TORSDOF 26
ENDMDL
MODEL 9
REMARK VINA RESULT:    -3.852      3.499      7.517
REMARK INTER + INTRA:         -14.406
REMARK INTER:                  -9.088
REMARK INTRA:                  -5.318
REMARK UNBOUND:                -4.700
REMARK SMILES CCCCCCCCCCCCCCCCCCCCCCCCCCCC(=O)[O-]
REMARK SMILES IDX 15 1 16 2 17 3 18 4 19 5 20 6 21 7 22 8 23 9 24 10 25 11
REMARK SMILES IDX 26 12 27 13 28 14 29 15 30 16 14 17 13 18 12 19 11 20 10 21
REMARK SMILES IDX 9 22 8 23 7 24 6 25 5 26 4 27 3 28 2 29 1 30
REMARK H PARENT
REMARK Flexibility Score: inf
ROOT
ATOM      1  C   UNL     1     -31.183  14.748  27.632  1.00  0.00     0.000 C 
ENDROOT
BRANCH   1   2
ATOM      2  C   UNL     1     -32.628  14.726  27.089  1.00  0.00     0.000 C 
BRANCH   2   3
ATOM      3  C   UNL     1     -32.843  13.713  25.953  1.00  0.00     0.000 C 
BRANCH   3   4
ATOM      4  C   UNL     1     -33.340  14.370  24.655  1.00  0.00     0.000 C 
BRANCH   4   5
ATOM      5  C   UNL     1     -33.729  15.845  24.856  1.00  0.00     0.000 C 
BRANCH   5   6
ATOM      6  C   UNL     1     -33.254  16.743  23.704  1.00  0.00     0.000 C 
BRANCH   6   7
ATOM      7  C   UNL     1     -31.762  17.078  23.848  1.00  0.00     0.000 C 
BRANCH   7   8
ATOM      8  C   UNL     1     -30.891  16.408  22.772  1.00  0.00     0.000 C 
BRANCH   8   9
ATOM      9  C   UNL     1     -30.010  17.401  21.986  1.00  0.00     0.000 C 
BRANCH   9  10
ATOM     10  C   UNL     1     -28.581  17.483  22.553  1.00  0.00     0.000 C 
BRANCH  10  11
ATOM     11  C   UNL     1     -28.371  16.582  23.783  1.00  0.00     0.000 C 
BRANCH  11  12
ATOM     12  C   UNL     1     -26.955  16.629  24.386  1.00  0.00     0.006 C 
BRANCH  12  13
ATOM     13  C   UNL     1     -26.297  15.246  24.476  1.00  0.00     0.053 C 
BRANCH  13  14
ATOM     14  C   UNL     1     -25.396  15.171  25.668  1.00  0.00     0.041 C 
ATOM     15  O   UNL     1     -24.653  16.145  25.964  1.00  0.00    -0.550 OA
ATOM     16  O   UNL     1     -25.408  14.043  26.480  1.00  0.00    -0.550 OA
ENDBRANCH  13  14
ENDBRANCH  12  13
ENDBRANCH  11  12
ENDBRANCH  10  11
ENDBRANCH   9  10
ENDBRANCH   8   9
ENDBRANCH   7   8
ENDBRANCH   6   7
ENDBRANCH   5   6
ENDBRANCH   4   5
ENDBRANCH   3   4
ENDBRANCH   2   3
ENDBRANCH   1   2
BRANCH   1  17
ATOM     17  C   UNL     1     -30.146  14.960  26.515  1.00  0.00     0.000 C 
BRANCH  17  18
ATOM     18  C   UNL     1     -28.954  13.986  26.625  1.00  0.00     0.000 C 
BRANCH  18  19
ATOM     19  C   UNL     1     -28.996  12.826  25.610  1.00  0.00     0.000 C 
BRANCH  19  20
ATOM     20  C   UNL     1     -29.608  13.174  24.242  1.00  0.00     0.000 C 
BRANCH  20  21
ATOM     21  C   UNL     1     -28.769  12.651  23.063  1.00  0.00     0.000 C 
BRANCH  21  22
ATOM     22  C   UNL     1     -28.735  13.634  21.881  1.00  0.00    -0.000 C 
BRANCH  22  23
ATOM     23  C   UNL     1     -28.759  12.924  20.516  1.00  0.00    -0.000 C 
BRANCH  23  24
ATOM     24  C   UNL     1     -30.023  13.255  19.704  1.00  0.00    -0.000 C 
BRANCH  24  25
ATOM     25  C   UNL     1     -30.182  14.763  19.443  1.00  0.00    -0.000 C 
BRANCH  25  26
ATOM     26  C   UNL     1     -29.847  15.150  17.993  1.00  0.00    -0.000 C 
BRANCH  26  27
ATOM     27  C   UNL     1     -28.871  16.337  17.906  1.00  0.00    -0.000 C 
BRANCH  27  28
ATOM     28  C   UNL     1     -27.865  16.361  19.067  1.00  0.00    -0.000 C 
BRANCH  28  29
ATOM     29  C   UNL     1     -26.568  15.603  18.747  1.00  0.00    -0.003 C 
ATOM     30  C   UNL     1     -25.837  15.200  20.025  1.00  0.00     0.004 C 
ENDBRANCH  28  29
ENDBRANCH  27  28
ENDBRANCH  26  27
ENDBRANCH  25  26
ENDBRANCH  24  25
ENDBRANCH  23  24
ENDBRANCH  22  23
ENDBRANCH  21  22
ENDBRANCH  20  21
ENDBRANCH  19  20
ENDBRANCH  18  19
ENDBRANCH  17  18
ENDBRANCH   1  17
TORSDOF 26
ENDMDL
