MODEL 1
REMARK VINA RESULT:    -4.596      0.000      0.000
REMARK INTER + INTRA:          -9.733
REMARK INTER:                  -8.357
REMARK INTRA:                  -1.377
REMARK UNBOUND:                -1.377
REMARK SMILES CCCCCCCCCCCCCCCC(=O)[O-]
REMARK SMILES IDX 9 1 10 2 11 3 12 4 13 5 14 6 15 7 16 8 17 9 18 10 8 11 7 12
REMARK SMILES IDX 6 13 5 14 4 15 3 16 2 17 1 18
REMARK H PARENT
REMARK Flexibility Score: inf
ROOT
ATOM      1  C   UNL     1      -7.904   5.841 -32.482  1.00  0.00     0.000 C 
ENDROOT
BRANCH   1   2
ATOM      2  C   UNL     1      -6.530   6.528 -32.475  1.00  0.00     0.000 C 
BRANCH   2   3
ATOM      3  C   UNL     1      -6.684   8.057 -32.511  1.00  0.00     0.000 C 
BRANCH   3   4
ATOM      4  C   UNL     1      -5.844   8.712 -33.619  1.00  0.00     0.000 C 
BRANCH   4   5
ATOM      5  C   UNL     1      -5.159   7.683 -34.531  1.00  0.00     0.000 C 
BRANCH   5   6
ATOM      6  C   UNL     1      -4.525   8.367 -35.751  1.00  0.00     0.006 C 
BRANCH   6   7
ATOM      7  C   UNL     1      -3.012   8.120 -35.834  1.00  0.00     0.053 C 
BRANCH   7   8
ATOM      8  C   UNL     1      -2.310   8.534 -34.577  1.00  0.00     0.041 C 
ATOM      9  O   UNL     1      -1.579   7.714 -33.961  1.00  0.00    -0.550 OA
ATOM     10  O   UNL     1      -2.491   9.813 -34.067  1.00  0.00    -0.550 OA
ENDBRANCH   7   8
ENDBRANCH   6   7
ENDBRANCH   5   6
ENDBRANCH   4   5
ENDBRANCH   3   4
ENDBRANCH   2   3
ENDBRANCH   1   2
BRANCH   1  11
ATOM     11  C   UNL     1      -8.274   5.268 -33.860  1.00  0.00     0.000 C 
BRANCH  11  12
ATOM     12  C   UNL     1      -7.929   3.775 -33.991  1.00  0.00    -0.000 C 
BRANCH  12  13
ATOM     13  C   UNL     1      -7.012   3.476 -35.191  1.00  0.00    -0.000 C 
BRANCH  13  14
ATOM     14  C   UNL     1      -6.672   4.691 -36.078  1.00  0.00    -0.000 C 
BRANCH  14  15
ATOM     15  C   UNL     1      -5.635   4.424 -37.184  1.00  0.00    -0.000 C 
BRANCH  15  16
ATOM     16  C   UNL     1      -5.369   2.928 -37.404  1.00  0.00    -0.000 C 
BRANCH  16  17
ATOM     17  C   UNL     1      -3.867   2.650 -37.526  1.00  0.00    -0.003 C 
ATOM     18  C   UNL     1      -3.578   1.660 -38.650  1.00  0.00     0.004 C 
ENDBRANCH  16  17
ENDBRANCH  15  16
ENDBRANCH  14  15
ENDBRANCH  13  14
ENDBRANCH  12  13
ENDBRANCH  11  12
ENDBRANCH   1  11
TORSDOF 14
ENDMDL
MODEL 2
REMARK VINA RESULT:    -4.534      2.945      6.650
REMARK INTER + INTRA:          -9.621
REMARK INTER:                  -7.911
REMARK INTRA:                  -1.711
REMARK UNBOUND:                -1.377
REMARK SMILES CCCCCCCCCCCCCCCC(=O)[O-]
REMARK SMILES IDX 9 1 10 2 11 3 12 4 13 5 14 6 15 7 16 8 17 9 18 10 8 11 7 12
REMARK SMILES IDX 6 13 5 14 4 15 3 16 2 17 1 18
REMARK H PARENT
REMARK Flexibility Score: inf
ROOT
ATOM      1  C   UNL     1      -1.664   7.671 -36.759  1.00  0.00     0.000 C 
ENDROOT
BRANCH   1   2
ATOM      2  C   UNL     1      -2.213   6.323 -37.252  1.00  0.00     0.000 C 
BRANCH   2   3
ATOM      3  C   UNL     1      -3.221   6.529 -38.393  1.00  0.00     0.000 C 
BRANCH   3   4
ATOM      4  C   UNL     1      -4.314   5.448 -38.422  1.00  0.00     0.000 C 
BRANCH   4   5
ATOM      5  C   UNL     1      -3.781   4.057 -38.046  1.00  0.00     0.000 C 
BRANCH   5   6
ATOM      6  C   UNL     1      -4.902   3.176 -37.474  1.00  0.00     0.006 C 
BRANCH   6   7
ATOM      7  C   UNL     1      -6.268   3.875 -37.515  1.00  0.00     0.053 C 
BRANCH   7   8
ATOM      8  C   UNL     1      -7.148   3.445 -36.383  1.00  0.00     0.041 C 
ATOM      9  O   UNL     1      -8.395   3.365 -36.544  1.00  0.00    -0.550 OA
ATOM     10  O   UNL     1      -6.596   3.166 -35.138  1.00  0.00    -0.550 OA
ENDBRANCH   7   8
ENDBRANCH   6   7
ENDBRANCH   5   6
ENDBRANCH   4   5
ENDBRANCH   3   4
ENDBRANCH   2   3
ENDBRANCH   1   2
BRANCH   1  11
ATOM     11  C   UNL     1      -1.052   7.584 -35.352  1.00  0.00     0.000 C 
BRANCH  11  12
ATOM     12  C   UNL     1      -2.020   8.061 -34.256  1.00  0.00    -0.000 C 
BRANCH  12  13
ATOM     13  C   UNL     1      -3.092   9.031 -34.785  1.00  0.00    -0.000 C 
BRANCH  13  14
ATOM     14  C   UNL     1      -4.550   8.635 -34.474  1.00  0.00    -0.000 C 
BRANCH  14  15
ATOM     15  C   UNL     1      -5.150   7.564 -35.403  1.00  0.00    -0.000 C 
BRANCH  15  16
ATOM     16  C   UNL     1      -6.214   6.702 -34.710  1.00  0.00    -0.000 C 
BRANCH  16  17
ATOM     17  C   UNL     1      -6.270   7.002 -33.208  1.00  0.00    -0.003 C 
ATOM     18  C   UNL     1      -7.352   6.174 -32.520  1.00  0.00     0.004 C 
ENDBRANCH  16  17
ENDBRANCH  15  16
ENDBRANCH  14  15
ENDBRANCH  13  14
ENDBRANCH  12  13
ENDBRANCH  11  12
ENDBRANCH   1  11
TORSDOF 14
ENDMDL
MODEL 3
REMARK VINA RESULT:    -4.465     14.608     16.987
REMARK INTER + INTRA:          -9.497
REMARK INTER:                  -8.044
REMARK INTRA:                  -1.453
REMARK UNBOUND:                -1.377
REMARK SMILES CCCCCCCCCCCCCCCC(=O)[O-]
REMARK SMILES IDX 9 1 10 2 11 3 12 4 13 5 14 6 15 7 16 8 17 9 18 10 8 11 7 12
REMARK SMILES IDX 6 13 5 14 4 15 3 16 2 17 1 18
REMARK H PARENT
REMARK Flexibility Score: inf
ROOT
ATOM      1  C   UNL     1     -14.534   5.762 -24.157  1.00  0.00     0.000 C 
ENDROOT
BRANCH   1   2
ATOM      2  C   UNL     1     -14.704   4.297 -23.725  1.00  0.00     0.000 C 
BRANCH   2   3
ATOM      3  C   UNL     1     -13.811   3.978 -22.516  1.00  0.00     0.000 C 
BRANCH   3   4
ATOM      4  C   UNL     1     -13.625   2.468 -22.298  1.00  0.00     0.000 C 
BRANCH   4   5
ATOM      5  C   UNL     1     -12.844   2.146 -21.014  1.00  0.00     0.000 C 
BRANCH   5   6
ATOM      6  C   UNL     1     -11.549   1.387 -21.335  1.00  0.00     0.006 C 
BRANCH   6   7
ATOM      7  C   UNL     1     -10.400   1.774 -20.394  1.00  0.00     0.053 C 
BRANCH   7   8
ATOM      8  C   UNL     1      -9.061   1.486 -21.000  1.00  0.00     0.041 C 
ATOM      9  O   UNL     1      -8.872   1.664 -22.233  1.00  0.00    -0.550 OA
ATOM     10  O   UNL     1      -8.032   0.988 -20.212  1.00  0.00    -0.550 OA
ENDBRANCH   7   8
ENDBRANCH   6   7
ENDBRANCH   5   6
ENDBRANCH   4   5
ENDBRANCH   3   4
ENDBRANCH   2   3
ENDBRANCH   1   2
BRANCH   1  11
ATOM     11  C   UNL     1     -15.855   6.405 -24.609  1.00  0.00     0.000 C 
BRANCH  11  12
ATOM     12  C   UNL     1     -17.007   6.144 -23.623  1.00  0.00    -0.000 C 
BRANCH  12  13
ATOM     13  C   UNL     1     -16.872   6.953 -22.319  1.00  0.00    -0.000 C 
BRANCH  13  14
ATOM     14  C   UNL     1     -17.327   6.220 -21.040  1.00  0.00    -0.000 C 
BRANCH  14  15
ATOM     15  C   UNL     1     -16.211   5.488 -20.273  1.00  0.00    -0.000 C 
BRANCH  15  16
ATOM     16  C   UNL     1     -16.714   4.237 -19.539  1.00  0.00    -0.000 C 
BRANCH  16  17
ATOM     17  C   UNL     1     -16.878   3.061 -20.508  1.00  0.00    -0.003 C 
ATOM     18  C   UNL     1     -17.992   2.122 -20.053  1.00  0.00     0.004 C 
ENDBRANCH  16  17
ENDBRANCH  15  16
ENDBRANCH  14  15
ENDBRANCH  13  14
ENDBRANCH  12  13
ENDBRANCH  11  12
ENDBRANCH   1  11
TORSDOF 14
ENDMDL
MODEL 4
REMARK VINA RESULT:    -4.450      2.776      6.765
REMARK INTER + INTRA:          -9.468
REMARK INTER:                  -7.627
REMARK INTRA:                  -1.841
REMARK UNBOUND:                -1.377
REMARK SMILES CCCCCCCCCCCCCCCC(=O)[O-]
REMARK SMILES IDX 9 1 10 2 11 3 12 4 13 5 14 6 15 7 16 8 17 9 18 10 8 11 7 12
REMARK SMILES IDX 6 13 5 14 4 15 3 16 2 17 1 18
REMARK H PARENT
REMARK Flexibility Score: inf
ROOT
ATOM      1  C   UNL     1      -2.811   5.868 -37.424  1.00  0.00     0.000 C 
ENDROOT
BRANCH   1   2
ATOM      2  C   UNL     1      -3.910   5.125 -38.200  1.00  0.00     0.000 C 
BRANCH   2   3
ATOM      3  C   UNL     1      -4.106   3.706 -37.644  1.00  0.00     0.000 C 
BRANCH   3   4
ATOM      4  C   UNL     1      -5.548   3.198 -37.809  1.00  0.00     0.000 C 
BRANCH   4   5
ATOM      5  C   UNL     1      -6.547   3.949 -36.915  1.00  0.00     0.000 C 
BRANCH   5   6
ATOM      6  C   UNL     1      -6.507   3.412 -35.477  1.00  0.00     0.006 C 
BRANCH   6   7
ATOM      7  C   UNL     1      -7.897   3.394 -34.825  1.00  0.00     0.053 C 
BRANCH   7   8
ATOM      8  C   UNL     1      -8.221   4.701 -34.169  1.00  0.00     0.041 C 
ATOM      9  O   UNL     1      -9.149   5.423 -34.620  1.00  0.00    -0.550 OA
ATOM     10  O   UNL     1      -7.476   5.138 -33.081  1.00  0.00    -0.550 OA
ENDBRANCH   7   8
ENDBRANCH   6   7
ENDBRANCH   5   6
ENDBRANCH   4   5
ENDBRANCH   3   4
ENDBRANCH   2   3
ENDBRANCH   1   2
BRANCH   1  11
ATOM     11  C   UNL     1      -2.489   7.246 -38.023  1.00  0.00     0.000 C 
BRANCH  11  12
ATOM     12  C   UNL     1      -1.655   8.123 -37.074  1.00  0.00    -0.000 C 
BRANCH  12  13
ATOM     13  C   UNL     1      -1.356   7.433 -35.731  1.00  0.00    -0.000 C 
BRANCH  13  14
ATOM     14  C   UNL     1      -2.004   8.089 -34.494  1.00  0.00    -0.000 C 
BRANCH  14  15
ATOM     15  C   UNL     1      -2.776   9.391 -34.773  1.00  0.00    -0.000 C 
BRANCH  15  16
ATOM     16  C   UNL     1      -4.299   9.200 -34.736  1.00  0.00    -0.000 C 
BRANCH  16  17
ATOM     17  C   UNL     1      -4.663   7.723 -34.545  1.00  0.00    -0.003 C 
ATOM     18  C   UNL     1      -5.749   7.291 -35.525  1.00  0.00     0.004 C 
ENDBRANCH  16  17
ENDBRANCH  15  16
ENDBRANCH  14  15
ENDBRANCH  13  14
ENDBRANCH  12  13
ENDBRANCH  11  12
ENDBRANCH   1  11
TORSDOF 14
ENDMDL
MODEL 5
REMARK VINA RESULT:    -4.430      3.248      6.710
REMARK INTER + INTRA:          -9.432
REMARK INTER:                  -7.374
REMARK INTRA:                  -2.059
REMARK UNBOUND:                -1.377
REMARK SMILES CCCCCCCCCCCCCCCC(=O)[O-]
REMARK SMILES IDX 9 1 10 2 11 3 12 4 13 5 14 6 15 7 16 8 17 9 18 10 8 11 7 12
REMARK SMILES IDX 6 13 5 14 4 15 3 16 2 17 1 18
REMARK H PARENT
REMARK Flexibility Score: inf
ROOT
ATOM      1  C   UNL     1      -2.751   6.294 -37.518  1.00  0.00     0.000 C 
ENDROOT
BRANCH   1   2
ATOM      2  C   UNL     1      -4.250   6.099 -37.794  1.00  0.00     0.000 C 
BRANCH   2   3
ATOM      3  C   UNL     1      -5.087   7.115 -37.002  1.00  0.00     0.000 C 
BRANCH   3   4
ATOM      4  C   UNL     1      -5.879   6.467 -35.856  1.00  0.00     0.000 C 
BRANCH   4   5
ATOM      5  C   UNL     1      -6.113   7.427 -34.679  1.00  0.00     0.000 C 
BRANCH   5   6
ATOM      6  C   UNL     1      -6.020   6.684 -33.338  1.00  0.00     0.006 C 
BRANCH   6   7
ATOM      7  C   UNL     1      -7.400   6.440 -32.713  1.00  0.00     0.053 C 
BRANCH   7   8
ATOM      8  C   UNL     1      -8.165   5.382 -33.447  1.00  0.00     0.041 C 
ATOM      9  O   UNL     1      -7.775   4.185 -33.420  1.00  0.00    -0.550 OA
ATOM     10  O   UNL     1      -9.288   5.723 -34.190  1.00  0.00    -0.550 OA
ENDBRANCH   7   8
ENDBRANCH   6   7
ENDBRANCH   5   6
ENDBRANCH   4   5
ENDBRANCH   3   4
ENDBRANCH   2   3
ENDBRANCH   1   2
BRANCH   1  11
ATOM     11  C   UNL     1      -2.343   7.776 -37.477  1.00  0.00     0.000 C 
BRANCH  11  12
ATOM     12  C   UNL     1      -1.162   8.038 -36.527  1.00  0.00    -0.000 C 
BRANCH  12  13
ATOM     13  C   UNL     1      -1.446   7.589 -35.082  1.00  0.00    -0.000 C 
BRANCH  13  14
ATOM     14  C   UNL     1      -2.637   8.290 -34.397  1.00  0.00    -0.000 C 
BRANCH  14  15
ATOM     15  C   UNL     1      -2.313   9.647 -33.747  1.00  0.00    -0.000 C 
BRANCH  15  16
ATOM     16  C   UNL     1      -3.256  10.768 -34.207  1.00  0.00    -0.000 C 
BRANCH  16  17
ATOM     17  C   UNL     1      -4.085  10.326 -35.418  1.00  0.00    -0.003 C 
ATOM     18  C   UNL     1      -3.693  11.106 -36.670  1.00  0.00     0.004 C 
ENDBRANCH  16  17
ENDBRANCH  15  16
ENDBRANCH  14  15
ENDBRANCH  13  14
ENDBRANCH  12  13
ENDBRANCH  11  12
ENDBRANCH   1  11
TORSDOF 14
ENDMDL
MODEL 6
REMARK VINA RESULT:    -4.390     14.963     16.790
REMARK INTER + INTRA:          -9.359
REMARK INTER:                  -7.962
REMARK INTRA:                  -1.397
REMARK UNBOUND:                -1.377
REMARK SMILES CCCCCCCCCCCCCCCC(=O)[O-]
REMARK SMILES IDX 9 1 10 2 11 3 12 4 13 5 14 6 15 7 16 8 17 9 18 10 8 11 7 12
REMARK SMILES IDX 6 13 5 14 4 15 3 16 2 17 1 18
REMARK H PARENT
REMARK Flexibility Score: inf
ROOT
ATOM      1  C   UNL     1     -12.124   1.724 -20.007  1.00  0.00     0.000 C 
ENDROOT
BRANCH   1   2
ATOM      2  C   UNL     1     -10.786   1.647 -19.255  1.00  0.00     0.000 C 
BRANCH   2   3
ATOM      3  C   UNL     1      -9.631   2.129 -20.147  1.00  0.00     0.000 C 
BRANCH   3   4
ATOM      4  C   UNL     1      -8.492   1.102 -20.249  1.00  0.00     0.000 C 
BRANCH   4   5
ATOM      5  C   UNL     1      -8.988  -0.347 -20.124  1.00  0.00     0.000 C 
BRANCH   5   6
ATOM      6  C   UNL     1      -9.533  -0.859 -21.466  1.00  0.00     0.006 C 
BRANCH   6   7
ATOM      7  C   UNL     1     -10.857  -1.618 -21.304  1.00  0.00     0.053 C 
BRANCH   7   8
ATOM      8  C   UNL     1     -11.622  -1.685 -22.590  1.00  0.00     0.041 C 
ATOM      9  O   UNL     1     -12.878  -1.599 -22.585  1.00  0.00    -0.550 OA
ATOM     10  O   UNL     1     -10.950  -1.879 -23.791  1.00  0.00    -0.550 OA
ENDBRANCH   7   8
ENDBRANCH   6   7
ENDBRANCH   5   6
ENDBRANCH   4   5
ENDBRANCH   3   4
ENDBRANCH   2   3
ENDBRANCH   1   2
BRANCH   1  11
ATOM     11  C   UNL     1     -11.945   1.948 -21.517  1.00  0.00     0.000 C 
BRANCH  11  12
ATOM     12  C   UNL     1     -13.194   2.557 -22.177  1.00  0.00    -0.000 C 
BRANCH  12  13
ATOM     13  C   UNL     1     -14.294   2.912 -21.160  1.00  0.00    -0.000 C 
BRANCH  13  14
ATOM     14  C   UNL     1     -15.598   3.469 -21.768  1.00  0.00    -0.000 C 
BRANCH  14  15
ATOM     15  C   UNL     1     -15.968   4.896 -21.327  1.00  0.00    -0.000 C 
BRANCH  15  16
ATOM     16  C   UNL     1     -15.936   5.906 -22.484  1.00  0.00    -0.000 C 
BRANCH  16  17
ATOM     17  C   UNL     1     -15.342   5.273 -23.747  1.00  0.00    -0.003 C 
ATOM     18  C   UNL     1     -15.748   6.050 -24.996  1.00  0.00     0.004 C 
ENDBRANCH  16  17
ENDBRANCH  15  16
ENDBRANCH  14  15
ENDBRANCH  13  14
ENDBRANCH  12  13
ENDBRANCH  11  12
ENDBRANCH   1  11
TORSDOF 14
ENDMDL
MODEL 7
REMARK VINA RESULT:    -4.380      3.099      6.389
REMARK INTER + INTRA:          -9.341
REMARK INTER:                  -7.418
REMARK INTRA:                  -1.923
REMARK UNBOUND:                -1.377
REMARK SMILES CCCCCCCCCCCCCCCC(=O)[O-]
REMARK SMILES IDX 9 1 10 2 11 3 12 4 13 5 14 6 15 7 16 8 17 9 18 10 8 11 7 12
REMARK SMILES IDX 6 13 5 14 4 15 3 16 2 17 1 18
REMARK H PARENT
REMARK Flexibility Score: inf
ROOT
ATOM      1  C   UNL     1      -5.246   5.566 -36.809  1.00  0.00     0.000 C 
ENDROOT
BRANCH   1   2
ATOM      2  C   UNL     1      -6.114   6.826 -36.663  1.00  0.00     0.000 C 
BRANCH   2   3
ATOM      3  C   UNL     1      -5.768   7.581 -35.371  1.00  0.00     0.000 C 
BRANCH   3   4
ATOM      4  C   UNL     1      -5.684   6.655 -34.147  1.00  0.00     0.000 C 
BRANCH   4   5
ATOM      5  C   UNL     1      -6.888   6.808 -33.204  1.00  0.00     0.000 C 
BRANCH   5   6
ATOM      6  C   UNL     1      -7.642   5.478 -33.056  1.00  0.00     0.006 C 
BRANCH   6   7
ATOM      7  C   UNL     1      -8.465   5.136 -34.305  1.00  0.00     0.053 C 
BRANCH   7   8
ATOM      8  C   UNL     1      -8.283   3.707 -34.718  1.00  0.00     0.041 C 
ATOM      9  O   UNL     1      -9.287   2.976 -34.930  1.00  0.00    -0.550 OA
ATOM     10  O   UNL     1      -7.006   3.173 -34.834  1.00  0.00    -0.550 OA
ENDBRANCH   7   8
ENDBRANCH   6   7
ENDBRANCH   5   6
ENDBRANCH   4   5
ENDBRANCH   3   4
ENDBRANCH   2   3
ENDBRANCH   1   2
BRANCH   1  11
ATOM     11  C   UNL     1      -4.292   5.638 -38.012  1.00  0.00     0.000 C 
BRANCH  11  12
ATOM     12  C   UNL     1      -2.851   5.985 -37.603  1.00  0.00    -0.000 C 
BRANCH  12  13
ATOM     13  C   UNL     1      -2.462   7.433 -37.951  1.00  0.00    -0.000 C 
BRANCH  13  14
ATOM     14  C   UNL     1      -2.222   8.360 -36.741  1.00  0.00    -0.000 C 
BRANCH  14  15
ATOM     15  C   UNL     1      -1.386   7.747 -35.604  1.00  0.00    -0.000 C 
BRANCH  15  16
ATOM     16  C   UNL     1      -1.893   8.145 -34.210  1.00  0.00    -0.000 C 
BRANCH  16  17
ATOM     17  C   UNL     1      -2.856   9.335 -34.296  1.00  0.00    -0.003 C 
ATOM     18  C   UNL     1      -2.454  10.441 -33.325  1.00  0.00     0.004 C 
ENDBRANCH  16  17
ENDBRANCH  15  16
ENDBRANCH  14  15
ENDBRANCH  13  14
ENDBRANCH  12  13
ENDBRANCH  11  12
ENDBRANCH   1  11
TORSDOF 14
ENDMDL
MODEL 8
REMARK VINA RESULT:    -4.379     14.759     16.175
REMARK INTER + INTRA:          -9.339
REMARK INTER:                  -7.691
REMARK INTRA:                  -1.648
REMARK UNBOUND:                -1.377
REMARK SMILES CCCCCCCCCCCCCCCC(=O)[O-]
REMARK SMILES IDX 9 1 10 2 11 3 12 4 13 5 14 6 15 7 16 8 17 9 18 10 8 11 7 12
REMARK SMILES IDX 6 13 5 14 4 15 3 16 2 17 1 18
REMARK H PARENT
REMARK Flexibility Score: inf
ROOT
ATOM      1  C   UNL     1     -11.972   1.594 -19.952  1.00  0.00     0.000 C 
ENDROOT
BRANCH   1   2
ATOM      2  C   UNL     1     -11.956   1.815 -21.473  1.00  0.00     0.000 C 
BRANCH   2   3
ATOM      3  C   UNL     1     -13.045   2.816 -21.889  1.00  0.00     0.000 C 
BRANCH   3   4
ATOM      4  C   UNL     1     -14.246   2.138 -22.568  1.00  0.00     0.000 C 
BRANCH   4   5
ATOM      5  C   UNL     1     -15.557   2.913 -22.366  1.00  0.00     0.000 C 
BRANCH   5   6
ATOM      6  C   UNL     1     -15.292   4.281 -21.719  1.00  0.00     0.006 C 
BRANCH   6   7
ATOM      7  C   UNL     1     -15.787   5.442 -22.593  1.00  0.00     0.053 C 
BRANCH   7   8
ATOM      8  C   UNL     1     -14.949   5.609 -23.823  1.00  0.00     0.041 C 
ATOM      9  O   UNL     1     -15.488   5.601 -24.962  1.00  0.00    -0.550 OA
ATOM     10  O   UNL     1     -13.570   5.739 -23.715  1.00  0.00    -0.550 OA
ENDBRANCH   7   8
ENDBRANCH   6   7
ENDBRANCH   5   6
ENDBRANCH   4   5
ENDBRANCH   3   4
ENDBRANCH   2   3
ENDBRANCH   1   2
BRANCH   1  11
ATOM     11  C   UNL     1     -10.596   1.819 -19.305  1.00  0.00     0.000 C 
BRANCH  11  12
ATOM     12  C   UNL     1      -9.505   2.152 -20.337  1.00  0.00    -0.000 C 
BRANCH  12  13
ATOM     13  C   UNL     1      -8.302   1.193 -20.267  1.00  0.00    -0.000 C 
BRANCH  13  14
ATOM     14  C   UNL     1      -8.659  -0.304 -20.172  1.00  0.00    -0.000 C 
BRANCH  14  15
ATOM     15  C   UNL     1      -9.471  -0.860 -21.356  1.00  0.00    -0.000 C 
BRANCH  15  16
ATOM     16  C   UNL     1     -10.691  -1.679 -20.910  1.00  0.00    -0.000 C 
BRANCH  16  17
ATOM     17  C   UNL     1     -11.661  -1.898 -22.077  1.00  0.00    -0.003 C 
ATOM     18  C   UNL     1     -10.997  -1.581 -23.413  1.00  0.00     0.004 C 
ENDBRANCH  16  17
ENDBRANCH  15  16
ENDBRANCH  14  15
ENDBRANCH  13  14
ENDBRANCH  12  13
ENDBRANCH  11  12
ENDBRANCH   1  11
TORSDOF 14
ENDMDL
MODEL 9
REMARK VINA RESULT:    -4.334     14.454     15.999
REMARK INTER + INTRA:          -9.258
REMARK INTER:                  -7.452
REMARK INTRA:                  -1.806
REMARK UNBOUND:                -1.377
REMARK SMILES CCCCCCCCCCCCCCCC(=O)[O-]
REMARK SMILES IDX 9 1 10 2 11 3 12 4 13 5 14 6 15 7 16 8 17 9 18 10 8 11 7 12
REMARK SMILES IDX 6 13 5 14 4 15 3 16 2 17 1 18
REMARK H PARENT
REMARK Flexibility Score: inf
ROOT
ATOM      1  C   UNL     1      -8.750   1.429 -21.315  1.00  0.00     0.000 C 
ENDROOT
BRANCH   1   2
ATOM      2  C   UNL     1     -10.142   2.056 -21.487  1.00  0.00     0.000 C 
BRANCH   2   3
ATOM      3  C   UNL     1     -10.952   1.950 -20.185  1.00  0.00     0.000 C 
BRANCH   3   4
ATOM      4  C   UNL     1     -12.448   1.702 -20.436  1.00  0.00     0.000 C 
BRANCH   4   5
ATOM      5  C   UNL     1     -12.873   2.046 -21.872  1.00  0.00     0.000 C 
BRANCH   5   6
ATOM      6  C   UNL     1     -14.115   2.949 -21.876  1.00  0.00     0.006 C 
BRANCH   6   7
ATOM      7  C   UNL     1     -14.602   3.262 -23.297  1.00  0.00     0.053 C 
BRANCH   7   8
ATOM      8  C   UNL     1     -14.423   4.708 -23.642  1.00  0.00     0.041 C 
ATOM      9  O   UNL     1     -13.626   5.424 -22.979  1.00  0.00    -0.550 OA
ATOM     10  O   UNL     1     -15.162   5.275 -24.673  1.00  0.00    -0.550 OA
ENDBRANCH   7   8
ENDBRANCH   6   7
ENDBRANCH   5   6
ENDBRANCH   4   5
ENDBRANCH   3   4
ENDBRANCH   2   3
ENDBRANCH   1   2
BRANCH   1  11
ATOM     11  C   UNL     1      -8.642   0.558 -20.053  1.00  0.00     0.000 C 
BRANCH  11  12
ATOM     12  C   UNL     1      -8.747  -0.945 -20.361  1.00  0.00    -0.000 C 
BRANCH  12  13
ATOM     13  C   UNL     1     -10.055  -1.571 -19.844  1.00  0.00    -0.000 C 
BRANCH  13  14
ATOM     14  C   UNL     1     -10.643  -2.691 -20.727  1.00  0.00    -0.000 C 
BRANCH  14  15
ATOM     15  C   UNL     1     -11.936  -2.323 -21.477  1.00  0.00    -0.000 C 
BRANCH  15  16
ATOM     16  C   UNL     1     -11.703  -1.306 -22.603  1.00  0.00    -0.000 C 
BRANCH  16  17
ATOM     17  C   UNL     1     -10.527  -1.731 -23.491  1.00  0.00    -0.003 C 
ATOM     18  C   UNL     1     -11.015  -2.443 -24.749  1.00  0.00     0.004 C 
ENDBRANCH  16  17
ENDBRANCH  15  16
ENDBRANCH  14  15
ENDBRANCH  13  14
ENDBRANCH  12  13
ENDBRANCH  11  12
ENDBRANCH   1  11
TORSDOF 14
ENDMDL
