MODEL 1
REMARK VINA RESULT:    -5.979      0.000      0.000
REMARK INTER + INTRA:          -7.375
REMARK INTER:                  -7.202
REMARK INTRA:                  -0.173
REMARK UNBOUND:                -0.173
REMARK SMILES O=c1c(O)c(-c2ccc(O)c(O)c2)oc2cc(O)cc(O)c12
REMARK SMILES IDX 5 1 3 2 2 3 1 4 22 5 20 6 19 7 17 8 16 9 15 10 14 11 6 12
REMARK SMILES IDX 7 13 8 14 9 15 13 16 11 17 10 18 12 20 4 22 21 24 18 26
REMARK H PARENT 10 19 12 21 4 23 21 25 18 27
REMARK Flexibility Score: inf
ROOT
ATOM      1  C   UNL     1     -20.079  -9.259   5.661  1.00  0.00     0.180 A 
ATOM      2  C   UNL     1     -20.526  -9.436   6.982  1.00  0.00     0.208 A 
ATOM      3  C   UNL     1     -20.202 -10.625   7.656  1.00  0.00     0.238 A 
ATOM      4  O   UNL     1     -20.558 -10.756   8.856  1.00  0.00    -0.285 OA
ATOM      5  C   UNL     1     -19.451 -11.627   6.996  1.00  0.00     0.111 A 
ATOM      6  C   UNL     1     -19.100 -12.887   7.570  1.00  0.00     0.134 A 
ATOM      7  C   UNL     1     -18.243 -13.747   6.873  1.00  0.00     0.093 A 
ATOM      8  C   UNL     1     -17.777 -13.425   5.599  1.00  0.00     0.123 A 
ATOM      9  C   UNL     1     -18.162 -12.223   5.004  1.00  0.00     0.094 A 
ATOM     10  C   UNL     1     -18.987 -11.327   5.689  1.00  0.00     0.146 A 
ATOM     11  O   UNL     1     -19.320 -10.189   5.093  1.00  0.00    -0.452 OA
ENDROOT
BRANCH   1  12
ATOM     12  C   UNL     1     -20.401  -8.045   4.877  1.00  0.00     0.025 A 
ATOM     13  C   UNL     1     -21.728  -7.713   4.553  1.00  0.00     0.016 A 
ATOM     14  C   UNL     1     -22.006  -6.575   3.792  1.00  0.00     0.051 A 
ATOM     15  C   UNL     1     -20.963  -5.759   3.331  1.00  0.00     0.157 A 
ATOM     16  C   UNL     1     -19.358  -7.236   4.395  1.00  0.00     0.062 A 
ATOM     17  C   UNL     1     -19.633  -6.095   3.633  1.00  0.00     0.158 A 
BRANCH  15  18
ATOM     18  O   UNL     1     -21.244  -4.624   2.573  1.00  0.00    -0.504 OA
ATOM     19  H   UNL     1     -21.818  -3.873   2.936  1.00  0.00     0.293 HD
ENDBRANCH  15  18
BRANCH  17  20
ATOM     20  O   UNL     1     -18.572  -5.309   3.184  1.00  0.00    -0.504 OA
ATOM     21  H   UNL     1     -18.469  -4.338   3.456  1.00  0.00     0.293 HD
ENDBRANCH  17  20
ENDBRANCH   1  12
BRANCH   2  22
ATOM     22  O   UNL     1     -21.248  -8.426   7.622  1.00  0.00    -0.502 OA
ATOM     23  H   UNL     1     -21.033  -7.444   7.502  1.00  0.00     0.293 HD
ENDBRANCH   2  22
BRANCH   6  24
ATOM     24  O   UNL     1     -19.585 -13.348   8.797  1.00  0.00    -0.507 OA
ATOM     25  H   UNL     1     -20.137 -14.183   8.920  1.00  0.00     0.293 HD
ENDBRANCH   6  24
BRANCH   8  26
ATOM     26  O   UNL     1     -16.938 -14.313   4.929  1.00  0.00    -0.508 OA
ATOM     27  H   UNL     1     -16.288 -13.995   4.219  1.00  0.00     0.293 HD
ENDBRANCH   8  26
TORSDOF 6
ENDMDL
MODEL 2
REMARK VINA RESULT:    -5.935      9.917     12.166
REMARK INTER + INTRA:          -7.323
REMARK INTER:                  -7.037
REMARK INTRA:                  -0.286
REMARK UNBOUND:                -0.173
REMARK SMILES O=c1c(O)c(-c2ccc(O)c(O)c2)oc2cc(O)cc(O)c12
REMARK SMILES IDX 5 1 3 2 2 3 1 4 22 5 20 6 19 7 17 8 16 9 15 10 14 11 6 12
REMARK SMILES IDX 7 13 8 14 9 15 13 16 11 17 10 18 12 20 4 22 21 24 18 26
REMARK H PARENT 10 19 12 21 4 23 21 25 18 27
REMARK Flexibility Score: inf
ROOT
ATOM      1  C   UNL     1     -19.372 -10.915  -4.389  1.00  0.00     0.180 A 
ATOM      2  C   UNL     1     -18.728 -11.863  -5.204  1.00  0.00     0.208 A 
ATOM      3  C   UNL     1     -19.208 -12.078  -6.506  1.00  0.00     0.238 A 
ATOM      4  O   UNL     1     -18.595 -12.887  -7.250  1.00  0.00    -0.285 OA
ATOM      5  C   UNL     1     -20.334 -11.357  -6.970  1.00  0.00     0.111 A 
ATOM      6  C   UNL     1     -20.929 -11.524  -8.257  1.00  0.00     0.134 A 
ATOM      7  C   UNL     1     -21.959 -10.664  -8.658  1.00  0.00     0.093 A 
ATOM      8  C   UNL     1     -22.458  -9.687  -7.797  1.00  0.00     0.123 A 
ATOM      9  C   UNL     1     -21.924  -9.555  -6.515  1.00  0.00     0.094 A 
ATOM     10  C   UNL     1     -20.872 -10.374  -6.099  1.00  0.00     0.146 A 
ATOM     11  O   UNL     1     -20.384 -10.208  -4.876  1.00  0.00    -0.452 OA
ENDROOT
BRANCH   1  12
ATOM     12  C   UNL     1     -18.939 -10.651  -2.998  1.00  0.00     0.025 A 
ATOM     13  C   UNL     1     -18.131  -9.545  -2.680  1.00  0.00     0.016 A 
ATOM     14  C   UNL     1     -17.715  -9.331  -1.363  1.00  0.00     0.051 A 
ATOM     15  C   UNL     1     -18.088 -10.222  -0.348  1.00  0.00     0.157 A 
ATOM     16  C   UNL     1     -19.293 -11.554  -1.981  1.00  0.00     0.062 A 
ATOM     17  C   UNL     1     -18.878 -11.340  -0.661  1.00  0.00     0.158 A 
BRANCH  15  18
ATOM     18  O   UNL     1     -17.672 -10.003   0.965  1.00  0.00    -0.504 OA
ATOM     19  H   UNL     1     -17.823 -10.693   1.690  1.00  0.00     0.293 HD
ENDBRANCH  15  18
BRANCH  17  20
ATOM     20  O   UNL     1     -19.260 -12.251   0.324  1.00  0.00    -0.504 OA
ATOM     21  H   UNL     1     -20.022 -12.063   0.965  1.00  0.00     0.293 HD
ENDBRANCH  17  20
ENDBRANCH   1  12
BRANCH   2  22
ATOM     22  O   UNL     1     -17.605 -12.549  -4.734  1.00  0.00    -0.502 OA
ATOM     23  H   UNL     1     -17.669 -13.453  -4.283  1.00  0.00     0.293 HD
ENDBRANCH   2  22
BRANCH   6  24
ATOM     24  O   UNL     1     -20.568 -12.529  -9.160  1.00  0.00    -0.507 OA
ATOM     25  H   UNL     1     -20.764 -12.510 -10.149  1.00  0.00     0.293 HD
ENDBRANCH   6  24
BRANCH   8  26
ATOM     26  O   UNL     1     -23.495  -8.860  -8.224  1.00  0.00    -0.508 OA
ATOM     27  H   UNL     1     -24.400  -9.236  -8.486  1.00  0.00     0.293 HD
ENDBRANCH   8  26
TORSDOF 6
ENDMDL
MODEL 3
REMARK VINA RESULT:    -5.692      1.683      2.164
REMARK INTER + INTRA:          -7.030
REMARK INTER:                  -6.697
REMARK INTRA:                  -0.333
REMARK UNBOUND:                -0.173
REMARK SMILES O=c1c(O)c(-c2ccc(O)c(O)c2)oc2cc(O)cc(O)c12
REMARK SMILES IDX 5 1 3 2 2 3 1 4 22 5 20 6 19 7 17 8 16 9 15 10 14 11 6 12
REMARK SMILES IDX 7 13 8 14 9 15 13 16 11 17 10 18 12 20 4 22 21 24 18 26
REMARK H PARENT 10 19 12 21 4 23 21 25 18 27
REMARK Flexibility Score: inf
ROOT
ATOM      1  C   UNL     1     -21.205  -8.541   6.579  1.00  0.00     0.180 A 
ATOM      2  C   UNL     1     -22.108  -8.500   7.656  1.00  0.00     0.208 A 
ATOM      3  C   UNL     1     -22.171  -9.596   8.533  1.00  0.00     0.238 A 
ATOM      4  O   UNL     1     -22.941  -9.531   9.526  1.00  0.00    -0.285 OA
ATOM      5  C   UNL     1     -21.345 -10.724   8.311  1.00  0.00     0.111 A 
ATOM      6  C   UNL     1     -21.356 -11.906   9.112  1.00  0.00     0.134 A 
ATOM      7  C   UNL     1     -20.404 -12.906   8.879  1.00  0.00     0.093 A 
ATOM      8  C   UNL     1     -19.485 -12.797   7.836  1.00  0.00     0.123 A 
ATOM      9  C   UNL     1     -19.505 -11.674   7.009  1.00  0.00     0.094 A 
ATOM     10  C   UNL     1     -20.419 -10.643   7.239  1.00  0.00     0.146 A 
ATOM     11  O   UNL     1     -20.397  -9.585   6.437  1.00  0.00    -0.452 OA
ENDROOT
BRANCH   1  12
ATOM     12  C   UNL     1     -21.098  -7.436   5.600  1.00  0.00     0.025 A 
ATOM     13  C   UNL     1     -21.930  -7.378   4.467  1.00  0.00     0.016 A 
ATOM     14  C   UNL     1     -21.793  -6.339   3.544  1.00  0.00     0.051 A 
ATOM     15  C   UNL     1     -20.818  -5.349   3.729  1.00  0.00     0.157 A 
ATOM     16  C   UNL     1     -20.108  -6.454   5.770  1.00  0.00     0.062 A 
ATOM     17  C   UNL     1     -19.970  -5.411   4.848  1.00  0.00     0.158 A 
BRANCH  15  18
ATOM     18  O   UNL     1     -20.686  -4.313   2.807  1.00  0.00    -0.504 OA
ATOM     19  H   UNL     1     -20.262  -3.429   3.059  1.00  0.00     0.293 HD
ENDBRANCH  15  18
BRANCH  17  20
ATOM     20  O   UNL     1     -18.984  -4.447   5.058  1.00  0.00    -0.504 OA
ATOM     21  H   UNL     1     -18.625  -3.871   4.305  1.00  0.00     0.293 HD
ENDBRANCH  17  20
ENDBRANCH   1  12
BRANCH   2  22
ATOM     22  O   UNL     1     -22.898  -7.368   7.869  1.00  0.00    -0.502 OA
ATOM     23  H   UNL     1     -23.833  -7.422   8.253  1.00  0.00     0.293 HD
ENDBRANCH   2  22
BRANCH   6  24
ATOM     24  O   UNL     1     -22.291 -12.156  10.122  1.00  0.00    -0.507 OA
ATOM     25  H   UNL     1     -22.991 -11.500  10.431  1.00  0.00     0.293 HD
ENDBRANCH   6  24
BRANCH   8  26
ATOM     26  O   UNL     1     -18.562 -13.819   7.624  1.00  0.00    -0.508 OA
ATOM     27  H   UNL     1     -17.941 -13.815   6.822  1.00  0.00     0.293 HD
ENDBRANCH   8  26
TORSDOF 6
ENDMDL
MODEL 4
REMARK VINA RESULT:    -5.643     12.204     15.245
REMARK INTER + INTRA:          -6.970
REMARK INTER:                  -6.707
REMARK INTRA:                  -0.263
REMARK UNBOUND:                -0.173
REMARK SMILES O=c1c(O)c(-c2ccc(O)c(O)c2)oc2cc(O)cc(O)c12
REMARK SMILES IDX 5 1 3 2 2 3 1 4 22 5 20 6 19 7 17 8 16 9 15 10 14 11 6 12
REMARK SMILES IDX 7 13 8 14 9 15 13 16 11 17 10 18 12 20 4 22 21 24 18 26
REMARK H PARENT 10 19 12 21 4 23 21 25 18 27
REMARK Flexibility Score: inf
ROOT
ATOM      1  C   UNL     1     -13.198 -15.711  -5.260  1.00  0.00     0.180 A 
ATOM      2  C   UNL     1     -12.394 -15.766  -6.412  1.00  0.00     0.208 A 
ATOM      3  C   UNL     1     -12.995 -16.058  -7.647  1.00  0.00     0.238 A 
ATOM      4  O   UNL     1     -12.281 -16.052  -8.684  1.00  0.00    -0.285 OA
ATOM      5  C   UNL     1     -14.387 -16.307  -7.713  1.00  0.00     0.111 A 
ATOM      6  C   UNL     1     -15.095 -16.651  -8.904  1.00  0.00     0.134 A 
ATOM      7  C   UNL     1     -16.491 -16.747  -8.874  1.00  0.00     0.093 A 
ATOM      8  C   UNL     1     -17.200 -16.575  -7.686  1.00  0.00     0.123 A 
ATOM      9  C   UNL     1     -16.514 -16.297  -6.504  1.00  0.00     0.094 A 
ATOM     10  C   UNL     1     -15.124 -16.160  -6.508  1.00  0.00     0.146 A 
ATOM     11  O   UNL     1     -14.510 -15.884  -5.364  1.00  0.00    -0.452 OA
ENDROOT
BRANCH   1  12
ATOM     12  C   UNL     1     -12.634 -15.434  -3.919  1.00  0.00     0.025 A 
ATOM     13  C   UNL     1     -11.869 -16.394  -3.234  1.00  0.00     0.016 A 
ATOM     14  C   UNL     1     -11.367 -16.118  -1.960  1.00  0.00     0.051 A 
ATOM     15  C   UNL     1     -11.632 -14.887  -1.345  1.00  0.00     0.157 A 
ATOM     16  C   UNL     1     -12.915 -14.209  -3.290  1.00  0.00     0.062 A 
ATOM     17  C   UNL     1     -12.413 -13.931  -2.014  1.00  0.00     0.158 A 
BRANCH  15  18
ATOM     18  O   UNL     1     -11.129 -14.616  -0.073  1.00  0.00    -0.504 OA
ATOM     19  H   UNL     1     -11.489 -13.854   0.488  1.00  0.00     0.293 HD
ENDBRANCH  15  18
BRANCH  17  20
ATOM     20  O   UNL     1     -12.701 -12.698  -1.427  1.00  0.00    -0.504 OA
ATOM     21  H   UNL     1     -12.154 -11.868  -1.622  1.00  0.00     0.293 HD
ENDBRANCH  17  20
ENDBRANCH   1  12
BRANCH   2  22
ATOM     22  O   UNL     1     -11.026 -15.496  -6.329  1.00  0.00    -0.502 OA
ATOM     23  H   UNL     1     -10.360 -15.852  -7.003  1.00  0.00     0.293 HD
ENDBRANCH   2  22
BRANCH   6  24
ATOM     24  O   UNL     1     -14.475 -16.935 -10.125  1.00  0.00    -0.507 OA
ATOM     25  H   UNL     1     -14.351 -16.271 -10.874  1.00  0.00     0.293 HD
ENDBRANCH   6  24
BRANCH   8  26
ATOM     26  O   UNL     1     -18.588 -16.693  -7.692  1.00  0.00    -0.508 OA
ATOM     27  H   UNL     1     -19.176 -16.014  -8.164  1.00  0.00     0.293 HD
ENDBRANCH   8  26
TORSDOF 6
ENDMDL
MODEL 5
REMARK VINA RESULT:    -5.605     12.967     14.753
REMARK INTER + INTRA:          -6.925
REMARK INTER:                  -6.667
REMARK INTRA:                  -0.257
REMARK UNBOUND:                -0.173
REMARK SMILES O=c1c(O)c(-c2ccc(O)c(O)c2)oc2cc(O)cc(O)c12
REMARK SMILES IDX 5 1 3 2 2 3 1 4 22 5 20 6 19 7 17 8 16 9 15 10 14 11 6 12
REMARK SMILES IDX 7 13 8 14 9 15 13 16 11 17 10 18 12 20 4 22 21 24 18 26
REMARK H PARENT 10 19 12 21 4 23 21 25 18 27
REMARK Flexibility Score: inf
ROOT
ATOM      1  C   UNL     1     -17.107 -15.680  -6.769  1.00  0.00     0.180 A 
ATOM      2  C   UNL     1     -16.691 -15.396  -5.456  1.00  0.00     0.208 A 
ATOM      3  C   UNL     1     -15.321 -15.451  -5.151  1.00  0.00     0.238 A 
ATOM      4  O   UNL     1     -14.948 -15.143  -3.989  1.00  0.00    -0.285 OA
ATOM      5  C   UNL     1     -14.388 -15.806  -6.155  1.00  0.00     0.111 A 
ATOM      6  C   UNL     1     -12.982 -15.932  -5.947  1.00  0.00     0.134 A 
ATOM      7  C   UNL     1     -12.140 -16.160  -7.042  1.00  0.00     0.093 A 
ATOM      8  C   UNL     1     -12.657 -16.331  -8.326  1.00  0.00     0.123 A 
ATOM      9  C   UNL     1     -14.036 -16.269  -8.531  1.00  0.00     0.094 A 
ATOM     10  C   UNL     1     -14.899 -16.007  -7.464  1.00  0.00     0.146 A 
ATOM     11  O   UNL     1     -16.203 -15.944  -7.704  1.00  0.00    -0.452 OA
ENDROOT
BRANCH   1  12
ATOM     12  C   UNL     1     -18.535 -15.666  -7.161  1.00  0.00     0.025 A 
ATOM     13  C   UNL     1     -19.240 -16.858  -7.403  1.00  0.00     0.016 A 
ATOM     14  C   UNL     1     -20.580 -16.819  -7.796  1.00  0.00     0.051 A 
ATOM     15  C   UNL     1     -21.232 -15.590  -7.967  1.00  0.00     0.157 A 
ATOM     16  C   UNL     1     -19.187 -14.436  -7.354  1.00  0.00     0.062 A 
ATOM     17  C   UNL     1     -20.529 -14.394  -7.747  1.00  0.00     0.158 A 
BRANCH  15  18
ATOM     18  O   UNL     1     -22.570 -15.555  -8.358  1.00  0.00    -0.504 OA
ATOM     19  H   UNL     1     -23.279 -16.087  -7.869  1.00  0.00     0.293 HD
ENDBRANCH  15  18
BRANCH  17  20
ATOM     20  O   UNL     1     -21.147 -13.155  -7.915  1.00  0.00    -0.504 OA
ATOM     21  H   UNL     1     -20.696 -12.390  -8.403  1.00  0.00     0.293 HD
ENDBRANCH  17  20
ENDBRANCH   1  12
BRANCH   2  22
ATOM     22  O   UNL     1     -17.625 -15.027  -4.485  1.00  0.00    -0.502 OA
ATOM     23  H   UNL     1     -18.615 -14.951  -4.684  1.00  0.00     0.293 HD
ENDBRANCH   2  22
BRANCH   6  24
ATOM     24  O   UNL     1     -12.370 -15.871  -4.691  1.00  0.00    -0.507 OA
ATOM     25  H   UNL     1     -11.993 -16.665  -4.196  1.00  0.00     0.293 HD
ENDBRANCH   6  24
BRANCH   8  26
ATOM     26  O   UNL     1     -11.790 -16.572  -9.389  1.00  0.00    -0.508 OA
ATOM     27  H   UNL     1     -12.121 -16.598 -10.348  1.00  0.00     0.293 HD
ENDBRANCH   8  26
TORSDOF 6
ENDMDL
MODEL 6
REMARK VINA RESULT:    -5.578     12.648     15.300
REMARK INTER + INTRA:          -6.892
REMARK INTER:                  -6.568
REMARK INTRA:                  -0.324
REMARK UNBOUND:                -0.173
REMARK SMILES O=c1c(O)c(-c2ccc(O)c(O)c2)oc2cc(O)cc(O)c12
REMARK SMILES IDX 5 1 3 2 2 3 1 4 22 5 20 6 19 7 17 8 16 9 15 10 14 11 6 12
REMARK SMILES IDX 7 13 8 14 9 15 13 16 11 17 10 18 12 20 4 22 21 24 18 26
REMARK H PARENT 10 19 12 21 4 23 21 25 18 27
REMARK Flexibility Score: inf
ROOT
ATOM      1  C   UNL     1     -17.057 -15.892  -6.520  1.00  0.00     0.180 A 
ATOM      2  C   UNL     1     -17.291 -16.852  -7.521  1.00  0.00     0.208 A 
ATOM      3  C   UNL     1     -18.368 -16.667  -8.403  1.00  0.00     0.238 A 
ATOM      4  O   UNL     1     -18.540 -17.500  -9.330  1.00  0.00    -0.285 OA
ATOM      5  C   UNL     1     -19.207 -15.535  -8.263  1.00  0.00     0.111 A 
ATOM      6  C   UNL     1     -20.350 -15.268  -9.075  1.00  0.00     0.134 A 
ATOM      7  C   UNL     1     -21.029 -14.052  -8.932  1.00  0.00     0.093 A 
ATOM      8  C   UNL     1     -20.648 -13.123  -7.965  1.00  0.00     0.123 A 
ATOM      9  C   UNL     1     -19.569 -13.400  -7.125  1.00  0.00     0.094 A 
ATOM     10  C   UNL     1     -18.849 -14.588  -7.268  1.00  0.00     0.146 A 
ATOM     11  O   UNL     1     -17.821 -14.808  -6.457  1.00  0.00    -0.452 OA
ENDROOT
BRANCH   1  12
ATOM     12  C   UNL     1     -15.957 -16.031  -5.539  1.00  0.00     0.025 A 
ATOM     13  C   UNL     1     -16.168 -16.621  -4.281  1.00  0.00     0.016 A 
ATOM     14  C   UNL     1     -15.121 -16.719  -3.362  1.00  0.00     0.051 A 
ATOM     15  C   UNL     1     -13.851 -16.217  -3.679  1.00  0.00     0.157 A 
ATOM     16  C   UNL     1     -14.688 -15.509  -5.844  1.00  0.00     0.062 A 
ATOM     17  C   UNL     1     -13.637 -15.606  -4.926  1.00  0.00     0.158 A 
BRANCH  15  18
ATOM     18  O   UNL     1     -12.808 -16.317  -2.759  1.00  0.00    -0.504 OA
ATOM     19  H   UNL     1     -12.515 -17.211  -2.385  1.00  0.00     0.293 HD
ENDBRANCH  15  18
BRANCH  17  20
ATOM     20  O   UNL     1     -12.388 -15.089  -5.269  1.00  0.00    -0.504 OA
ATOM     21  H   UNL     1     -11.550 -15.315  -4.747  1.00  0.00     0.293 HD
ENDBRANCH  17  20
ENDBRANCH   1  12
BRANCH   2  22
ATOM     22  O   UNL     1     -16.438 -17.950  -7.655  1.00  0.00    -0.502 OA
ATOM     23  H   UNL     1     -16.200 -18.347  -8.555  1.00  0.00     0.293 HD
ENDBRANCH   2  22
BRANCH   6  24
ATOM     24  O   UNL     1     -20.872 -16.169 -10.009  1.00  0.00    -0.507 OA
ATOM     25  H   UNL     1     -21.703 -16.010 -10.557  1.00  0.00     0.293 HD
ENDBRANCH   6  24
BRANCH   8  26
ATOM     26  O   UNL     1     -21.358 -11.930  -7.840  1.00  0.00    -0.508 OA
ATOM     27  H   UNL     1     -21.810 -11.497  -8.638  1.00  0.00     0.293 HD
ENDBRANCH   8  26
TORSDOF 6
ENDMDL
MODEL 7
REMARK VINA RESULT:    -5.528     12.976     14.698
REMARK INTER + INTRA:          -6.832
REMARK INTER:                  -6.546
REMARK INTRA:                  -0.286
REMARK UNBOUND:                -0.173
REMARK SMILES O=c1c(O)c(-c2ccc(O)c(O)c2)oc2cc(O)cc(O)c12
REMARK SMILES IDX 5 1 3 2 2 3 1 4 22 5 20 6 19 7 17 8 16 9 15 10 14 11 6 12
REMARK SMILES IDX 7 13 8 14 9 15 13 16 11 17 10 18 12 20 4 22 21 24 18 26
REMARK H PARENT 10 19 12 21 4 23 21 25 18 27
REMARK Flexibility Score: inf
ROOT
ATOM      1  C   UNL     1     -17.201 -15.773  -7.043  1.00  0.00     0.180 A 
ATOM      2  C   UNL     1     -16.203 -15.304  -7.915  1.00  0.00     0.208 A 
ATOM      3  C   UNL     1     -14.876 -15.240  -7.459  1.00  0.00     0.238 A 
ATOM      4  O   UNL     1     -13.979 -14.871  -8.261  1.00  0.00    -0.285 OA
ATOM      5  C   UNL     1     -14.567 -15.629  -6.133  1.00  0.00     0.111 A 
ATOM      6  C   UNL     1     -13.265 -15.567  -5.553  1.00  0.00     0.134 A 
ATOM      7  C   UNL     1     -13.052 -16.101  -4.277  1.00  0.00     0.093 A 
ATOM      8  C   UNL     1     -14.104 -16.634  -3.534  1.00  0.00     0.123 A 
ATOM      9  C   UNL     1     -15.393 -16.645  -4.067  1.00  0.00     0.094 A 
ATOM     10  C   UNL     1     -15.631 -16.153  -5.353  1.00  0.00     0.146 A 
ATOM     11  O   UNL     1     -16.869 -16.192  -5.828  1.00  0.00    -0.452 OA
ENDROOT
BRANCH   1  12
ATOM     12  C   UNL     1     -18.625 -15.846  -7.444  1.00  0.00     0.025 A 
ATOM     13  C   UNL     1     -19.208 -17.056  -7.860  1.00  0.00     0.016 A 
ATOM     14  C   UNL     1     -20.546 -17.094  -8.257  1.00  0.00     0.051 A 
ATOM     15  C   UNL     1     -21.320 -15.925  -8.257  1.00  0.00     0.157 A 
ATOM     16  C   UNL     1     -19.398 -14.672  -7.465  1.00  0.00     0.062 A 
ATOM     17  C   UNL     1     -20.740 -14.709  -7.861  1.00  0.00     0.158 A 
BRANCH  15  18
ATOM     18  O   UNL     1     -22.656 -15.969  -8.652  1.00  0.00    -0.504 OA
ATOM     19  H   UNL     1     -23.405 -15.722  -8.017  1.00  0.00     0.293 HD
ENDBRANCH  15  18
BRANCH  17  20
ATOM     20  O   UNL     1     -21.479 -13.526  -7.857  1.00  0.00    -0.504 OA
ATOM     21  H   UNL     1     -22.440 -13.493  -7.536  1.00  0.00     0.293 HD
ENDBRANCH  17  20
ENDBRANCH   1  12
BRANCH   2  22
ATOM     22  O   UNL     1     -16.526 -14.945  -9.227  1.00  0.00    -0.502 OA
ATOM     23  H   UNL     1     -17.306 -15.354  -9.726  1.00  0.00     0.293 HD
ENDBRANCH   2  22
BRANCH   6  24
ATOM     24  O   UNL     1     -12.162 -14.971  -6.173  1.00  0.00    -0.507 OA
ATOM     25  H   UNL     1     -12.184 -14.522  -7.076  1.00  0.00     0.293 HD
ENDBRANCH   6  24
BRANCH   8  26
ATOM     26  O   UNL     1     -13.858 -17.142  -2.260  1.00  0.00    -0.508 OA
ATOM     27  H   UNL     1     -14.615 -17.405  -1.639  1.00  0.00     0.293 HD
ENDBRANCH   8  26
TORSDOF 6
ENDMDL
MODEL 8
REMARK VINA RESULT:    -5.509     11.020     13.935
REMARK INTER + INTRA:          -6.809
REMARK INTER:                  -6.526
REMARK INTRA:                  -0.283
REMARK UNBOUND:                -0.173
REMARK SMILES O=c1c(O)c(-c2ccc(O)c(O)c2)oc2cc(O)cc(O)c12
REMARK SMILES IDX 5 1 3 2 2 3 1 4 22 5 20 6 19 7 17 8 16 9 15 10 14 11 6 12
REMARK SMILES IDX 7 13 8 14 9 15 13 16 11 17 10 18 12 20 4 22 21 24 18 26
REMARK H PARENT 10 19 12 21 4 23 21 25 18 27
REMARK Flexibility Score: inf
ROOT
ATOM      1  C   UNL     1     -17.054 -14.431  -5.479  1.00  0.00     0.180 A 
ATOM      2  C   UNL     1     -17.523 -14.893  -6.721  1.00  0.00     0.208 A 
ATOM      3  C   UNL     1     -18.543 -14.179  -7.371  1.00  0.00     0.238 A 
ATOM      4  O   UNL     1     -18.921 -14.565  -8.508  1.00  0.00    -0.285 OA
ATOM      5  C   UNL     1     -19.093 -13.025  -6.763  1.00  0.00     0.111 A 
ATOM      6  C   UNL     1     -20.157 -12.248  -7.313  1.00  0.00     0.134 A 
ATOM      7  C   UNL     1     -20.532 -11.052  -6.689  1.00  0.00     0.093 A 
ATOM      8  C   UNL     1     -19.927 -10.638  -5.503  1.00  0.00     0.123 A 
ATOM      9  C   UNL     1     -18.927 -11.420  -4.925  1.00  0.00     0.094 A 
ATOM     10  C   UNL     1     -18.506 -12.600  -5.543  1.00  0.00     0.146 A 
ATOM     11  O   UNL     1     -17.543 -13.309  -4.966  1.00  0.00    -0.452 OA
ENDROOT
BRANCH   1  12
ATOM     12  C   UNL     1     -15.998 -15.143  -4.722  1.00  0.00     0.025 A 
ATOM     13  C   UNL     1     -16.272 -16.336  -4.030  1.00  0.00     0.016 A 
ATOM     14  C   UNL     1     -15.265 -16.976  -3.303  1.00  0.00     0.051 A 
ATOM     15  C   UNL     1     -13.976 -16.430  -3.245  1.00  0.00     0.157 A 
ATOM     16  C   UNL     1     -14.710 -14.588  -4.644  1.00  0.00     0.062 A 
ATOM     17  C   UNL     1     -13.700 -15.228  -3.917  1.00  0.00     0.158 A 
BRANCH  15  18
ATOM     18  O   UNL     1     -12.974 -17.073  -2.519  1.00  0.00    -0.504 OA
ATOM     19  H   UNL     1     -12.257 -16.552  -2.029  1.00  0.00     0.293 HD
ENDBRANCH  15  18
BRANCH  17  20
ATOM     20  O   UNL     1     -12.429 -14.654  -3.874  1.00  0.00    -0.504 OA
ATOM     21  H   UNL     1     -11.672 -14.978  -4.464  1.00  0.00     0.293 HD
ENDBRANCH  17  20
ENDBRANCH   1  12
BRANCH   2  22
ATOM     22  O   UNL     1     -16.952 -16.022  -7.314  1.00  0.00    -0.502 OA
ATOM     23  H   UNL     1     -17.403 -16.928  -7.304  1.00  0.00     0.293 HD
ENDBRANCH   2  22
BRANCH   6  24
ATOM     24  O   UNL     1     -20.891 -12.620  -8.444  1.00  0.00    -0.507 OA
ATOM     25  H   UNL     1     -20.538 -12.603  -9.388  1.00  0.00     0.293 HD
ENDBRANCH   6  24
BRANCH   8  26
ATOM     26  O   UNL     1     -20.337  -9.450  -4.902  1.00  0.00    -0.508 OA
ATOM     27  H   UNL     1     -20.091  -8.546  -5.291  1.00  0.00     0.293 HD
ENDBRANCH   8  26
TORSDOF 6
ENDMDL
MODEL 9
REMARK VINA RESULT:    -5.501      2.990      7.381
REMARK INTER + INTRA:          -6.799
REMARK INTER:                  -6.499
REMARK INTRA:                  -0.300
REMARK UNBOUND:                -0.173
REMARK SMILES O=c1c(O)c(-c2ccc(O)c(O)c2)oc2cc(O)cc(O)c12
REMARK SMILES IDX 5 1 3 2 2 3 1 4 22 5 20 6 19 7 17 8 16 9 15 10 14 11 6 12
REMARK SMILES IDX 7 13 8 14 9 15 13 16 11 17 10 18 12 20 4 22 21 24 18 26
REMARK H PARENT 10 19 12 21 4 23 21 25 18 27
REMARK Flexibility Score: inf
ROOT
ATOM      1  C   UNL     1     -21.030  -8.573   7.266  1.00  0.00     0.180 A 
ATOM      2  C   UNL     1     -20.614  -8.254   5.961  1.00  0.00     0.208 A 
ATOM      3  C   UNL     1     -20.173  -6.949   5.688  1.00  0.00     0.238 A 
ATOM      4  O   UNL     1     -19.750  -6.683   4.533  1.00  0.00    -0.285 OA
ATOM      5  C   UNL     1     -20.169  -5.976   6.717  1.00  0.00     0.111 A 
ATOM      6  C   UNL     1     -19.781  -4.614   6.543  1.00  0.00     0.134 A 
ATOM      7  C   UNL     1     -19.692  -3.773   7.659  1.00  0.00     0.093 A 
ATOM      8  C   UNL     1     -20.038  -4.226   8.931  1.00  0.00     0.123 A 
ATOM      9  C   UNL     1     -20.477  -5.539   9.104  1.00  0.00     0.094 A 
ATOM     10  C   UNL     1     -20.541  -6.412   8.015  1.00  0.00     0.146 A 
ATOM     11  O   UNL     1     -20.952  -7.657   8.224  1.00  0.00    -0.452 OA
ENDROOT
BRANCH   1  12
ATOM     12  C   UNL     1     -21.531  -9.919   7.625  1.00  0.00     0.025 A 
ATOM     13  C   UNL     1     -22.908 -10.186   7.723  1.00  0.00     0.016 A 
ATOM     14  C   UNL     1     -23.356 -11.458   8.087  1.00  0.00     0.051 A 
ATOM     15  C   UNL     1     -22.438 -12.479   8.371  1.00  0.00     0.157 A 
ATOM     16  C   UNL     1     -20.614 -10.939   7.931  1.00  0.00     0.062 A 
ATOM     17  C   UNL     1     -21.060 -12.214   8.295  1.00  0.00     0.158 A 
BRANCH  15  18
ATOM     18  O   UNL     1     -22.889 -13.747   8.733  1.00  0.00    -0.504 OA
ATOM     19  H   UNL     1     -23.797 -13.885   9.159  1.00  0.00     0.293 HD
ENDBRANCH  15  18
BRANCH  17  20
ATOM     20  O   UNL     1     -20.120 -13.205   8.579  1.00  0.00    -0.504 OA
ATOM     21  H   UNL     1     -19.228 -12.994   9.011  1.00  0.00     0.293 HD
ENDBRANCH  17  20
ENDBRANCH   1  12
BRANCH   2  22
ATOM     22  O   UNL     1     -20.605  -9.234   4.966  1.00  0.00    -0.502 OA
ATOM     23  H   UNL     1     -20.158  -9.094   4.068  1.00  0.00     0.293 HD
ENDBRANCH   2  22
BRANCH   6  24
ATOM     24  O   UNL     1     -19.502  -4.034   5.301  1.00  0.00    -0.507 OA
ATOM     25  H   UNL     1     -19.350  -3.049   5.148  1.00  0.00     0.293 HD
ENDBRANCH   6  24
BRANCH   8  26
ATOM     26  O   UNL     1     -19.952  -3.357  10.017  1.00  0.00    -0.508 OA
ATOM     27  H   UNL     1     -19.281  -2.597  10.036  1.00  0.00     0.293 HD
ENDBRANCH   8  26
TORSDOF 6
ENDMDL
