MODEL 1
REMARK VINA RESULT:    -2.296      0.000      0.000
REMARK INTER + INTRA:          -5.019
REMARK INTER:                  -3.639
REMARK INTRA:                  -1.380
REMARK UNBOUND:                -1.380
REMARK SMILES CCCCCCCCCCCC(=O)[O-]
REMARK SMILES IDX 7 1 8 2 9 3 10 4 11 5 12 6 13 7 14 8 6 9 5 10 4 11 3 12 2 13
REMARK SMILES IDX 1 14
REMARK H PARENT
REMARK Flexibility Score: inf
ROOT
ATOM      1  C   UNL     1     177.164 207.695 199.173  1.00  0.00     0.000 C 
ENDROOT
BRANCH   1   2
ATOM      2  C   UNL     1     178.469 207.947 199.948  1.00  0.00     0.000 C 
BRANCH   2   3
ATOM      3  C   UNL     1     179.636 207.086 199.439  1.00  0.00     0.000 C 
BRANCH   3   4
ATOM      4  C   UNL     1     179.355 206.469 198.057  1.00  0.00     0.006 C 
BRANCH   4   5
ATOM      5  C   UNL     1     180.358 206.943 196.997  1.00  0.00     0.053 C 
BRANCH   5   6
ATOM      6  C   UNL     1     179.671 207.504 195.789  1.00  0.00     0.041 C 
ATOM      7  O   UNL     1     178.414 207.586 195.757  1.00  0.00    -0.550 OA
ATOM      8  O   UNL     1     180.418 207.964 194.713  1.00  0.00    -0.550 OA
ENDBRANCH   5   6
ENDBRANCH   4   5
ENDBRANCH   3   4
ENDBRANCH   2   3
ENDBRANCH   1   2
BRANCH   1   9
ATOM      9  C   UNL     1     175.915 207.842 200.055  1.00  0.00     0.000 C 
BRANCH   9  10
ATOM     10  C   UNL     1     176.233 207.727 201.556  1.00  0.00    -0.000 C 
BRANCH  10  11
ATOM     11  C   UNL     1     176.056 206.286 202.082  1.00  0.00    -0.000 C 
BRANCH  11  12
ATOM     12  C   UNL     1     177.329 205.701 202.722  1.00  0.00    -0.000 C 
BRANCH  12  13
ATOM     13  C   UNL     1     178.055 204.653 201.865  1.00  0.00    -0.003 C 
ATOM     14  C   UNL     1     177.260 204.247 200.624  1.00  0.00     0.004 C 
ENDBRANCH  12  13
ENDBRANCH  11  12
ENDBRANCH  10  11
ENDBRANCH   9  10
ENDBRANCH   1   9
TORSDOF 10
ENDMDL
MODEL 2
REMARK VINA RESULT:    -2.203      2.445      3.076
REMARK INTER + INTRA:          -4.871
REMARK INTER:                  -3.205
REMARK INTRA:                  -1.666
REMARK UNBOUND:                -1.380
REMARK SMILES CCCCCCCCCCCC(=O)[O-]
REMARK SMILES IDX 7 1 8 2 9 3 10 4 11 5 12 6 13 7 14 8 6 9 5 10 4 11 3 12 2 13
REMARK SMILES IDX 1 14
REMARK H PARENT
REMARK Flexibility Score: inf
ROOT
ATOM      1  C   UNL     1     177.161 208.027 200.352  1.00  0.00     0.000 C 
ENDROOT
BRANCH   1   2
ATOM      2  C   UNL     1     176.641 207.735 198.933  1.00  0.00     0.000 C 
BRANCH   2   3
ATOM      3  C   UNL     1     177.718 207.122 198.023  1.00  0.00     0.000 C 
BRANCH   3   4
ATOM      4  C   UNL     1     179.144 207.369 198.547  1.00  0.00     0.006 C 
BRANCH   4   5
ATOM      5  C   UNL     1     179.861 206.063 198.911  1.00  0.00     0.053 C 
BRANCH   5   6
ATOM      6  C   UNL     1     180.744 206.226 200.111  1.00  0.00     0.041 C 
ATOM      7  O   UNL     1     181.121 207.373 200.468  1.00  0.00    -0.550 OA
ATOM      8  O   UNL     1     181.125 205.115 200.853  1.00  0.00    -0.550 OA
ENDBRANCH   5   6
ENDBRANCH   4   5
ENDBRANCH   3   4
ENDBRANCH   2   3
ENDBRANCH   1   2
BRANCH   1   9
ATOM      9  C   UNL     1     176.078 207.845 201.426  1.00  0.00     0.000 C 
BRANCH   9  10
ATOM     10  C   UNL     1     176.265 206.555 202.244  1.00  0.00    -0.000 C 
BRANCH  10  11
ATOM     11  C   UNL     1     177.641 205.900 201.995  1.00  0.00    -0.000 C 
BRANCH  11  12
ATOM     12  C   UNL     1     177.551 204.489 201.382  1.00  0.00    -0.000 C 
BRANCH  12  13
ATOM     13  C   UNL     1     176.339 204.265 200.464  1.00  0.00    -0.003 C 
ATOM     14  C   UNL     1     176.733 203.789 199.066  1.00  0.00     0.004 C 
ENDBRANCH  12  13
ENDBRANCH  11  12
ENDBRANCH  10  11
ENDBRANCH   9  10
ENDBRANCH   1   9
TORSDOF 10
ENDMDL
MODEL 3
REMARK VINA RESULT:    -2.179      2.494      4.626
REMARK INTER + INTRA:          -4.833
REMARK INTER:                  -3.511
REMARK INTRA:                  -1.322
REMARK UNBOUND:                -1.380
REMARK SMILES CCCCCCCCCCCC(=O)[O-]
REMARK SMILES IDX 7 1 8 2 9 3 10 4 11 5 12 6 13 7 14 8 6 9 5 10 4 11 3 12 2 13
REMARK SMILES IDX 1 14
REMARK H PARENT
REMARK Flexibility Score: inf
ROOT
ATOM      1  C   UNL     1     175.332 206.982 201.158  1.00  0.00     0.000 C 
ENDROOT
BRANCH   1   2
ATOM      2  C   UNL     1     175.774 205.682 201.854  1.00  0.00     0.000 C 
BRANCH   2   3
ATOM      3  C   UNL     1     176.794 205.928 202.976  1.00  0.00     0.000 C 
BRANCH   3   4
ATOM      4  C   UNL     1     178.097 205.134 202.774  1.00  0.00     0.006 C 
BRANCH   4   5
ATOM      5  C   UNL     1     178.271 204.666 201.324  1.00  0.00     0.053 C 
BRANCH   5   6
ATOM      6  C   UNL     1     179.618 205.031 200.777  1.00  0.00     0.041 C 
ATOM      7  O   UNL     1     180.189 204.277 199.946  1.00  0.00    -0.550 OA
ATOM      8  O   UNL     1     180.227 206.219 201.161  1.00  0.00    -0.550 OA
ENDBRANCH   5   6
ENDBRANCH   4   5
ENDBRANCH   3   4
ENDBRANCH   2   3
ENDBRANCH   1   2
BRANCH   1   9
ATOM      9  C   UNL     1     176.373 208.104 201.289  1.00  0.00     0.000 C 
BRANCH   9  10
ATOM     10  C   UNL     1     177.390 208.107 200.135  1.00  0.00    -0.000 C 
BRANCH  10  11
ATOM     11  C   UNL     1     176.764 207.637 198.804  1.00  0.00    -0.000 C 
BRANCH  11  12
ATOM     12  C   UNL     1     177.549 206.503 198.118  1.00  0.00    -0.000 C 
BRANCH  12  13
ATOM     13  C   UNL     1     178.591 206.974 197.092  1.00  0.00    -0.003 C 
ATOM     14  C   UNL     1     180.014 206.982 197.652  1.00  0.00     0.004 C 
ENDBRANCH  12  13
ENDBRANCH  11  12
ENDBRANCH  10  11
ENDBRANCH   9  10
ENDBRANCH   1   9
TORSDOF 10
ENDMDL
MODEL 4
REMARK VINA RESULT:    -2.177      1.464      3.036
REMARK INTER + INTRA:          -4.830
REMARK INTER:                  -3.425
REMARK INTRA:                  -1.405
REMARK UNBOUND:                -1.380
REMARK SMILES CCCCCCCCCCCC(=O)[O-]
REMARK SMILES IDX 7 1 8 2 9 3 10 4 11 5 12 6 13 7 14 8 6 9 5 10 4 11 3 12 2 13
REMARK SMILES IDX 1 14
REMARK H PARENT
REMARK Flexibility Score: inf
ROOT
ATOM      1  C   UNL     1     176.187 206.314 201.720  1.00  0.00     0.000 C 
ENDROOT
BRANCH   1   2
ATOM      2  C   UNL     1     176.324 207.823 201.450  1.00  0.00     0.000 C 
BRANCH   2   3
ATOM      3  C   UNL     1     177.150 208.125 200.189  1.00  0.00     0.000 C 
BRANCH   3   4
ATOM      4  C   UNL     1     176.957 207.066 199.089  1.00  0.00     0.006 C 
BRANCH   4   5
ATOM      5  C   UNL     1     176.932 207.686 197.686  1.00  0.00     0.053 C 
BRANCH   5   6
ATOM      6  C   UNL     1     177.824 206.948 196.734  1.00  0.00     0.041 C 
ATOM      7  O   UNL     1     177.362 206.013 196.029  1.00  0.00    -0.550 OA
ATOM      8  O   UNL     1     179.158 207.314 196.603  1.00  0.00    -0.550 OA
ENDBRANCH   5   6
ENDBRANCH   4   5
ENDBRANCH   3   4
ENDBRANCH   2   3
ENDBRANCH   1   2
BRANCH   1   9
ATOM      9  C   UNL     1     176.867 205.883 203.028  1.00  0.00     0.000 C 
BRANCH   9  10
ATOM     10  C   UNL     1     178.197 205.147 202.789  1.00  0.00    -0.000 C 
BRANCH  10  11
ATOM     11  C   UNL     1     178.243 204.457 201.409  1.00  0.00    -0.000 C 
BRANCH  11  12
ATOM     12  C   UNL     1     179.423 204.915 200.529  1.00  0.00    -0.000 C 
BRANCH  12  13
ATOM     13  C   UNL     1     180.235 206.086 201.104  1.00  0.00    -0.003 C 
ATOM     14  C   UNL     1     180.616 207.120 200.045  1.00  0.00     0.004 C 
ENDBRANCH  12  13
ENDBRANCH  11  12
ENDBRANCH  10  11
ENDBRANCH   9  10
ENDBRANCH   1   9
TORSDOF 10
ENDMDL
MODEL 5
REMARK VINA RESULT:    -2.177      1.398      2.881
REMARK INTER + INTRA:          -4.829
REMARK INTER:                  -3.213
REMARK INTRA:                  -1.616
REMARK UNBOUND:                -1.380
REMARK SMILES CCCCCCCCCCCC(=O)[O-]
REMARK SMILES IDX 7 1 8 2 9 3 10 4 11 5 12 6 13 7 14 8 6 9 5 10 4 11 3 12 2 13
REMARK SMILES IDX 1 14
REMARK H PARENT
REMARK Flexibility Score: inf
ROOT
ATOM      1  C   UNL     1     177.323 204.697 200.823  1.00  0.00     0.000 C 
ENDROOT
BRANCH   1   2
ATOM      2  C   UNL     1     178.217 205.078 199.629  1.00  0.00     0.000 C 
BRANCH   2   3
ATOM      3  C   UNL     1     179.293 206.111 200.002  1.00  0.00     0.000 C 
BRANCH   3   4
ATOM      4  C   UNL     1     179.223 207.377 199.130  1.00  0.00     0.006 C 
BRANCH   4   5
ATOM      5  C   UNL     1     178.930 207.052 197.660  1.00  0.00     0.053 C 
BRANCH   5   6
ATOM      6  C   UNL     1     180.154 206.569 196.941  1.00  0.00     0.041 C 
ATOM      7  O   UNL     1     181.092 207.369 196.681  1.00  0.00    -0.550 OA
ATOM      8  O   UNL     1     180.271 205.232 196.585  1.00  0.00    -0.550 OA
ENDBRANCH   5   6
ENDBRANCH   4   5
ENDBRANCH   3   4
ENDBRANCH   2   3
ENDBRANCH   1   2
BRANCH   1   9
ATOM      9  C   UNL     1     177.487 205.654 202.013  1.00  0.00     0.000 C 
BRANCH   9  10
ATOM     10  C   UNL     1     176.223 206.489 202.281  1.00  0.00    -0.000 C 
BRANCH  10  11
ATOM     11  C   UNL     1     176.295 207.885 201.625  1.00  0.00    -0.000 C 
BRANCH  11  12
ATOM     12  C   UNL     1     175.204 208.125 200.564  1.00  0.00    -0.000 C 
BRANCH  12  13
ATOM     13  C   UNL     1     175.586 207.687 199.142  1.00  0.00    -0.003 C 
ATOM     14  C   UNL     1     174.784 206.480 198.656  1.00  0.00     0.004 C 
ENDBRANCH  12  13
ENDBRANCH  11  12
ENDBRANCH  10  11
ENDBRANCH   9  10
ENDBRANCH   1   9
TORSDOF 10
ENDMDL
MODEL 6
REMARK VINA RESULT:    -2.159      1.373      2.095
REMARK INTER + INTRA:          -4.801
REMARK INTER:                  -3.483
REMARK INTRA:                  -1.318
REMARK UNBOUND:                -1.380
REMARK SMILES CCCCCCCCCCCC(=O)[O-]
REMARK SMILES IDX 7 1 8 2 9 3 10 4 11 5 12 6 13 7 14 8 6 9 5 10 4 11 3 12 2 13
REMARK SMILES IDX 1 14
REMARK H PARENT
REMARK Flexibility Score: inf
ROOT
ATOM      1  C   UNL     1     176.135 206.832 200.472  1.00  0.00     0.000 C 
ENDROOT
BRANCH   1   2
ATOM      2  C   UNL     1     176.959 207.795 199.599  1.00  0.00     0.000 C 
BRANCH   2   3
ATOM      3  C   UNL     1     178.437 207.854 200.016  1.00  0.00     0.000 C 
BRANCH   3   4
ATOM      4  C   UNL     1     179.372 207.229 198.965  1.00  0.00     0.006 C 
BRANCH   4   5
ATOM      5  C   UNL     1     178.681 207.054 197.607  1.00  0.00     0.053 C 
BRANCH   5   6
ATOM      6  C   UNL     1     179.654 206.682 196.529  1.00  0.00     0.041 C 
ATOM      7  O   UNL     1     179.905 205.471 196.294  1.00  0.00    -0.550 OA
ATOM      8  O   UNL     1     180.260 207.672 195.766  1.00  0.00    -0.550 OA
ENDBRANCH   5   6
ENDBRANCH   4   5
ENDBRANCH   3   4
ENDBRANCH   2   3
ENDBRANCH   1   2
BRANCH   1   9
ATOM      9  C   UNL     1     176.329 207.083 201.975  1.00  0.00     0.000 C 
BRANCH   9  10
ATOM     10  C   UNL     1     176.894 205.857 202.713  1.00  0.00    -0.000 C 
BRANCH  10  11
ATOM     11  C   UNL     1     177.238 204.702 201.747  1.00  0.00    -0.000 C 
BRANCH  11  12
ATOM     12  C   UNL     1     178.740 204.364 201.700  1.00  0.00    -0.000 C 
BRANCH  12  13
ATOM     13  C   UNL     1     179.614 205.190 202.656  1.00  0.00    -0.003 C 
ATOM     14  C   UNL     1     180.900 205.692 202.001  1.00  0.00     0.004 C 
ENDBRANCH  12  13
ENDBRANCH  11  12
ENDBRANCH  10  11
ENDBRANCH   9  10
ENDBRANCH   1   9
TORSDOF 10
ENDMDL
MODEL 7
REMARK VINA RESULT:    -2.112      2.793      5.178
REMARK INTER + INTRA:          -4.726
REMARK INTER:                  -3.355
REMARK INTRA:                  -1.370
REMARK UNBOUND:                -1.380
REMARK SMILES CCCCCCCCCCCC(=O)[O-]
REMARK SMILES IDX 7 1 8 2 9 3 10 4 11 5 12 6 13 7 14 8 6 9 5 10 4 11 3 12 2 13
REMARK SMILES IDX 1 14
REMARK H PARENT
REMARK Flexibility Score: inf
ROOT
ATOM      1  C   UNL     1     177.249 205.243 201.661  1.00  0.00     0.000 C 
ENDROOT
BRANCH   1   2
ATOM      2  C   UNL     1     176.299 206.306 202.241  1.00  0.00     0.000 C 
BRANCH   2   3
ATOM      3  C   UNL     1     176.604 207.720 201.721  1.00  0.00     0.000 C 
BRANCH   3   4
ATOM      4  C   UNL     1     175.696 208.125 200.547  1.00  0.00     0.006 C 
BRANCH   4   5
ATOM      5  C   UNL     1     174.217 207.832 200.831  1.00  0.00     0.053 C 
BRANCH   5   6
ATOM      6  C   UNL     1     173.581 207.043 199.726  1.00  0.00     0.041 C 
ATOM      7  O   UNL     1     172.327 206.989 199.628  1.00  0.00    -0.550 OA
ATOM      8  O   UNL     1     174.374 206.393 198.789  1.00  0.00    -0.550 OA
ENDBRANCH   5   6
ENDBRANCH   4   5
ENDBRANCH   3   4
ENDBRANCH   2   3
ENDBRANCH   1   2
BRANCH   1   9
ATOM      9  C   UNL     1     178.463 204.979 202.565  1.00  0.00     0.000 C 
BRANCH   9  10
ATOM     10  C   UNL     1     179.771 205.538 201.979  1.00  0.00    -0.000 C 
BRANCH  10  11
ATOM     11  C   UNL     1     179.737 205.608 200.437  1.00  0.00    -0.000 C 
BRANCH  11  12
ATOM     12  C   UNL     1     179.879 207.038 199.881  1.00  0.00    -0.000 C 
BRANCH  12  13
ATOM     13  C   UNL     1     178.888 207.392 198.762  1.00  0.00    -0.003 C 
ATOM     14  C   UNL     1     178.087 206.185 198.274  1.00  0.00     0.004 C 
ENDBRANCH  12  13
ENDBRANCH  11  12
ENDBRANCH  10  11
ENDBRANCH   9  10
ENDBRANCH   1   9
TORSDOF 10
ENDMDL
MODEL 8
REMARK VINA RESULT:    -1.970      2.588      4.381
REMARK INTER + INTRA:          -4.502
REMARK INTER:                  -3.271
REMARK INTRA:                  -1.231
REMARK UNBOUND:                -1.380
REMARK SMILES CCCCCCCCCCCC(=O)[O-]
REMARK SMILES IDX 7 1 8 2 9 3 10 4 11 5 12 6 13 7 14 8 6 9 5 10 4 11 3 12 2 13
REMARK SMILES IDX 1 14
REMARK H PARENT
REMARK Flexibility Score: inf
ROOT
ATOM      1  C   UNL     1     174.193 207.919 200.725  1.00  0.00     0.000 C 
ENDROOT
BRANCH   1   2
ATOM      2  C   UNL     1     175.659 208.125 201.146  1.00  0.00     0.000 C 
BRANCH   2   3
ATOM      3  C   UNL     1     176.333 206.819 201.598  1.00  0.00     0.000 C 
BRANCH   3   4
ATOM      4  C   UNL     1     177.559 206.460 200.739  1.00  0.00     0.006 C 
BRANCH   4   5
ATOM      5  C   UNL     1     178.187 207.696 200.082  1.00  0.00     0.053 C 
BRANCH   5   6
ATOM      6  C   UNL     1     179.515 207.383 199.460  1.00  0.00     0.041 C 
ATOM      7  O   UNL     1     179.604 207.198 198.218  1.00  0.00    -0.550 OA
ATOM      8  O   UNL     1     180.657 207.327 200.249  1.00  0.00    -0.550 OA
ENDBRANCH   5   6
ENDBRANCH   4   5
ENDBRANCH   3   4
ENDBRANCH   2   3
ENDBRANCH   1   2
BRANCH   1   9
ATOM      9  C   UNL     1     173.837 206.438 200.528  1.00  0.00     0.000 C 
BRANCH   9  10
ATOM     10  C   UNL     1     173.200 206.159 199.155  1.00  0.00    -0.000 C 
BRANCH  10  11
ATOM     11  C   UNL     1     174.253 206.073 198.030  1.00  0.00    -0.000 C 
BRANCH  11  12
ATOM     12  C   UNL     1     174.373 207.363 197.196  1.00  0.00    -0.000 C 
BRANCH  12  13
ATOM     13  C   UNL     1     175.694 208.125 197.382  1.00  0.00    -0.003 C 
ATOM     14  C   UNL     1     176.728 207.792 196.307  1.00  0.00     0.004 C 
ENDBRANCH  12  13
ENDBRANCH  11  12
ENDBRANCH  10  11
ENDBRANCH   9  10
ENDBRANCH   1   9
TORSDOF 10
ENDMDL
