MODEL 1
REMARK VINA RESULT:    -4.137      0.000      0.000
REMARK INTER + INTRA:          -9.151
REMARK INTER:                  -7.038
REMARK INTRA:                  -2.112
REMARK UNBOUND:                -2.112
REMARK SMILES CCCCCCCCCCCCCC(=O)[O-]
REMARK SMILES IDX 8 1 9 2 10 3 11 4 12 5 13 6 14 7 15 8 16 9 7 10 6 11 5 12
REMARK SMILES IDX 4 13 3 14 2 15 1 16
REMARK H PARENT
REMARK Flexibility Score: inf
ROOT
ATOM      1  C   UNL     1      56.874  14.063  91.592  1.00  0.00     0.000 C 
ENDROOT
BRANCH   1   2
ATOM      2  C   UNL     1      57.656  13.035  92.424  1.00  0.00     0.000 C 
BRANCH   2   3
ATOM      3  C   UNL     1      56.743  12.044  93.168  1.00  0.00     0.000 C 
BRANCH   3   4
ATOM      4  C   UNL     1      55.235  12.320  93.036  1.00  0.00     0.000 C 
BRANCH   4   5
ATOM      5  C   UNL     1      54.485  11.211  92.276  1.00  0.00     0.006 C 
BRANCH   5   6
ATOM      6  C   UNL     1      55.114   9.830  92.498  1.00  0.00     0.053 C 
BRANCH   6   7
ATOM      7  C   UNL     1      54.351   9.026  93.505  1.00  0.00     0.041 C 
ATOM      8  O   UNL     1      53.694   8.015  93.144  1.00  0.00    -0.550 OA
ATOM      9  O   UNL     1      54.344   9.410  94.840  1.00  0.00    -0.550 OA
ENDBRANCH   6   7
ENDBRANCH   5   6
ENDBRANCH   4   5
ENDBRANCH   3   4
ENDBRANCH   2   3
ENDBRANCH   1   2
BRANCH   1  10
ATOM     10  C   UNL     1      57.692  14.527  90.381  1.00  0.00     0.000 C 
BRANCH  10  11
ATOM     11  C   UNL     1      56.889  14.364  89.081  1.00  0.00    -0.000 C 
BRANCH  11  12
ATOM     12  C   UNL     1      56.051  13.073  89.051  1.00  0.00    -0.000 C 
BRANCH  12  13
ATOM     13  C   UNL     1      56.797  11.825  88.541  1.00  0.00    -0.000 C 
BRANCH  13  14
ATOM     14  C   UNL     1      57.064  10.743  89.604  1.00  0.00    -0.000 C 
BRANCH  14  15
ATOM     15  C   UNL     1      58.562  10.476  89.859  1.00  0.00    -0.003 C 
ATOM     16  C   UNL     1      59.469  11.485  89.155  1.00  0.00     0.004 C 
ENDBRANCH  14  15
ENDBRANCH  13  14
ENDBRANCH  12  13
ENDBRANCH  11  12
ENDBRANCH  10  11
ENDBRANCH   1  10
TORSDOF 12
ENDMDL
MODEL 2
REMARK VINA RESULT:    -4.017      2.017      2.598
REMARK INTER + INTRA:          -8.947
REMARK INTER:                  -6.791
REMARK INTRA:                  -2.157
REMARK UNBOUND:                -2.112
REMARK SMILES CCCCCCCCCCCCCC(=O)[O-]
REMARK SMILES IDX 8 1 9 2 10 3 11 4 12 5 13 6 14 7 15 8 16 9 7 10 6 11 5 12
REMARK SMILES IDX 4 13 3 14 2 15 1 16
REMARK H PARENT
REMARK Flexibility Score: inf
ROOT
ATOM      1  C   UNL     1      58.505  14.006  91.602  1.00  0.00     0.000 C 
ENDROOT
BRANCH   1   2
ATOM      2  C   UNL     1      58.317  12.669  92.334  1.00  0.00     0.000 C 
BRANCH   2   3
ATOM      3  C   UNL     1      56.984  12.585  93.100  1.00  0.00     0.000 C 
BRANCH   3   4
ATOM      4  C   UNL     1      56.108  11.369  92.754  1.00  0.00     0.000 C 
BRANCH   4   5
ATOM      5  C   UNL     1      54.680  11.758  92.331  1.00  0.00     0.006 C 
BRANCH   5   6
ATOM      6  C   UNL     1      54.468  13.277  92.335  1.00  0.00     0.053 C 
BRANCH   6   7
ATOM      7  C   UNL     1      53.616  13.716  93.486  1.00  0.00     0.041 C 
ATOM      8  O   UNL     1      53.643  13.083  94.574  1.00  0.00    -0.550 OA
ATOM      9  O   UNL     1      52.771  14.810  93.348  1.00  0.00    -0.550 OA
ENDBRANCH   6   7
ENDBRANCH   5   6
ENDBRANCH   4   5
ENDBRANCH   3   4
ENDBRANCH   2   3
ENDBRANCH   1   2
BRANCH   1  10
ATOM     10  C   UNL     1      58.379  13.824  90.084  1.00  0.00     0.000 C 
BRANCH  10  11
ATOM     11  C   UNL     1      56.905  13.847  89.649  1.00  0.00    -0.000 C 
BRANCH  11  12
ATOM     12  C   UNL     1      56.477  12.563  88.916  1.00  0.00    -0.000 C 
BRANCH  12  13
ATOM     13  C   UNL     1      57.573  11.489  88.789  1.00  0.00    -0.000 C 
BRANCH  13  14
ATOM     14  C   UNL     1      57.337  10.213  89.619  1.00  0.00    -0.000 C 
BRANCH  14  15
ATOM     15  C   UNL     1      58.605   9.679  90.317  1.00  0.00    -0.003 C 
ATOM     16  C   UNL     1      59.857  10.477  89.956  1.00  0.00     0.004 C 
ENDBRANCH  14  15
ENDBRANCH  13  14
ENDBRANCH  12  13
ENDBRANCH  11  12
ENDBRANCH  10  11
ENDBRANCH   1  10
TORSDOF 12
ENDMDL
MODEL 3
REMARK VINA RESULT:    -3.937      1.309      1.971
REMARK INTER + INTRA:          -8.811
REMARK INTER:                  -6.945
REMARK INTRA:                  -1.866
REMARK UNBOUND:                -2.112
REMARK SMILES CCCCCCCCCCCCCC(=O)[O-]
REMARK SMILES IDX 8 1 9 2 10 3 11 4 12 5 13 6 14 7 15 8 16 9 7 10 6 11 5 12
REMARK SMILES IDX 4 13 3 14 2 15 1 16
REMARK H PARENT
REMARK Flexibility Score: inf
ROOT
ATOM      1  C   UNL     1      57.882  13.120  92.204  1.00  0.00     0.000 C 
ENDROOT
BRANCH   1   2
ATOM      2  C   UNL     1      57.361  13.810  93.474  1.00  0.00     0.000 C 
BRANCH   2   3
ATOM      3  C   UNL     1      56.319  14.904  93.179  1.00  0.00     0.000 C 
BRANCH   3   4
ATOM      4  C   UNL     1      54.992  14.397  92.586  1.00  0.00     0.000 C 
BRANCH   4   5
ATOM      5  C   UNL     1      54.485  13.110  93.260  1.00  0.00     0.006 C 
BRANCH   5   6
ATOM      6  C   UNL     1      54.436  11.926  92.286  1.00  0.00     0.053 C 
BRANCH   6   7
ATOM      7  C   UNL     1      54.927  10.662  92.921  1.00  0.00     0.041 C 
ATOM      8  O   UNL     1      55.670  10.709  93.937  1.00  0.00    -0.550 OA
ATOM      9  O   UNL     1      54.586   9.432  92.375  1.00  0.00    -0.550 OA
ENDBRANCH   6   7
ENDBRANCH   5   6
ENDBRANCH   4   5
ENDBRANCH   3   4
ENDBRANCH   2   3
ENDBRANCH   1   2
BRANCH   1  10
ATOM     10  C   UNL     1      58.638  14.111  91.310  1.00  0.00     0.000 C 
BRANCH  10  11
ATOM     11  C   UNL     1      58.295  13.886  89.830  1.00  0.00    -0.000 C 
BRANCH  11  12
ATOM     12  C   UNL     1      56.779  13.797  89.572  1.00  0.00    -0.000 C 
BRANCH  12  13
ATOM     13  C   UNL     1      56.313  12.510  88.867  1.00  0.00    -0.000 C 
BRANCH  13  14
ATOM     14  C   UNL     1      57.389  11.416  88.726  1.00  0.00    -0.000 C 
BRANCH  14  15
ATOM     15  C   UNL     1      57.287  10.301  89.787  1.00  0.00    -0.003 C 
ATOM     16  C   UNL     1      58.645   9.926  90.380  1.00  0.00     0.004 C 
ENDBRANCH  14  15
ENDBRANCH  13  14
ENDBRANCH  12  13
ENDBRANCH  11  12
ENDBRANCH  10  11
ENDBRANCH   1  10
TORSDOF 12
ENDMDL
MODEL 4
REMARK VINA RESULT:    -3.884      1.424      2.158
REMARK INTER + INTRA:          -8.722
REMARK INTER:                  -7.505
REMARK INTRA:                  -1.217
REMARK UNBOUND:                -2.112
REMARK SMILES CCCCCCCCCCCCCC(=O)[O-]
REMARK SMILES IDX 8 1 9 2 10 3 11 4 12 5 13 6 14 7 15 8 16 9 7 10 6 11 5 12
REMARK SMILES IDX 4 13 3 14 2 15 1 16
REMARK H PARENT
REMARK Flexibility Score: inf
ROOT
ATOM      1  C   UNL     1      56.282  12.207  92.631  1.00  0.00     0.000 C 
ENDROOT
BRANCH   1   2
ATOM      2  C   UNL     1      55.661  12.508  94.004  1.00  0.00     0.000 C 
BRANCH   2   3
ATOM      3  C   UNL     1      56.461  11.901  95.171  1.00  0.00     0.000 C 
BRANCH   3   4
ATOM      4  C   UNL     1      55.934  10.552  95.691  1.00  0.00     0.000 C 
BRANCH   4   5
ATOM      5  C   UNL     1      54.513  10.231  95.195  1.00  0.00     0.006 C 
BRANCH   5   6
ATOM      6  C   UNL     1      54.287   8.724  95.021  1.00  0.00     0.053 C 
BRANCH   6   7
ATOM      7  C   UNL     1      54.027   8.362  93.591  1.00  0.00     0.041 C 
ATOM      8  O   UNL     1      53.268   7.398  93.308  1.00  0.00    -0.550 OA
ATOM      9  O   UNL     1      54.645   9.073  92.570  1.00  0.00    -0.550 OA
ENDBRANCH   6   7
ENDBRANCH   5   6
ENDBRANCH   4   5
ENDBRANCH   3   4
ENDBRANCH   2   3
ENDBRANCH   1   2
BRANCH   1  10
ATOM     10  C   UNL     1      55.369  12.690  91.498  1.00  0.00     0.000 C 
BRANCH  10  11
ATOM     11  C   UNL     1      55.960  13.928  90.806  1.00  0.00    -0.000 C 
BRANCH  11  12
ATOM     12  C   UNL     1      56.766  13.580  89.541  1.00  0.00    -0.000 C 
BRANCH  12  13
ATOM     13  C   UNL     1      56.141  12.489  88.651  1.00  0.00    -0.000 C 
BRANCH  13  14
ATOM     14  C   UNL     1      57.058  11.289  88.348  1.00  0.00    -0.000 C 
BRANCH  14  15
ATOM     15  C   UNL     1      58.267  11.173  89.299  1.00  0.00    -0.003 C 
ATOM     16  C   UNL     1      58.189   9.943  90.204  1.00  0.00     0.004 C 
ENDBRANCH  14  15
ENDBRANCH  13  14
ENDBRANCH  12  13
ENDBRANCH  11  12
ENDBRANCH  10  11
ENDBRANCH   1  10
TORSDOF 12
ENDMDL
MODEL 5
REMARK VINA RESULT:    -3.878      3.422      5.277
REMARK INTER + INTRA:          -8.710
REMARK INTER:                  -7.376
REMARK INTRA:                  -1.334
REMARK UNBOUND:                -2.112
REMARK SMILES CCCCCCCCCCCCCC(=O)[O-]
REMARK SMILES IDX 8 1 9 2 10 3 11 4 12 5 13 6 14 7 15 8 16 9 7 10 6 11 5 12
REMARK SMILES IDX 4 13 3 14 2 15 1 16
REMARK H PARENT
REMARK Flexibility Score: inf
ROOT
ATOM      1  C   UNL     1      56.866  14.623  89.506  1.00  0.00     0.000 C 
ENDROOT
BRANCH   1   2
ATOM      2  C   UNL     1      56.486  13.171  89.831  1.00  0.00     0.000 C 
BRANCH   2   3
ATOM      3  C   UNL     1      56.314  12.299  88.574  1.00  0.00     0.000 C 
BRANCH   3   4
ATOM      4  C   UNL     1      57.156  11.011  88.553  1.00  0.00     0.000 C 
BRANCH   4   5
ATOM      5  C   UNL     1      58.601  11.230  89.036  1.00  0.00     0.006 C 
BRANCH   5   6
ATOM      6  C   UNL     1      58.960  10.321  90.219  1.00  0.00     0.053 C 
BRANCH   6   7
ATOM      7  C   UNL     1      60.029  10.923  91.078  1.00  0.00     0.041 C 
ATOM      8  O   UNL     1      61.202  10.467  91.044  1.00  0.00    -0.550 OA
ATOM      9  O   UNL     1      59.723  11.969  91.938  1.00  0.00    -0.550 OA
ENDBRANCH   6   7
ENDBRANCH   5   6
ENDBRANCH   4   5
ENDBRANCH   3   4
ENDBRANCH   2   3
ENDBRANCH   1   2
BRANCH   1  10
ATOM     10  C   UNL     1      58.341  14.891  89.831  1.00  0.00     0.000 C 
BRANCH  10  11
ATOM     11  C   UNL     1      58.543  16.334  90.317  1.00  0.00    -0.000 C 
BRANCH  11  12
ATOM     12  C   UNL     1      57.987  16.573  91.733  1.00  0.00    -0.000 C 
BRANCH  12  13
ATOM     13  C   UNL     1      58.565  15.651  92.823  1.00  0.00    -0.000 C 
BRANCH  13  14
ATOM     14  C   UNL     1      57.619  14.534  93.303  1.00  0.00    -0.000 C 
BRANCH  14  15
ATOM     15  C   UNL     1      56.340  15.053  93.992  1.00  0.00    -0.003 C 
ATOM     16  C   UNL     1      55.068  14.681  93.230  1.00  0.00     0.004 C 
ENDBRANCH  14  15
ENDBRANCH  13  14
ENDBRANCH  12  13
ENDBRANCH  11  12
ENDBRANCH  10  11
ENDBRANCH   1  10
TORSDOF 12
ENDMDL
MODEL 6
REMARK VINA RESULT:    -3.861      2.259      3.225
REMARK INTER + INTRA:          -8.682
REMARK INTER:                  -7.199
REMARK INTRA:                  -1.483
REMARK UNBOUND:                -2.112
REMARK SMILES CCCCCCCCCCCCCC(=O)[O-]
REMARK SMILES IDX 8 1 9 2 10 3 11 4 12 5 13 6 14 7 15 8 16 9 7 10 6 11 5 12
REMARK SMILES IDX 4 13 3 14 2 15 1 16
REMARK H PARENT
REMARK Flexibility Score: inf
ROOT
ATOM      1  C   UNL     1      57.163  12.758  92.119  1.00  0.00     0.000 C 
ENDROOT
BRANCH   1   2
ATOM      2  C   UNL     1      58.522  13.474  92.127  1.00  0.00     0.000 C 
BRANCH   2   3
ATOM      3  C   UNL     1      59.104  13.644  93.542  1.00  0.00     0.000 C 
BRANCH   3   4
ATOM      4  C   UNL     1      58.198  14.396  94.534  1.00  0.00     0.000 C 
BRANCH   4   5
ATOM      5  C   UNL     1      58.147  13.733  95.922  1.00  0.00     0.006 C 
BRANCH   5   6
ATOM      6  C   UNL     1      56.749  13.199  96.259  1.00  0.00     0.053 C 
BRANCH   6   7
ATOM      7  C   UNL     1      56.671  11.711  96.109  1.00  0.00     0.041 C 
ATOM      8  O   UNL     1      57.161  10.958  96.991  1.00  0.00    -0.550 OA
ATOM      9  O   UNL     1      56.082  11.156  94.981  1.00  0.00    -0.550 OA
ENDBRANCH   6   7
ENDBRANCH   5   6
ENDBRANCH   4   5
ENDBRANCH   3   4
ENDBRANCH   2   3
ENDBRANCH   1   2
BRANCH   1  10
ATOM     10  C   UNL     1      56.199  13.421  91.128  1.00  0.00     0.000 C 
BRANCH  10  11
ATOM     11  C   UNL     1      56.826  13.511  89.728  1.00  0.00    -0.000 C 
BRANCH  11  12
ATOM     12  C   UNL     1      56.243  12.481  88.743  1.00  0.00    -0.000 C 
BRANCH  12  13
ATOM     13  C   UNL     1      57.190  11.323  88.376  1.00  0.00    -0.000 C 
BRANCH  13  14
ATOM     14  C   UNL     1      58.641  11.485  88.867  1.00  0.00    -0.000 C 
BRANCH  14  15
ATOM     15  C   UNL     1      59.047  10.474  89.959  1.00  0.00    -0.003 C 
ATOM     16  C   UNL     1      57.938   9.472  90.277  1.00  0.00     0.004 C 
ENDBRANCH  14  15
ENDBRANCH  13  14
ENDBRANCH  12  13
ENDBRANCH  11  12
ENDBRANCH  10  11
ENDBRANCH   1  10
TORSDOF 12
ENDMDL
MODEL 7
REMARK VINA RESULT:    -3.858      1.685      3.745
REMARK INTER + INTRA:          -8.676
REMARK INTER:                  -6.979
REMARK INTRA:                  -1.697
REMARK UNBOUND:                -2.112
REMARK SMILES CCCCCCCCCCCCCC(=O)[O-]
REMARK SMILES IDX 8 1 9 2 10 3 11 4 12 5 13 6 14 7 15 8 16 9 7 10 6 11 5 12
REMARK SMILES IDX 4 13 3 14 2 15 1 16
REMARK H PARENT
REMARK Flexibility Score: inf
ROOT
ATOM      1  C   UNL     1      58.565  10.086  90.045  1.00  0.00     0.000 C 
ENDROOT
BRANCH   1   2
ATOM      2  C   UNL     1      59.401  11.360  90.235  1.00  0.00     0.000 C 
BRANCH   2   3
ATOM      3  C   UNL     1      59.714  11.660  91.712  1.00  0.00     0.000 C 
BRANCH   3   4
ATOM      4  C   UNL     1      59.240  13.036  92.213  1.00  0.00     0.000 C 
BRANCH   4   5
ATOM      5  C   UNL     1      58.152  12.939  93.297  1.00  0.00     0.006 C 
BRANCH   5   6
ATOM      6  C   UNL     1      56.911  12.183  92.805  1.00  0.00     0.053 C 
BRANCH   6   7
ATOM      7  C   UNL     1      56.144  11.575  93.938  1.00  0.00     0.041 C 
ATOM      8  O   UNL     1      56.613  11.598  95.107  1.00  0.00    -0.550 OA
ATOM      9  O   UNL     1      54.924  10.956  93.700  1.00  0.00    -0.550 OA
ENDBRANCH   6   7
ENDBRANCH   5   6
ENDBRANCH   4   5
ENDBRANCH   3   4
ENDBRANCH   2   3
ENDBRANCH   1   2
BRANCH   1  10
ATOM     10  C   UNL     1      57.133  10.428  89.615  1.00  0.00     0.000 C 
BRANCH  10  11
ATOM     11  C   UNL     1      57.110  11.680  88.726  1.00  0.00    -0.000 C 
BRANCH  11  12
ATOM     12  C   UNL     1      55.948  12.633  89.062  1.00  0.00    -0.000 C 
BRANCH  12  13
ATOM     13  C   UNL     1      56.268  14.131  88.901  1.00  0.00    -0.000 C 
BRANCH  13  14
ATOM     14  C   UNL     1      57.171  14.727  89.998  1.00  0.00    -0.000 C 
BRANCH  14  15
ATOM     15  C   UNL     1      58.461  15.378  89.458  1.00  0.00    -0.003 C 
ATOM     16  C   UNL     1      58.905  16.583  90.286  1.00  0.00     0.004 C 
ENDBRANCH  14  15
ENDBRANCH  13  14
ENDBRANCH  12  13
ENDBRANCH  11  12
ENDBRANCH  10  11
ENDBRANCH   1  10
TORSDOF 12
ENDMDL
MODEL 8
REMARK VINA RESULT:    -3.853      2.727      5.159
REMARK INTER + INTRA:          -8.668
REMARK INTER:                  -6.810
REMARK INTRA:                  -1.857
REMARK UNBOUND:                -2.112
REMARK SMILES CCCCCCCCCCCCCC(=O)[O-]
REMARK SMILES IDX 8 1 9 2 10 3 11 4 12 5 13 6 14 7 15 8 16 9 7 10 6 11 5 12
REMARK SMILES IDX 4 13 3 14 2 15 1 16
REMARK H PARENT
REMARK Flexibility Score: inf
ROOT
ATOM      1  C   UNL     1      56.072  11.660  92.371  1.00  0.00     0.000 C 
ENDROOT
BRANCH   1   2
ATOM      2  C   UNL     1      55.506  12.193  91.047  1.00  0.00     0.000 C 
BRANCH   2   3
ATOM      3  C   UNL     1      56.185  13.494  90.583  1.00  0.00     0.000 C 
BRANCH   3   4
ATOM      4  C   UNL     1      57.460  13.301  89.742  1.00  0.00     0.000 C 
BRANCH   4   5
ATOM      5  C   UNL     1      57.548  11.906  89.097  1.00  0.00     0.006 C 
BRANCH   5   6
ATOM      6  C   UNL     1      58.971  11.334  89.146  1.00  0.00     0.053 C 
BRANCH   6   7
ATOM      7  C   UNL     1      59.105  10.268  90.189  1.00  0.00     0.041 C 
ATOM      8  O   UNL     1      60.170  10.161  90.853  1.00  0.00    -0.550 OA
ATOM      9  O   UNL     1      58.065   9.374  90.408  1.00  0.00    -0.550 OA
ENDBRANCH   6   7
ENDBRANCH   5   6
ENDBRANCH   4   5
ENDBRANCH   3   4
ENDBRANCH   2   3
ENDBRANCH   1   2
BRANCH   1  10
ATOM     10  C   UNL     1      54.987  11.618  93.455  1.00  0.00     0.000 C 
BRANCH  10  11
ATOM     11  C   UNL     1      54.708  13.024  94.006  1.00  0.00    -0.000 C 
BRANCH  11  12
ATOM     12  C   UNL     1      55.866  13.574  94.859  1.00  0.00    -0.000 C 
BRANCH  12  13
ATOM     13  C   UNL     1      56.364  14.975  94.455  1.00  0.00    -0.000 C 
BRANCH  13  14
ATOM     14  C   UNL     1      57.650  14.991  93.606  1.00  0.00    -0.000 C 
BRANCH  14  15
ATOM     15  C   UNL     1      58.724  13.992  94.084  1.00  0.00    -0.003 C 
ATOM     16  C   UNL     1      59.316  13.171  92.939  1.00  0.00     0.004 C 
ENDBRANCH  14  15
ENDBRANCH  13  14
ENDBRANCH  12  13
ENDBRANCH  11  12
ENDBRANCH  10  11
ENDBRANCH   1  10
TORSDOF 12
ENDMDL
MODEL 9
REMARK VINA RESULT:    -3.807     11.611     14.318
REMARK INTER + INTRA:          -8.590
REMARK INTER:                  -6.793
REMARK INTRA:                  -1.796
REMARK UNBOUND:                -2.112
REMARK SMILES CCCCCCCCCCCCCC(=O)[O-]
REMARK SMILES IDX 8 1 9 2 10 3 11 4 12 5 13 6 14 7 15 8 16 9 7 10 6 11 5 12
REMARK SMILES IDX 4 13 3 14 2 15 1 16
REMARK H PARENT
REMARK Flexibility Score: inf
ROOT
ATOM      1  C   UNL     1      51.915   2.108 103.875  1.00  0.00     0.000 C 
ENDROOT
BRANCH   1   2
ATOM      2  C   UNL     1      53.233   2.808 104.238  1.00  0.00     0.000 C 
BRANCH   2   3
ATOM      3  C   UNL     1      54.228   2.863 103.064  1.00  0.00     0.000 C 
BRANCH   3   4
ATOM      4  C   UNL     1      54.187   4.159 102.235  1.00  0.00     0.000 C 
BRANCH   4   5
ATOM      5  C   UNL     1      53.805   3.919 100.763  1.00  0.00     0.006 C 
BRANCH   5   6
ATOM      6  C   UNL     1      53.653   2.427 100.440  1.00  0.00     0.053 C 
BRANCH   6   7
ATOM      7  C   UNL     1      54.447   2.036  99.231  1.00  0.00     0.041 C 
ATOM      8  O   UNL     1      55.699   1.916  99.306  1.00  0.00    -0.550 OA
ATOM      9  O   UNL     1      53.808   1.832  98.016  1.00  0.00    -0.550 OA
ENDBRANCH   6   7
ENDBRANCH   5   6
ENDBRANCH   4   5
ENDBRANCH   3   4
ENDBRANCH   2   3
ENDBRANCH   1   2
BRANCH   1  10
ATOM     10  C   UNL     1      50.868   3.122 103.399  1.00  0.00     0.000 C 
BRANCH  10  11
ATOM     11  C   UNL     1      50.571   4.159 104.493  1.00  0.00    -0.000 C 
BRANCH  11  12
ATOM     12  C   UNL     1      50.786   5.609 104.019  1.00  0.00    -0.000 C 
BRANCH  12  13
ATOM     13  C   UNL     1      50.830   5.793 102.490  1.00  0.00    -0.000 C 
BRANCH  13  14
ATOM     14  C   UNL     1      51.590   7.043 102.005  1.00  0.00    -0.000 C 
BRANCH  14  15
ATOM     15  C   UNL     1      51.818   7.081 100.480  1.00  0.00    -0.003 C 
ATOM     16  C   UNL     1      50.896   6.126  99.722  1.00  0.00     0.004 C 
ENDBRANCH  14  15
ENDBRANCH  13  14
ENDBRANCH  12  13
ENDBRANCH  11  12
ENDBRANCH  10  11
ENDBRANCH   1  10
TORSDOF 12
ENDMDL
