MODEL 1
REMARK VINA RESULT:    -7.481      0.000      0.000
REMARK INTER + INTRA:          -7.699
REMARK INTER:                  -7.699
REMARK INTRA:                   0.000
REMARK UNBOUND:                 0.000
REMARK SMILES CC1(C)CC[C@@]2(C)CC[C@@]3(C)C(=CC[C@@H]4[C@]5(C)CC[C@@H](O)C(C)(C)[C@@H]5CC[C@@]43C)[C@H]2C1
REMARK SMILES IDX 1 1 2 2 4 3 5 4 6 5 8 6 9 7 10 8 12 9 13 10 14 11 15 12
REMARK SMILES IDX 28 13 27 14 26 15 25 16 16 17 18 18 19 19 20 20 22 21 23 22
REMARK SMILES IDX 24 23 17 24 29 25 30 26 31 27 11 28 7 29 3 30 21 31
REMARK H PARENT 21 32
REMARK Flexibility Score: inf
ROOT
ATOM      1  C   UNL     1     119.987 119.317 122.988  1.00  0.00     0.011 C 
ATOM      2  C   UNL     1     121.133 119.471 124.012  1.00  0.00    -0.035 C 
ATOM      3  C   UNL     1     121.192 118.192 124.902  1.00  0.00     0.007 C 
ATOM      4  C   UNL     1     121.744 118.495 126.301  1.00  0.00     0.008 C 
ATOM      5  C   UNL     1     120.828 119.483 127.104  1.00  0.00    -0.026 C 
ATOM      6  C   UNL     1     121.735 120.278 128.075  1.00  0.00     0.008 C 
ATOM      7  C   UNL     1     120.955 121.298 128.903  1.00  0.00     0.012 C 
ATOM      8  C   UNL     1     120.213 122.382 128.047  1.00  0.00    -0.006 C 
ATOM      9  C   UNL     1     119.593 121.773 126.782  1.00  0.00    -0.064 C 
ATOM     10  C   UNL     1     118.654 122.479 126.121  1.00  0.00    -0.027 C 
ATOM     11  C   UNL     1     118.296 123.889 126.493  1.00  0.00     0.032 C 
ATOM     12  C   UNL     1     118.181 124.125 128.030  1.00  0.00     0.006 C 
ATOM     13  C   UNL     1     119.038 123.095 128.900  1.00  0.00    -0.020 C 
ATOM     14  C   UNL     1     119.628 123.782 130.155  1.00  0.00     0.008 C 
ATOM     15  C   UNL     1     118.648 124.691 130.891  1.00  0.00     0.005 C 
ATOM     16  C   UNL     1     117.865 125.756 130.036  1.00  0.00     0.003 C 
ATOM     17  C   UNL     1     118.179 125.660 128.479  1.00  0.00    -0.025 C 
ATOM     18  C   UNL     1     119.513 126.402 128.155  1.00  0.00     0.010 C 
ATOM     19  C   UNL     1     119.606 127.814 128.753  1.00  0.00     0.033 C 
ATOM     20  C   UNL     1     119.344 127.843 130.271  1.00  0.00     0.120 C 
ATOM     21  C   UNL     1     117.967 127.224 130.662  1.00  0.00    -0.006 C 
ATOM     22  C   UNL     1     117.853 127.184 132.223  1.00  0.00     0.014 C 
ATOM     23  C   UNL     1     116.783 128.142 130.198  1.00  0.00     0.014 C 
ATOM     24  C   UNL     1     117.044 126.350 127.653  1.00  0.00     0.012 C 
ATOM     25  C   UNL     1     118.028 122.008 129.426  1.00  0.00     0.012 C 
ATOM     26  C   UNL     1     120.064 120.461 126.143  1.00  0.00     0.022 C 
ATOM     27  C   UNL     1     120.901 120.753 124.873  1.00  0.00     0.015 C 
ATOM     28  C   UNL     1     121.311 123.380 127.565  1.00  0.00     0.017 C 
ATOM     29  C   UNL     1     119.796 118.642 127.901  1.00  0.00     0.012 C 
ATOM     30  C   UNL     1     122.457 119.625 123.233  1.00  0.00     0.011 C 
ENDROOT
BRANCH  20  31
ATOM     31  O   UNL     1     119.432 129.176 130.713  1.00  0.00    -0.393 OA
ATOM     32  H   UNL     1     119.263 129.759 129.927  1.00  0.00     0.210 HD
ENDBRANCH  20  31
TORSDOF 1
ENDMDL
MODEL 2
REMARK VINA RESULT:    -7.095      2.764      8.090
REMARK INTER + INTRA:          -7.302
REMARK INTER:                  -7.302
REMARK INTRA:                   0.000
REMARK UNBOUND:                 0.000
REMARK SMILES CC1(C)CC[C@@]2(C)CC[C@@]3(C)C(=CC[C@@H]4[C@]5(C)CC[C@@H](O)C(C)(C)[C@@H]5CC[C@@]43C)[C@H]2C1
REMARK SMILES IDX 1 1 2 2 4 3 5 4 6 5 8 6 9 7 10 8 12 9 13 10 14 11 15 12
REMARK SMILES IDX 28 13 27 14 26 15 25 16 16 17 18 18 19 19 20 20 22 21 23 22
REMARK SMILES IDX 24 23 17 24 29 25 30 26 31 27 11 28 7 29 3 30 21 31
REMARK H PARENT 21 32
REMARK Flexibility Score: inf
ROOT
ATOM      1  C   UNL     1     118.125 126.834 131.643  1.00  0.00     0.011 C 
ATOM      2  C   UNL     1     118.119 127.094 130.121  1.00  0.00    -0.035 C 
ATOM      3  C   UNL     1     116.659 126.956 129.590  1.00  0.00     0.007 C 
ATOM      4  C   UNL     1     116.625 126.500 128.125  1.00  0.00     0.008 C 
ATOM      5  C   UNL     1     117.245 125.073 127.929  1.00  0.00    -0.026 C 
ATOM      6  C   UNL     1     117.838 125.013 126.500  1.00  0.00     0.008 C 
ATOM      7  C   UNL     1     118.496 123.669 126.195  1.00  0.00     0.012 C 
ATOM      8  C   UNL     1     119.685 123.307 127.153  1.00  0.00    -0.006 C 
ATOM      9  C   UNL     1     119.382 123.712 128.601  1.00  0.00    -0.064 C 
ATOM     10  C   UNL     1     120.133 123.182 129.588  1.00  0.00    -0.027 C 
ATOM     11  C   UNL     1     121.337 122.328 129.313  1.00  0.00     0.032 C 
ATOM     12  C   UNL     1     121.126 121.292 128.167  1.00  0.00     0.006 C 
ATOM     13  C   UNL     1     119.999 121.721 127.119  1.00  0.00    -0.020 C 
ATOM     14  C   UNL     1     120.375 121.279 125.685  1.00  0.00     0.008 C 
ATOM     15  C   UNL     1     120.931 119.861 125.591  1.00  0.00     0.005 C 
ATOM     16  C   UNL     1     122.096 119.473 126.576  1.00  0.00     0.003 C 
ATOM     17  C   UNL     1     122.468 120.638 127.594  1.00  0.00    -0.025 C 
ATOM     18  C   UNL     1     123.415 121.669 126.905  1.00  0.00     0.010 C 
ATOM     19  C   UNL     1     124.609 121.033 126.176  1.00  0.00     0.033 C 
ATOM     20  C   UNL     1     124.189 119.948 125.166  1.00  0.00     0.120 C 
ATOM     21  C   UNL     1     123.336 118.813 125.812  1.00  0.00    -0.006 C 
ATOM     22  C   UNL     1     122.855 117.836 124.688  1.00  0.00     0.014 C 
ATOM     23  C   UNL     1     124.208 117.927 126.767  1.00  0.00     0.014 C 
ATOM     24  C   UNL     1     123.227 120.055 128.831  1.00  0.00     0.012 C 
ATOM     25  C   UNL     1     118.703 120.914 127.504  1.00  0.00     0.012 C 
ATOM     26  C   UNL     1     118.358 124.783 128.997  1.00  0.00     0.022 C 
ATOM     27  C   UNL     1     119.079 126.089 129.410  1.00  0.00     0.015 C 
ATOM     28  C   UNL     1     120.893 124.180 126.692  1.00  0.00     0.017 C 
ATOM     29  C   UNL     1     116.107 124.029 128.082  1.00  0.00     0.012 C 
ATOM     30  C   UNL     1     118.628 128.531 129.875  1.00  0.00     0.011 C 
ENDROOT
BRANCH  20  31
ATOM     31  O   UNL     1     125.350 119.419 124.572  1.00  0.00    -0.393 OA
ATOM     32  H   UNL     1     125.716 120.117 123.967  1.00  0.00     0.210 HD
ENDBRANCH  20  31
TORSDOF 1
ENDMDL
MODEL 3
REMARK VINA RESULT:    -6.848      2.654      8.049
REMARK INTER + INTRA:          -7.048
REMARK INTER:                  -7.048
REMARK INTRA:                   0.000
REMARK UNBOUND:                 0.000
REMARK SMILES CC1(C)CC[C@@]2(C)CC[C@@]3(C)C(=CC[C@@H]4[C@]5(C)CC[C@@H](O)C(C)(C)[C@@H]5CC[C@@]43C)[C@H]2C1
REMARK SMILES IDX 1 1 2 2 4 3 5 4 6 5 8 6 9 7 10 8 12 9 13 10 14 11 15 12
REMARK SMILES IDX 28 13 27 14 26 15 25 16 16 17 18 18 19 19 20 20 22 21 23 22
REMARK SMILES IDX 24 23 17 24 29 25 30 26 31 27 11 28 7 29 3 30 21 31
REMARK H PARENT 21 32
REMARK Flexibility Score: inf
ROOT
ATOM      1  C   UNL     1     120.757 128.676 130.497  1.00  0.00     0.011 C 
ATOM      2  C   UNL     1     119.479 128.473 129.655  1.00  0.00    -0.035 C 
ATOM      3  C   UNL     1     118.242 128.471 130.605  1.00  0.00     0.007 C 
ATOM      4  C   UNL     1     117.094 127.621 130.046  1.00  0.00     0.008 C 
ATOM      5  C   UNL     1     117.481 126.107 129.911  1.00  0.00    -0.026 C 
ATOM      6  C   UNL     1     116.661 125.517 128.738  1.00  0.00     0.008 C 
ATOM      7  C   UNL     1     116.970 124.042 128.491  1.00  0.00     0.012 C 
ATOM      8  C   UNL     1     118.470 123.754 128.135  1.00  0.00    -0.006 C 
ATOM      9  C   UNL     1     119.423 124.616 128.973  1.00  0.00    -0.064 C 
ATOM     10  C   UNL     1     120.723 124.265 129.036  1.00  0.00    -0.027 C 
ATOM     11  C   UNL     1     121.297 123.151 128.208  1.00  0.00     0.032 C 
ATOM     12  C   UNL     1     120.389 121.886 128.138  1.00  0.00     0.006 C 
ATOM     13  C   UNL     1     118.840 122.198 128.379  1.00  0.00    -0.020 C 
ATOM     14  C   UNL     1     117.946 121.291 127.501  1.00  0.00     0.008 C 
ATOM     15  C   UNL     1     118.379 119.828 127.466  1.00  0.00     0.005 C 
ATOM     16  C   UNL     1     119.892 119.528 127.150  1.00  0.00     0.003 C 
ATOM     17  C   UNL     1     120.769 120.845 126.985  1.00  0.00    -0.025 C 
ATOM     18  C   UNL     1     120.600 121.424 125.547  1.00  0.00     0.010 C 
ATOM     19  C   UNL     1     120.768 120.384 124.428  1.00  0.00     0.033 C 
ATOM     20  C   UNL     1     119.859 119.153 124.610  1.00  0.00     0.120 C 
ATOM     21  C   UNL     1     120.062 118.446 125.985  1.00  0.00    -0.006 C 
ATOM     22  C   UNL     1     119.010 117.294 126.123  1.00  0.00     0.014 C 
ATOM     23  C   UNL     1     121.453 117.727 126.051  1.00  0.00     0.014 C 
ATOM     24  C   UNL     1     122.285 120.516 127.184  1.00  0.00     0.012 C 
ATOM     25  C   UNL     1     118.534 121.806 129.872  1.00  0.00     0.012 C 
ATOM     26  C   UNL     1     119.018 125.933 129.647  1.00  0.00     0.022 C 
ATOM     27  C   UNL     1     119.582 127.137 128.853  1.00  0.00     0.015 C 
ATOM     28  C   UNL     1     118.657 124.201 126.652  1.00  0.00     0.017 C 
ATOM     29  C   UNL     1     117.108 125.396 131.238  1.00  0.00     0.012 C 
ATOM     30  C   UNL     1     119.367 129.647 128.659  1.00  0.00     0.011 C 
ENDROOT
BRANCH  20  31
ATOM     31  O   UNL     1     120.105 118.259 123.551  1.00  0.00    -0.393 OA
ATOM     32  H   UNL     1     119.348 118.341 122.914  1.00  0.00     0.210 HD
ENDBRANCH  20  31
TORSDOF 1
ENDMDL
MODEL 4
REMARK VINA RESULT:    -6.667      4.310      8.282
REMARK INTER + INTRA:          -6.862
REMARK INTER:                  -6.862
REMARK INTRA:                   0.000
REMARK UNBOUND:                 0.000
REMARK SMILES CC1(C)CC[C@@]2(C)CC[C@@]3(C)C(=CC[C@@H]4[C@]5(C)CC[C@@H](O)C(C)(C)[C@@H]5CC[C@@]43C)[C@H]2C1
REMARK SMILES IDX 1 1 2 2 4 3 5 4 6 5 8 6 9 7 10 8 12 9 13 10 14 11 15 12
REMARK SMILES IDX 28 13 27 14 26 15 25 16 16 17 18 18 19 19 20 20 22 21 23 22
REMARK SMILES IDX 24 23 17 24 29 25 30 26 31 27 11 28 7 29 3 30 21 31
REMARK H PARENT 21 32
REMARK Flexibility Score: inf
ROOT
ATOM      1  C   UNL     1     115.082 122.402 131.741  1.00  0.00     0.011 C 
ATOM      2  C   UNL     1     115.789 121.122 132.237  1.00  0.00    -0.035 C 
ATOM      3  C   UNL     1     116.630 121.466 133.504  1.00  0.00     0.007 C 
ATOM      4  C   UNL     1     117.849 120.546 133.648  1.00  0.00     0.008 C 
ATOM      5  C   UNL     1     118.860 120.702 132.459  1.00  0.00    -0.026 C 
ATOM      6  C   UNL     1     119.578 119.344 132.274  1.00  0.00     0.008 C 
ATOM      7  C   UNL     1     120.579 119.362 131.120  1.00  0.00     0.012 C 
ATOM      8  C   UNL     1     119.940 119.687 129.725  1.00  0.00    -0.006 C 
ATOM      9  C   UNL     1     118.867 120.778 129.838  1.00  0.00    -0.064 C 
ATOM     10  C   UNL     1     118.464 121.404 128.714  1.00  0.00    -0.027 C 
ATOM     11  C   UNL     1     118.920 120.979 127.348  1.00  0.00     0.032 C 
ATOM     12  C   UNL     1     120.438 120.634 127.270  1.00  0.00     0.006 C 
ATOM     13  C   UNL     1     121.063 120.182 128.671  1.00  0.00    -0.020 C 
ATOM     14  C   UNL     1     122.135 119.084 128.474  1.00  0.00     0.008 C 
ATOM     15  C   UNL     1     123.096 119.346 127.318  1.00  0.00     0.005 C 
ATOM     16  C   UNL     1     122.468 119.714 125.922  1.00  0.00     0.003 C 
ATOM     17  C   UNL     1     120.882 119.829 125.961  1.00  0.00    -0.025 C 
ATOM     18  C   UNL     1     120.239 118.411 125.860  1.00  0.00     0.010 C 
ATOM     19  C   UNL     1     120.803 117.549 124.719  1.00  0.00     0.033 C 
ATOM     20  C   UNL     1     122.338 117.429 124.758  1.00  0.00     0.120 C 
ATOM     21  C   UNL     1     123.057 118.813 124.740  1.00  0.00    -0.006 C 
ATOM     22  C   UNL     1     124.597 118.588 124.911  1.00  0.00     0.014 C 
ATOM     23  C   UNL     1     122.906 119.508 123.343  1.00  0.00     0.014 C 
ATOM     24  C   UNL     1     120.368 120.667 124.745  1.00  0.00     0.012 C 
ATOM     25  C   UNL     1     121.818 121.437 129.247  1.00  0.00     0.012 C 
ATOM     26  C   UNL     1     118.124 121.118 131.136  1.00  0.00     0.022 C 
ATOM     27  C   UNL     1     116.687 120.541 131.099  1.00  0.00     0.015 C 
ATOM     28  C   UNL     1     119.206 118.388 129.271  1.00  0.00     0.017 C 
ATOM     29  C   UNL     1     119.884 121.803 132.840  1.00  0.00     0.012 C 
ATOM     30  C   UNL     1     114.706 120.082 132.598  1.00  0.00     0.011 C 
ENDROOT
BRANCH  20  31
ATOM     31  O   UNL     1     122.751 116.641 123.667  1.00  0.00    -0.393 OA
ATOM     32  H   UNL     1     122.286 116.987 122.861  1.00  0.00     0.210 HD
ENDBRANCH  20  31
TORSDOF 1
ENDMDL
MODEL 5
REMARK VINA RESULT:    -6.611      3.115      5.091
REMARK INTER + INTRA:          -6.804
REMARK INTER:                  -6.804
REMARK INTRA:                   0.000
REMARK UNBOUND:                 0.000
REMARK SMILES CC1(C)CC[C@@]2(C)CC[C@@]3(C)C(=CC[C@@H]4[C@]5(C)CC[C@@H](O)C(C)(C)[C@@H]5CC[C@@]43C)[C@H]2C1
REMARK SMILES IDX 1 1 2 2 4 3 5 4 6 5 8 6 9 7 10 8 12 9 13 10 14 11 15 12
REMARK SMILES IDX 28 13 27 14 26 15 25 16 16 17 18 18 19 19 20 20 22 21 23 22
REMARK SMILES IDX 24 23 17 24 29 25 30 26 31 27 11 28 7 29 3 30 21 31
REMARK H PARENT 21 32
REMARK Flexibility Score: inf
ROOT
ATOM      1  C   UNL     1     126.090 124.246 127.252  1.00  0.00     0.011 C 
ATOM      2  C   UNL     1     125.801 123.119 128.266  1.00  0.00    -0.035 C 
ATOM      3  C   UNL     1     126.322 121.768 127.685  1.00  0.00     0.007 C 
ATOM      4  C   UNL     1     125.515 120.573 128.206  1.00  0.00     0.008 C 
ATOM      5  C   UNL     1     124.010 120.629 127.766  1.00  0.00    -0.026 C 
ATOM      6  C   UNL     1     123.177 119.911 128.855  1.00  0.00     0.008 C 
ATOM      7  C   UNL     1     121.681 119.920 128.549  1.00  0.00     0.012 C 
ATOM      8  C   UNL     1     121.061 121.356 128.431  1.00  0.00    -0.006 C 
ATOM      9  C   UNL     1     122.008 122.319 127.703  1.00  0.00    -0.064 C 
ATOM     10  C   UNL     1     121.508 123.478 127.227  1.00  0.00    -0.027 C 
ATOM     11  C   UNL     1     120.100 123.921 127.506  1.00  0.00     0.032 C 
ATOM     12  C   UNL     1     119.046 122.779 127.391  1.00  0.00     0.006 C 
ATOM     13  C   UNL     1     119.654 121.321 127.634  1.00  0.00    -0.020 C 
ATOM     14  C   UNL     1     118.643 120.411 128.371  1.00  0.00     0.008 C 
ATOM     15  C   UNL     1     117.214 120.506 127.844  1.00  0.00     0.005 C 
ATOM     16  C   UNL     1     116.596 121.944 127.681  1.00  0.00     0.003 C 
ATOM     17  C   UNL     1     117.620 123.109 128.037  1.00  0.00    -0.025 C 
ATOM     18  C   UNL     1     117.674 123.322 129.581  1.00  0.00     0.010 C 
ATOM     19  C   UNL     1     116.293 123.443 130.246  1.00  0.00     0.033 C 
ATOM     20  C   UNL     1     115.359 122.265 129.910  1.00  0.00     0.120 C 
ATOM     21  C   UNL     1     115.160 122.064 128.376  1.00  0.00    -0.006 C 
ATOM     22  C   UNL     1     114.305 120.774 128.139  1.00  0.00     0.014 C 
ATOM     23  C   UNL     1     114.308 123.228 127.762  1.00  0.00     0.014 C 
ATOM     24  C   UNL     1     117.155 124.455 127.391  1.00  0.00     0.012 C 
ATOM     25  C   UNL     1     119.866 120.684 126.210  1.00  0.00     0.012 C 
ATOM     26  C   UNL     1     123.523 122.110 127.590  1.00  0.00     0.022 C 
ATOM     27  C   UNL     1     124.269 123.056 128.563  1.00  0.00     0.015 C 
ATOM     28  C   UNL     1     120.924 121.889 129.891  1.00  0.00     0.017 C 
ATOM     29  C   UNL     1     123.878 119.885 126.411  1.00  0.00     0.012 C 
ATOM     30  C   UNL     1     126.551 123.445 129.576  1.00  0.00     0.011 C 
ENDROOT
BRANCH  20  31
ATOM     31  O   UNL     1     114.123 122.481 130.547  1.00  0.00    -0.393 OA
ATOM     32  H   UNL     1     114.233 123.264 131.147  1.00  0.00     0.210 HD
ENDBRANCH  20  31
TORSDOF 1
ENDMDL
MODEL 6
REMARK VINA RESULT:    -6.587      4.965      7.329
REMARK INTER + INTRA:          -6.779
REMARK INTER:                  -6.779
REMARK INTRA:                   0.000
REMARK UNBOUND:                 0.000
REMARK SMILES CC1(C)CC[C@@]2(C)CC[C@@]3(C)C(=CC[C@@H]4[C@]5(C)CC[C@@H](O)C(C)(C)[C@@H]5CC[C@@]43C)[C@H]2C1
REMARK SMILES IDX 1 1 2 2 4 3 5 4 6 5 8 6 9 7 10 8 12 9 13 10 14 11 15 12
REMARK SMILES IDX 28 13 27 14 26 15 25 16 16 17 18 18 19 19 20 20 22 21 23 22
REMARK SMILES IDX 24 23 17 24 29 25 30 26 31 27 11 28 7 29 3 30 21 31
REMARK H PARENT 21 32
REMARK Flexibility Score: inf
ROOT
ATOM      1  C   UNL     1     126.899 121.461 130.622  1.00  0.00     0.011 C 
ATOM      2  C   UNL     1     126.399 122.464 131.684  1.00  0.00    -0.035 C 
ATOM      3  C   UNL     1     126.956 122.044 133.079  1.00  0.00     0.007 C 
ATOM      4  C   UNL     1     126.025 122.477 134.219  1.00  0.00     0.008 C 
ATOM      5  C   UNL     1     124.619 121.785 134.139  1.00  0.00    -0.026 C 
ATOM      6  C   UNL     1     123.587 122.750 134.771  1.00  0.00     0.008 C 
ATOM      7  C   UNL     1     122.165 122.194 134.731  1.00  0.00     0.012 C 
ATOM      8  C   UNL     1     121.632 121.906 133.285  1.00  0.00    -0.006 C 
ATOM      9  C   UNL     1     122.725 121.304 132.392  1.00  0.00    -0.064 C 
ATOM     10  C   UNL     1     122.359 120.696 131.246  1.00  0.00    -0.027 C 
ATOM     11  C   UNL     1     120.944 120.711 130.744  1.00  0.00     0.032 C 
ATOM     12  C   UNL     1     119.878 120.473 131.857  1.00  0.00     0.006 C 
ATOM     13  C   UNL     1     120.378 120.884 133.318  1.00  0.00    -0.020 C 
ATOM     14  C   UNL     1     119.222 121.480 134.155  1.00  0.00     0.008 C 
ATOM     15  C   UNL     1     117.907 120.715 134.043  1.00  0.00     0.005 C 
ATOM     16  C   UNL     1     117.383 120.382 132.597  1.00  0.00     0.003 C 
ATOM     17  C   UNL     1     118.379 120.851 131.448  1.00  0.00    -0.025 C 
ATOM     18  C   UNL     1     118.181 122.370 131.154  1.00  0.00     0.010 C 
ATOM     19  C   UNL     1     116.715 122.784 130.955  1.00  0.00     0.033 C 
ATOM     20  C   UNL     1     115.804 122.351 132.119  1.00  0.00     0.120 C 
ATOM     21  C   UNL     1     115.857 120.817 132.394  1.00  0.00    -0.006 C 
ATOM     22  C   UNL     1     115.003 120.499 133.668  1.00  0.00     0.014 C 
ATOM     23  C   UNL     1     115.167 120.012 131.239  1.00  0.00     0.014 C 
ATOM     24  C   UNL     1     118.084 120.073 130.123  1.00  0.00     0.012 C 
ATOM     25  C   UNL     1     120.800 119.548 134.036  1.00  0.00     0.012 C 
ATOM     26  C   UNL     1     124.228 121.460 132.655  1.00  0.00     0.022 C 
ATOM     27  C   UNL     1     124.838 122.499 131.682  1.00  0.00     0.015 C 
ATOM     28  C   UNL     1     121.273 123.294 132.671  1.00  0.00     0.017 C 
ATOM     29  C   UNL     1     124.686 120.465 134.950  1.00  0.00     0.012 C 
ATOM     30  C   UNL     1     126.931 123.865 131.313  1.00  0.00     0.011 C 
ENDROOT
BRANCH  20  31
ATOM     31  O   UNL     1     114.488 122.758 131.830  1.00  0.00    -0.393 OA
ATOM     32  H   UNL     1     113.882 122.245 132.427  1.00  0.00     0.210 HD
ENDBRANCH  20  31
TORSDOF 1
ENDMDL
MODEL 7
REMARK VINA RESULT:    -6.566      3.733      8.350
REMARK INTER + INTRA:          -6.758
REMARK INTER:                  -6.758
REMARK INTRA:                   0.000
REMARK UNBOUND:                 0.000
REMARK SMILES CC1(C)CC[C@@]2(C)CC[C@@]3(C)C(=CC[C@@H]4[C@]5(C)CC[C@@H](O)C(C)(C)[C@@H]5CC[C@@]43C)[C@H]2C1
REMARK SMILES IDX 1 1 2 2 4 3 5 4 6 5 8 6 9 7 10 8 12 9 13 10 14 11 15 12
REMARK SMILES IDX 28 13 27 14 26 15 25 16 16 17 18 18 19 19 20 20 22 21 23 22
REMARK SMILES IDX 24 23 17 24 29 25 30 26 31 27 11 28 7 29 3 30 21 31
REMARK H PARENT 21 32
REMARK Flexibility Score: inf
ROOT
ATOM      1  C   UNL     1     117.539 119.019 134.656  1.00  0.00     0.011 C 
ATOM      2  C   UNL     1     117.691 120.438 134.068  1.00  0.00    -0.035 C 
ATOM      3  C   UNL     1     116.275 121.009 133.749  1.00  0.00     0.007 C 
ATOM      4  C   UNL     1     116.312 122.010 132.587  1.00  0.00     0.008 C 
ATOM      5  C   UNL     1     116.775 121.350 131.242  1.00  0.00    -0.026 C 
ATOM      6  C   UNL     1     117.476 122.445 130.401  1.00  0.00     0.008 C 
ATOM      7  C   UNL     1     117.996 121.914 129.066  1.00  0.00     0.012 C 
ATOM      8  C   UNL     1     119.049 120.759 129.204  1.00  0.00    -0.006 C 
ATOM      9  C   UNL     1     118.674 119.789 130.332  1.00  0.00    -0.064 C 
ATOM     10  C   UNL     1     119.273 118.581 130.368  1.00  0.00    -0.027 C 
ATOM     11  C   UNL     1     120.388 118.207 129.434  1.00  0.00     0.032 C 
ATOM     12  C   UNL     1     120.155 118.662 127.961  1.00  0.00     0.006 C 
ATOM     13  C   UNL     1     119.177 119.920 127.828  1.00  0.00    -0.020 C 
ATOM     14  C   UNL     1     119.619 120.848 126.672  1.00  0.00     0.008 C 
ATOM     15  C   UNL     1     120.012 120.115 125.393  1.00  0.00     0.005 C 
ATOM     16  C   UNL     1     121.036 118.927 125.524  1.00  0.00     0.003 C 
ATOM     17  C   UNL     1     121.455 118.626 127.030  1.00  0.00    -0.025 C 
ATOM     18  C   UNL     1     122.570 119.618 127.484  1.00  0.00     0.010 C 
ATOM     19  C   UNL     1     123.739 119.742 126.494  1.00  0.00     0.033 C 
ATOM     20  C   UNL     1     123.282 120.084 125.063  1.00  0.00     0.120 C 
ATOM     21  C   UNL     1     122.251 119.062 124.493  1.00  0.00    -0.006 C 
ATOM     22  C   UNL     1     121.756 119.565 123.096  1.00  0.00     0.014 C 
ATOM     23  C   UNL     1     122.930 117.679 124.203  1.00  0.00     0.014 C 
ATOM     24  C   UNL     1     122.033 117.178 127.153  1.00  0.00     0.012 C 
ATOM     25  C   UNL     1     117.769 119.348 127.420  1.00  0.00     0.012 C 
ATOM     26  C   UNL     1     117.753 120.150 131.503  1.00  0.00     0.022 C 
ATOM     27  C   UNL     1     118.584 120.385 132.788  1.00  0.00     0.015 C 
ATOM     28  C   UNL     1     120.386 121.441 129.632  1.00  0.00     0.017 C 
ATOM     29  C   UNL     1     115.515 120.829 130.503  1.00  0.00     0.012 C 
ATOM     30  C   UNL     1     118.384 121.326 135.125  1.00  0.00     0.011 C 
ENDROOT
BRANCH  20  31
ATOM     31  O   UNL     1     124.420 120.154 124.238  1.00  0.00    -0.393 OA
ATOM     32  H   UNL     1     124.531 121.104 123.969  1.00  0.00     0.210 HD
ENDBRANCH  20  31
TORSDOF 1
ENDMDL
MODEL 8
REMARK VINA RESULT:    -6.554      3.945      5.825
REMARK INTER + INTRA:          -6.746
REMARK INTER:                  -6.746
REMARK INTRA:                   0.000
REMARK UNBOUND:                 0.000
REMARK SMILES CC1(C)CC[C@@]2(C)CC[C@@]3(C)C(=CC[C@@H]4[C@]5(C)CC[C@@H](O)C(C)(C)[C@@H]5CC[C@@]43C)[C@H]2C1
REMARK SMILES IDX 1 1 2 2 4 3 5 4 6 5 8 6 9 7 10 8 12 9 13 10 14 11 15 12
REMARK SMILES IDX 28 13 27 14 26 15 25 16 16 17 18 18 19 19 20 20 22 21 23 22
REMARK SMILES IDX 24 23 17 24 29 25 30 26 31 27 11 28 7 29 3 30 21 31
REMARK H PARENT 21 32
REMARK Flexibility Score: inf
ROOT
ATOM      1  C   UNL     1     125.831 121.760 126.891  1.00  0.00     0.011 C 
ATOM      2  C   UNL     1     125.636 122.882 127.935  1.00  0.00    -0.035 C 
ATOM      3  C   UNL     1     126.637 122.658 129.110  1.00  0.00     0.007 C 
ATOM      4  C   UNL     1     126.096 123.216 130.433  1.00  0.00     0.008 C 
ATOM      5  C   UNL     1     124.785 122.490 130.897  1.00  0.00    -0.026 C 
ATOM      6  C   UNL     1     123.953 123.506 131.715  1.00  0.00     0.008 C 
ATOM      7  C   UNL     1     122.631 122.919 132.207  1.00  0.00     0.012 C 
ATOM      8  C   UNL     1     121.680 122.434 131.057  1.00  0.00    -0.006 C 
ATOM      9  C   UNL     1     122.465 121.745 129.933  1.00  0.00    -0.064 C 
ATOM     10  C   UNL     1     121.788 120.985 129.047  1.00  0.00    -0.027 C 
ATOM     11  C   UNL     1     120.289 120.904 129.037  1.00  0.00     0.032 C 
ATOM     12  C   UNL     1     119.654 120.790 130.456  1.00  0.00     0.006 C 
ATOM     13  C   UNL     1     120.571 121.398 131.616  1.00  0.00    -0.020 C 
ATOM     14  C   UNL     1     119.709 122.074 132.710  1.00  0.00     0.008 C 
ATOM     15  C   UNL     1     118.479 121.272 133.123  1.00  0.00     0.005 C 
ATOM     16  C   UNL     1     117.539 120.743 131.976  1.00  0.00     0.003 C 
ATOM     17  C   UNL     1     118.082 121.079 130.518  1.00  0.00    -0.025 C 
ATOM     18  C   UNL     1     117.707 122.543 130.131  1.00  0.00     0.010 C 
ATOM     19  C   UNL     1     116.231 122.896 130.375  1.00  0.00     0.033 C 
ATOM     20  C   UNL     1     115.771 122.599 131.815  1.00  0.00     0.120 C 
ATOM     21  C   UNL     1     116.005 121.114 132.234  1.00  0.00    -0.006 C 
ATOM     22  C   UNL     1     115.627 120.947 133.744  1.00  0.00     0.014 C 
ATOM     23  C   UNL     1     115.033 120.152 131.468  1.00  0.00     0.014 C 
ATOM     24  C   UNL     1     117.427 120.130 129.463  1.00  0.00     0.012 C 
ATOM     25  C   UNL     1     121.283 120.177 132.307  1.00  0.00     0.012 C 
ATOM     26  C   UNL     1     123.959 121.966 129.670  1.00  0.00     0.022 C 
ATOM     27  C   UNL     1     124.158 122.883 128.439  1.00  0.00     0.015 C 
ATOM     28  C   UNL     1     121.057 123.723 130.438  1.00  0.00     0.017 C 
ATOM     29  C   UNL     1     125.192 121.287 131.789  1.00  0.00     0.012 C 
ATOM     30  C   UNL     1     125.932 124.234 127.250  1.00  0.00     0.011 C 
ENDROOT
BRANCH  20  31
ATOM     31  O   UNL     1     114.409 122.936 131.926  1.00  0.00    -0.393 OA
ATOM     32  H   UNL     1     113.901 122.088 132.018  1.00  0.00     0.210 HD
ENDBRANCH  20  31
TORSDOF 1
ENDMDL
MODEL 9
REMARK VINA RESULT:    -6.547      3.261      8.257
REMARK INTER + INTRA:          -6.738
REMARK INTER:                  -6.738
REMARK INTRA:                   0.000
REMARK UNBOUND:                 0.000
REMARK SMILES CC1(C)CC[C@@]2(C)CC[C@@]3(C)C(=CC[C@@H]4[C@]5(C)CC[C@@H](O)C(C)(C)[C@@H]5CC[C@@]43C)[C@H]2C1
REMARK SMILES IDX 1 1 2 2 4 3 5 4 6 5 8 6 9 7 10 8 12 9 13 10 14 11 15 12
REMARK SMILES IDX 28 13 27 14 26 15 25 16 16 17 18 18 19 19 20 20 22 21 23 22
REMARK SMILES IDX 24 23 17 24 29 25 30 26 31 27 11 28 7 29 3 30 21 31
REMARK H PARENT 21 32
REMARK Flexibility Score: inf
ROOT
ATOM      1  C   UNL     1     117.669 126.878 131.729  1.00  0.00     0.011 C 
ATOM      2  C   UNL     1     118.164 126.789 130.269  1.00  0.00    -0.035 C 
ATOM      3  C   UNL     1     116.971 127.092 129.310  1.00  0.00     0.007 C 
ATOM      4  C   UNL     1     117.129 126.378 127.961  1.00  0.00     0.008 C 
ATOM      5  C   UNL     1     117.122 124.816 128.106  1.00  0.00    -0.026 C 
ATOM      6  C   UNL     1     117.982 124.237 126.956  1.00  0.00     0.008 C 
ATOM      7  C   UNL     1     118.072 122.712 127.004  1.00  0.00     0.012 C 
ATOM      8  C   UNL     1     118.709 122.150 128.322  1.00  0.00    -0.006 C 
ATOM      9  C   UNL     1     118.241 122.938 129.553  1.00  0.00    -0.064 C 
ATOM     10  C   UNL     1     118.419 122.393 130.773  1.00  0.00    -0.027 C 
ATOM     11  C   UNL     1     119.182 121.116 130.980  1.00  0.00     0.032 C 
ATOM     12  C   UNL     1     118.860 120.013 129.927  1.00  0.00     0.006 C 
ATOM     13  C   UNL     1     118.327 120.593 128.537  1.00  0.00    -0.020 C 
ATOM     14  C   UNL     1     118.840 119.747 127.347  1.00  0.00     0.008 C 
ATOM     15  C   UNL     1     118.755 118.239 127.567  1.00  0.00     0.005 C 
ATOM     16  C   UNL     1     119.353 117.668 128.906  1.00  0.00     0.003 C 
ATOM     17  C   UNL     1     119.903 118.801 129.879  1.00  0.00    -0.025 C 
ATOM     18  C   UNL     1     121.336 119.234 129.441  1.00  0.00     0.010 C 
ATOM     19  C   UNL     1     122.298 118.061 129.197  1.00  0.00     0.033 C 
ATOM     20  C   UNL     1     121.739 117.019 128.209  1.00  0.00     0.120 C 
ATOM     21  C   UNL     1     120.355 116.448 128.647  1.00  0.00    -0.006 C 
ATOM     22  C   UNL     1     119.817 115.502 127.521  1.00  0.00     0.014 C 
ATOM     23  C   UNL     1     120.497 115.529 129.908  1.00  0.00     0.014 C 
ATOM     24  C   UNL     1     120.001 118.258 131.343  1.00  0.00     0.012 C 
ATOM     25  C   UNL     1     116.762 120.426 128.555  1.00  0.00     0.012 C 
ATOM     26  C   UNL     1     117.695 124.370 129.497  1.00  0.00     0.022 C 
ATOM     27  C   UNL     1     118.763 125.372 130.001  1.00  0.00     0.015 C 
ATOM     28  C   UNL     1     120.245 122.392 128.199  1.00  0.00     0.017 C 
ATOM     29  C   UNL     1     115.655 124.328 127.978  1.00  0.00     0.012 C 
ATOM     30  C   UNL     1     119.272 127.846 130.070  1.00  0.00     0.011 C 
ENDROOT
BRANCH  20  31
ATOM     31  O   UNL     1     122.682 115.984 128.072  1.00  0.00    -0.393 OA
ATOM     32  H   UNL     1     122.402 115.430 127.297  1.00  0.00     0.210 HD
ENDBRANCH  20  31
TORSDOF 1
ENDMDL
