MODEL 1
REMARK VINA RESULT:     9.424      0.000      0.000
REMARK INTER + INTRA:          11.108
REMARK INTER:                  11.352
REMARK INTRA:                  -0.244
REMARK UNBOUND:                -0.244
REMARK SMILES O=c1c(O)c(-c2ccc(O)c(O)c2)oc2cc(O)cc(O)c12
REMARK SMILES IDX 5 1 3 2 2 3 1 4 22 5 20 6 19 7 17 8 16 9 15 10 14 11 6 12
REMARK SMILES IDX 7 13 8 14 9 15 13 16 11 17 10 18 12 20 4 22 21 24 18 26
REMARK H PARENT 10 19 12 21 4 23 21 25 18 27
REMARK Flexibility Score: inf
ROOT
ATOM      1  C   UNL     1     141.985 173.862 174.250  1.00  0.00     0.180 A 
ATOM      2  C   UNL     1     141.951 174.630 175.430  1.00  0.00     0.208 A 
ATOM      3  C   UNL     1     141.772 173.976 176.660  1.00  0.00     0.238 A 
ATOM      4  O   UNL     1     141.750 174.653 177.725  1.00  0.00    -0.285 OA
ATOM      5  C   UNL     1     141.610 172.576 176.688  1.00  0.00     0.111 A 
ATOM      6  C   UNL     1     141.421 171.843 177.884  1.00  0.00     0.134 A 
ATOM      7  C   UNL     1     141.259 170.451 177.828  1.00  0.00     0.093 A 
ATOM      8  C   UNL     1     141.281 169.779 176.600  1.00  0.00     0.123 A 
ATOM      9  C   UNL     1     141.468 170.499 175.419  1.00  0.00     0.094 A 
ATOM     10  C   UNL     1     141.633 171.886 175.453  1.00  0.00     0.146 A 
ATOM     11  O   UNL     1     141.814 172.545 174.314  1.00  0.00    -0.452 OA
ENDROOT
BRANCH   1  12
ATOM     12  C   UNL     1     142.188 174.475 172.918  1.00  0.00     0.025 A 
ATOM     13  C   UNL     1     141.141 174.462 171.985  1.00  0.00     0.016 A 
ATOM     14  C   UNL     1     141.317 175.016 170.714  1.00  0.00     0.051 A 
ATOM     15  C   UNL     1     142.545 175.577 170.352  1.00  0.00     0.157 A 
ATOM     16  C   UNL     1     143.430 175.021 172.545  1.00  0.00     0.062 A 
ATOM     17  C   UNL     1     143.609 175.577 171.270  1.00  0.00     0.158 A 
BRANCH  15  18
ATOM     18  O   UNL     1     142.691 176.125 169.078  1.00  0.00    -0.504 OA
ATOM     19  H   UNL     1     142.839 175.549 168.258  1.00  0.00     0.293 HD
ENDBRANCH  15  18
BRANCH  17  20
ATOM     20  O   UNL     1     144.841 176.121 170.910  1.00  0.00    -0.504 OA
ATOM     21  H   UNL     1     145.149 177.019 171.264  1.00  0.00     0.293 HD
ENDBRANCH  17  20
ENDBRANCH   1  12
BRANCH   2  22
ATOM     22  O   UNL     1     142.064 176.021 175.371  1.00  0.00    -0.502 OA
ATOM     23  H   UNL     1     142.517 176.560 176.099  1.00  0.00     0.293 HD
ENDBRANCH   2  22
BRANCH   6  24
ATOM     24  O   UNL     1     141.393 172.484 179.124  1.00  0.00    -0.507 OA
ATOM     25  H   UNL     1     141.503 173.488 179.206  1.00  0.00     0.293 HD
ENDBRANCH   6  24
BRANCH   8  26
ATOM     26  O   UNL     1     141.119 168.397 176.544  1.00  0.00    -0.508 OA
ATOM     27  H   UNL     1     140.314 167.940 176.956  1.00  0.00     0.293 HD
ENDBRANCH   8  26
TORSDOF 6
ENDMDL
MODEL 2
REMARK VINA RESULT:    11.450      0.656      1.489
REMARK INTER + INTRA:          13.549
REMARK INTER:                  13.705
REMARK INTRA:                  -0.156
REMARK UNBOUND:                -0.244
REMARK SMILES O=c1c(O)c(-c2ccc(O)c(O)c2)oc2cc(O)cc(O)c12
REMARK SMILES IDX 5 1 3 2 2 3 1 4 22 5 20 6 19 7 17 8 16 9 15 10 14 11 6 12
REMARK SMILES IDX 7 13 8 14 9 15 13 16 11 17 10 18 12 20 4 22 21 24 18 26
REMARK H PARENT 10 19 12 21 4 23 21 25 18 27
REMARK Flexibility Score: inf
ROOT
ATOM      1  C   UNL     1     142.019 173.925 174.167  1.00  0.00     0.180 A 
ATOM      2  C   UNL     1     142.082 174.744 175.311  1.00  0.00     0.208 A 
ATOM      3  C   UNL     1     141.946 174.151 176.577  1.00  0.00     0.238 A 
ATOM      4  O   UNL     1     142.011 174.873 177.610  1.00  0.00    -0.285 OA
ATOM      5  C   UNL     1     141.729 172.761 176.677  1.00  0.00     0.111 A 
ATOM      6  C   UNL     1     141.578 172.089 177.913  1.00  0.00     0.134 A 
ATOM      7  C   UNL     1     141.356 170.704 177.928  1.00  0.00     0.093 A 
ATOM      8  C   UNL     1     141.282 169.980 176.732  1.00  0.00     0.123 A 
ATOM      9  C   UNL     1     141.432 170.641 175.511  1.00  0.00     0.094 A 
ATOM     10  C   UNL     1     141.655 172.019 175.474  1.00  0.00     0.146 A 
ATOM     11  O   UNL     1     141.799 172.621 174.299  1.00  0.00    -0.452 OA
ENDROOT
BRANCH   1  12
ATOM     12  C   UNL     1     142.172 174.472 172.800  1.00  0.00     0.025 A 
ATOM     13  C   UNL     1     143.386 175.069 172.427  1.00  0.00     0.016 A 
ATOM     14  C   UNL     1     143.546 175.611 171.149  1.00  0.00     0.051 A 
ATOM     15  C   UNL     1     142.493 175.578 170.231  1.00  0.00     0.157 A 
ATOM     16  C   UNL     1     141.107 174.459 171.881  1.00  0.00     0.062 A 
ATOM     17  C   UNL     1     141.265 175.002 170.599  1.00  0.00     0.158 A 
BRANCH  15  18
ATOM     18  O   UNL     1     142.683 176.124 168.961  1.00  0.00    -0.504 OA
ATOM     19  H   UNL     1     141.971 176.076 168.243  1.00  0.00     0.293 HD
ENDBRANCH  15  18
BRANCH  17  20
ATOM     20  O   UNL     1     140.206 174.980 169.692  1.00  0.00    -0.504 OA
ATOM     21  H   UNL     1     139.243 174.916 170.002  1.00  0.00     0.293 HD
ENDBRANCH  17  20
ENDBRANCH   1  12
BRANCH   2  22
ATOM     22  O   UNL     1     142.248 176.125 175.184  1.00  0.00    -0.502 OA
ATOM     23  H   UNL     1     143.099 176.598 175.462  1.00  0.00     0.293 HD
ENDBRANCH   2  22
BRANCH   6  24
ATOM     24  O   UNL     1     141.645 172.783 179.122  1.00  0.00    -0.507 OA
ATOM     25  H   UNL     1     142.378 172.603 179.799  1.00  0.00     0.293 HD
ENDBRANCH   6  24
BRANCH   8  26
ATOM     26  O   UNL     1     141.062 168.605 176.747  1.00  0.00    -0.508 OA
ATOM     27  H   UNL     1     141.608 167.974 176.171  1.00  0.00     0.293 HD
ENDBRANCH   8  26
TORSDOF 6
ENDMDL
MODEL 3
REMARK VINA RESULT:    11.923      1.817      6.937
REMARK INTER + INTRA:          14.119
REMARK INTER:                  14.376
REMARK INTRA:                  -0.257
REMARK UNBOUND:                -0.244
REMARK SMILES O=c1c(O)c(-c2ccc(O)c(O)c2)oc2cc(O)cc(O)c12
REMARK SMILES IDX 5 1 3 2 2 3 1 4 22 5 20 6 19 7 17 8 16 9 15 10 14 11 6 12
REMARK SMILES IDX 7 13 8 14 9 15 13 16 11 17 10 18 12 20 4 22 21 24 18 26
REMARK H PARENT 10 19 12 21 4 23 21 25 18 27
REMARK Flexibility Score: inf
ROOT
ATOM      1  C   UNL     1     142.301 174.527 173.620  1.00  0.00     0.180 A 
ATOM      2  C   UNL     1     143.495 175.032 173.069  1.00  0.00     0.208 A 
ATOM      3  C   UNL     1     143.513 175.403 171.715  1.00  0.00     0.238 A 
ATOM      4  O   UNL     1     144.574 175.867 171.213  1.00  0.00    -0.285 OA
ATOM      5  C   UNL     1     142.351 175.245 170.933  1.00  0.00     0.111 A 
ATOM      6  C   UNL     1     142.288 175.590 169.561  1.00  0.00     0.134 A 
ATOM      7  C   UNL     1     141.096 175.394 168.849  1.00  0.00     0.093 A 
ATOM      8  C   UNL     1     139.968 174.858 169.480  1.00  0.00     0.123 A 
ATOM      9  C   UNL     1     140.026 174.518 170.833  1.00  0.00     0.094 A 
ATOM     10  C   UNL     1     141.203 174.707 171.561  1.00  0.00     0.146 A 
ATOM     11  O   UNL     1     141.228 174.378 172.848  1.00  0.00    -0.452 OA
ENDROOT
BRANCH   1  12
ATOM     12  C   UNL     1     142.196 174.133 175.043  1.00  0.00     0.025 A 
ATOM     13  C   UNL     1     141.545 174.983 175.949  1.00  0.00     0.016 A 
ATOM     14  C   UNL     1     141.452 174.641 177.301  1.00  0.00     0.051 A 
ATOM     15  C   UNL     1     142.022 173.454 177.770  1.00  0.00     0.157 A 
ATOM     16  C   UNL     1     142.787 172.949 175.521  1.00  0.00     0.062 A 
ATOM     17  C   UNL     1     142.697 172.604 176.877  1.00  0.00     0.158 A 
BRANCH  15  18
ATOM     18  O   UNL     1     141.912 173.138 179.124  1.00  0.00    -0.504 OA
ATOM     19  H   UNL     1     141.703 173.838 179.825  1.00  0.00     0.293 HD
ENDBRANCH  15  18
BRANCH  17  20
ATOM     20  O   UNL     1     143.280 171.426 177.341  1.00  0.00    -0.504 OA
ATOM     21  H   UNL     1     144.189 171.120 177.015  1.00  0.00     0.293 HD
ENDBRANCH  17  20
ENDBRANCH   1  12
BRANCH   2  22
ATOM     22  O   UNL     1     144.647 175.134 173.853  1.00  0.00    -0.502 OA
ATOM     23  H   UNL     1     145.570 174.933 173.490  1.00  0.00     0.293 HD
ENDBRANCH   2  22
BRANCH   6  24
ATOM     24  O   UNL     1     143.397 176.124 168.904  1.00  0.00    -0.507 OA
ATOM     25  H   UNL     1     144.253 176.348 169.398  1.00  0.00     0.293 HD
ENDBRANCH   6  24
BRANCH   8  26
ATOM     26  O   UNL     1     138.784 174.663 168.773  1.00  0.00    -0.508 OA
ATOM     27  H   UNL     1     138.225 175.443 168.448  1.00  0.00     0.293 HD
ENDBRANCH   8  26
TORSDOF 6
ENDMDL
