MODEL 1
REMARK VINA RESULT:    -3.322      0.000      0.000
REMARK INTER + INTRA:          -7.992
REMARK INTER:                  -6.041
REMARK INTRA:                  -1.950
REMARK UNBOUND:                -1.950
REMARK SMILES CCCCCCCCCCCCCCCC(=O)[O-]
REMARK SMILES IDX 9 1 10 2 11 3 12 4 13 5 14 6 15 7 16 8 17 9 18 10 8 11 7 12
REMARK SMILES IDX 6 13 5 14 4 15 3 16 2 17 1 18
REMARK H PARENT
REMARK Flexibility Score: inf
ROOT
ATOM      1  C   UNL     1      60.673  32.006  60.587  1.00  0.00     0.000 C 
ENDROOT
BRANCH   1   2
ATOM      2  C   UNL     1      60.980  31.231  59.295  1.00  0.00     0.000 C 
BRANCH   2   3
ATOM      3  C   UNL     1      62.142  31.843  58.494  1.00  0.00     0.000 C 
BRANCH   3   4
ATOM      4  C   UNL     1      62.448  33.310  58.868  1.00  0.00     0.000 C 
BRANCH   4   5
ATOM      5  C   UNL     1      63.874  33.481  59.422  1.00  0.00     0.000 C 
BRANCH   5   6
ATOM      6  C   UNL     1      63.903  33.823  60.922  1.00  0.00     0.006 C 
BRANCH   6   7
ATOM      7  C   UNL     1      63.409  35.243  61.248  1.00  0.00     0.053 C 
BRANCH   7   8
ATOM      8  C   UNL     1      64.535  36.186  61.556  1.00  0.00     0.041 C 
ATOM      9  O   UNL     1      64.635  36.698  62.701  1.00  0.00    -0.550 OA
ATOM     10  O   UNL     1      65.451  36.527  60.569  1.00  0.00    -0.550 OA
ENDBRANCH   7   8
ENDBRANCH   6   7
ENDBRANCH   5   6
ENDBRANCH   4   5
ENDBRANCH   3   4
ENDBRANCH   2   3
ENDBRANCH   1   2
BRANCH   1  11
ATOM     11  C   UNL     1      61.013  31.211  61.860  1.00  0.00     0.000 C 
BRANCH  11  12
ATOM     12  C   UNL     1      61.928  29.990  61.648  1.00  0.00    -0.000 C 
BRANCH  12  13
ATOM     13  C   UNL     1      63.422  30.343  61.693  1.00  0.00    -0.000 C 
BRANCH  13  14
ATOM     14  C   UNL     1      64.207  29.543  60.646  1.00  0.00    -0.000 C 
BRANCH  14  15
ATOM     15  C   UNL     1      65.505  30.268  60.260  1.00  0.00    -0.000 C 
BRANCH  15  16
ATOM     16  C   UNL     1      66.600  29.310  59.758  1.00  0.00    -0.000 C 
BRANCH  16  17
ATOM     17  C   UNL     1      67.070  28.269  60.789  1.00  0.00    -0.003 C 
ATOM     18  C   UNL     1      67.876  28.882  61.934  1.00  0.00     0.004 C 
ENDBRANCH  16  17
ENDBRANCH  15  16
ENDBRANCH  14  15
ENDBRANCH  13  14
ENDBRANCH  12  13
ENDBRANCH  11  12
ENDBRANCH   1  11
TORSDOF 14
ENDMDL
MODEL 2
REMARK VINA RESULT:    -3.298      2.301      5.163
REMARK INTER + INTRA:          -7.948
REMARK INTER:                  -5.878
REMARK INTRA:                  -2.070
REMARK UNBOUND:                -1.950
REMARK SMILES CCCCCCCCCCCCCCCC(=O)[O-]
REMARK SMILES IDX 9 1 10 2 11 3 12 4 13 5 14 6 15 7 16 8 17 9 18 10 8 11 7 12
REMARK SMILES IDX 6 13 5 14 4 15 3 16 2 17 1 18
REMARK H PARENT
REMARK Flexibility Score: inf
ROOT
ATOM      1  C   UNL     1      63.055  29.425  61.209  1.00  0.00     0.000 C 
ENDROOT
BRANCH   1   2
ATOM      2  C   UNL     1      62.059  30.335  61.946  1.00  0.00     0.000 C 
BRANCH   2   3
ATOM      3  C   UNL     1      60.844  30.713  61.081  1.00  0.00     0.000 C 
BRANCH   3   4
ATOM      4  C   UNL     1      60.702  32.232  60.842  1.00  0.00     0.000 C 
BRANCH   4   5
ATOM      5  C   UNL     1      60.565  32.572  59.347  1.00  0.00     0.000 C 
BRANCH   5   6
ATOM      6  C   UNL     1      60.623  34.083  59.063  1.00  0.00     0.006 C 
BRANCH   6   7
ATOM      7  C   UNL     1      60.638  34.437  57.566  1.00  0.00     0.053 C 
BRANCH   7   8
ATOM      8  C   UNL     1      61.931  35.064  57.137  1.00  0.00     0.041 C 
ATOM      9  O   UNL     1      62.599  34.557  56.198  1.00  0.00    -0.550 OA
ATOM     10  O   UNL     1      62.416  36.186  57.796  1.00  0.00    -0.550 OA
ENDBRANCH   7   8
ENDBRANCH   6   7
ENDBRANCH   5   6
ENDBRANCH   4   5
ENDBRANCH   3   4
ENDBRANCH   2   3
ENDBRANCH   1   2
BRANCH   1  11
ATOM     11  C   UNL     1      64.377  30.135  60.864  1.00  0.00     0.000 C 
BRANCH  11  12
ATOM     12  C   UNL     1      64.345  31.671  60.971  1.00  0.00    -0.000 C 
BRANCH  12  13
ATOM     13  C   UNL     1      64.300  32.368  59.603  1.00  0.00    -0.000 C 
BRANCH  13  14
ATOM     14  C   UNL     1      64.287  33.894  59.763  1.00  0.00    -0.000 C 
BRANCH  14  15
ATOM     15  C   UNL     1      63.737  34.298  61.139  1.00  0.00    -0.000 C 
BRANCH  15  16
ATOM     16  C   UNL     1      64.469  35.509  61.745  1.00  0.00    -0.000 C 
BRANCH  16  17
ATOM     17  C   UNL     1      63.651  36.813  61.766  1.00  0.00    -0.003 C 
ATOM     18  C   UNL     1      62.225  36.634  61.246  1.00  0.00     0.004 C 
ENDBRANCH  16  17
ENDBRANCH  15  16
ENDBRANCH  14  15
ENDBRANCH  13  14
ENDBRANCH  12  13
ENDBRANCH  11  12
ENDBRANCH   1  11
TORSDOF 14
ENDMDL
MODEL 3
REMARK VINA RESULT:    -3.265      2.535      5.562
REMARK INTER + INTRA:          -7.888
REMARK INTER:                  -5.430
REMARK INTRA:                  -2.458
REMARK UNBOUND:                -1.950
REMARK SMILES CCCCCCCCCCCCCCCC(=O)[O-]
REMARK SMILES IDX 9 1 10 2 11 3 12 4 13 5 14 6 15 7 16 8 17 9 18 10 8 11 7 12
REMARK SMILES IDX 6 13 5 14 4 15 3 16 2 17 1 18
REMARK H PARENT
REMARK Flexibility Score: inf
ROOT
ATOM      1  C   UNL     1      61.028  31.009  58.897  1.00  0.00     0.000 C 
ENDROOT
BRANCH   1   2
ATOM      2  C   UNL     1      60.485  31.940  59.994  1.00  0.00     0.000 C 
BRANCH   2   3
ATOM      3  C   UNL     1      60.936  31.527  61.405  1.00  0.00     0.000 C 
BRANCH   3   4
ATOM      4  C   UNL     1      61.650  30.158  61.451  1.00  0.00     0.000 C 
BRANCH   4   5
ATOM      5  C   UNL     1      63.164  30.303  61.686  1.00  0.00     0.000 C 
BRANCH   5   6
ATOM      6  C   UNL     1      64.012  29.562  60.637  1.00  0.00     0.006 C 
BRANCH   6   7
ATOM      7  C   UNL     1      65.502  29.946  60.655  1.00  0.00     0.053 C 
BRANCH   7   8
ATOM      8  C   UNL     1      66.167  29.730  59.328  1.00  0.00     0.041 C 
ATOM      9  O   UNL     1      66.561  30.715  58.651  1.00  0.00    -0.550 OA
ATOM     10  O   UNL     1      66.319  28.445  58.824  1.00  0.00    -0.550 OA
ENDBRANCH   7   8
ENDBRANCH   6   7
ENDBRANCH   5   6
ENDBRANCH   4   5
ENDBRANCH   3   4
ENDBRANCH   2   3
ENDBRANCH   1   2
BRANCH   1  11
ATOM     11  C   UNL     1      61.701  31.771  57.741  1.00  0.00     0.000 C 
BRANCH  11  12
ATOM     12  C   UNL     1      63.205  32.045  57.922  1.00  0.00    -0.000 C 
BRANCH  12  13
ATOM     13  C   UNL     1      63.495  33.420  58.543  1.00  0.00    -0.000 C 
BRANCH  13  14
ATOM     14  C   UNL     1      64.445  33.293  59.741  1.00  0.00    -0.000 C 
BRANCH  14  15
ATOM     15  C   UNL     1      63.777  33.798  61.028  1.00  0.00    -0.000 C 
BRANCH  15  16
ATOM     16  C   UNL     1      62.727  34.893  60.770  1.00  0.00    -0.000 C 
BRANCH  16  17
ATOM     17  C   UNL     1      63.020  36.243  61.449  1.00  0.00    -0.003 C 
ATOM     18  C   UNL     1      64.466  36.371  61.927  1.00  0.00     0.004 C 
ENDBRANCH  16  17
ENDBRANCH  15  16
ENDBRANCH  14  15
ENDBRANCH  13  14
ENDBRANCH  12  13
ENDBRANCH  11  12
ENDBRANCH   1  11
TORSDOF 14
ENDMDL
MODEL 4
REMARK VINA RESULT:    -3.264      3.130      5.721
REMARK INTER + INTRA:          -7.885
REMARK INTER:                  -5.734
REMARK INTRA:                  -2.151
REMARK UNBOUND:                -1.950
REMARK SMILES CCCCCCCCCCCCCCCC(=O)[O-]
REMARK SMILES IDX 9 1 10 2 11 3 12 4 13 5 14 6 15 7 16 8 17 9 18 10 8 11 7 12
REMARK SMILES IDX 6 13 5 14 4 15 3 16 2 17 1 18
REMARK H PARENT
REMARK Flexibility Score: inf
ROOT
ATOM      1  C   UNL     1      60.679  33.412  58.437  1.00  0.00     0.000 C 
ENDROOT
BRANCH   1   2
ATOM      2  C   UNL     1      60.695  32.623  59.756  1.00  0.00     0.000 C 
BRANCH   2   3
ATOM      3  C   UNL     1      60.277  31.153  59.578  1.00  0.00     0.000 C 
BRANCH   3   4
ATOM      4  C   UNL     1      60.507  30.287  60.835  1.00  0.00     0.000 C 
BRANCH   4   5
ATOM      5  C   UNL     1      61.484  30.949  61.824  1.00  0.00     0.000 C 
BRANCH   5   6
ATOM      6  C   UNL     1      62.893  30.334  61.785  1.00  0.00     0.006 C 
BRANCH   6   7
ATOM      7  C   UNL     1      62.943  28.926  61.166  1.00  0.00     0.053 C 
BRANCH   7   8
ATOM      8  C   UNL     1      64.345  28.426  60.987  1.00  0.00     0.041 C 
ATOM      9  O   UNL     1      65.316  29.223  61.065  1.00  0.00    -0.550 OA
ATOM     10  O   UNL     1      64.578  27.087  60.697  1.00  0.00    -0.550 OA
ENDBRANCH   7   8
ENDBRANCH   6   7
ENDBRANCH   5   6
ENDBRANCH   4   5
ENDBRANCH   3   4
ENDBRANCH   2   3
ENDBRANCH   1   2
BRANCH   1  11
ATOM     11  C   UNL     1      60.688  34.937  58.649  1.00  0.00     0.000 C 
BRANCH  11  12
ATOM     12  C   UNL     1      60.840  35.397  60.110  1.00  0.00    -0.000 C 
BRANCH  12  13
ATOM     13  C   UNL     1      61.971  36.417  60.305  1.00  0.00    -0.000 C 
BRANCH  13  14
ATOM     14  C   UNL     1      62.911  35.986  61.439  1.00  0.00    -0.000 C 
BRANCH  14  15
ATOM     15  C   UNL     1      64.147  35.263  60.884  1.00  0.00    -0.000 C 
BRANCH  15  16
ATOM     16  C   UNL     1      64.039  33.731  60.983  1.00  0.00    -0.000 C 
BRANCH  16  17
ATOM     17  C   UNL     1      64.353  32.976  59.678  1.00  0.00    -0.003 C 
ATOM     18  C   UNL     1      64.346  33.881  58.447  1.00  0.00     0.004 C 
ENDBRANCH  16  17
ENDBRANCH  15  16
ENDBRANCH  14  15
ENDBRANCH  13  14
ENDBRANCH  12  13
ENDBRANCH  11  12
ENDBRANCH   1  11
TORSDOF 14
ENDMDL
MODEL 5
REMARK VINA RESULT:    -3.239      2.822      4.898
REMARK INTER + INTRA:          -7.841
REMARK INTER:                  -5.873
REMARK INTRA:                  -1.968
REMARK UNBOUND:                -1.950
REMARK SMILES CCCCCCCCCCCCCCCC(=O)[O-]
REMARK SMILES IDX 9 1 10 2 11 3 12 4 13 5 14 6 15 7 16 8 17 9 18 10 8 11 7 12
REMARK SMILES IDX 6 13 5 14 4 15 3 16 2 17 1 18
REMARK H PARENT
REMARK Flexibility Score: inf
ROOT
ATOM      1  C   UNL     1      61.498  36.065  60.686  1.00  0.00     0.000 C 
ENDROOT
BRANCH   1   2
ATOM      2  C   UNL     1      62.620  36.977  61.208  1.00  0.00     0.000 C 
BRANCH   2   3
ATOM      3  C   UNL     1      63.771  36.193  61.861  1.00  0.00     0.000 C 
BRANCH   3   4
ATOM      4  C   UNL     1      65.156  36.510  61.256  1.00  0.00     0.000 C 
BRANCH   4   5
ATOM      5  C   UNL     1      65.048  37.115  59.845  1.00  0.00     0.000 C 
BRANCH   5   6
ATOM      6  C   UNL     1      65.815  36.311  58.781  1.00  0.00     0.006 C 
BRANCH   6   7
ATOM      7  C   UNL     1      67.139  36.961  58.343  1.00  0.00     0.053 C 
BRANCH   7   8
ATOM      8  C   UNL     1      68.162  35.951  57.914  1.00  0.00     0.041 C 
ATOM      9  O   UNL     1      67.825  34.982  57.185  1.00  0.00    -0.550 OA
ATOM     10  O   UNL     1      69.476  36.060  58.348  1.00  0.00    -0.550 OA
ENDBRANCH   7   8
ENDBRANCH   6   7
ENDBRANCH   5   6
ENDBRANCH   4   5
ENDBRANCH   3   4
ENDBRANCH   2   3
ENDBRANCH   1   2
BRANCH   1  11
ATOM     11  C   UNL     1      61.938  34.597  60.535  1.00  0.00     0.000 C 
BRANCH  11  12
ATOM     12  C   UNL     1      62.124  34.112  59.086  1.00  0.00    -0.000 C 
BRANCH  12  13
ATOM     13  C   UNL     1      63.212  33.038  58.946  1.00  0.00    -0.000 C 
BRANCH  13  14
ATOM     14  C   UNL     1      64.195  33.094  60.122  1.00  0.00    -0.000 C 
BRANCH  14  15
ATOM     15  C   UNL     1      64.205  31.766  60.894  1.00  0.00    -0.000 C 
BRANCH  15  16
ATOM     16  C   UNL     1      63.006  30.864  60.552  1.00  0.00    -0.000 C 
BRANCH  16  17
ATOM     17  C   UNL     1      62.080  30.541  61.739  1.00  0.00    -0.003 C 
ATOM     18  C   UNL     1      60.761  31.311  61.694  1.00  0.00     0.004 C 
ENDBRANCH  16  17
ENDBRANCH  15  16
ENDBRANCH  14  15
ENDBRANCH  13  14
ENDBRANCH  12  13
ENDBRANCH  11  12
ENDBRANCH   1  11
TORSDOF 14
ENDMDL
MODEL 6
REMARK VINA RESULT:    -3.226     11.850     13.397
REMARK INTER + INTRA:          -7.817
REMARK INTER:                  -5.659
REMARK INTRA:                  -2.158
REMARK UNBOUND:                -1.950
REMARK SMILES CCCCCCCCCCCCCCCC(=O)[O-]
REMARK SMILES IDX 9 1 10 2 11 3 12 4 13 5 14 6 15 7 16 8 17 9 18 10 8 11 7 12
REMARK SMILES IDX 6 13 5 14 4 15 3 16 2 17 1 18
REMARK H PARENT
REMARK Flexibility Score: inf
ROOT
ATOM      1  C   UNL     1      57.483  27.216  51.464  1.00  0.00     0.000 C 
ENDROOT
BRANCH   1   2
ATOM      2  C   UNL     1      56.810  26.517  50.271  1.00  0.00     0.000 C 
BRANCH   2   3
ATOM      3  C   UNL     1      55.347  26.134  50.551  1.00  0.00     0.000 C 
BRANCH   3   4
ATOM      4  C   UNL     1      54.393  26.431  49.374  1.00  0.00     0.000 C 
BRANCH   4   5
ATOM      5  C   UNL     1      53.335  27.487  49.738  1.00  0.00     0.000 C 
BRANCH   5   6
ATOM      6  C   UNL     1      53.943  28.856  50.089  1.00  0.00     0.006 C 
BRANCH   6   7
ATOM      7  C   UNL     1      53.348  29.496  51.356  1.00  0.00     0.053 C 
BRANCH   7   8
ATOM      8  C   UNL     1      54.246  29.351  52.549  1.00  0.00     0.041 C 
ATOM      9  O   UNL     1      54.309  28.254  53.163  1.00  0.00    -0.550 OA
ATOM     10  O   UNL     1      54.985  30.436  53.004  1.00  0.00    -0.550 OA
ENDBRANCH   7   8
ENDBRANCH   6   7
ENDBRANCH   5   6
ENDBRANCH   4   5
ENDBRANCH   3   4
ENDBRANCH   2   3
ENDBRANCH   1   2
BRANCH   1  11
ATOM     11  C   UNL     1      57.633  28.735  51.263  1.00  0.00     0.000 C 
BRANCH  11  12
ATOM     12  C   UNL     1      57.633  29.208  49.798  1.00  0.00    -0.000 C 
BRANCH  12  13
ATOM     13  C   UNL     1      58.989  29.015  49.103  1.00  0.00    -0.000 C 
BRANCH  13  14
ATOM     14  C   UNL     1      60.137  29.516  49.989  1.00  0.00    -0.000 C 
BRANCH  14  15
ATOM     15  C   UNL     1      61.185  28.415  50.206  1.00  0.00    -0.000 C 
BRANCH  15  16
ATOM     16  C   UNL     1      60.748  27.051  49.644  1.00  0.00    -0.000 C 
BRANCH  16  17
ATOM     17  C   UNL     1      60.753  25.899  50.665  1.00  0.00    -0.003 C 
ATOM     18  C   UNL     1      60.409  24.547  50.043  1.00  0.00     0.004 C 
ENDBRANCH  16  17
ENDBRANCH  15  16
ENDBRANCH  14  15
ENDBRANCH  13  14
ENDBRANCH  12  13
ENDBRANCH  11  12
ENDBRANCH   1  11
TORSDOF 14
ENDMDL
MODEL 7
REMARK VINA RESULT:    -3.207      2.952      6.235
REMARK INTER + INTRA:          -7.781
REMARK INTER:                  -5.202
REMARK INTRA:                  -2.580
REMARK UNBOUND:                -1.950
REMARK SMILES CCCCCCCCCCCCCCCC(=O)[O-]
REMARK SMILES IDX 9 1 10 2 11 3 12 4 13 5 14 6 15 7 16 8 17 9 18 10 8 11 7 12
REMARK SMILES IDX 6 13 5 14 4 15 3 16 2 17 1 18
REMARK H PARENT
REMARK Flexibility Score: inf
ROOT
ATOM      1  C   UNL     1      64.353  30.470  59.958  1.00  0.00     0.000 C 
ENDROOT
BRANCH   1   2
ATOM      2  C   UNL     1      63.317  29.704  60.796  1.00  0.00     0.000 C 
BRANCH   2   3
ATOM      3  C   UNL     1      62.592  30.600  61.814  1.00  0.00     0.000 C 
BRANCH   3   4
ATOM      4  C   UNL     1      61.121  30.892  61.446  1.00  0.00     0.000 C 
BRANCH   4   5
ATOM      5  C   UNL     1      60.893  32.375  61.103  1.00  0.00     0.000 C 
BRANCH   5   6
ATOM      6  C   UNL     1      60.726  32.627  59.595  1.00  0.00     0.006 C 
BRANCH   6   7
ATOM      7  C   UNL     1      60.615  31.342  58.756  1.00  0.00     0.053 C 
BRANCH   7   8
ATOM      8  C   UNL     1      61.513  31.361  57.554  1.00  0.00     0.041 C 
ATOM      9  O   UNL     1      62.126  30.318  57.207  1.00  0.00    -0.550 OA
ATOM     10  O   UNL     1      61.701  32.538  56.840  1.00  0.00    -0.550 OA
ENDBRANCH   7   8
ENDBRANCH   6   7
ENDBRANCH   5   6
ENDBRANCH   4   5
ENDBRANCH   3   4
ENDBRANCH   2   3
ENDBRANCH   1   2
BRANCH   1  11
ATOM     11  C   UNL     1      64.486  31.948  60.371  1.00  0.00     0.000 C 
BRANCH  11  12
ATOM     12  C   UNL     1      64.421  32.962  59.215  1.00  0.00    -0.000 C 
BRANCH  12  13
ATOM     13  C   UNL     1      64.307  34.416  59.696  1.00  0.00    -0.000 C 
BRANCH  13  14
ATOM     14  C   UNL     1      63.906  34.476  61.176  1.00  0.00    -0.000 C 
BRANCH  14  15
ATOM     15  C   UNL     1      63.057  35.723  61.466  1.00  0.00    -0.000 C 
BRANCH  15  16
ATOM     16  C   UNL     1      62.130  36.102  60.297  1.00  0.00    -0.000 C 
BRANCH  16  17
ATOM     17  C   UNL     1      60.642  36.232  60.669  1.00  0.00    -0.003 C 
ATOM     18  C   UNL     1      59.755  36.575  59.473  1.00  0.00     0.004 C 
ENDBRANCH  16  17
ENDBRANCH  15  16
ENDBRANCH  14  15
ENDBRANCH  13  14
ENDBRANCH  12  13
ENDBRANCH  11  12
ENDBRANCH   1  11
TORSDOF 14
ENDMDL
MODEL 8
REMARK VINA RESULT:    -3.193     10.982     13.615
REMARK INTER + INTRA:          -7.757
REMARK INTER:                  -5.124
REMARK INTRA:                  -2.634
REMARK UNBOUND:                -1.950
REMARK SMILES CCCCCCCCCCCCCCCC(=O)[O-]
REMARK SMILES IDX 9 1 10 2 11 3 12 4 13 5 14 6 15 7 16 8 17 9 18 10 8 11 7 12
REMARK SMILES IDX 6 13 5 14 4 15 3 16 2 17 1 18
REMARK H PARENT
REMARK Flexibility Score: inf
ROOT
ATOM      1  C   UNL     1      58.232  27.964  53.295  1.00  0.00     0.000 C 
ENDROOT
BRANCH   1   2
ATOM      2  C   UNL     1      57.502  29.121  52.594  1.00  0.00     0.000 C 
BRANCH   2   3
ATOM      3  C   UNL     1      58.340  29.767  51.478  1.00  0.00     0.000 C 
BRANCH   3   4
ATOM      4  C   UNL     1      57.829  29.447  50.056  1.00  0.00     0.000 C 
BRANCH   4   5
ATOM      5  C   UNL     1      58.822  28.573  49.268  1.00  0.00     0.000 C 
BRANCH   5   6
ATOM      6  C   UNL     1      60.056  28.166  50.091  1.00  0.00     0.006 C 
BRANCH   6   7
ATOM      7  C   UNL     1      60.710  26.853  49.627  1.00  0.00     0.053 C 
BRANCH   7   8
ATOM      8  C   UNL     1      60.388  25.700  50.531  1.00  0.00     0.041 C 
ATOM      9  O   UNL     1      59.823  24.674  50.070  1.00  0.00    -0.550 OA
ATOM     10  O   UNL     1      60.680  25.773  51.887  1.00  0.00    -0.550 OA
ENDBRANCH   7   8
ENDBRANCH   6   7
ENDBRANCH   5   6
ENDBRANCH   4   5
ENDBRANCH   3   4
ENDBRANCH   2   3
ENDBRANCH   1   2
BRANCH   1  11
ATOM     11  C   UNL     1      57.503  26.616  53.149  1.00  0.00     0.000 C 
BRANCH  11  12
ATOM     12  C   UNL     1      56.282  26.627  52.211  1.00  0.00    -0.000 C 
BRANCH  12  13
ATOM     13  C   UNL     1      56.571  25.998  50.840  1.00  0.00    -0.000 C 
BRANCH  13  14
ATOM     14  C   UNL     1      55.567  26.485  49.788  1.00  0.00    -0.000 C 
BRANCH  14  15
ATOM     15  C   UNL     1      54.267  26.967  50.449  1.00  0.00    -0.000 C 
BRANCH  15  16
ATOM     16  C   UNL     1      53.686  28.225  49.782  1.00  0.00    -0.000 C 
BRANCH  16  17
ATOM     17  C   UNL     1      54.135  29.557  50.411  1.00  0.00    -0.003 C 
ATOM     18  C   UNL     1      53.970  29.586  51.930  1.00  0.00     0.004 C 
ENDBRANCH  16  17
ENDBRANCH  15  16
ENDBRANCH  14  15
ENDBRANCH  13  14
ENDBRANCH  12  13
ENDBRANCH  11  12
ENDBRANCH   1  11
TORSDOF 14
ENDMDL
MODEL 9
REMARK VINA RESULT:    -3.095      2.059      3.298
REMARK INTER + INTRA:          -7.579
REMARK INTER:                  -5.613
REMARK INTRA:                  -1.966
REMARK UNBOUND:                -1.950
REMARK SMILES CCCCCCCCCCCCCCCC(=O)[O-]
REMARK SMILES IDX 9 1 10 2 11 3 12 4 13 5 14 6 15 7 16 8 17 9 18 10 8 11 7 12
REMARK SMILES IDX 6 13 5 14 4 15 3 16 2 17 1 18
REMARK H PARENT
REMARK Flexibility Score: inf
ROOT
ATOM      1  C   UNL     1      60.724  32.197  60.551  1.00  0.00     0.000 C 
ENDROOT
BRANCH   1   2
ATOM      2  C   UNL     1      61.602  33.456  60.634  1.00  0.00     0.000 C 
BRANCH   2   3
ATOM      3  C   UNL     1      61.037  34.633  59.821  1.00  0.00     0.000 C 
BRANCH   3   4
ATOM      4  C   UNL     1      60.892  35.936  60.636  1.00  0.00     0.000 C 
BRANCH   4   5
ATOM      5  C   UNL     1      62.086  36.885  60.429  1.00  0.00     0.000 C 
BRANCH   5   6
ATOM      6  C   UNL     1      63.035  36.937  61.639  1.00  0.00     0.006 C 
BRANCH   6   7
ATOM      7  C   UNL     1      64.181  35.912  61.577  1.00  0.00     0.053 C 
BRANCH   7   8
ATOM      8  C   UNL     1      64.819  35.844  60.221  1.00  0.00     0.041 C 
ATOM      9  O   UNL     1      64.611  34.853  59.474  1.00  0.00    -0.550 OA
ATOM     10  O   UNL     1      65.670  36.857  59.797  1.00  0.00    -0.550 OA
ENDBRANCH   7   8
ENDBRANCH   6   7
ENDBRANCH   5   6
ENDBRANCH   4   5
ENDBRANCH   3   4
ENDBRANCH   2   3
ENDBRANCH   1   2
BRANCH   1  11
ATOM     11  C   UNL     1      60.918  31.249  61.748  1.00  0.00     0.000 C 
BRANCH  11  12
ATOM     12  C   UNL     1      61.861  30.057  61.497  1.00  0.00    -0.000 C 
BRANCH  12  13
ATOM     13  C   UNL     1      63.341  30.408  61.705  1.00  0.00    -0.000 C 
BRANCH  13  14
ATOM     14  C   UNL     1      64.071  30.532  60.361  1.00  0.00    -0.000 C 
BRANCH  14  15
ATOM     15  C   UNL     1      63.511  29.535  59.336  1.00  0.00    -0.000 C 
BRANCH  15  16
ATOM     16  C   UNL     1      63.293  30.161  57.948  1.00  0.00    -0.000 C 
BRANCH  16  17
ATOM     17  C   UNL     1      63.450  31.692  57.897  1.00  0.00    -0.003 C 
ATOM     18  C   UNL     1      62.356  32.378  57.080  1.00  0.00     0.004 C 
ENDBRANCH  16  17
ENDBRANCH  15  16
ENDBRANCH  14  15
ENDBRANCH  13  14
ENDBRANCH  12  13
ENDBRANCH  11  12
ENDBRANCH   1  11
TORSDOF 14
ENDMDL
