MODEL 1
REMARK VINA RESULT:    -4.163      0.000      0.000
REMARK INTER + INTRA:          -9.134
REMARK INTER:                  -8.056
REMARK INTRA:                  -1.078
REMARK UNBOUND:                -1.078
REMARK SMILES CCCCCCCCCCCCCCCCCC(=O)[O-]
REMARK SMILES IDX 10 1 11 2 12 3 13 4 14 5 15 6 16 7 17 8 18 9 19 10 20 11
REMARK SMILES IDX 9 12 8 13 7 14 6 15 5 16 4 17 3 18 2 19 1 20
REMARK H PARENT
REMARK Flexibility Score: inf
ROOT
ATOM      1  C   UNL     1       6.168  -7.189  -9.349  1.00  0.00     0.000 C 
ENDROOT
BRANCH   1   2
ATOM      2  C   UNL     1       5.983  -8.246  -8.248  1.00  0.00     0.000 C 
BRANCH   2   3
ATOM      3  C   UNL     1       4.505  -8.552  -7.961  1.00  0.00     0.000 C 
BRANCH   3   4
ATOM      4  C   UNL     1       3.877  -9.344  -9.115  1.00  0.00     0.000 C 
BRANCH   4   5
ATOM      5  C   UNL     1       2.544  -8.721  -9.548  1.00  0.00     0.000 C 
BRANCH   5   6
ATOM      6  C   UNL     1       2.756  -7.316 -10.124  1.00  0.00     0.000 C 
BRANCH   6   7
ATOM      7  C   UNL     1       1.857  -6.290  -9.418  1.00  0.00     0.006 C 
BRANCH   7   8
ATOM      8  C   UNL     1       2.584  -5.570  -8.275  1.00  0.00     0.053 C 
BRANCH   8   9
ATOM      9  C   UNL     1       1.819  -4.375  -7.794  1.00  0.00     0.041 C 
ATOM     10  O   UNL     1       1.419  -3.507  -8.614  1.00  0.00    -0.550 OA
ATOM     11  O   UNL     1       1.575  -4.203  -6.438  1.00  0.00    -0.550 OA
ENDBRANCH   8   9
ENDBRANCH   7   8
ENDBRANCH   6   7
ENDBRANCH   5   6
ENDBRANCH   4   5
ENDBRANCH   3   4
ENDBRANCH   2   3
ENDBRANCH   1   2
BRANCH   1  12
ATOM     12  C   UNL     1       7.638  -7.036  -9.777  1.00  0.00     0.000 C 
BRANCH  12  13
ATOM     13  C   UNL     1       8.029  -5.572 -10.041  1.00  0.00    -0.000 C 
BRANCH  13  14
ATOM     14  C   UNL     1       8.906  -4.982  -8.923  1.00  0.00    -0.000 C 
BRANCH  14  15
ATOM     15  C   UNL     1       8.829  -3.448  -8.861  1.00  0.00    -0.000 C 
BRANCH  15  16
ATOM     16  C   UNL     1       8.987  -2.904  -7.433  1.00  0.00    -0.000 C 
BRANCH  16  17
ATOM     17  C   UNL     1       8.162  -1.622  -7.240  1.00  0.00    -0.000 C 
BRANCH  17  18
ATOM     18  C   UNL     1       7.766  -1.387  -5.774  1.00  0.00    -0.000 C 
BRANCH  18  19
ATOM     19  C   UNL     1       8.874  -1.789  -4.789  1.00  0.00    -0.003 C 
ATOM     20  C   UNL     1       8.430  -1.573  -3.345  1.00  0.00     0.004 C 
ENDBRANCH  18  19
ENDBRANCH  17  18
ENDBRANCH  16  17
ENDBRANCH  15  16
ENDBRANCH  14  15
ENDBRANCH  13  14
ENDBRANCH  12  13
ENDBRANCH   1  12
TORSDOF 16
ENDMDL
MODEL 2
REMARK VINA RESULT:    -4.075      2.566      7.093
REMARK INTER + INTRA:          -8.965
REMARK INTER:                  -7.756
REMARK INTRA:                  -1.209
REMARK UNBOUND:                -1.078
REMARK SMILES CCCCCCCCCCCCCCCCCC(=O)[O-]
REMARK SMILES IDX 10 1 11 2 12 3 13 4 14 5 15 6 16 7 17 8 18 9 19 10 20 11
REMARK SMILES IDX 9 12 8 13 7 14 6 15 5 16 4 17 3 18 2 19 1 20
REMARK H PARENT
REMARK Flexibility Score: inf
ROOT
ATOM      1  C   UNL     1       7.077  -6.493  -9.341  1.00  0.00     0.000 C 
ENDROOT
BRANCH   1   2
ATOM      2  C   UNL     1       8.376  -5.792  -9.774  1.00  0.00     0.000 C 
BRANCH   2   3
ATOM      3  C   UNL     1       8.543  -4.405  -9.136  1.00  0.00     0.000 C 
BRANCH   3   4
ATOM      4  C   UNL     1       9.798  -4.354  -8.256  1.00  0.00     0.000 C 
BRANCH   4   5
ATOM      5  C   UNL     1       9.692  -3.238  -7.210  1.00  0.00     0.000 C 
BRANCH   5   6
ATOM      6  C   UNL     1       8.491  -2.327  -7.498  1.00  0.00     0.000 C 
BRANCH   6   7
ATOM      7  C   UNL     1       7.992  -1.651  -6.213  1.00  0.00     0.006 C 
BRANCH   7   8
ATOM      8  C   UNL     1       9.022  -1.726  -5.078  1.00  0.00     0.053 C 
BRANCH   8   9
ATOM      9  C   UNL     1       8.365  -1.763  -3.732  1.00  0.00     0.041 C 
ATOM     10  O   UNL     1       8.920  -2.360  -2.773  1.00  0.00    -0.550 OA
ATOM     11  O   UNL     1       7.125  -1.167  -3.546  1.00  0.00    -0.550 OA
ENDBRANCH   8   9
ENDBRANCH   7   8
ENDBRANCH   6   7
ENDBRANCH   5   6
ENDBRANCH   4   5
ENDBRANCH   3   4
ENDBRANCH   2   3
ENDBRANCH   1   2
BRANCH   1  12
ATOM     12  C   UNL     1       7.182  -8.026  -9.415  1.00  0.00     0.000 C 
BRANCH  12  13
ATOM     13  C   UNL     1       5.812  -8.718  -9.328  1.00  0.00    -0.000 C 
BRANCH  13  14
ATOM     14  C   UNL     1       5.149  -8.548  -7.950  1.00  0.00    -0.000 C 
BRANCH  14  15
ATOM     15  C   UNL     1       3.624  -8.377  -8.046  1.00  0.00    -0.000 C 
BRANCH  15  16
ATOM     16  C   UNL     1       3.153  -8.053  -9.471  1.00  0.00    -0.000 C 
BRANCH  16  17
ATOM     17  C   UNL     1       2.662  -6.600  -9.570  1.00  0.00    -0.000 C 
BRANCH  17  18
ATOM     18  C   UNL     1       2.972  -5.783  -8.307  1.00  0.00    -0.000 C 
BRANCH  18  19
ATOM     19  C   UNL     1       1.937  -4.678  -8.046  1.00  0.00    -0.003 C 
ATOM     20  C   UNL     1       1.680  -4.506  -6.551  1.00  0.00     0.004 C 
ENDBRANCH  18  19
ENDBRANCH  17  18
ENDBRANCH  16  17
ENDBRANCH  15  16
ENDBRANCH  14  15
ENDBRANCH  13  14
ENDBRANCH  12  13
ENDBRANCH   1  12
TORSDOF 16
ENDMDL
MODEL 3
REMARK VINA RESULT:    -3.938     14.768     17.346
REMARK INTER + INTRA:          -8.699
REMARK INTER:                  -6.981
REMARK INTRA:                  -1.718
REMARK UNBOUND:                -1.078
REMARK SMILES CCCCCCCCCCCCCCCCCC(=O)[O-]
REMARK SMILES IDX 10 1 11 2 12 3 13 4 14 5 15 6 16 7 17 8 18 9 19 10 20 11
REMARK SMILES IDX 9 12 8 13 7 14 6 15 5 16 4 17 3 18 2 19 1 20
REMARK H PARENT
REMARK Flexibility Score: inf
ROOT
ATOM      1  C   UNL     1      -9.778   6.811  -2.108  1.00  0.00     0.000 C 
ENDROOT
BRANCH   1   2
ATOM      2  C   UNL     1      -9.332   5.918  -3.279  1.00  0.00     0.000 C 
BRANCH   2   3
ATOM      3  C   UNL     1      -8.715   6.721  -4.435  1.00  0.00     0.000 C 
BRANCH   3   4
ATOM      4  C   UNL     1      -7.183   6.681  -4.372  1.00  0.00     0.000 C 
BRANCH   4   5
ATOM      5  C   UNL     1      -6.588   6.250  -5.719  1.00  0.00     0.000 C 
BRANCH   5   6
ATOM      6  C   UNL     1      -5.495   5.193  -5.523  1.00  0.00     0.000 C 
BRANCH   6   7
ATOM      7  C   UNL     1      -5.727   3.984  -6.441  1.00  0.00     0.006 C 
BRANCH   7   8
ATOM      8  C   UNL     1      -7.178   3.898  -6.932  1.00  0.00     0.053 C 
BRANCH   8   9
ATOM      9  C   UNL     1      -7.258   3.859  -8.428  1.00  0.00     0.041 C 
ATOM     10  O   UNL     1      -8.151   3.180  -8.998  1.00  0.00    -0.550 OA
ATOM     11  O   UNL     1      -6.324   4.547  -9.193  1.00  0.00    -0.550 OA
ENDBRANCH   8   9
ENDBRANCH   7   8
ENDBRANCH   6   7
ENDBRANCH   5   6
ENDBRANCH   4   5
ENDBRANCH   3   4
ENDBRANCH   2   3
ENDBRANCH   1   2
BRANCH   1  12
ATOM     12  C   UNL     1      -9.111   6.416  -0.779  1.00  0.00     0.000 C 
BRANCH  12  13
ATOM     13  C   UNL     1      -7.764   7.125  -0.561  1.00  0.00    -0.000 C 
BRANCH  13  14
ATOM     14  C   UNL     1      -6.591   6.138  -0.418  1.00  0.00    -0.000 C 
BRANCH  14  15
ATOM     15  C   UNL     1      -5.298   6.662  -1.062  1.00  0.00    -0.000 C 
BRANCH  15  16
ATOM     16  C   UNL     1      -4.585   5.598  -1.910  1.00  0.00    -0.000 C 
BRANCH  16  17
ATOM     17  C   UNL     1      -3.542   6.243  -2.837  1.00  0.00    -0.000 C 
BRANCH  17  18
ATOM     18  C   UNL     1      -2.123   6.205  -2.249  1.00  0.00    -0.000 C 
BRANCH  18  19
ATOM     19  C   UNL     1      -2.005   5.260  -1.044  1.00  0.00    -0.003 C 
ATOM     20  C   UNL     1      -1.812   6.043   0.252  1.00  0.00     0.004 C 
ENDBRANCH  18  19
ENDBRANCH  17  18
ENDBRANCH  16  17
ENDBRANCH  15  16
ENDBRANCH  14  15
ENDBRANCH  13  14
ENDBRANCH  12  13
ENDBRANCH   1  12
TORSDOF 16
ENDMDL
MODEL 4
REMARK VINA RESULT:    -3.876     15.949     18.958
REMARK INTER + INTRA:          -8.580
REMARK INTER:                  -7.488
REMARK INTRA:                  -1.092
REMARK UNBOUND:                -1.078
REMARK SMILES CCCCCCCCCCCCCCCCCC(=O)[O-]
REMARK SMILES IDX 10 1 11 2 12 3 13 4 14 5 15 6 16 7 17 8 18 9 19 10 20 11
REMARK SMILES IDX 9 12 8 13 7 14 6 15 5 16 4 17 3 18 2 19 1 20
REMARK H PARENT
REMARK Flexibility Score: inf
ROOT
ATOM      1  C   UNL     1      -8.222   5.401   0.434  1.00  0.00     0.000 C 
ENDROOT
BRANCH   1   2
ATOM      2  C   UNL     1      -9.742   5.258   0.625  1.00  0.00     0.000 C 
BRANCH   2   3
ATOM      3  C   UNL     1     -10.108   4.320   1.786  1.00  0.00     0.000 C 
BRANCH   3   4
ATOM      4  C   UNL     1      -9.084   3.187   1.918  1.00  0.00     0.000 C 
BRANCH   4   5
ATOM      5  C   UNL     1      -9.773   1.861   2.264  1.00  0.00     0.000 C 
BRANCH   5   6
ATOM      6  C   UNL     1      -9.106   1.196   3.475  1.00  0.00     0.000 C 
BRANCH   6   7
ATOM      7  C   UNL     1      -9.978   1.339   4.731  1.00  0.00     0.006 C 
BRANCH   7   8
ATOM      8  C   UNL     1      -9.317   2.219   5.800  1.00  0.00     0.053 C 
BRANCH   8   9
ATOM      9  C   UNL     1      -8.550   1.403   6.796  1.00  0.00     0.041 C 
ATOM     10  O   UNL     1      -7.296   1.496   6.859  1.00  0.00    -0.550 OA
ATOM     11  O   UNL     1      -9.217   0.517   7.631  1.00  0.00    -0.550 OA
ENDBRANCH   8   9
ENDBRANCH   7   8
ENDBRANCH   6   7
ENDBRANCH   5   6
ENDBRANCH   4   5
ENDBRANCH   3   4
ENDBRANCH   2   3
ENDBRANCH   1   2
BRANCH   1  12
ATOM     12  C   UNL     1      -7.851   6.602  -0.452  1.00  0.00     0.000 C 
BRANCH  12  13
ATOM     13  C   UNL     1      -6.334   6.846  -0.515  1.00  0.00    -0.000 C 
BRANCH  13  14
ATOM     14  C   UNL     1      -5.645   6.015  -1.612  1.00  0.00    -0.000 C 
BRANCH  14  15
ATOM     15  C   UNL     1      -4.780   6.875  -2.548  1.00  0.00    -0.000 C 
BRANCH  15  16
ATOM     16  C   UNL     1      -3.559   6.117  -3.089  1.00  0.00    -0.000 C 
BRANCH  16  17
ATOM     17  C   UNL     1      -2.255   6.701  -2.521  1.00  0.00    -0.000 C 
BRANCH  17  18
ATOM     18  C   UNL     1      -1.410   5.653  -1.780  1.00  0.00    -0.000 C 
BRANCH  18  19
ATOM     19  C   UNL     1      -2.169   4.991  -0.620  1.00  0.00    -0.003 C 
ATOM     20  C   UNL     1      -2.522   6.012   0.459  1.00  0.00     0.004 C 
ENDBRANCH  18  19
ENDBRANCH  17  18
ENDBRANCH  16  17
ENDBRANCH  15  16
ENDBRANCH  14  15
ENDBRANCH  13  14
ENDBRANCH  12  13
ENDBRANCH   1  12
TORSDOF 16
ENDMDL
MODEL 5
REMARK VINA RESULT:    -3.817     19.095     21.901
REMARK INTER + INTRA:          -8.466
REMARK INTER:                  -6.764
REMARK INTRA:                  -1.702
REMARK UNBOUND:                -1.078
REMARK SMILES CCCCCCCCCCCCCCCCCC(=O)[O-]
REMARK SMILES IDX 10 1 11 2 12 3 13 4 14 5 15 6 16 7 17 8 18 9 19 10 20 11
REMARK SMILES IDX 9 12 8 13 7 14 6 15 5 16 4 17 3 18 2 19 1 20
REMARK H PARENT
REMARK Flexibility Score: inf
ROOT
ATOM      1  C   UNL     1      -6.709  -5.846   9.481  1.00  0.00     0.000 C 
ENDROOT
BRANCH   1   2
ATOM      2  C   UNL     1      -7.006  -4.341   9.368  1.00  0.00     0.000 C 
BRANCH   2   3
ATOM      3  C   UNL     1      -8.500  -4.017   9.521  1.00  0.00     0.000 C 
BRANCH   3   4
ATOM      4  C   UNL     1      -9.140  -3.732   8.157  1.00  0.00     0.000 C 
BRANCH   4   5
ATOM      5  C   UNL     1      -9.775  -2.336   8.128  1.00  0.00     0.000 C 
BRANCH   5   6
ATOM      6  C   UNL     1      -9.996  -1.804   9.549  1.00  0.00     0.000 C 
BRANCH   6   7
ATOM      7  C   UNL     1      -9.523  -0.348   9.671  1.00  0.00     0.006 C 
BRANCH   7   8
ATOM      8  C   UNL     1      -8.566   0.049   8.539  1.00  0.00     0.053 C 
BRANCH   8   9
ATOM      9  C   UNL     1      -7.154   0.179   9.025  1.00  0.00     0.041 C 
ATOM     10  O   UNL     1      -6.351  -0.781   8.898  1.00  0.00    -0.550 OA
ATOM     11  O   UNL     1      -6.737   1.348   9.647  1.00  0.00    -0.550 OA
ENDBRANCH   8   9
ENDBRANCH   7   8
ENDBRANCH   6   7
ENDBRANCH   5   6
ENDBRANCH   4   5
ENDBRANCH   3   4
ENDBRANCH   2   3
ENDBRANCH   1   2
BRANCH   1  12
ATOM     12  C   UNL     1      -5.314  -6.129  10.063  1.00  0.00     0.000 C 
BRANCH  12  13
ATOM     13  C   UNL     1      -4.520  -7.148   9.229  1.00  0.00    -0.000 C 
BRANCH  13  14
ATOM     14  C   UNL     1      -4.876  -7.095   7.733  1.00  0.00    -0.000 C 
BRANCH  14  15
ATOM     15  C   UNL     1      -4.223  -8.232   6.930  1.00  0.00    -0.000 C 
BRANCH  15  16
ATOM     16  C   UNL     1      -5.249  -9.232   6.377  1.00  0.00    -0.000 C 
BRANCH  16  17
ATOM     17  C   UNL     1      -5.707 -10.209   7.472  1.00  0.00    -0.000 C 
BRANCH  17  18
ATOM     18  C   UNL     1      -7.213 -10.507   7.408  1.00  0.00    -0.000 C 
BRANCH  18  19
ATOM     19  C   UNL     1      -8.004  -9.810   8.526  1.00  0.00    -0.003 C 
ATOM     20  C   UNL     1      -7.153  -9.653   9.784  1.00  0.00     0.004 C 
ENDBRANCH  18  19
ENDBRANCH  17  18
ENDBRANCH  16  17
ENDBRANCH  15  16
ENDBRANCH  14  15
ENDBRANCH  13  14
ENDBRANCH  12  13
ENDBRANCH   1  12
TORSDOF 16
ENDMDL
MODEL 6
REMARK VINA RESULT:    -3.813     14.274     17.708
REMARK INTER + INTRA:          -8.458
REMARK INTER:                  -5.778
REMARK INTRA:                  -2.680
REMARK UNBOUND:                -1.078
REMARK SMILES CCCCCCCCCCCCCCCCCC(=O)[O-]
REMARK SMILES IDX 10 1 11 2 12 3 13 4 14 5 15 6 16 7 17 8 18 9 19 10 20 11
REMARK SMILES IDX 9 12 8 13 7 14 6 15 5 16 4 17 3 18 2 19 1 20
REMARK H PARENT
REMARK Flexibility Score: inf
ROOT
ATOM      1  C   UNL     1       3.755   1.105   8.593  1.00  0.00     0.000 C 
ENDROOT
BRANCH   1   2
ATOM      2  C   UNL     1       4.617   0.574   9.751  1.00  0.00     0.000 C 
BRANCH   2   3
ATOM      3  C   UNL     1       5.805  -0.270   9.267  1.00  0.00     0.000 C 
BRANCH   3   4
ATOM      4  C   UNL     1       7.134   0.441   9.551  1.00  0.00     0.000 C 
BRANCH   4   5
ATOM      5  C   UNL     1       8.153   0.168   8.438  1.00  0.00     0.000 C 
BRANCH   5   6
ATOM      6  C   UNL     1       8.131  -1.309   8.023  1.00  0.00     0.000 C 
BRANCH   6   7
ATOM      7  C   UNL     1       8.248  -1.454   6.499  1.00  0.00     0.006 C 
BRANCH   7   8
ATOM      8  C   UNL     1       8.577  -0.123   5.812  1.00  0.00     0.053 C 
BRANCH   8   9
ATOM      9  C   UNL     1       8.791  -0.296   4.339  1.00  0.00     0.041 C 
ATOM     10  O   UNL     1       8.672  -1.432   3.810  1.00  0.00    -0.550 OA
ATOM     11  O   UNL     1       9.155   0.792   3.556  1.00  0.00    -0.550 OA
ENDBRANCH   8   9
ENDBRANCH   7   8
ENDBRANCH   6   7
ENDBRANCH   5   6
ENDBRANCH   4   5
ENDBRANCH   3   4
ENDBRANCH   2   3
ENDBRANCH   1   2
BRANCH   1  12
ATOM     12  C   UNL     1       3.235   2.530   8.851  1.00  0.00     0.000 C 
BRANCH  12  13
ATOM     13  C   UNL     1       4.259   3.409   9.589  1.00  0.00    -0.000 C 
BRANCH  13  14
ATOM     14  C   UNL     1       4.358   4.826   8.996  1.00  0.00    -0.000 C 
BRANCH  14  15
ATOM     15  C   UNL     1       5.457   4.942   7.926  1.00  0.00    -0.000 C 
BRANCH  15  16
ATOM     16  C   UNL     1       6.655   4.022   8.205  1.00  0.00    -0.000 C 
BRANCH  16  17
ATOM     17  C   UNL     1       7.153   3.362   6.909  1.00  0.00    -0.000 C 
BRANCH  17  18
ATOM     18  C   UNL     1       6.131   2.383   6.312  1.00  0.00    -0.000 C 
BRANCH  18  19
ATOM     19  C   UNL     1       6.076   2.446   4.778  1.00  0.00    -0.003 C 
ATOM     20  C   UNL     1       6.595   3.786   4.264  1.00  0.00     0.004 C 
ENDBRANCH  18  19
ENDBRANCH  17  18
ENDBRANCH  16  17
ENDBRANCH  15  16
ENDBRANCH  14  15
ENDBRANCH  13  14
ENDBRANCH  12  13
ENDBRANCH   1  12
TORSDOF 16
ENDMDL
MODEL 7
REMARK VINA RESULT:    -3.805     14.192     16.906
REMARK INTER + INTRA:          -8.441
REMARK INTER:                  -5.911
REMARK INTRA:                  -2.530
REMARK UNBOUND:                -1.078
REMARK SMILES CCCCCCCCCCCCCCCCCC(=O)[O-]
REMARK SMILES IDX 10 1 11 2 12 3 13 4 14 5 15 6 16 7 17 8 18 9 19 10 20 11
REMARK SMILES IDX 9 12 8 13 7 14 6 15 5 16 4 17 3 18 2 19 1 20
REMARK H PARENT
REMARK Flexibility Score: inf
ROOT
ATOM      1  C   UNL     1       6.439   2.976   4.292  1.00  0.00     0.000 C 
ENDROOT
BRANCH   1   2
ATOM      2  C   UNL     1       7.247   4.153   4.866  1.00  0.00     0.000 C 
BRANCH   2   3
ATOM      3  C   UNL     1       6.371   5.159   5.628  1.00  0.00     0.000 C 
BRANCH   3   4
ATOM      4  C   UNL     1       6.706   5.154   7.124  1.00  0.00     0.000 C 
BRANCH   4   5
ATOM      5  C   UNL     1       5.606   4.454   7.932  1.00  0.00     0.000 C 
BRANCH   5   6
ATOM      6  C   UNL     1       6.030   3.032   8.321  1.00  0.00     0.000 C 
BRANCH   6   7
ATOM      7  C   UNL     1       5.184   1.984   7.584  1.00  0.00     0.006 C 
BRANCH   7   8
ATOM      8  C   UNL     1       4.347   1.132   8.547  1.00  0.00     0.053 C 
BRANCH   8   9
ATOM      9  C   UNL     1       2.904   1.540   8.538  1.00  0.00     0.041 C 
ATOM     10  O   UNL     1       2.424   2.188   9.504  1.00  0.00    -0.550 OA
ATOM     11  O   UNL     1       2.084   1.175   7.479  1.00  0.00    -0.550 OA
ENDBRANCH   8   9
ENDBRANCH   7   8
ENDBRANCH   6   7
ENDBRANCH   5   6
ENDBRANCH   4   5
ENDBRANCH   3   4
ENDBRANCH   2   3
ENDBRANCH   1   2
BRANCH   1  12
ATOM     12  C   UNL     1       7.189   1.637   4.404  1.00  0.00     0.000 C 
BRANCH  12  13
ATOM     13  C   UNL     1       8.702   1.821   4.606  1.00  0.00    -0.000 C 
BRANCH  13  14
ATOM     14  C   UNL     1       9.521   0.641   4.054  1.00  0.00    -0.000 C 
BRANCH  14  15
ATOM     15  C   UNL     1       8.749  -0.688   4.104  1.00  0.00    -0.000 C 
BRANCH  15  16
ATOM     16  C   UNL     1       9.562  -1.821   4.747  1.00  0.00    -0.000 C 
BRANCH  16  17
ATOM     17  C   UNL     1       9.399  -1.814   6.276  1.00  0.00    -0.000 C 
BRANCH  17  18
ATOM     18  C   UNL     1       7.957  -1.517   6.716  1.00  0.00    -0.000 C 
BRANCH  18  19
ATOM     19  C   UNL     1       7.889  -0.554   7.911  1.00  0.00    -0.003 C 
ATOM     20  C   UNL     1       9.088   0.391   7.924  1.00  0.00     0.004 C 
ENDBRANCH  18  19
ENDBRANCH  17  18
ENDBRANCH  16  17
ENDBRANCH  15  16
ENDBRANCH  14  15
ENDBRANCH  13  14
ENDBRANCH  12  13
ENDBRANCH   1  12
TORSDOF 16
ENDMDL
MODEL 8
REMARK VINA RESULT:    -3.746     17.891     20.737
REMARK INTER + INTRA:          -8.329
REMARK INTER:                  -6.094
REMARK INTRA:                  -2.235
REMARK UNBOUND:                -1.078
REMARK SMILES CCCCCCCCCCCCCCCCCC(=O)[O-]
REMARK SMILES IDX 10 1 11 2 12 3 13 4 14 5 15 6 16 7 17 8 18 9 19 10 20 11
REMARK SMILES IDX 9 12 8 13 7 14 6 15 5 16 4 17 3 18 2 19 1 20
REMARK H PARENT
REMARK Flexibility Score: inf
ROOT
ATOM      1  C   UNL     1      -4.976  -7.233   7.479  1.00  0.00     0.000 C 
ENDROOT
BRANCH   1   2
ATOM      2  C   UNL     1      -4.118  -8.453   7.104  1.00  0.00     0.000 C 
BRANCH   2   3
ATOM      3  C   UNL     1      -2.917  -8.644   8.042  1.00  0.00     0.000 C 
BRANCH   3   4
ATOM      4  C   UNL     1      -2.854 -10.084   8.565  1.00  0.00     0.000 C 
BRANCH   4   5
ATOM      5  C   UNL     1      -1.642 -10.284   9.483  1.00  0.00     0.000 C 
BRANCH   5   6
ATOM      6  C   UNL     1      -1.147  -8.943  10.038  1.00  0.00     0.000 C 
BRANCH   6   7
ATOM      7  C   UNL     1       0.337  -8.724   9.708  1.00  0.00     0.006 C 
BRANCH   7   8
ATOM      8  C   UNL     1       0.719  -9.305   8.340  1.00  0.00     0.053 C 
BRANCH   8   9
ATOM      9  C   UNL     1       2.179  -9.634   8.265  1.00  0.00     0.041 C 
ATOM     10  O   UNL     1       2.708 -10.369   9.138  1.00  0.00    -0.550 OA
ATOM     11  O   UNL     1       2.961  -9.102   7.248  1.00  0.00    -0.550 OA
ENDBRANCH   8   9
ENDBRANCH   7   8
ENDBRANCH   6   7
ENDBRANCH   5   6
ENDBRANCH   4   5
ENDBRANCH   3   4
ENDBRANCH   2   3
ENDBRANCH   1   2
BRANCH   1  12
ATOM     12  C   UNL     1      -4.890  -6.890   8.976  1.00  0.00     0.000 C 
BRANCH  12  13
ATOM     13  C   UNL     1      -6.242  -7.031   9.695  1.00  0.00    -0.000 C 
BRANCH  13  14
ATOM     14  C   UNL     1      -6.566  -8.488  10.069  1.00  0.00    -0.000 C 
BRANCH  14  15
ATOM     15  C   UNL     1      -7.949  -8.933   9.566  1.00  0.00    -0.000 C 
BRANCH  15  16
ATOM     16  C   UNL     1      -7.954 -10.379   9.047  1.00  0.00    -0.000 C 
BRANCH  16  17
ATOM     17  C   UNL     1      -6.522 -10.924   8.930  1.00  0.00    -0.000 C 
BRANCH  17  18
ATOM     18  C   UNL     1      -6.195 -11.432   7.518  1.00  0.00    -0.000 C 
BRANCH  18  19
ATOM     19  C   UNL     1      -6.913 -10.634   6.419  1.00  0.00    -0.003 C 
ATOM     20  C   UNL     1      -6.366 -10.985   5.038  1.00  0.00     0.004 C 
ENDBRANCH  18  19
ENDBRANCH  17  18
ENDBRANCH  16  17
ENDBRANCH  15  16
ENDBRANCH  14  15
ENDBRANCH  13  14
ENDBRANCH  12  13
ENDBRANCH   1  12
TORSDOF 16
ENDMDL
MODEL 9
REMARK VINA RESULT:    -3.741     11.434     14.672
REMARK INTER + INTRA:          -8.319
REMARK INTER:                  -7.072
REMARK INTRA:                  -1.247
REMARK UNBOUND:                -1.078
REMARK SMILES CCCCCCCCCCCCCCCCCC(=O)[O-]
REMARK SMILES IDX 10 1 11 2 12 3 13 4 14 5 15 6 16 7 17 8 18 9 19 10 20 11
REMARK SMILES IDX 9 12 8 13 7 14 6 15 5 16 4 17 3 18 2 19 1 20
REMARK H PARENT
REMARK Flexibility Score: inf
ROOT
ATOM      1  C   UNL     1      -4.816   5.893  -6.190  1.00  0.00     0.000 C 
ENDROOT
BRANCH   1   2
ATOM      2  C   UNL     1      -5.252   4.556  -6.814  1.00  0.00     0.000 C 
BRANCH   2   3
ATOM      3  C   UNL     1      -5.379   4.628  -8.343  1.00  0.00     0.000 C 
BRANCH   3   4
ATOM      4  C   UNL     1      -4.089   4.152  -9.022  1.00  0.00     0.000 C 
BRANCH   4   5
ATOM      5  C   UNL     1      -3.147   5.330  -9.302  1.00  0.00     0.000 C 
BRANCH   5   6
ATOM      6  C   UNL     1      -1.888   4.862 -10.042  1.00  0.00     0.000 C 
BRANCH   6   7
ATOM      7  C   UNL     1      -1.376   3.532  -9.471  1.00  0.00     0.006 C 
BRANCH   7   8
ATOM      8  C   UNL     1       0.104   3.291  -9.795  1.00  0.00     0.053 C 
BRANCH   8   9
ATOM      9  C   UNL     1       1.006   3.954  -8.798  1.00  0.00     0.041 C 
ATOM     10  O   UNL     1       0.754   3.877  -7.567  1.00  0.00    -0.550 OA
ATOM     11  O   UNL     1       2.106   4.683  -9.231  1.00  0.00    -0.550 OA
ENDBRANCH   8   9
ENDBRANCH   7   8
ENDBRANCH   6   7
ENDBRANCH   5   6
ENDBRANCH   4   5
ENDBRANCH   3   4
ENDBRANCH   2   3
ENDBRANCH   1   2
BRANCH   1  12
ATOM     12  C   UNL     1      -5.560   6.201  -4.879  1.00  0.00     0.000 C 
BRANCH  12  13
ATOM     13  C   UNL     1      -4.813   5.682  -3.639  1.00  0.00    -0.000 C 
BRANCH  13  14
ATOM     14  C   UNL     1      -5.436   6.178  -2.322  1.00  0.00    -0.000 C 
BRANCH  14  15
ATOM     15  C   UNL     1      -4.820   5.501  -1.086  1.00  0.00    -0.000 C 
BRANCH  15  16
ATOM     16  C   UNL     1      -3.492   6.145  -0.659  1.00  0.00    -0.000 C 
BRANCH  16  17
ATOM     17  C   UNL     1      -2.361   5.105  -0.635  1.00  0.00    -0.000 C 
BRANCH  17  18
ATOM     18  C   UNL     1      -1.158   5.518  -1.496  1.00  0.00    -0.000 C 
BRANCH  18  19
ATOM     19  C   UNL     1      -1.337   6.901  -2.142  1.00  0.00    -0.003 C 
ATOM     20  C   UNL     1      -1.267   6.809  -3.664  1.00  0.00     0.004 C 
ENDBRANCH  18  19
ENDBRANCH  17  18
ENDBRANCH  16  17
ENDBRANCH  15  16
ENDBRANCH  14  15
ENDBRANCH  13  14
ENDBRANCH  12  13
ENDBRANCH   1  12
TORSDOF 16
ENDMDL
