MODEL 1
REMARK VINA RESULT:    -3.565      0.000      0.000
REMARK INTER + INTRA:         -11.900
REMARK INTER:                  -7.732
REMARK INTRA:                  -4.167
REMARK UNBOUND:                -4.167
REMARK SMILES CCCCCCCCCCCCCCCCCCCCCC(=O)[O-]
REMARK SMILES IDX 12 1 11 2 10 3 9 4 8 5 7 6 6 7 5 8 4 9 3 10 2 11 1 12 13 13
REMARK SMILES IDX 14 14 15 15 16 16 17 17 18 18 19 19 20 20 21 21 22 22 23 23
REMARK SMILES IDX 24 24
REMARK H PARENT
REMARK Flexibility Score: inf
ROOT
ATOM      1  C   UNL     1      -3.175   7.876  40.846  1.00  0.00     0.000 C 
ENDROOT
BRANCH   1   2
ATOM      2  C   UNL     1      -2.777   7.455  42.269  1.00  0.00     0.000 C 
BRANCH   2   3
ATOM      3  C   UNL     1      -1.250   7.358  42.400  1.00  0.00     0.000 C 
BRANCH   3   4
ATOM      4  C   UNL     1      -0.572   8.726  42.566  1.00  0.00    -0.000 C 
BRANCH   4   5
ATOM      5  C   UNL     1       0.703   8.864  41.715  1.00  0.00    -0.000 C 
BRANCH   5   6
ATOM      6  C   UNL     1       0.510   9.787  40.498  1.00  0.00    -0.000 C 
BRANCH   6   7
ATOM      7  C   UNL     1       1.285   9.367  39.235  1.00  0.00    -0.000 C 
BRANCH   7   8
ATOM      8  C   UNL     1       1.820   7.926  39.314  1.00  0.00    -0.000 C 
BRANCH   8   9
ATOM      9  C   UNL     1       1.382   7.078  38.106  1.00  0.00    -0.000 C 
BRANCH   9  10
ATOM     10  C   UNL     1       0.918   5.656  38.495  1.00  0.00    -0.000 C 
BRANCH  10  11
ATOM     11  C   UNL     1       0.860   5.427  40.015  1.00  0.00    -0.003 C 
ATOM     12  C   UNL     1      -0.094   4.301  40.409  1.00  0.00     0.004 C 
ENDBRANCH  10  11
ENDBRANCH   9  10
ENDBRANCH   8   9
ENDBRANCH   7   8
ENDBRANCH   6   7
ENDBRANCH   5   6
ENDBRANCH   4   5
ENDBRANCH   3   4
ENDBRANCH   2   3
ENDBRANCH   1   2
BRANCH   1  13
ATOM     13  C   UNL     1      -2.561   6.973  39.763  1.00  0.00     0.000 C 
BRANCH  13  14
ATOM     14  C   UNL     1      -2.105   7.764  38.525  1.00  0.00     0.000 C 
BRANCH  14  15
ATOM     15  C   UNL     1      -2.450   9.263  38.607  1.00  0.00     0.000 C 
BRANCH  15  16
ATOM     16  C   UNL     1      -1.914  10.125  37.447  1.00  0.00     0.000 C 
BRANCH  16  17
ATOM     17  C   UNL     1      -1.430   9.291  36.251  1.00  0.00     0.000 C 
BRANCH  17  18
ATOM     18  C   UNL     1       0.025   9.634  35.896  1.00  0.00     0.000 C 
BRANCH  18  19
ATOM     19  C   UNL     1       0.505   8.930  34.617  1.00  0.00     0.000 C 
BRANCH  19  20
ATOM     20  C   UNL     1       0.219   7.422  34.627  1.00  0.00     0.006 C 
BRANCH  20  21
ATOM     21  C   UNL     1       1.353   6.644  33.950  1.00  0.00     0.053 C 
BRANCH  21  22
ATOM     22  C   UNL     1       1.775   5.485  34.796  1.00  0.00     0.041 C 
ATOM     23  O   UNL     1       2.955   5.412  35.229  1.00  0.00    -0.550 OA
ATOM     24  O   UNL     1       0.878   4.460  35.067  1.00  0.00    -0.550 OA
ENDBRANCH  21  22
ENDBRANCH  20  21
ENDBRANCH  19  20
ENDBRANCH  18  19
ENDBRANCH  17  18
ENDBRANCH  16  17
ENDBRANCH  15  16
ENDBRANCH  14  15
ENDBRANCH  13  14
ENDBRANCH   1  13
TORSDOF 20
ENDMDL
MODEL 2
REMARK VINA RESULT:    -3.533      1.996      3.710
REMARK INTER + INTRA:         -11.832
REMARK INTER:                  -8.035
REMARK INTRA:                  -3.796
REMARK UNBOUND:                -4.167
REMARK SMILES CCCCCCCCCCCCCCCCCCCCCC(=O)[O-]
REMARK SMILES IDX 12 1 11 2 10 3 9 4 8 5 7 6 6 7 5 8 4 9 3 10 2 11 1 12 13 13
REMARK SMILES IDX 14 14 15 15 16 16 17 17 18 18 19 19 20 20 21 21 22 22 23 23
REMARK SMILES IDX 24 24
REMARK H PARENT
REMARK Flexibility Score: inf
ROOT
ATOM      1  C   UNL     1      -2.958   8.016  39.645  1.00  0.00     0.000 C 
ENDROOT
BRANCH   1   2
ATOM      2  C   UNL     1      -1.867   9.025  39.252  1.00  0.00     0.000 C 
BRANCH   2   3
ATOM      3  C   UNL     1      -2.185   9.668  37.893  1.00  0.00     0.000 C 
BRANCH   3   4
ATOM      4  C   UNL     1      -1.592   8.891  36.708  1.00  0.00    -0.000 C 
BRANCH   4   5
ATOM      5  C   UNL     1      -0.497   9.680  35.968  1.00  0.00    -0.000 C 
BRANCH   5   6
ATOM      6  C   UNL     1       0.899   9.048  36.122  1.00  0.00    -0.000 C 
BRANCH   6   7
ATOM      7  C   UNL     1       1.815   9.739  37.150  1.00  0.00    -0.000 C 
BRANCH   7   8
ATOM      8  C   UNL     1       1.774   9.067  38.533  1.00  0.00    -0.000 C 
BRANCH   8   9
ATOM      9  C   UNL     1       1.545   7.549  38.434  1.00  0.00    -0.000 C 
BRANCH   9  10
ATOM     10  C   UNL     1       1.294   6.878  39.804  1.00  0.00    -0.000 C 
BRANCH  10  11
ATOM     11  C   UNL     1       0.979   7.883  40.926  1.00  0.00    -0.003 C 
ATOM     12  C   UNL     1       0.609   7.202  42.244  1.00  0.00     0.004 C 
ENDBRANCH  10  11
ENDBRANCH   9  10
ENDBRANCH   8   9
ENDBRANCH   7   8
ENDBRANCH   6   7
ENDBRANCH   5   6
ENDBRANCH   4   5
ENDBRANCH   3   4
ENDBRANCH   2   3
ENDBRANCH   1   2
BRANCH   1  13
ATOM     13  C   UNL     1      -2.390   6.634  40.006  1.00  0.00     0.000 C 
BRANCH  13  14
ATOM     14  C   UNL     1      -2.705   5.569  38.942  1.00  0.00     0.000 C 
BRANCH  14  15
ATOM     15  C   UNL     1      -1.518   4.631  38.657  1.00  0.00     0.000 C 
BRANCH  15  16
ATOM     16  C   UNL     1      -0.723   4.947  37.375  1.00  0.00     0.000 C 
BRANCH  16  17
ATOM     17  C   UNL     1      -1.624   5.233  36.164  1.00  0.00     0.000 C 
BRANCH  17  18
ATOM     18  C   UNL     1      -0.812   5.835  35.006  1.00  0.00     0.000 C 
BRANCH  18  19
ATOM     19  C   UNL     1       0.700   5.606  35.160  1.00  0.00     0.000 C 
BRANCH  19  20
ATOM     20  C   UNL     1       1.417   5.451  33.812  1.00  0.00     0.006 C 
BRANCH  20  21
ATOM     21  C   UNL     1       0.833   6.409  32.767  1.00  0.00     0.053 C 
BRANCH  21  22
ATOM     22  C   UNL     1       0.692   5.723  31.446  1.00  0.00     0.041 C 
ATOM     23  O   UNL     1       0.086   4.623  31.364  1.00  0.00    -0.550 OA
ATOM     24  O   UNL     1       1.272   6.276  30.311  1.00  0.00    -0.550 OA
ENDBRANCH  21  22
ENDBRANCH  20  21
ENDBRANCH  19  20
ENDBRANCH  18  19
ENDBRANCH  17  18
ENDBRANCH  16  17
ENDBRANCH  15  16
ENDBRANCH  14  15
ENDBRANCH  13  14
ENDBRANCH   1  13
TORSDOF 20
ENDMDL
MODEL 3
REMARK VINA RESULT:    -3.453      1.983      4.153
REMARK INTER + INTRA:         -11.657
REMARK INTER:                  -7.797
REMARK INTRA:                  -3.860
REMARK UNBOUND:                -4.167
REMARK SMILES CCCCCCCCCCCCCCCCCCCCCC(=O)[O-]
REMARK SMILES IDX 12 1 11 2 10 3 9 4 8 5 7 6 6 7 5 8 4 9 3 10 2 11 1 12 13 13
REMARK SMILES IDX 14 14 15 15 16 16 17 17 18 18 19 19 20 20 21 21 22 22 23 23
REMARK SMILES IDX 24 24
REMARK H PARENT
REMARK Flexibility Score: inf
ROOT
ATOM      1  C   UNL     1      -2.812   7.669  41.590  1.00  0.00     0.000 C 
ENDROOT
BRANCH   1   2
ATOM      2  C   UNL     1      -2.642   6.691  40.417  1.00  0.00     0.000 C 
BRANCH   2   3
ATOM      3  C   UNL     1      -2.655   7.442  39.076  1.00  0.00     0.000 C 
BRANCH   3   4
ATOM      4  C   UNL     1      -2.424   8.953  39.231  1.00  0.00    -0.000 C 
BRANCH   4   5
ATOM      5  C   UNL     1      -2.270   9.672  37.879  1.00  0.00    -0.000 C 
BRANCH   5   6
ATOM      6  C   UNL     1      -0.871   9.486  37.262  1.00  0.00    -0.000 C 
BRANCH   6   7
ATOM      7  C   UNL     1      -0.835   8.629  35.982  1.00  0.00    -0.000 C 
BRANCH   7   8
ATOM      8  C   UNL     1       0.374   7.679  35.933  1.00  0.00    -0.000 C 
BRANCH   8   9
ATOM      9  C   UNL     1      -0.043   6.203  36.069  1.00  0.00    -0.000 C 
BRANCH   9  10
ATOM     10  C   UNL     1      -1.569   6.012  36.223  1.00  0.00    -0.000 C 
BRANCH  10  11
ATOM     11  C   UNL     1      -1.965   4.594  36.668  1.00  0.00    -0.003 C 
ATOM     12  C   UNL     1      -0.940   3.958  37.606  1.00  0.00     0.004 C 
ENDBRANCH  10  11
ENDBRANCH   9  10
ENDBRANCH   8   9
ENDBRANCH   7   8
ENDBRANCH   6   7
ENDBRANCH   5   6
ENDBRANCH   4   5
ENDBRANCH   3   4
ENDBRANCH   2   3
ENDBRANCH   1   2
BRANCH   1  13
ATOM     13  C   UNL     1      -1.706   7.530  42.649  1.00  0.00     0.000 C 
BRANCH  13  14
ATOM     14  C   UNL     1      -0.646   8.640  42.544  1.00  0.00     0.000 C 
BRANCH  14  15
ATOM     15  C   UNL     1       0.663   8.162  41.888  1.00  0.00     0.000 C 
BRANCH  15  16
ATOM     16  C   UNL     1       0.934   8.724  40.479  1.00  0.00     0.000 C 
BRANCH  16  17
ATOM     17  C   UNL     1       1.288   7.635  39.454  1.00  0.00     0.000 C 
BRANCH  17  18
ATOM     18  C   UNL     1       0.875   6.245  39.964  1.00  0.00     0.000 C 
BRANCH  18  19
ATOM     19  C   UNL     1       1.924   5.165  39.655  1.00  0.00     0.000 C 
BRANCH  19  20
ATOM     20  C   UNL     1       2.840   5.546  38.484  1.00  0.00     0.006 C 
BRANCH  20  21
ATOM     21  C   UNL     1       4.243   4.957  38.672  1.00  0.00     0.053 C 
BRANCH  21  22
ATOM     22  C   UNL     1       4.741   4.367  37.391  1.00  0.00     0.041 C 
ATOM     23  O   UNL     1       4.304   4.786  36.288  1.00  0.00    -0.550 OA
ATOM     24  O   UNL     1       5.653   3.320  37.418  1.00  0.00    -0.550 OA
ENDBRANCH  21  22
ENDBRANCH  20  21
ENDBRANCH  19  20
ENDBRANCH  18  19
ENDBRANCH  17  18
ENDBRANCH  16  17
ENDBRANCH  15  16
ENDBRANCH  14  15
ENDBRANCH  13  14
ENDBRANCH   1  13
TORSDOF 20
ENDMDL
MODEL 4
REMARK VINA RESULT:    -3.452      1.817      4.743
REMARK INTER + INTRA:         -11.655
REMARK INTER:                  -7.764
REMARK INTRA:                  -3.891
REMARK UNBOUND:                -4.167
REMARK SMILES CCCCCCCCCCCCCCCCCCCCCC(=O)[O-]
REMARK SMILES IDX 12 1 11 2 10 3 9 4 8 5 7 6 6 7 5 8 4 9 3 10 2 11 1 12 13 13
REMARK SMILES IDX 14 14 15 15 16 16 17 17 18 18 19 19 20 20 21 21 22 22 23 23
REMARK SMILES IDX 24 24
REMARK H PARENT
REMARK Flexibility Score: inf
ROOT
ATOM      1  C   UNL     1       0.795   8.039  41.604  1.00  0.00     0.000 C 
ENDROOT
BRANCH   1   2
ATOM      2  C   UNL     1       1.074   8.140  40.097  1.00  0.00     0.000 C 
BRANCH   2   3
ATOM      3  C   UNL     1       1.164   6.743  39.465  1.00  0.00     0.000 C 
BRANCH   3   4
ATOM      4  C   UNL     1       0.892   5.611  40.467  1.00  0.00    -0.000 C 
BRANCH   4   5
ATOM      5  C   UNL     1      -0.246   4.678  40.016  1.00  0.00    -0.000 C 
BRANCH   5   6
ATOM      6  C   UNL     1       0.027   4.024  38.649  1.00  0.00    -0.000 C 
BRANCH   6   7
ATOM      7  C   UNL     1      -0.895   4.494  37.508  1.00  0.00    -0.000 C 
BRANCH   7   8
ATOM      8  C   UNL     1      -0.158   5.339  36.454  1.00  0.00    -0.000 C 
BRANCH   8   9
ATOM      9  C   UNL     1      -0.786   5.197  35.056  1.00  0.00    -0.000 C 
BRANCH   9  10
ATOM     10  C   UNL     1       0.017   5.920  33.951  1.00  0.00    -0.000 C 
BRANCH  10  11
ATOM     11  C   UNL     1       1.450   6.283  34.375  1.00  0.00    -0.003 C 
ATOM     12  C   UNL     1       2.502   5.363  33.757  1.00  0.00     0.004 C 
ENDBRANCH  10  11
ENDBRANCH   9  10
ENDBRANCH   8   9
ENDBRANCH   7   8
ENDBRANCH   6   7
ENDBRANCH   5   6
ENDBRANCH   4   5
ENDBRANCH   3   4
ENDBRANCH   2   3
ENDBRANCH   1   2
BRANCH   1  13
ATOM     13  C   UNL     1      -0.335   8.975  42.066  1.00  0.00     0.000 C 
BRANCH  13  14
ATOM     14  C   UNL     1      -1.336   8.274  43.001  1.00  0.00     0.000 C 
BRANCH  14  15
ATOM     15  C   UNL     1      -2.260   7.288  42.262  1.00  0.00     0.000 C 
BRANCH  15  16
ATOM     16  C   UNL     1      -3.022   7.877  41.059  1.00  0.00     0.000 C 
BRANCH  16  17
ATOM     17  C   UNL     1      -2.998   6.962  39.824  1.00  0.00     0.000 C 
BRANCH  17  18
ATOM     18  C   UNL     1      -2.341   7.669  38.629  1.00  0.00     0.000 C 
BRANCH  18  19
ATOM     19  C   UNL     1      -2.285   9.195  38.801  1.00  0.00     0.000 C 
BRANCH  19  20
ATOM     20  C   UNL     1      -1.669   9.907  37.589  1.00  0.00     0.006 C 
BRANCH  20  21
ATOM     21  C   UNL     1      -1.161   8.893  36.558  1.00  0.00     0.053 C 
BRANCH  21  22
ATOM     22  C   UNL     1       0.144   9.339  35.980  1.00  0.00     0.041 C 
ATOM     23  O   UNL     1       1.143   9.509  36.727  1.00  0.00    -0.550 OA
ATOM     24  O   UNL     1       0.245   9.614  34.622  1.00  0.00    -0.550 OA
ENDBRANCH  21  22
ENDBRANCH  20  21
ENDBRANCH  19  20
ENDBRANCH  18  19
ENDBRANCH  17  18
ENDBRANCH  16  17
ENDBRANCH  15  16
ENDBRANCH  14  15
ENDBRANCH  13  14
ENDBRANCH   1  13
TORSDOF 20
ENDMDL
MODEL 5
REMARK VINA RESULT:    -3.386      1.378      3.353
REMARK INTER + INTRA:         -11.512
REMARK INTER:                  -7.954
REMARK INTRA:                  -3.558
REMARK UNBOUND:                -4.167
REMARK SMILES CCCCCCCCCCCCCCCCCCCCCC(=O)[O-]
REMARK SMILES IDX 12 1 11 2 10 3 9 4 8 5 7 6 6 7 5 8 4 9 3 10 2 11 1 12 13 13
REMARK SMILES IDX 14 14 15 15 16 16 17 17 18 18 19 19 20 20 21 21 22 22 23 23
REMARK SMILES IDX 24 24
REMARK H PARENT
REMARK Flexibility Score: inf
ROOT
ATOM      1  C   UNL     1       1.671   8.149  39.132  1.00  0.00     0.000 C 
ENDROOT
BRANCH   1   2
ATOM      2  C   UNL     1       0.460   7.511  39.830  1.00  0.00     0.000 C 
BRANCH   2   3
ATOM      3  C   UNL     1       0.902   6.716  41.068  1.00  0.00     0.000 C 
BRANCH   3   4
ATOM      4  C   UNL     1       0.612   7.447  42.387  1.00  0.00    -0.000 C 
BRANCH   4   5
ATOM      5  C   UNL     1      -0.371   8.618  42.213  1.00  0.00    -0.000 C 
BRANCH   5   6
ATOM      6  C   UNL     1      -1.714   8.380  42.927  1.00  0.00    -0.000 C 
BRANCH   6   7
ATOM      7  C   UNL     1      -2.657   7.388  42.221  1.00  0.00    -0.000 C 
BRANCH   7   8
ATOM      8  C   UNL     1      -2.983   7.799  40.774  1.00  0.00    -0.000 C 
BRANCH   8   9
ATOM      9  C   UNL     1      -3.014   6.590  39.821  1.00  0.00    -0.000 C 
BRANCH   9  10
ATOM     10  C   UNL     1      -2.936   5.232  40.556  1.00  0.00    -0.000 C 
BRANCH  10  11
ATOM     11  C   UNL     1      -1.736   4.372  40.124  1.00  0.00    -0.003 C 
ATOM     12  C   UNL     1      -1.420   4.501  38.634  1.00  0.00     0.004 C 
ENDBRANCH  10  11
ENDBRANCH   9  10
ENDBRANCH   8   9
ENDBRANCH   7   8
ENDBRANCH   6   7
ENDBRANCH   5   6
ENDBRANCH   4   5
ENDBRANCH   3   4
ENDBRANCH   2   3
ENDBRANCH   1   2
BRANCH   1  13
ATOM     13  C   UNL     1       1.526   9.670  38.955  1.00  0.00     0.000 C 
BRANCH  13  14
ATOM     14  C   UNL     1       1.800  10.124  37.511  1.00  0.00     0.000 C 
BRANCH  14  15
ATOM     15  C   UNL     1       0.990   9.334  36.467  1.00  0.00     0.000 C 
BRANCH  15  16
ATOM     16  C   UNL     1      -0.376   9.944  36.096  1.00  0.00     0.000 C 
BRANCH  16  17
ATOM     17  C   UNL     1      -1.564   9.082  36.550  1.00  0.00     0.000 C 
BRANCH  17  18
ATOM     18  C   UNL     1      -1.146   7.613  36.714  1.00  0.00     0.000 C 
BRANCH  18  19
ATOM     19  C   UNL     1      -1.557   6.743  35.515  1.00  0.00     0.000 C 
BRANCH  19  20
ATOM     20  C   UNL     1      -0.422   6.562  34.497  1.00  0.00     0.006 C 
BRANCH  20  21
ATOM     21  C   UNL     1       0.338   5.255  34.749  1.00  0.00     0.053 C 
BRANCH  21  22
ATOM     22  C   UNL     1       1.761   5.536  35.115  1.00  0.00     0.041 C 
ATOM     23  O   UNL     1       2.677   5.372  34.268  1.00  0.00    -0.550 OA
ATOM     24  O   UNL     1       2.080   5.934  36.407  1.00  0.00    -0.550 OA
ENDBRANCH  21  22
ENDBRANCH  20  21
ENDBRANCH  19  20
ENDBRANCH  18  19
ENDBRANCH  17  18
ENDBRANCH  16  17
ENDBRANCH  15  16
ENDBRANCH  14  15
ENDBRANCH  13  14
ENDBRANCH   1  13
TORSDOF 20
ENDMDL
MODEL 6
REMARK VINA RESULT:    -3.384      1.441      2.098
REMARK INTER + INTRA:         -11.509
REMARK INTER:                  -7.552
REMARK INTRA:                  -3.957
REMARK UNBOUND:                -4.167
REMARK SMILES CCCCCCCCCCCCCCCCCCCCCC(=O)[O-]
REMARK SMILES IDX 12 1 11 2 10 3 9 4 8 5 7 6 6 7 5 8 4 9 3 10 2 11 1 12 13 13
REMARK SMILES IDX 14 14 15 15 16 16 17 17 18 18 19 19 20 20 21 21 22 22 23 23
REMARK SMILES IDX 24 24
REMARK H PARENT
REMARK Flexibility Score: inf
ROOT
ATOM      1  C   UNL     1      -2.653   7.465  41.202  1.00  0.00     0.000 C 
ENDROOT
BRANCH   1   2
ATOM      2  C   UNL     1      -1.429   8.247  41.703  1.00  0.00     0.000 C 
BRANCH   2   3
ATOM      3  C   UNL     1      -0.306   7.287  42.124  1.00  0.00     0.000 C 
BRANCH   3   4
ATOM      4  C   UNL     1       1.076   7.716  41.609  1.00  0.00    -0.000 C 
BRANCH   4   5
ATOM      5  C   UNL     1       0.994   8.807  40.526  1.00  0.00    -0.000 C 
BRANCH   5   6
ATOM      6  C   UNL     1       1.423   8.300  39.137  1.00  0.00    -0.000 C 
BRANCH   6   7
ATOM      7  C   UNL     1       1.750   6.796  39.066  1.00  0.00    -0.000 C 
BRANCH   7   8
ATOM      8  C   UNL     1       0.652   5.978  38.365  1.00  0.00    -0.000 C 
BRANCH   8   9
ATOM      9  C   UNL     1       0.086   4.871  39.272  1.00  0.00    -0.000 C 
BRANCH   9  10
ATOM     10  C   UNL     1      -1.412   4.582  39.020  1.00  0.00    -0.000 C 
BRANCH  10  11
ATOM     11  C   UNL     1      -1.875   4.955  37.601  1.00  0.00    -0.003 C 
ATOM     12  C   UNL     1      -1.568   3.867  36.572  1.00  0.00     0.004 C 
ENDBRANCH  10  11
ENDBRANCH   9  10
ENDBRANCH   8   9
ENDBRANCH   7   8
ENDBRANCH   6   7
ENDBRANCH   5   6
ENDBRANCH   4   5
ENDBRANCH   3   4
ENDBRANCH   2   3
ENDBRANCH   1   2
BRANCH   1  13
ATOM     13  C   UNL     1      -3.002   7.776  39.737  1.00  0.00     0.000 C 
BRANCH  13  14
ATOM     14  C   UNL     1      -2.190   8.957  39.176  1.00  0.00     0.000 C 
BRANCH  14  15
ATOM     15  C   UNL     1      -2.181   9.003  37.637  1.00  0.00     0.000 C 
BRANCH  15  16
ATOM     16  C   UNL     1      -1.026   9.809  37.011  1.00  0.00     0.000 C 
BRANCH  16  17
ATOM     17  C   UNL     1      -0.450   9.153  35.746  1.00  0.00     0.000 C 
BRANCH  17  18
ATOM     18  C   UNL     1      -1.033   7.746  35.543  1.00  0.00     0.000 C 
BRANCH  18  19
ATOM     19  C   UNL     1      -0.246   6.922  34.512  1.00  0.00     0.000 C 
BRANCH  19  20
ATOM     20  C   UNL     1       1.174   6.579  34.985  1.00  0.00     0.006 C 
BRANCH  20  21
ATOM     21  C   UNL     1       1.918   5.751  33.932  1.00  0.00     0.053 C 
BRANCH  21  22
ATOM     22  C   UNL     1       3.174   5.176  34.506  1.00  0.00     0.041 C 
ATOM     23  O   UNL     1       4.011   4.608  33.756  1.00  0.00    -0.550 OA
ATOM     24  O   UNL     1       3.397   5.224  35.875  1.00  0.00    -0.550 OA
ENDBRANCH  21  22
ENDBRANCH  20  21
ENDBRANCH  19  20
ENDBRANCH  18  19
ENDBRANCH  17  18
ENDBRANCH  16  17
ENDBRANCH  15  16
ENDBRANCH  14  15
ENDBRANCH  13  14
ENDBRANCH   1  13
TORSDOF 20
ENDMDL
MODEL 7
REMARK VINA RESULT:    -3.380      2.173      5.027
REMARK INTER + INTRA:         -11.498
REMARK INTER:                  -7.362
REMARK INTRA:                  -4.136
REMARK UNBOUND:                -4.167
REMARK SMILES CCCCCCCCCCCCCCCCCCCCCC(=O)[O-]
REMARK SMILES IDX 12 1 11 2 10 3 9 4 8 5 7 6 6 7 5 8 4 9 3 10 2 11 1 12 13 13
REMARK SMILES IDX 14 14 15 15 16 16 17 17 18 18 19 19 20 20 21 21 22 22 23 23
REMARK SMILES IDX 24 24
REMARK H PARENT
REMARK Flexibility Score: inf
ROOT
ATOM      1  C   UNL     1      -2.738   8.560  39.669  1.00  0.00     0.000 C 
ENDROOT
BRANCH   1   2
ATOM      2  C   UNL     1      -2.281   9.043  38.284  1.00  0.00     0.000 C 
BRANCH   2   3
ATOM      3  C   UNL     1      -0.949   9.803  38.385  1.00  0.00     0.000 C 
BRANCH   3   4
ATOM      4  C   UNL     1       0.070   9.374  37.318  1.00  0.00    -0.000 C 
BRANCH   4   5
ATOM      5  C   UNL     1      -0.595   8.970  35.991  1.00  0.00    -0.000 C 
BRANCH   5   6
ATOM      6  C   UNL     1      -0.330   7.500  35.616  1.00  0.00    -0.000 C 
BRANCH   6   7
ATOM      7  C   UNL     1      -1.592   6.625  35.487  1.00  0.00    -0.000 C 
BRANCH   7   8
ATOM      8  C   UNL     1      -1.691   5.554  36.587  1.00  0.00    -0.000 C 
BRANCH   8   9
ATOM      9  C   UNL     1      -1.598   4.127  36.016  1.00  0.00    -0.000 C 
BRANCH   9  10
ATOM     10  C   UNL     1      -0.277   3.411  36.377  1.00  0.00    -0.000 C 
BRANCH  10  11
ATOM     11  C   UNL     1       0.912   3.844  35.502  1.00  0.00    -0.003 C 
ATOM     12  C   UNL     1       1.969   4.626  36.281  1.00  0.00     0.004 C 
ENDBRANCH  10  11
ENDBRANCH   9  10
ENDBRANCH   8   9
ENDBRANCH   7   8
ENDBRANCH   6   7
ENDBRANCH   5   6
ENDBRANCH   4   5
ENDBRANCH   3   4
ENDBRANCH   2   3
ENDBRANCH   1   2
BRANCH   1  13
ATOM     13  C   UNL     1      -3.047   7.054  39.705  1.00  0.00     0.000 C 
BRANCH  13  14
ATOM     14  C   UNL     1      -2.884   6.451  41.111  1.00  0.00     0.000 C 
BRANCH  14  15
ATOM     15  C   UNL     1      -2.764   7.520  42.214  1.00  0.00     0.000 C 
BRANCH  15  16
ATOM     16  C   UNL     1      -1.406   7.564  42.941  1.00  0.00     0.000 C 
BRANCH  16  17
ATOM     17  C   UNL     1      -0.686   8.913  42.791  1.00  0.00     0.000 C 
BRANCH  17  18
ATOM     18  C   UNL     1       0.417   8.831  41.725  1.00  0.00     0.000 C 
BRANCH  18  19
ATOM     19  C   UNL     1       0.905   7.393  41.486  1.00  0.00     0.000 C 
BRANCH  19  20
ATOM     20  C   UNL     1       1.345   7.150  40.035  1.00  0.00     0.006 C 
BRANCH  20  21
ATOM     21  C   UNL     1       0.393   6.178  39.330  1.00  0.00     0.053 C 
BRANCH  21  22
ATOM     22  C   UNL     1       0.650   4.773  39.775  1.00  0.00     0.041 C 
ATOM     23  O   UNL     1      -0.298   3.948  39.848  1.00  0.00    -0.550 OA
ATOM     24  O   UNL     1       1.929   4.389  40.156  1.00  0.00    -0.550 OA
ENDBRANCH  21  22
ENDBRANCH  20  21
ENDBRANCH  19  20
ENDBRANCH  18  19
ENDBRANCH  17  18
ENDBRANCH  16  17
ENDBRANCH  15  16
ENDBRANCH  14  15
ENDBRANCH  13  14
ENDBRANCH   1  13
TORSDOF 20
ENDMDL
MODEL 8
REMARK VINA RESULT:    -3.339      1.545      3.135
REMARK INTER + INTRA:         -11.410
REMARK INTER:                  -7.751
REMARK INTRA:                  -3.660
REMARK UNBOUND:                -4.167
REMARK SMILES CCCCCCCCCCCCCCCCCCCCCC(=O)[O-]
REMARK SMILES IDX 12 1 11 2 10 3 9 4 8 5 7 6 6 7 5 8 4 9 3 10 2 11 1 12 13 13
REMARK SMILES IDX 14 14 15 15 16 16 17 17 18 18 19 19 20 20 21 21 22 22 23 23
REMARK SMILES IDX 24 24
REMARK H PARENT
REMARK Flexibility Score: inf
ROOT
ATOM      1  C   UNL     1      -1.137   8.978  39.022  1.00  0.00     0.000 C 
ENDROOT
BRANCH   1   2
ATOM      2  C   UNL     1      -0.142   9.940  39.689  1.00  0.00     0.000 C 
BRANCH   2   3
ATOM      3  C   UNL     1       0.316   9.392  41.049  1.00  0.00     0.000 C 
BRANCH   3   4
ATOM      4  C   UNL     1      -0.307   8.029  41.389  1.00  0.00    -0.000 C 
BRANCH   4   5
ATOM      5  C   UNL     1       0.738   6.996  41.844  1.00  0.00    -0.000 C 
BRANCH   5   6
ATOM      6  C   UNL     1       0.885   5.823  40.857  1.00  0.00    -0.000 C 
BRANCH   6   7
ATOM      7  C   UNL     1       1.304   6.224  39.430  1.00  0.00    -0.000 C 
BRANCH   7   8
ATOM      8  C   UNL     1       0.303   5.755  38.359  1.00  0.00    -0.000 C 
BRANCH   8   9
ATOM      9  C   UNL     1      -0.892   5.004  38.972  1.00  0.00    -0.000 C 
BRANCH   9  10
ATOM     10  C   UNL     1      -2.260   5.542  38.495  1.00  0.00    -0.000 C 
BRANCH  10  11
ATOM     11  C   UNL     1      -3.198   5.934  39.650  1.00  0.00    -0.003 C 
ATOM     12  C   UNL     1      -2.824   5.263  40.971  1.00  0.00     0.004 C 
ENDBRANCH  10  11
ENDBRANCH   9  10
ENDBRANCH   8   9
ENDBRANCH   7   8
ENDBRANCH   6   7
ENDBRANCH   5   6
ENDBRANCH   4   5
ENDBRANCH   3   4
ENDBRANCH   2   3
ENDBRANCH   1   2
BRANCH   1  13
ATOM     13  C   UNL     1      -2.149   9.698  38.115  1.00  0.00     0.000 C 
BRANCH  13  14
ATOM     14  C   UNL     1      -1.585   9.984  36.713  1.00  0.00     0.000 C 
BRANCH  14  15
ATOM     15  C   UNL     1      -0.727   8.829  36.162  1.00  0.00     0.000 C 
BRANCH  15  16
ATOM     16  C   UNL     1      -1.518   7.628  35.611  1.00  0.00     0.000 C 
BRANCH  16  17
ATOM     17  C   UNL     1      -0.634   6.613  34.870  1.00  0.00     0.000 C 
BRANCH  17  18
ATOM     18  C   UNL     1       0.647   7.280  34.345  1.00  0.00     0.000 C 
BRANCH  18  19
ATOM     19  C   UNL     1       1.687   6.261  33.853  1.00  0.00     0.000 C 
BRANCH  19  20
ATOM     20  C   UNL     1       1.819   5.050  34.786  1.00  0.00     0.006 C 
BRANCH  20  21
ATOM     21  C   UNL     1       2.953   5.257  35.796  1.00  0.00     0.053 C 
BRANCH  21  22
ATOM     22  C   UNL     1       4.120   4.384  35.462  1.00  0.00     0.041 C 
ATOM     23  O   UNL     1       4.063   3.596  34.482  1.00  0.00    -0.550 OA
ATOM     24  O   UNL     1       5.255   4.405  36.263  1.00  0.00    -0.550 OA
ENDBRANCH  21  22
ENDBRANCH  20  21
ENDBRANCH  19  20
ENDBRANCH  18  19
ENDBRANCH  17  18
ENDBRANCH  16  17
ENDBRANCH  15  16
ENDBRANCH  14  15
ENDBRANCH  13  14
ENDBRANCH   1  13
TORSDOF 20
ENDMDL
MODEL 9
REMARK VINA RESULT:    -3.336      1.584      3.148
REMARK INTER + INTRA:         -11.404
REMARK INTER:                  -7.594
REMARK INTRA:                  -3.809
REMARK UNBOUND:                -4.167
REMARK SMILES CCCCCCCCCCCCCCCCCCCCCC(=O)[O-]
REMARK SMILES IDX 12 1 11 2 10 3 9 4 8 5 7 6 6 7 5 8 4 9 3 10 2 11 1 12 13 13
REMARK SMILES IDX 14 14 15 15 16 16 17 17 18 18 19 19 20 20 21 21 22 22 23 23
REMARK SMILES IDX 24 24
REMARK H PARENT
REMARK Flexibility Score: inf
ROOT
ATOM      1  C   UNL     1       0.772   8.199  41.181  1.00  0.00     0.000 C 
ENDROOT
BRANCH   1   2
ATOM      2  C   UNL     1      -0.051   7.547  42.303  1.00  0.00     0.000 C 
BRANCH   2   3
ATOM      3  C   UNL     1      -1.335   8.348  42.572  1.00  0.00     0.000 C 
BRANCH   3   4
ATOM      4  C   UNL     1      -2.609   7.600  42.149  1.00  0.00    -0.000 C 
BRANCH   4   5
ATOM      5  C   UNL     1      -3.003   7.878  40.688  1.00  0.00    -0.000 C 
BRANCH   5   6
ATOM      6  C   UNL     1      -3.134   6.592  39.851  1.00  0.00    -0.000 C 
BRANCH   6   7
ATOM      7  C   UNL     1      -2.927   5.283  40.637  1.00  0.00    -0.000 C 
BRANCH   7   8
ATOM      8  C   UNL     1      -1.802   4.409  40.057  1.00  0.00    -0.000 C 
BRANCH   8   9
ATOM      9  C   UNL     1      -0.627   5.252  39.528  1.00  0.00    -0.000 C 
BRANCH   9  10
ATOM     10  C   UNL     1      -0.074   4.747  38.176  1.00  0.00    -0.000 C 
BRANCH  10  11
ATOM     11  C   UNL     1      -1.156   4.156  37.256  1.00  0.00    -0.003 C 
ATOM     12  C   UNL     1      -1.931   5.226  36.488  1.00  0.00     0.004 C 
ENDBRANCH  10  11
ENDBRANCH   9  10
ENDBRANCH   8   9
ENDBRANCH   7   8
ENDBRANCH   6   7
ENDBRANCH   5   6
ENDBRANCH   4   5
ENDBRANCH   3   4
ENDBRANCH   2   3
ENDBRANCH   1   2
BRANCH   1  13
ATOM     13  C   UNL     1       0.371   9.660  40.919  1.00  0.00     0.000 C 
BRANCH  13  14
ATOM     14  C   UNL     1       0.656  10.099  39.472  1.00  0.00     0.000 C 
BRANCH  14  15
ATOM     15  C   UNL     1      -0.607  10.122  38.591  1.00  0.00     0.000 C 
BRANCH  15  16
ATOM     16  C   UNL     1      -0.991   8.771  37.959  1.00  0.00     0.000 C 
BRANCH  16  17
ATOM     17  C   UNL     1      -1.193   8.852  36.437  1.00  0.00     0.000 C 
BRANCH  17  18
ATOM     18  C   UNL     1       0.156   8.820  35.702  1.00  0.00     0.000 C 
BRANCH  18  19
ATOM     19  C   UNL     1       1.158   7.848  36.345  1.00  0.00     0.000 C 
BRANCH  19  20
ATOM     20  C   UNL     1       1.393   6.591  35.496  1.00  0.00     0.006 C 
BRANCH  20  21
ATOM     21  C   UNL     1       0.879   6.791  34.065  1.00  0.00     0.053 C 
BRANCH  21  22
ATOM     22  C   UNL     1       1.014   5.528  33.276  1.00  0.00     0.041 C 
ATOM     23  O   UNL     1       2.087   5.271  32.670  1.00  0.00    -0.550 OA
ATOM     24  O   UNL     1      -0.062   4.657  33.170  1.00  0.00    -0.550 OA
ENDBRANCH  21  22
ENDBRANCH  20  21
ENDBRANCH  19  20
ENDBRANCH  18  19
ENDBRANCH  17  18
ENDBRANCH  16  17
ENDBRANCH  15  16
ENDBRANCH  14  15
ENDBRANCH  13  14
ENDBRANCH   1  13
TORSDOF 20
ENDMDL
