MODEL 1
REMARK VINA RESULT:    -6.517      0.000      0.000
REMARK INTER + INTRA:          -7.949
REMARK INTER:                  -7.660
REMARK INTRA:                  -0.289
REMARK UNBOUND:                -0.289
REMARK SMILES O=c1c(O)c(-c2ccc(O)cc2)oc2cc(O)cc(O)c12
REMARK SMILES IDX 5 1 3 2 2 3 1 4 21 5 19 6 18 7 16 8 15 9 14 10 13 11 6 12
REMARK SMILES IDX 7 13 8 14 9 15 12 16 11 17 10 18 4 20 20 22 17 24
REMARK H PARENT 10 19 4 21 20 23 17 25
REMARK Flexibility Score: inf
ROOT
ATOM      1  C   UNL     1      14.535  55.778  34.501  1.00  0.00     0.180 A 
ATOM      2  C   UNL     1      14.484  55.456  33.133  1.00  0.00     0.208 A 
ATOM      3  C   UNL     1      14.964  56.384  32.196  1.00  0.00     0.238 A 
ATOM      4  O   UNL     1      14.966  56.067  30.978  1.00  0.00    -0.285 OA
ATOM      5  C   UNL     1      15.474  57.629  32.635  1.00  0.00     0.111 A 
ATOM      6  C   UNL     1      15.950  58.661  31.771  1.00  0.00     0.134 A 
ATOM      7  C   UNL     1      16.553  59.799  32.320  1.00  0.00     0.093 A 
ATOM      8  C   UNL     1      16.639  59.973  33.701  1.00  0.00     0.123 A 
ATOM      9  C   UNL     1      16.124  58.997  34.556  1.00  0.00     0.094 A 
ATOM     10  C   UNL     1      15.550  57.835  34.037  1.00  0.00     0.146 A 
ATOM     11  O   UNL     1      15.081  56.926  34.885  1.00  0.00    -0.452 OA
ENDROOT
BRANCH   1  12
ATOM     12  C   UNL     1      14.026  54.862  35.546  1.00  0.00     0.021 A 
ATOM     13  C   UNL     1      12.714  54.970  36.040  1.00  0.00     0.016 A 
ATOM     14  C   UNL     1      12.263  54.109  37.046  1.00  0.00     0.047 A 
ATOM     15  C   UNL     1      13.119  53.140  37.578  1.00  0.00     0.115 A 
ATOM     16  C   UNL     1      14.887  53.899  36.101  1.00  0.00     0.016 A 
ATOM     17  C   UNL     1      14.433  53.039  37.106  1.00  0.00     0.047 A 
BRANCH  15  18
ATOM     18  O   UNL     1      12.655  52.289  38.578  1.00  0.00    -0.508 OA
ATOM     19  H   UNL     1      12.572  52.599  39.540  1.00  0.00     0.293 HD
ENDBRANCH  15  18
ENDBRANCH   1  12
BRANCH   2  20
ATOM     20  O   UNL     1      13.998  54.212  32.723  1.00  0.00    -0.502 OA
ATOM     21  H   UNL     1      13.815  53.457  33.373  1.00  0.00     0.293 HD
ENDBRANCH   2  20
BRANCH   6  22
ATOM     22  O   UNL     1      15.829  58.630  30.379  1.00  0.00    -0.507 OA
ATOM     23  H   UNL     1      15.458  59.381  29.816  1.00  0.00     0.293 HD
ENDBRANCH   6  22
BRANCH   8  24
ATOM     24  O   UNL     1      17.233  61.125  34.213  1.00  0.00    -0.508 OA
ATOM     25  H   UNL     1      16.765  62.023  34.175  1.00  0.00     0.293 HD
ENDBRANCH   8  24
TORSDOF 5
ENDMDL
MODEL 2
REMARK VINA RESULT:    -5.647      1.851      1.973
REMARK INTER + INTRA:          -6.926
REMARK INTER:                  -6.686
REMARK INTRA:                  -0.240
REMARK UNBOUND:                -0.289
REMARK SMILES O=c1c(O)c(-c2ccc(O)cc2)oc2cc(O)cc(O)c12
REMARK SMILES IDX 5 1 3 2 2 3 1 4 21 5 19 6 18 7 16 8 15 9 14 10 13 11 6 12
REMARK SMILES IDX 7 13 8 14 9 15 12 16 11 17 10 18 4 20 20 22 17 24
REMARK H PARENT 10 19 4 21 20 23 17 25
REMARK Flexibility Score: inf
ROOT
ATOM      1  C   UNL     1      14.299  55.923  34.752  1.00  0.00     0.180 A 
ATOM      2  C   UNL     1      13.138  56.271  34.040  1.00  0.00     0.208 A 
ATOM      3  C   UNL     1      13.069  57.530  33.423  1.00  0.00     0.238 A 
ATOM      4  O   UNL     1      12.050  57.814  32.742  1.00  0.00    -0.285 OA
ATOM      5  C   UNL     1      14.154  58.432  33.539  1.00  0.00     0.111 A 
ATOM      6  C   UNL     1      14.176  59.749  32.988  1.00  0.00     0.134 A 
ATOM      7  C   UNL     1      15.352  60.505  33.053  1.00  0.00     0.093 A 
ATOM      8  C   UNL     1      16.486  60.019  33.704  1.00  0.00     0.123 A 
ATOM      9  C   UNL     1      16.457  58.757  34.297  1.00  0.00     0.094 A 
ATOM     10  C   UNL     1      15.309  57.964  34.217  1.00  0.00     0.146 A 
ATOM     11  O   UNL     1      15.326  56.765  34.786  1.00  0.00    -0.452 OA
ENDROOT
BRANCH   1  12
ATOM     12  C   UNL     1      14.436  54.624  35.450  1.00  0.00     0.021 A 
ATOM     13  C   UNL     1      13.754  54.362  36.651  1.00  0.00     0.016 A 
ATOM     14  C   UNL     1      13.918  53.137  37.305  1.00  0.00     0.047 A 
ATOM     15  C   UNL     1      14.775  52.166  36.777  1.00  0.00     0.115 A 
ATOM     16  C   UNL     1      15.312  53.652  34.936  1.00  0.00     0.016 A 
ATOM     17  C   UNL     1      15.474  52.428  35.592  1.00  0.00     0.047 A 
BRANCH  15  18
ATOM     18  O   UNL     1      14.927  50.951  37.438  1.00  0.00    -0.508 OA
ATOM     19  H   UNL     1      15.758  50.745  37.981  1.00  0.00     0.293 HD
ENDBRANCH  15  18
ENDBRANCH   1  12
BRANCH   2  20
ATOM     20  O   UNL     1      12.088  55.357  33.919  1.00  0.00    -0.502 OA
ATOM     21  H   UNL     1      12.087  54.617  33.228  1.00  0.00     0.293 HD
ENDBRANCH   2  20
BRANCH   6  22
ATOM     22  O   UNL     1      13.069  60.366  32.398  1.00  0.00    -0.507 OA
ATOM     23  H   UNL     1      12.405  60.948  32.887  1.00  0.00     0.293 HD
ENDBRANCH   6  22
BRANCH   8  24
ATOM     24  O   UNL     1      17.635  60.805  33.761  1.00  0.00    -0.508 OA
ATOM     25  H   UNL     1      17.604  61.765  34.082  1.00  0.00     0.293 HD
ENDBRANCH   8  24
TORSDOF 5
ENDMDL
MODEL 3
REMARK VINA RESULT:    -5.076      1.871      6.489
REMARK INTER + INTRA:          -6.256
REMARK INTER:                  -5.986
REMARK INTRA:                  -0.271
REMARK UNBOUND:                -0.289
REMARK SMILES O=c1c(O)c(-c2ccc(O)cc2)oc2cc(O)cc(O)c12
REMARK SMILES IDX 5 1 3 2 2 3 1 4 21 5 19 6 18 7 16 8 15 9 14 10 13 11 6 12
REMARK SMILES IDX 7 13 8 14 9 15 12 16 11 17 10 18 4 20 20 22 17 24
REMARK H PARENT 10 19 4 21 20 23 17 25
REMARK Flexibility Score: inf
ROOT
ATOM      1  C   UNL     1      15.434  55.740  33.777  1.00  0.00     0.180 A 
ATOM      2  C   UNL     1      14.853  55.204  32.615  1.00  0.00     0.208 A 
ATOM      3  C   UNL     1      14.446  53.860  32.614  1.00  0.00     0.238 A 
ATOM      4  O   UNL     1      13.878  53.401  31.590  1.00  0.00    -0.285 OA
ATOM      5  C   UNL     1      14.639  53.065  33.769  1.00  0.00     0.111 A 
ATOM      6  C   UNL     1      14.301  51.681  33.867  1.00  0.00     0.134 A 
ATOM      7  C   UNL     1      14.415  51.028  35.100  1.00  0.00     0.093 A 
ATOM      8  C   UNL     1      14.916  51.688  36.222  1.00  0.00     0.123 A 
ATOM      9  C   UNL     1      15.304  53.025  36.123  1.00  0.00     0.094 A 
ATOM     10  C   UNL     1      15.168  53.713  34.915  1.00  0.00     0.146 A 
ATOM     11  O   UNL     1      15.540  54.987  34.866  1.00  0.00    -0.452 OA
ENDROOT
BRANCH   1  12
ATOM     12  C   UNL     1      15.910  57.140  33.846  1.00  0.00     0.021 A 
ATOM     13  C   UNL     1      17.269  57.461  33.678  1.00  0.00     0.016 A 
ATOM     14  C   UNL     1      17.699  58.788  33.772  1.00  0.00     0.047 A 
ATOM     15  C   UNL     1      16.783  59.808  34.048  1.00  0.00     0.115 A 
ATOM     16  C   UNL     1      14.998  58.167  34.144  1.00  0.00     0.016 A 
ATOM     17  C   UNL     1      15.431  59.493  34.237  1.00  0.00     0.047 A 
BRANCH  15  18
ATOM     18  O   UNL     1      17.226  61.125  34.138  1.00  0.00    -0.508 OA
ATOM     19  H   UNL     1      17.740  61.562  33.382  1.00  0.00     0.293 HD
ENDBRANCH  15  18
ENDBRANCH   1  12
BRANCH   2  20
ATOM     20  O   UNL     1      14.651  56.012  31.493  1.00  0.00    -0.502 OA
ATOM     21  H   UNL     1      14.038  55.745  30.733  1.00  0.00     0.293 HD
ENDBRANCH   2  20
BRANCH   6  22
ATOM     22  O   UNL     1      13.879  50.903  32.785  1.00  0.00    -0.507 OA
ATOM     23  H   UNL     1      12.919  50.664  32.588  1.00  0.00     0.293 HD
ENDBRANCH   6  22
BRANCH   8  24
ATOM     24  O   UNL     1      15.029  51.002  37.430  1.00  0.00    -0.508 OA
ATOM     25  H   UNL     1      15.620  51.343  38.178  1.00  0.00     0.293 HD
ENDBRANCH   8  24
TORSDOF 5
ENDMDL
MODEL 4
REMARK VINA RESULT:    -5.061      2.495      3.328
REMARK INTER + INTRA:          -6.238
REMARK INTER:                  -5.939
REMARK INTRA:                  -0.300
REMARK UNBOUND:                -0.289
REMARK SMILES O=c1c(O)c(-c2ccc(O)cc2)oc2cc(O)cc(O)c12
REMARK SMILES IDX 5 1 3 2 2 3 1 4 21 5 19 6 18 7 16 8 15 9 14 10 13 11 6 12
REMARK SMILES IDX 7 13 8 14 9 15 12 16 11 17 10 18 4 20 20 22 17 24
REMARK H PARENT 10 19 4 21 20 23 17 25
REMARK Flexibility Score: inf
ROOT
ATOM      1  C   UNL     1      14.961  56.076  33.851  1.00  0.00     0.180 A 
ATOM      2  C   UNL     1      16.133  56.707  33.399  1.00  0.00     0.208 A 
ATOM      3  C   UNL     1      16.188  58.110  33.379  1.00  0.00     0.238 A 
ATOM      4  O   UNL     1      17.259  58.668  33.026  1.00  0.00    -0.285 OA
ATOM      5  C   UNL     1      15.065  58.864  33.796  1.00  0.00     0.111 A 
ATOM      6  C   UNL     1      14.994  60.290  33.779  1.00  0.00     0.134 A 
ATOM      7  C   UNL     1      13.883  60.933  34.336  1.00  0.00     0.093 A 
ATOM      8  C   UNL     1      12.810  60.204  34.849  1.00  0.00     0.123 A 
ATOM      9  C   UNL     1      12.843  58.809  34.817  1.00  0.00     0.094 A 
ATOM     10  C   UNL     1      13.954  58.139  34.301  1.00  0.00     0.146 A 
ATOM     11  O   UNL     1      13.950  56.811  34.297  1.00  0.00    -0.452 OA
ENDROOT
BRANCH   1  12
ATOM     12  C   UNL     1      14.819  54.602  33.878  1.00  0.00     0.021 A 
ATOM     13  C   UNL     1      14.346  53.891  32.761  1.00  0.00     0.016 A 
ATOM     14  C   UNL     1      14.197  52.502  32.818  1.00  0.00     0.047 A 
ATOM     15  C   UNL     1      14.505  51.808  33.992  1.00  0.00     0.115 A 
ATOM     16  C   UNL     1      15.108  53.901  35.061  1.00  0.00     0.016 A 
ATOM     17  C   UNL     1      14.958  52.512  35.115  1.00  0.00     0.047 A 
BRANCH  15  18
ATOM     18  O   UNL     1      14.353  50.425  34.034  1.00  0.00    -0.508 OA
ATOM     19  H   UNL     1      15.095  49.821  34.369  1.00  0.00     0.293 HD
ENDBRANCH  15  18
ENDBRANCH   1  12
BRANCH   2  20
ATOM     20  O   UNL     1      17.238  55.943  33.014  1.00  0.00    -0.502 OA
ATOM     21  H   UNL     1      18.191  56.257  33.151  1.00  0.00     0.293 HD
ENDBRANCH   2  20
BRANCH   6  22
ATOM     22  O   UNL     1      15.969  61.112  33.207  1.00  0.00    -0.507 OA
ATOM     23  H   UNL     1      15.797  61.787  32.477  1.00  0.00     0.293 HD
ENDBRANCH   6  22
BRANCH   8  24
ATOM     24  O   UNL     1      11.714  60.877  35.383  1.00  0.00    -0.508 OA
ATOM     25  H   UNL     1      10.807  60.433  35.462  1.00  0.00     0.293 HD
ENDBRANCH   8  24
TORSDOF 5
ENDMDL
MODEL 5
REMARK VINA RESULT:    -4.997      8.194     10.142
REMARK INTER + INTRA:          -6.163
REMARK INTER:                  -6.067
REMARK INTRA:                  -0.096
REMARK UNBOUND:                -0.289
REMARK SMILES O=c1c(O)c(-c2ccc(O)cc2)oc2cc(O)cc(O)c12
REMARK SMILES IDX 5 1 3 2 2 3 1 4 21 5 19 6 18 7 16 8 15 9 14 10 13 11 6 12
REMARK SMILES IDX 7 13 8 14 9 15 12 16 11 17 10 18 4 20 20 22 17 24
REMARK H PARENT 10 19 4 21 20 23 17 25
REMARK Flexibility Score: inf
ROOT
ATOM      1  C   UNL     1      14.102  47.053  32.914  1.00  0.00     0.180 A 
ATOM      2  C   UNL     1      14.270  48.441  32.767  1.00  0.00     0.208 A 
ATOM      3  C   UNL     1      15.075  48.924  31.723  1.00  0.00     0.238 A 
ATOM      4  O   UNL     1      15.177  50.168  31.564  1.00  0.00    -0.285 OA
ATOM      5  C   UNL     1      15.714  48.013  30.847  1.00  0.00     0.111 A 
ATOM      6  C   UNL     1      16.583  48.389  29.779  1.00  0.00     0.134 A 
ATOM      7  C   UNL     1      17.056  47.411  28.897  1.00  0.00     0.093 A 
ATOM      8  C   UNL     1      16.746  46.064  29.081  1.00  0.00     0.123 A 
ATOM      9  C   UNL     1      15.944  45.678  30.156  1.00  0.00     0.094 A 
ATOM     10  C   UNL     1      15.428  46.636  31.032  1.00  0.00     0.146 A 
ATOM     11  O   UNL     1      14.661  46.228  32.037  1.00  0.00    -0.452 OA
ENDROOT
BRANCH   1  12
ATOM     12  C   UNL     1      13.290  46.469  34.005  1.00  0.00     0.021 A 
ATOM     13  C   UNL     1      13.859  45.610  34.964  1.00  0.00     0.016 A 
ATOM     14  C   UNL     1      13.066  45.051  35.970  1.00  0.00     0.047 A 
ATOM     15  C   UNL     1      11.697  45.329  36.025  1.00  0.00     0.115 A 
ATOM     16  C   UNL     1      11.909  46.727  34.054  1.00  0.00     0.016 A 
ATOM     17  C   UNL     1      11.120  46.166  35.062  1.00  0.00     0.047 A 
BRANCH  15  18
ATOM     18  O   UNL     1      10.921  44.765  37.035  1.00  0.00    -0.508 OA
ATOM     19  H   UNL     1      10.825  45.211  37.940  1.00  0.00     0.293 HD
ENDBRANCH  15  18
ENDBRANCH   1  12
BRANCH   2  20
ATOM     20  O   UNL     1      13.612  49.324  33.628  1.00  0.00    -0.502 OA
ATOM     21  H   UNL     1      12.781  49.062  34.145  1.00  0.00     0.293 HD
ENDBRANCH   2  20
BRANCH   6  22
ATOM     22  O   UNL     1      17.031  49.695  29.562  1.00  0.00    -0.507 OA
ATOM     23  H   UNL     1      17.967  50.022  29.752  1.00  0.00     0.293 HD
ENDBRANCH   6  22
BRANCH   8  24
ATOM     24  O   UNL     1      17.246  45.115  28.191  1.00  0.00    -0.508 OA
ATOM     25  H   UNL     1      16.869  44.176  28.151  1.00  0.00     0.293 HD
ENDBRANCH   8  24
TORSDOF 5
ENDMDL
MODEL 6
REMARK VINA RESULT:    -4.945      2.413      6.304
REMARK INTER + INTRA:          -6.102
REMARK INTER:                  -5.803
REMARK INTRA:                  -0.299
REMARK UNBOUND:                -0.289
REMARK SMILES O=c1c(O)c(-c2ccc(O)cc2)oc2cc(O)cc(O)c12
REMARK SMILES IDX 5 1 3 2 2 3 1 4 21 5 19 6 18 7 16 8 15 9 14 10 13 11 6 12
REMARK SMILES IDX 7 13 8 14 9 15 12 16 11 17 10 18 4 20 20 22 17 24
REMARK H PARENT 10 19 4 21 20 23 17 25
REMARK Flexibility Score: inf
ROOT
ATOM      1  C   UNL     1      15.303  55.810  33.627  1.00  0.00     0.180 A 
ATOM      2  C   UNL     1      14.938  54.858  34.595  1.00  0.00     0.208 A 
ATOM      3  C   UNL     1      14.551  53.575  34.177  1.00  0.00     0.238 A 
ATOM      4  O   UNL     1      14.279  52.711  35.051  1.00  0.00    -0.285 OA
ATOM      5  C   UNL     1      14.518  53.264  32.797  1.00  0.00     0.111 A 
ATOM      6  C   UNL     1      14.103  52.008  32.258  1.00  0.00     0.134 A 
ATOM      7  C   UNL     1      14.234  51.768  30.886  1.00  0.00     0.093 A 
ATOM      8  C   UNL     1      14.703  52.759  30.022  1.00  0.00     0.123 A 
ATOM      9  C   UNL     1      15.055  54.010  30.530  1.00  0.00     0.094 A 
ATOM     10  C   UNL     1      14.970  54.267  31.901  1.00  0.00     0.146 A 
ATOM     11  O   UNL     1      15.324  55.467  32.344  1.00  0.00    -0.452 OA
ENDROOT
BRANCH   1  12
ATOM     12  C   UNL     1      15.698  57.190  33.988  1.00  0.00     0.021 A 
ATOM     13  C   UNL     1      14.743  58.212  34.135  1.00  0.00     0.016 A 
ATOM     14  C   UNL     1      15.143  59.514  34.452  1.00  0.00     0.047 A 
ATOM     15  C   UNL     1      16.499  59.815  34.614  1.00  0.00     0.115 A 
ATOM     16  C   UNL     1      17.061  57.504  34.131  1.00  0.00     0.016 A 
ATOM     17  C   UNL     1      17.457  58.807  34.449  1.00  0.00     0.047 A 
BRANCH  15  18
ATOM     18  O   UNL     1      16.881  61.115  34.931  1.00  0.00    -0.508 OA
ATOM     19  H   UNL     1      16.469  61.612  35.713  1.00  0.00     0.293 HD
ENDBRANCH  15  18
ENDBRANCH   1  12
BRANCH   2  20
ATOM     20  O   UNL     1      15.000  55.179  35.954  1.00  0.00    -0.502 OA
ATOM     21  H   UNL     1      14.340  54.815  36.630  1.00  0.00     0.293 HD
ENDBRANCH   2  20
BRANCH   6  22
ATOM     22  O   UNL     1      13.534  50.983  33.020  1.00  0.00    -0.507 OA
ATOM     23  H   UNL     1      13.979  50.536  33.807  1.00  0.00     0.293 HD
ENDBRANCH   6  22
BRANCH   8  24
ATOM     24  O   UNL     1      14.806  52.490  28.659  1.00  0.00    -0.508 OA
ATOM     25  H   UNL     1      15.057  53.212  27.995  1.00  0.00     0.293 HD
ENDBRANCH   8  24
TORSDOF 5
ENDMDL
MODEL 7
REMARK VINA RESULT:    -4.881      1.802      3.656
REMARK INTER + INTRA:          -6.027
REMARK INTER:                  -5.789
REMARK INTRA:                  -0.238
REMARK UNBOUND:                -0.289
REMARK SMILES O=c1c(O)c(-c2ccc(O)cc2)oc2cc(O)cc(O)c12
REMARK SMILES IDX 5 1 3 2 2 3 1 4 21 5 19 6 18 7 16 8 15 9 14 10 13 11 6 12
REMARK SMILES IDX 7 13 8 14 9 15 12 16 11 17 10 18 4 20 20 22 17 24
REMARK H PARENT 10 19 4 21 20 23 17 25
REMARK Flexibility Score: inf
ROOT
ATOM      1  C   UNL     1      14.258  55.315  33.857  1.00  0.00     0.180 A 
ATOM      2  C   UNL     1      14.228  56.716  33.752  1.00  0.00     0.208 A 
ATOM      3  C   UNL     1      14.637  57.318  32.551  1.00  0.00     0.238 A 
ATOM      4  O   UNL     1      14.556  58.569  32.445  1.00  0.00    -0.285 OA
ATOM      5  C   UNL     1      15.084  56.513  31.477  1.00  0.00     0.111 A 
ATOM      6  C   UNL     1      15.559  57.018  30.228  1.00  0.00     0.134 A 
ATOM      7  C   UNL     1      15.853  56.127  29.190  1.00  0.00     0.093 A 
ATOM      8  C   UNL     1      15.752  54.748  29.373  1.00  0.00     0.123 A 
ATOM      9  C   UNL     1      15.346  54.241  30.609  1.00  0.00     0.094 A 
ATOM     10  C   UNL     1      15.011  55.107  31.652  1.00  0.00     0.146 A 
ATOM     11  O   UNL     1      14.619  54.585  32.809  1.00  0.00    -0.452 OA
ENDROOT
BRANCH   1  12
ATOM     12  C   UNL     1      13.866  54.609  35.099  1.00  0.00     0.021 A 
ATOM     13  C   UNL     1      14.828  54.048  35.958  1.00  0.00     0.016 A 
ATOM     14  C   UNL     1      14.433  53.365  37.112  1.00  0.00     0.047 A 
ATOM     15  C   UNL     1      13.076  53.221  37.416  1.00  0.00     0.115 A 
ATOM     16  C   UNL     1      12.503  54.442  35.399  1.00  0.00     0.016 A 
ATOM     17  C   UNL     1      12.111  53.759  36.554  1.00  0.00     0.047 A 
BRANCH  15  18
ATOM     18  O   UNL     1      12.698  52.539  38.569  1.00  0.00    -0.508 OA
ATOM     19  H   UNL     1      11.776  52.654  38.974  1.00  0.00     0.293 HD
ENDBRANCH  15  18
ENDBRANCH   1  12
BRANCH   2  20
ATOM     20  O   UNL     1      13.762  57.491  34.818  1.00  0.00    -0.502 OA
ATOM     21  H   UNL     1      14.136  58.408  35.029  1.00  0.00     0.293 HD
ENDBRANCH   2  20
BRANCH   6  22
ATOM     22  O   UNL     1      15.783  58.373  29.970  1.00  0.00    -0.507 OA
ATOM     23  H   UNL     1      15.810  59.096  30.673  1.00  0.00     0.293 HD
ENDBRANCH   6  22
BRANCH   8  24
ATOM     24  O   UNL     1      16.067  53.889  28.322  1.00  0.00    -0.508 OA
ATOM     25  H   UNL     1      16.746  54.145  27.615  1.00  0.00     0.293 HD
ENDBRANCH   8  24
TORSDOF 5
ENDMDL
MODEL 8
REMARK VINA RESULT:    -4.873      4.794      6.391
REMARK INTER + INTRA:          -6.016
REMARK INTER:                  -5.830
REMARK INTRA:                  -0.187
REMARK UNBOUND:                -0.289
REMARK SMILES O=c1c(O)c(-c2ccc(O)cc2)oc2cc(O)cc(O)c12
REMARK SMILES IDX 5 1 3 2 2 3 1 4 21 5 19 6 18 7 16 8 15 9 14 10 13 11 6 12
REMARK SMILES IDX 7 13 8 14 9 15 12 16 11 17 10 18 4 20 20 22 17 24
REMARK H PARENT 10 19 4 21 20 23 17 25
REMARK Flexibility Score: inf
ROOT
ATOM      1  C   UNL     1      14.508  50.577  33.150  1.00  0.00     0.180 A 
ATOM      2  C   UNL     1      14.271  51.507  32.122  1.00  0.00     0.208 A 
ATOM      3  C   UNL     1      14.161  52.869  32.448  1.00  0.00     0.238 A 
ATOM      4  O   UNL     1      14.003  53.702  31.518  1.00  0.00    -0.285 OA
ATOM      5  C   UNL     1      14.275  53.282  33.797  1.00  0.00     0.111 A 
ATOM      6  C   UNL     1      14.141  54.630  34.247  1.00  0.00     0.134 A 
ATOM      7  C   UNL     1      14.401  54.941  35.586  1.00  0.00     0.093 A 
ATOM      8  C   UNL     1      14.727  53.945  36.507  1.00  0.00     0.123 A 
ATOM      9  C   UNL     1      14.803  52.615  36.091  1.00  0.00     0.094 A 
ATOM     10  C   UNL     1      14.584  52.279  34.753  1.00  0.00     0.146 A 
ATOM     11  O   UNL     1      14.676  51.004  34.396  1.00  0.00    -0.452 OA
ENDROOT
BRANCH   1  12
ATOM     12  C   UNL     1      14.611  49.123  32.888  1.00  0.00     0.021 A 
ATOM     13  C   UNL     1      13.617  48.228  33.323  1.00  0.00     0.016 A 
ATOM     14  C   UNL     1      13.749  46.857  33.086  1.00  0.00     0.047 A 
ATOM     15  C   UNL     1      14.877  46.360  32.426  1.00  0.00     0.115 A 
ATOM     16  C   UNL     1      15.753  48.616  32.244  1.00  0.00     0.016 A 
ATOM     17  C   UNL     1      15.880  47.244  32.008  1.00  0.00     0.047 A 
BRANCH  15  18
ATOM     18  O   UNL     1      14.993  44.992  32.196  1.00  0.00    -0.508 OA
ATOM     19  H   UNL     1      14.178  44.413  32.031  1.00  0.00     0.293 HD
ENDBRANCH  15  18
ENDBRANCH   1  12
BRANCH   2  20
ATOM     20  O   UNL     1      14.185  51.081  30.795  1.00  0.00    -0.502 OA
ATOM     21  H   UNL     1      13.359  51.229  30.228  1.00  0.00     0.293 HD
ENDBRANCH   2  20
BRANCH   6  22
ATOM     22  O   UNL     1      13.730  55.687  33.429  1.00  0.00    -0.507 OA
ATOM     23  H   UNL     1      14.323  56.445  33.126  1.00  0.00     0.293 HD
ENDBRANCH   6  22
BRANCH   8  24
ATOM     24  O   UNL     1      14.966  54.289  37.836  1.00  0.00    -0.508 OA
ATOM     25  H   UNL     1      14.278  54.790  38.385  1.00  0.00     0.293 HD
ENDBRANCH   8  24
TORSDOF 5
ENDMDL
MODEL 9
REMARK VINA RESULT:    -4.743      6.533      9.925
REMARK INTER + INTRA:          -5.864
REMARK INTER:                  -5.572
REMARK INTRA:                  -0.292
REMARK UNBOUND:                -0.289
REMARK SMILES O=c1c(O)c(-c2ccc(O)cc2)oc2cc(O)cc(O)c12
REMARK SMILES IDX 5 1 3 2 2 3 1 4 21 5 19 6 18 7 16 8 15 9 14 10 13 11 6 12
REMARK SMILES IDX 7 13 8 14 9 15 12 16 11 17 10 18 4 20 20 22 17 24
REMARK H PARENT 10 19 4 21 20 23 17 25
REMARK Flexibility Score: inf
ROOT
ATOM      1  C   UNL     1      14.321  49.331  33.221  1.00  0.00     0.180 A 
ATOM      2  C   UNL     1      15.123  48.927  32.139  1.00  0.00     0.208 A 
ATOM      3  C   UNL     1      15.255  47.556  31.864  1.00  0.00     0.238 A 
ATOM      4  O   UNL     1      15.930  47.203  30.861  1.00  0.00    -0.285 OA
ATOM      5  C   UNL     1      14.597  46.607  32.682  1.00  0.00     0.111 A 
ATOM      6  C   UNL     1      14.694  45.191  32.520  1.00  0.00     0.134 A 
ATOM      7  C   UNL     1      13.897  44.351  33.306  1.00  0.00     0.093 A 
ATOM      8  C   UNL     1      13.057  44.868  34.292  1.00  0.00     0.123 A 
ATOM      9  C   UNL     1      13.000  46.247  34.499  1.00  0.00     0.094 A 
ATOM     10  C   UNL     1      13.756  47.114  33.706  1.00  0.00     0.146 A 
ATOM     11  O   UNL     1      13.665  48.419  33.928  1.00  0.00    -0.452 OA
ENDROOT
BRANCH   1  12
ATOM     12  C   UNL     1      14.154  50.756  33.588  1.00  0.00     0.021 A 
ATOM     13  C   UNL     1      14.984  51.369  34.542  1.00  0.00     0.016 A 
ATOM     14  C   UNL     1      14.791  52.709  34.891  1.00  0.00     0.047 A 
ATOM     15  C   UNL     1      13.760  53.449  34.303  1.00  0.00     0.115 A 
ATOM     16  C   UNL     1      13.106  51.498  33.016  1.00  0.00     0.016 A 
ATOM     17  C   UNL     1      12.916  52.838  33.367  1.00  0.00     0.047 A 
BRANCH  15  18
ATOM     18  O   UNL     1      13.580  54.782  34.659  1.00  0.00    -0.508 OA
ATOM     19  H   UNL     1      12.854  55.350  34.237  1.00  0.00     0.293 HD
ENDBRANCH  15  18
ENDBRANCH   1  12
BRANCH   2  20
ATOM     20  O   UNL     1      15.745  49.881  31.330  1.00  0.00    -0.502 OA
ATOM     21  H   UNL     1      16.086  49.668  30.400  1.00  0.00     0.293 HD
ENDBRANCH   2  20
BRANCH   6  22
ATOM     22  O   UNL     1      15.570  44.567  31.628  1.00  0.00    -0.507 OA
ATOM     23  H   UNL     1      15.894  44.970  30.762  1.00  0.00     0.293 HD
ENDBRANCH   6  22
BRANCH   8  24
ATOM     24  O   UNL     1      12.289  44.001  35.066  1.00  0.00    -0.508 OA
ATOM     25  H   UNL     1      12.216  43.016  34.842  1.00  0.00     0.293 HD
ENDBRANCH   8  24
TORSDOF 5
ENDMDL
