MODEL 1
REMARK VINA RESULT:    -6.142      0.000      0.000
REMARK INTER + INTRA:          -7.722
REMARK INTER:                  -7.398
REMARK INTRA:                  -0.324
REMARK UNBOUND:                -0.324
REMARK SMILES O=c1c(O)c(-c2ccc(O)c(O)c2)oc2cc(O)cc(O)c12
REMARK SMILES IDX 5 1 3 2 2 3 1 4 22 5 20 6 19 7 17 8 16 9 15 10 14 11 6 12
REMARK SMILES IDX 7 13 8 14 9 15 13 16 11 17 10 18 12 20 4 22 21 24 18 26
REMARK H PARENT 10 19 12 21 4 23 21 25 18 27
REMARK Flexibility Score: inf
ROOT
ATOM      1  C   UNL     1      24.557  -1.081  16.805  1.00  0.00     0.180 A 
ATOM      2  C   UNL     1      23.652  -2.140  16.996  1.00  0.00     0.208 A 
ATOM      3  C   UNL     1      23.091  -2.336  18.267  1.00  0.00     0.238 A 
ATOM      4  O   UNL     1      22.323  -3.317  18.445  1.00  0.00    -0.285 OA
ATOM      5  C   UNL     1      23.427  -1.460  19.329  1.00  0.00     0.111 A 
ATOM      6  C   UNL     1      22.887  -1.540  20.647  1.00  0.00     0.134 A 
ATOM      7  C   UNL     1      23.390  -0.704  21.651  1.00  0.00     0.093 A 
ATOM      8  C   UNL     1      24.365   0.252  21.371  1.00  0.00     0.123 A 
ATOM      9  C   UNL     1      24.857   0.380  20.072  1.00  0.00     0.094 A 
ATOM     10  C   UNL     1      24.402  -0.465  19.057  1.00  0.00     0.146 A 
ATOM     11  O   UNL     1      24.903  -0.318  17.836  1.00  0.00    -0.452 OA
ENDROOT
BRANCH   1  12
ATOM     12  C   UNL     1      25.171  -0.797  15.488  1.00  0.00     0.025 A 
ATOM     13  C   UNL     1      26.377  -1.425  15.139  1.00  0.00     0.016 A 
ATOM     14  C   UNL     1      26.985  -1.156  13.909  1.00  0.00     0.051 A 
ATOM     15  C   UNL     1      26.404  -0.242  13.020  1.00  0.00     0.157 A 
ATOM     16  C   UNL     1      24.603   0.134  14.601  1.00  0.00     0.062 A 
ATOM     17  C   UNL     1      25.214   0.407  13.369  1.00  0.00     0.158 A 
BRANCH  15  18
ATOM     18  O   UNL     1      27.006   0.028  11.792  1.00  0.00    -0.504 OA
ATOM     19  H   UNL     1      27.296   0.966  11.539  1.00  0.00     0.293 HD
ENDBRANCH  15  18
BRANCH  17  20
ATOM     20  O   UNL     1      24.645   1.325  12.487  1.00  0.00    -0.504 OA
ATOM     21  H   UNL     1      24.680   2.323  12.664  1.00  0.00     0.293 HD
ENDBRANCH  17  20
ENDBRANCH   1  12
BRANCH   2  22
ATOM     22  O   UNL     1      23.351  -3.005  15.941  1.00  0.00    -0.502 OA
ATOM     23  H   UNL     1      22.991  -3.940  16.089  1.00  0.00     0.293 HD
ENDBRANCH   2  22
BRANCH   6  24
ATOM     24  O   UNL     1      21.845  -2.398  21.014  1.00  0.00    -0.507 OA
ATOM     25  H   UNL     1      20.977  -2.497  20.508  1.00  0.00     0.293 HD
ENDBRANCH   6  24
BRANCH   8  26
ATOM     26  O   UNL     1      24.831   1.079  22.391  1.00  0.00    -0.508 OA
ATOM     27  H   UNL     1      24.236   1.357  23.162  1.00  0.00     0.293 HD
ENDBRANCH   8  26
TORSDOF 6
ENDMDL
MODEL 2
REMARK VINA RESULT:    -5.562      3.471      6.240
REMARK INTER + INTRA:          -7.023
REMARK INTER:                  -6.693
REMARK INTRA:                  -0.330
REMARK UNBOUND:                -0.324
REMARK SMILES O=c1c(O)c(-c2ccc(O)c(O)c2)oc2cc(O)cc(O)c12
REMARK SMILES IDX 5 1 3 2 2 3 1 4 22 5 20 6 19 7 17 8 16 9 15 10 14 11 6 12
REMARK SMILES IDX 7 13 8 14 9 15 13 16 11 17 10 18 12 20 4 22 21 24 18 26
REMARK H PARENT 10 19 12 21 4 23 21 25 18 27
REMARK Flexibility Score: inf
ROOT
ATOM      1  C   UNL     1      22.963  -3.077  17.066  1.00  0.00     0.180 A 
ATOM      2  C   UNL     1      21.727  -2.600  17.534  1.00  0.00     0.208 A 
ATOM      3  C   UNL     1      20.558  -3.311  17.220  1.00  0.00     0.238 A 
ATOM      4  O   UNL     1      19.450  -2.849  17.597  1.00  0.00    -0.285 OA
ATOM      5  C   UNL     1      20.641  -4.500  16.454  1.00  0.00     0.111 A 
ATOM      6  C   UNL     1      19.527  -5.322  16.111  1.00  0.00     0.134 A 
ATOM      7  C   UNL     1      19.708  -6.403  15.240  1.00  0.00     0.093 A 
ATOM      8  C   UNL     1      20.972  -6.731  14.753  1.00  0.00     0.123 A 
ATOM      9  C   UNL     1      22.079  -5.970  15.130  1.00  0.00     0.094 A 
ATOM     10  C   UNL     1      21.924  -4.863  15.968  1.00  0.00     0.146 A 
ATOM     11  O   UNL     1      23.001  -4.158  16.295  1.00  0.00    -0.452 OA
ENDROOT
BRANCH   1  12
ATOM     12  C   UNL     1      24.240  -2.396  17.377  1.00  0.00     0.025 A 
ATOM     13  C   UNL     1      24.795  -1.507  16.443  1.00  0.00     0.016 A 
ATOM     14  C   UNL     1      26.010  -0.868  16.708  1.00  0.00     0.051 A 
ATOM     15  C   UNL     1      26.696  -1.123  17.902  1.00  0.00     0.157 A 
ATOM     16  C   UNL     1      24.943  -2.664  18.566  1.00  0.00     0.062 A 
ATOM     17  C   UNL     1      26.163  -2.027  18.831  1.00  0.00     0.158 A 
BRANCH  15  18
ATOM     18  O   UNL     1      27.906  -0.488  18.170  1.00  0.00    -0.504 OA
ATOM     19  H   UNL     1      28.631  -0.937  18.718  1.00  0.00     0.293 HD
ENDBRANCH  15  18
BRANCH  17  20
ATOM     20  O   UNL     1      26.855  -2.288  20.013  1.00  0.00    -0.504 OA
ATOM     21  H   UNL     1      26.429  -2.806  20.773  1.00  0.00     0.293 HD
ENDBRANCH  17  20
ENDBRANCH   1  12
BRANCH   2  22
ATOM     22  O   UNL     1      21.666  -1.413  18.269  1.00  0.00    -0.502 OA
ATOM     23  H   UNL     1      20.919  -1.217  18.925  1.00  0.00     0.293 HD
ENDBRANCH   2  22
BRANCH   6  24
ATOM     24  O   UNL     1      18.235  -5.137  16.616  1.00  0.00    -0.507 OA
ATOM     25  H   UNL     1      17.771  -5.769  17.251  1.00  0.00     0.293 HD
ENDBRANCH   6  24
BRANCH   8  26
ATOM     26  O   UNL     1      21.119  -7.823  13.900  1.00  0.00    -0.508 OA
ATOM     27  H   UNL     1      20.728  -7.823  12.966  1.00  0.00     0.293 HD
ENDBRANCH   8  26
TORSDOF 6
ENDMDL
MODEL 3
REMARK VINA RESULT:    -5.443      3.578      5.465
REMARK INTER + INTRA:          -6.881
REMARK INTER:                  -6.756
REMARK INTRA:                  -0.124
REMARK UNBOUND:                -0.324
REMARK SMILES O=c1c(O)c(-c2ccc(O)c(O)c2)oc2cc(O)cc(O)c12
REMARK SMILES IDX 5 1 3 2 2 3 1 4 22 5 20 6 19 7 17 8 16 9 15 10 14 11 6 12
REMARK SMILES IDX 7 13 8 14 9 15 13 16 11 17 10 18 12 20 4 22 21 24 18 26
REMARK H PARENT 10 19 12 21 4 23 21 25 18 27
REMARK Flexibility Score: inf
ROOT
ATOM      1  C   UNL     1      22.683  -3.162  18.023  1.00  0.00     0.180 A 
ATOM      2  C   UNL     1      21.877  -2.178  18.621  1.00  0.00     0.208 A 
ATOM      3  C   UNL     1      22.484  -1.026  19.146  1.00  0.00     0.238 A 
ATOM      4  O   UNL     1      21.763  -0.175  19.729  1.00  0.00    -0.285 OA
ATOM      5  C   UNL     1      23.888  -0.865  19.052  1.00  0.00     0.111 A 
ATOM      6  C   UNL     1      24.604   0.280  19.513  1.00  0.00     0.134 A 
ATOM      7  C   UNL     1      26.005   0.274  19.487  1.00  0.00     0.093 A 
ATOM      8  C   UNL     1      26.711  -0.804  18.957  1.00  0.00     0.123 A 
ATOM      9  C   UNL     1      26.019  -1.903  18.448  1.00  0.00     0.094 A 
ATOM     10  C   UNL     1      24.623  -1.943  18.494  1.00  0.00     0.146 A 
ATOM     11  O   UNL     1      24.002  -3.012  18.009  1.00  0.00    -0.452 OA
ENDROOT
BRANCH   1  12
ATOM     12  C   UNL     1      22.113  -4.391  17.426  1.00  0.00     0.025 A 
ATOM     13  C   UNL     1      21.442  -5.311  18.247  1.00  0.00     0.016 A 
ATOM     14  C   UNL     1      20.913  -6.488  17.707  1.00  0.00     0.051 A 
ATOM     15  C   UNL     1      21.064  -6.768  16.343  1.00  0.00     0.157 A 
ATOM     16  C   UNL     1      22.279  -4.687  16.061  1.00  0.00     0.062 A 
ATOM     17  C   UNL     1      21.752  -5.868  15.520  1.00  0.00     0.158 A 
BRANCH  15  18
ATOM     18  O   UNL     1      20.538  -7.940  15.801  1.00  0.00    -0.504 OA
ATOM     19  H   UNL     1      19.878  -7.918  15.033  1.00  0.00     0.293 HD
ENDBRANCH  15  18
BRANCH  17  20
ATOM     20  O   UNL     1      21.911  -6.157  14.165  1.00  0.00    -0.504 OA
ATOM     21  H   UNL     1      22.577  -6.850  13.845  1.00  0.00     0.293 HD
ENDBRANCH  17  20
ENDBRANCH   1  12
BRANCH   2  22
ATOM     22  O   UNL     1      20.496  -2.368  18.724  1.00  0.00    -0.502 OA
ATOM     23  H   UNL     1      20.022  -3.155  18.299  1.00  0.00     0.293 HD
ENDBRANCH   2  22
BRANCH   6  24
ATOM     24  O   UNL     1      23.994   1.449  19.978  1.00  0.00    -0.507 OA
ATOM     25  H   UNL     1      24.205   1.897  20.857  1.00  0.00     0.293 HD
ENDBRANCH   6  24
BRANCH   8  26
ATOM     26  O   UNL     1      28.104  -0.769  18.932  1.00  0.00    -0.508 OA
ATOM     27  H   UNL     1      28.635  -1.281  18.238  1.00  0.00     0.293 HD
ENDBRANCH   8  26
TORSDOF 6
ENDMDL
MODEL 4
REMARK VINA RESULT:    -5.435      1.755      3.576
REMARK INTER + INTRA:          -6.870
REMARK INTER:                  -6.586
REMARK INTRA:                  -0.285
REMARK UNBOUND:                -0.324
REMARK SMILES O=c1c(O)c(-c2ccc(O)c(O)c2)oc2cc(O)cc(O)c12
REMARK SMILES IDX 5 1 3 2 2 3 1 4 22 5 20 6 19 7 17 8 16 9 15 10 14 11 6 12
REMARK SMILES IDX 7 13 8 14 9 15 13 16 11 17 10 18 12 20 4 22 21 24 18 26
REMARK H PARENT 10 19 12 21 4 23 21 25 18 27
REMARK Flexibility Score: inf
ROOT
ATOM      1  C   UNL     1      24.620  -1.248  15.992  1.00  0.00     0.180 A 
ATOM      2  C   UNL     1      24.510  -0.599  17.234  1.00  0.00     0.208 A 
ATOM      3  C   UNL     1      23.695  -1.162  18.228  1.00  0.00     0.238 A 
ATOM      4  O   UNL     1      23.558  -0.548  19.318  1.00  0.00    -0.285 OA
ATOM      5  C   UNL     1      23.012  -2.377  17.974  1.00  0.00     0.111 A 
ATOM      6  C   UNL     1      22.191  -3.058  18.921  1.00  0.00     0.134 A 
ATOM      7  C   UNL     1      21.459  -4.182  18.519  1.00  0.00     0.093 A 
ATOM      8  C   UNL     1      21.569  -4.687  17.225  1.00  0.00     0.123 A 
ATOM      9  C   UNL     1      22.415  -4.064  16.307  1.00  0.00     0.094 A 
ATOM     10  C   UNL     1      23.129  -2.919  16.667  1.00  0.00     0.146 A 
ATOM     11  O   UNL     1      23.916  -2.349  15.762  1.00  0.00    -0.452 OA
ENDROOT
BRANCH   1  12
ATOM     12  C   UNL     1      25.480  -0.728  14.905  1.00  0.00     0.025 A 
ATOM     13  C   UNL     1      26.757  -1.280  14.710  1.00  0.00     0.016 A 
ATOM     14  C   UNL     1      27.593  -0.792  13.702  1.00  0.00     0.051 A 
ATOM     15  C   UNL     1      27.172   0.267  12.887  1.00  0.00     0.157 A 
ATOM     16  C   UNL     1      25.070   0.348  14.097  1.00  0.00     0.062 A 
ATOM     17  C   UNL     1      25.910   0.840  13.088  1.00  0.00     0.158 A 
BRANCH  15  18
ATOM     18  O   UNL     1      28.002   0.756  11.880  1.00  0.00    -0.504 OA
ATOM     19  H   UNL     1      28.539   0.134  11.287  1.00  0.00     0.293 HD
ENDBRANCH  15  18
BRANCH  17  20
ATOM     20  O   UNL     1      25.499   1.902  12.283  1.00  0.00    -0.504 OA
ATOM     21  H   UNL     1      25.157   1.752  11.341  1.00  0.00     0.293 HD
ENDBRANCH  17  20
ENDBRANCH   1  12
BRANCH   2  22
ATOM     22  O   UNL     1      25.176   0.610  17.456  1.00  0.00    -0.502 OA
ATOM     23  H   UNL     1      26.029   0.859  16.971  1.00  0.00     0.293 HD
ENDBRANCH   2  22
BRANCH   6  24
ATOM     24  O   UNL     1      22.081  -2.691  20.266  1.00  0.00    -0.507 OA
ATOM     25  H   UNL     1      22.820  -2.777  20.948  1.00  0.00     0.293 HD
ENDBRANCH   6  24
BRANCH   8  26
ATOM     26  O   UNL     1      20.839  -5.817  16.863  1.00  0.00    -0.508 OA
ATOM     27  H   UNL     1      20.581  -5.997  15.900  1.00  0.00     0.293 HD
ENDBRANCH   8  26
TORSDOF 6
ENDMDL
MODEL 5
REMARK VINA RESULT:    -5.358      3.636      5.541
REMARK INTER + INTRA:          -6.778
REMARK INTER:                  -6.463
REMARK INTRA:                  -0.315
REMARK UNBOUND:                -0.324
REMARK SMILES O=c1c(O)c(-c2ccc(O)c(O)c2)oc2cc(O)cc(O)c12
REMARK SMILES IDX 5 1 3 2 2 3 1 4 22 5 20 6 19 7 17 8 16 9 15 10 14 11 6 12
REMARK SMILES IDX 7 13 8 14 9 15 13 16 11 17 10 18 12 20 4 22 21 24 18 26
REMARK H PARENT 10 19 12 21 4 23 21 25 18 27
REMARK Flexibility Score: inf
ROOT
ATOM      1  C   UNL     1      22.292  -4.536  17.151  1.00  0.00     0.180 A 
ATOM      2  C   UNL     1      21.242  -4.103  17.978  1.00  0.00     0.208 A 
ATOM      3  C   UNL     1      21.406  -2.929  18.729  1.00  0.00     0.238 A 
ATOM      4  O   UNL     1      20.483  -2.576  19.509  1.00  0.00    -0.285 OA
ATOM      5  C   UNL     1      22.612  -2.192  18.631  1.00  0.00     0.111 A 
ATOM      6  C   UNL     1      22.870  -0.967  19.315  1.00  0.00     0.134 A 
ATOM      7  C   UNL     1      24.146  -0.394  19.245  1.00  0.00     0.093 A 
ATOM      8  C   UNL     1      25.151  -0.965  18.466  1.00  0.00     0.123 A 
ATOM      9  C   UNL     1      24.891  -2.131  17.745  1.00  0.00     0.094 A 
ATOM     10  C   UNL     1      23.640  -2.746  17.824  1.00  0.00     0.146 A 
ATOM     11  O   UNL     1      23.435  -3.860  17.130  1.00  0.00    -0.452 OA
ENDROOT
BRANCH   1  12
ATOM     12  C   UNL     1      22.185  -5.751  16.311  1.00  0.00     0.025 A 
ATOM     13  C   UNL     1      22.507  -7.002  16.861  1.00  0.00     0.016 A 
ATOM     14  C   UNL     1      22.431  -8.159  16.080  1.00  0.00     0.051 A 
ATOM     15  C   UNL     1      22.050  -8.079  14.735  1.00  0.00     0.157 A 
ATOM     16  C   UNL     1      21.821  -5.674  14.954  1.00  0.00     0.062 A 
ATOM     17  C   UNL     1      21.749  -6.834  14.170  1.00  0.00     0.158 A 
BRANCH  15  18
ATOM     18  O   UNL     1      21.973  -9.231  13.953  1.00  0.00    -0.504 OA
ATOM     19  H   UNL     1      21.197  -9.391  13.320  1.00  0.00     0.293 HD
ENDBRANCH  15  18
BRANCH  17  20
ATOM     20  O   UNL     1      21.382  -6.756  12.827  1.00  0.00    -0.504 OA
ATOM     21  H   UNL     1      21.945  -7.179  12.098  1.00  0.00     0.293 HD
ENDBRANCH  17  20
ENDBRANCH   1  12
BRANCH   2  22
ATOM     22  O   UNL     1      20.070  -4.857  18.077  1.00  0.00    -0.502 OA
ATOM     23  H   UNL     1      20.046  -5.774  18.508  1.00  0.00     0.293 HD
ENDBRANCH   2  22
BRANCH   6  24
ATOM     24  O   UNL     1      21.909  -0.263  20.048  1.00  0.00    -0.507 OA
ATOM     25  H   UNL     1      21.206   0.337  19.645  1.00  0.00     0.293 HD
ENDBRANCH   6  24
BRANCH   8  26
ATOM     26  O   UNL     1      26.404  -0.359  18.408  1.00  0.00    -0.508 OA
ATOM     27  H   UNL     1      26.663   0.387  19.043  1.00  0.00     0.293 HD
ENDBRANCH   8  26
TORSDOF 6
ENDMDL
MODEL 6
REMARK VINA RESULT:    -5.320      4.346      6.226
REMARK INTER + INTRA:          -6.732
REMARK INTER:                  -6.479
REMARK INTRA:                  -0.253
REMARK UNBOUND:                -0.324
REMARK SMILES O=c1c(O)c(-c2ccc(O)c(O)c2)oc2cc(O)cc(O)c12
REMARK SMILES IDX 5 1 3 2 2 3 1 4 22 5 20 6 19 7 17 8 16 9 15 10 14 11 6 12
REMARK SMILES IDX 7 13 8 14 9 15 13 16 11 17 10 18 12 20 4 22 21 24 18 26
REMARK H PARENT 10 19 12 21 4 23 21 25 18 27
REMARK Flexibility Score: inf
ROOT
ATOM      1  C   UNL     1      21.609  -5.051  15.990  1.00  0.00     0.180 A 
ATOM      2  C   UNL     1      20.952  -5.105  17.231  1.00  0.00     0.208 A 
ATOM      3  C   UNL     1      21.381  -4.262  18.267  1.00  0.00     0.238 A 
ATOM      4  O   UNL     1      20.824  -4.354  19.392  1.00  0.00    -0.285 OA
ATOM      5  C   UNL     1      22.453  -3.362  18.045  1.00  0.00     0.111 A 
ATOM      6  C   UNL     1      22.944  -2.434  19.011  1.00  0.00     0.134 A 
ATOM      7  C   UNL     1      24.093  -1.685  18.726  1.00  0.00     0.093 A 
ATOM      8  C   UNL     1      24.727  -1.782  17.489  1.00  0.00     0.123 A 
ATOM      9  C   UNL     1      24.220  -2.642  16.515  1.00  0.00     0.094 A 
ATOM     10  C   UNL     1      23.098  -3.430  16.783  1.00  0.00     0.146 A 
ATOM     11  O   UNL     1      22.652  -4.244  15.833  1.00  0.00    -0.452 OA
ENDROOT
BRANCH   1  12
ATOM     12  C   UNL     1      21.196  -5.890  14.842  1.00  0.00     0.025 A 
ATOM     13  C   UNL     1      20.011  -5.586  14.154  1.00  0.00     0.016 A 
ATOM     14  C   UNL     1      19.592  -6.377  13.080  1.00  0.00     0.051 A 
ATOM     15  C   UNL     1      20.344  -7.493  12.691  1.00  0.00     0.157 A 
ATOM     16  C   UNL     1      21.937  -7.023  14.460  1.00  0.00     0.062 A 
ATOM     17  C   UNL     1      21.516  -7.819  13.385  1.00  0.00     0.158 A 
BRANCH  15  18
ATOM     18  O   UNL     1      19.930  -8.284  11.620  1.00  0.00    -0.504 OA
ATOM     19  H   UNL     1      20.063  -9.289  11.621  1.00  0.00     0.293 HD
ENDBRANCH  15  18
BRANCH  17  20
ATOM     20  O   UNL     1      22.255  -8.938  13.003  1.00  0.00    -0.504 OA
ATOM     21  H   UNL     1      22.593  -9.608  13.684  1.00  0.00     0.293 HD
ENDBRANCH  17  20
ENDBRANCH   1  12
BRANCH   2  22
ATOM     22  O   UNL     1      19.911  -6.016  17.435  1.00  0.00    -0.502 OA
ATOM     23  H   UNL     1      19.831  -6.878  16.909  1.00  0.00     0.293 HD
ENDBRANCH   2  22
BRANCH   6  24
ATOM     24  O   UNL     1      22.331  -2.192  20.245  1.00  0.00    -0.507 OA
ATOM     25  H   UNL     1      22.823  -1.961  21.095  1.00  0.00     0.293 HD
ENDBRANCH   6  24
BRANCH   8  26
ATOM     26  O   UNL     1      25.858  -1.009  17.234  1.00  0.00    -0.508 OA
ATOM     27  H   UNL     1      26.729  -1.428  16.929  1.00  0.00     0.293 HD
ENDBRANCH   8  26
TORSDOF 6
ENDMDL
MODEL 7
REMARK VINA RESULT:    -5.293      3.316      5.484
REMARK INTER + INTRA:          -6.700
REMARK INTER:                  -6.619
REMARK INTRA:                  -0.082
REMARK UNBOUND:                -0.324
REMARK SMILES O=c1c(O)c(-c2ccc(O)c(O)c2)oc2cc(O)cc(O)c12
REMARK SMILES IDX 5 1 3 2 2 3 1 4 22 5 20 6 19 7 17 8 16 9 15 10 14 11 6 12
REMARK SMILES IDX 7 13 8 14 9 15 13 16 11 17 10 18 12 20 4 22 21 24 18 26
REMARK H PARENT 10 19 12 21 4 23 21 25 18 27
REMARK Flexibility Score: inf
ROOT
ATOM      1  C   UNL     1      23.734  -2.280  18.522  1.00  0.00     0.180 A 
ATOM      2  C   UNL     1      23.760  -2.866  17.245  1.00  0.00     0.208 A 
ATOM      3  C   UNL     1      22.666  -3.640  16.828  1.00  0.00     0.238 A 
ATOM      4  O   UNL     1      22.719  -4.207  15.706  1.00  0.00    -0.285 OA
ATOM      5  C   UNL     1      21.552  -3.806  17.687  1.00  0.00     0.111 A 
ATOM      6  C   UNL     1      20.373  -4.535  17.353  1.00  0.00     0.134 A 
ATOM      7  C   UNL     1      19.389  -4.743  18.328  1.00  0.00     0.093 A 
ATOM      8  C   UNL     1      19.512  -4.194  19.603  1.00  0.00     0.123 A 
ATOM      9  C   UNL     1      20.634  -3.428  19.923  1.00  0.00     0.094 A 
ATOM     10  C   UNL     1      21.649  -3.234  18.983  1.00  0.00     0.146 A 
ATOM     11  O   UNL     1      22.705  -2.507  19.329  1.00  0.00    -0.452 OA
ENDROOT
BRANCH   1  12
ATOM     12  C   UNL     1      24.839  -1.430  19.022  1.00  0.00     0.025 A 
ATOM     13  C   UNL     1      24.582  -0.092  19.361  1.00  0.00     0.016 A 
ATOM     14  C   UNL     1      25.614   0.734  19.816  1.00  0.00     0.051 A 
ATOM     15  C   UNL     1      26.920   0.239  19.921  1.00  0.00     0.157 A 
ATOM     16  C   UNL     1      26.156  -1.916  19.109  1.00  0.00     0.062 A 
ATOM     17  C   UNL     1      27.192  -1.087  19.562  1.00  0.00     0.158 A 
BRANCH  15  18
ATOM     18  O   UNL     1      27.951   1.059  20.374  1.00  0.00    -0.504 OA
ATOM     19  H   UNL     1      28.924   0.786  20.286  1.00  0.00     0.293 HD
ENDBRANCH  15  18
BRANCH  17  20
ATOM     20  O   UNL     1      28.496  -1.573  19.655  1.00  0.00    -0.504 OA
ATOM     21  H   UNL     1      28.939  -1.732  20.552  1.00  0.00     0.293 HD
ENDBRANCH  17  20
ENDBRANCH   1  12
BRANCH   2  22
ATOM     22  O   UNL     1      24.879  -2.708  16.422  1.00  0.00    -0.502 OA
ATOM     23  H   UNL     1      25.826  -2.738  16.780  1.00  0.00     0.293 HD
ENDBRANCH   2  22
BRANCH   6  24
ATOM     24  O   UNL     1      20.107  -5.050  16.079  1.00  0.00    -0.507 OA
ATOM     25  H   UNL     1      19.898  -6.017  15.883  1.00  0.00     0.293 HD
ENDBRANCH   6  24
BRANCH   8  26
ATOM     26  O   UNL     1      18.507  -4.407  20.544  1.00  0.00    -0.508 OA
ATOM     27  H   UNL     1      18.721  -4.587  21.518  1.00  0.00     0.293 HD
ENDBRANCH   8  26
TORSDOF 6
ENDMDL
MODEL 8
REMARK VINA RESULT:    -5.141      3.046      5.052
REMARK INTER + INTRA:          -6.517
REMARK INTER:                  -6.654
REMARK INTRA:                   0.138
REMARK UNBOUND:                -0.324
REMARK SMILES O=c1c(O)c(-c2ccc(O)c(O)c2)oc2cc(O)cc(O)c12
REMARK SMILES IDX 5 1 3 2 2 3 1 4 22 5 20 6 19 7 17 8 16 9 15 10 14 11 6 12
REMARK SMILES IDX 7 13 8 14 9 15 13 16 11 17 10 18 12 20 4 22 21 24 18 26
REMARK H PARENT 10 19 12 21 4 23 21 25 18 27
REMARK Flexibility Score: inf
ROOT
ATOM      1  C   UNL     1      22.798  -2.635  18.106  1.00  0.00     0.180 A 
ATOM      2  C   UNL     1      24.035  -2.060  17.770  1.00  0.00     0.208 A 
ATOM      3  C   UNL     1      24.595  -1.098  18.625  1.00  0.00     0.238 A 
ATOM      4  O   UNL     1      25.676  -0.547  18.291  1.00  0.00    -0.285 OA
ATOM      5  C   UNL     1      23.919  -0.735  19.816  1.00  0.00     0.111 A 
ATOM      6  C   UNL     1      24.412   0.198  20.775  1.00  0.00     0.134 A 
ATOM      7  C   UNL     1      23.599   0.579  21.850  1.00  0.00     0.093 A 
ATOM      8  C   UNL     1      22.339   0.012  22.035  1.00  0.00     0.123 A 
ATOM      9  C   UNL     1      21.870  -0.946  21.136  1.00  0.00     0.094 A 
ATOM     10  C   UNL     1      22.643  -1.319  20.034  1.00  0.00     0.146 A 
ATOM     11  O   UNL     1      22.157  -2.226  19.195  1.00  0.00    -0.452 OA
ENDROOT
BRANCH   1  12
ATOM     12  C   UNL     1      22.157  -3.674  17.267  1.00  0.00     0.025 A 
ATOM     13  C   UNL     1      20.759  -3.696  17.145  1.00  0.00     0.016 A 
ATOM     14  C   UNL     1      20.132  -4.680  16.374  1.00  0.00     0.051 A 
ATOM     15  C   UNL     1      20.893  -5.664  15.730  1.00  0.00     0.157 A 
ATOM     16  C   UNL     1      22.916  -4.675  16.635  1.00  0.00     0.062 A 
ATOM     17  C   UNL     1      22.287  -5.664  15.865  1.00  0.00     0.158 A 
BRANCH  15  18
ATOM     18  O   UNL     1      20.271  -6.645  14.960  1.00  0.00    -0.504 OA
ATOM     19  H   UNL     1      20.553  -6.826  14.003  1.00  0.00     0.293 HD
ENDBRANCH  15  18
BRANCH  17  20
ATOM     20  O   UNL     1      23.040  -6.652  15.232  1.00  0.00    -0.504 OA
ATOM     21  H   UNL     1      23.172  -6.657  14.228  1.00  0.00     0.293 HD
ENDBRANCH  17  20
ENDBRANCH   1  12
BRANCH   2  22
ATOM     22  O   UNL     1      24.675  -2.416  16.579  1.00  0.00    -0.502 OA
ATOM     23  H   UNL     1      24.344  -3.168  15.987  1.00  0.00     0.293 HD
ENDBRANCH   2  22
BRANCH   6  24
ATOM     24  O   UNL     1      25.694   0.756  20.735  1.00  0.00    -0.507 OA
ATOM     25  H   UNL     1      26.145   1.215  21.512  1.00  0.00     0.293 HD
ENDBRANCH   6  24
BRANCH   8  26
ATOM     26  O   UNL     1      21.563   0.403  23.125  1.00  0.00    -0.508 OA
ATOM     27  H   UNL     1      21.355   1.377  23.306  1.00  0.00     0.293 HD
ENDBRANCH   8  26
TORSDOF 6
ENDMDL
MODEL 9
REMARK VINA RESULT:    -5.040      3.636      6.660
REMARK INTER + INTRA:          -6.395
REMARK INTER:                  -6.130
REMARK INTRA:                  -0.265
REMARK UNBOUND:                -0.324
REMARK SMILES O=c1c(O)c(-c2ccc(O)c(O)c2)oc2cc(O)cc(O)c12
REMARK SMILES IDX 5 1 3 2 2 3 1 4 22 5 20 6 19 7 17 8 16 9 15 10 14 11 6 12
REMARK SMILES IDX 7 13 8 14 9 15 13 16 11 17 10 18 12 20 4 22 21 24 18 26
REMARK H PARENT 10 19 12 21 4 23 21 25 18 27
REMARK Flexibility Score: inf
ROOT
ATOM      1  C   UNL     1      22.070  -2.537  18.210  1.00  0.00     0.180 A 
ATOM      2  C   UNL     1      20.759  -2.129  17.912  1.00  0.00     0.208 A 
ATOM      3  C   UNL     1      19.898  -3.025  17.258  1.00  0.00     0.238 A 
ATOM      4  O   UNL     1      18.743  -2.634  16.946  1.00  0.00    -0.285 OA
ATOM      5  C   UNL     1      20.354  -4.324  16.926  1.00  0.00     0.111 A 
ATOM      6  C   UNL     1      19.555  -5.327  16.300  1.00  0.00     0.134 A 
ATOM      7  C   UNL     1      20.148  -6.531  15.899  1.00  0.00     0.093 A 
ATOM      8  C   UNL     1      21.491  -6.794  16.160  1.00  0.00     0.123 A 
ATOM      9  C   UNL     1      22.267  -5.844  16.825  1.00  0.00     0.094 A 
ATOM     10  C   UNL     1      21.714  -4.619  17.204  1.00  0.00     0.146 A 
ATOM     11  O   UNL     1      22.489  -3.738  17.827  1.00  0.00    -0.452 OA
ENDROOT
BRANCH   1  12
ATOM     12  C   UNL     1      23.028  -1.658  18.919  1.00  0.00     0.025 A 
ATOM     13  C   UNL     1      24.127  -1.129  18.223  1.00  0.00     0.016 A 
ATOM     14  C   UNL     1      25.054  -0.313  18.877  1.00  0.00     0.051 A 
ATOM     15  C   UNL     1      24.905  -0.029  20.241  1.00  0.00     0.157 A 
ATOM     16  C   UNL     1      22.893  -1.385  20.292  1.00  0.00     0.062 A 
ATOM     17  C   UNL     1      23.825  -0.570  20.950  1.00  0.00     0.158 A 
BRANCH  15  18
ATOM     18  O   UNL     1      25.826   0.785  20.897  1.00  0.00    -0.504 OA
ATOM     19  H   UNL     1      25.700   1.789  20.955  1.00  0.00     0.293 HD
ENDBRANCH  15  18
BRANCH  17  20
ATOM     20  O   UNL     1      23.687  -0.295  22.310  1.00  0.00    -0.504 OA
ATOM     21  H   UNL     1      23.067   0.435  22.643  1.00  0.00     0.293 HD
ENDBRANCH  17  20
ENDBRANCH   1  12
BRANCH   2  22
ATOM     22  O   UNL     1      20.337  -0.835  18.229  1.00  0.00    -0.502 OA
ATOM     23  H   UNL     1      19.723  -0.300  17.628  1.00  0.00     0.293 HD
ENDBRANCH   2  22
BRANCH   6  24
ATOM     24  O   UNL     1      18.180  -5.203  16.074  1.00  0.00    -0.507 OA
ATOM     25  H   UNL     1      17.755  -4.497  15.492  1.00  0.00     0.293 HD
ENDBRANCH   6  24
BRANCH   8  26
ATOM     26  O   UNL     1      22.044  -8.009  15.761  1.00  0.00    -0.508 OA
ATOM     27  H   UNL     1      21.826  -8.874  16.241  1.00  0.00     0.293 HD
ENDBRANCH   8  26
TORSDOF 6
ENDMDL
