MODEL 1
REMARK VINA RESULT:    -6.156      0.000      0.000
REMARK INTER + INTRA:         -16.470
REMARK INTER:                 -13.354
REMARK INTRA:                  -3.115
REMARK UNBOUND:                -3.115
REMARK SMILES CCCCCCCCCCCCCCCCCCCCCC(=O)[O-]
REMARK SMILES IDX 12 1 11 2 10 3 9 4 8 5 7 6 6 7 5 8 4 9 3 10 2 11 1 12 13 13
REMARK SMILES IDX 14 14 15 15 16 16 17 17 18 18 19 19 20 20 21 21 22 22 23 23
REMARK SMILES IDX 24 24
REMARK H PARENT
REMARK Flexibility Score: inf
ROOT
ATOM      1  C   UNL     1      26.118  -4.275  21.704  1.00  0.00     0.000 C 
ENDROOT
BRANCH   1   2
ATOM      2  C   UNL     1      27.360  -4.392  20.804  1.00  0.00     0.000 C 
BRANCH   2   3
ATOM      3  C   UNL     1      27.021  -4.330  19.303  1.00  0.00     0.000 C 
BRANCH   3   4
ATOM      4  C   UNL     1      27.644  -5.448  18.440  1.00  0.00    -0.000 C 
BRANCH   4   5
ATOM      5  C   UNL     1      27.429  -6.879  18.964  1.00  0.00    -0.000 C 
BRANCH   5   6
ATOM      6  C   UNL     1      26.039  -7.440  18.615  1.00  0.00    -0.000 C 
BRANCH   6   7
ATOM      7  C   UNL     1      25.654  -8.652  19.481  1.00  0.00    -0.000 C 
BRANCH   7   8
ATOM      8  C   UNL     1      26.822  -9.308  20.244  1.00  0.00    -0.000 C 
BRANCH   8   9
ATOM      9  C   UNL     1      26.575 -10.788  20.608  1.00  0.00    -0.000 C 
BRANCH   9  10
ATOM     10  C   UNL     1      27.880 -11.603  20.650  1.00  0.00    -0.000 C 
BRANCH  10  11
ATOM     11  C   UNL     1      27.796 -12.897  19.823  1.00  0.00    -0.003 C 
ATOM     12  C   UNL     1      26.675 -12.861  18.784  1.00  0.00     0.004 C 
ENDBRANCH  10  11
ENDBRANCH   9  10
ENDBRANCH   8   9
ENDBRANCH   7   8
ENDBRANCH   6   7
ENDBRANCH   5   6
ENDBRANCH   4   5
ENDBRANCH   3   4
ENDBRANCH   2   3
ENDBRANCH   1   2
BRANCH   1  13
ATOM     13  C   UNL     1      25.433  -5.631  21.938  1.00  0.00     0.000 C 
BRANCH  13  14
ATOM     14  C   UNL     1      25.189  -5.925  23.428  1.00  0.00     0.000 C 
BRANCH  14  15
ATOM     15  C   UNL     1      26.253  -5.242  24.300  1.00  0.00     0.000 C 
BRANCH  15  16
ATOM     16  C   UNL     1      27.339  -6.218  24.788  1.00  0.00     0.000 C 
BRANCH  16  17
ATOM     17  C   UNL     1      28.601  -6.274  23.905  1.00  0.00     0.000 C 
BRANCH  17  18
ATOM     18  C   UNL     1      28.668  -7.482  22.950  1.00  0.00     0.000 C 
BRANCH  18  19
ATOM     19  C   UNL     1      29.700  -7.314  21.812  1.00  0.00     0.000 C 
BRANCH  19  20
ATOM     20  C   UNL     1      30.194  -8.651  21.234  1.00  0.00     0.006 C 
BRANCH  20  21
ATOM     21  C   UNL     1      31.579  -9.039  21.771  1.00  0.00     0.053 C 
BRANCH  21  22
ATOM     22  C   UNL     1      32.632  -8.759  20.747  1.00  0.00     0.041 C 
ATOM     23  O   UNL     1      32.730  -9.489  19.724  1.00  0.00    -0.550 OA
ATOM     24  O   UNL     1      33.540  -7.726  20.947  1.00  0.00    -0.550 OA
ENDBRANCH  21  22
ENDBRANCH  20  21
ENDBRANCH  19  20
ENDBRANCH  18  19
ENDBRANCH  17  18
ENDBRANCH  16  17
ENDBRANCH  15  16
ENDBRANCH  14  15
ENDBRANCH  13  14
ENDBRANCH   1  13
TORSDOF 20
ENDMDL
MODEL 2
REMARK VINA RESULT:    -6.049      3.855      7.506
REMARK INTER + INTRA:         -16.236
REMARK INTER:                 -14.389
REMARK INTRA:                  -1.848
REMARK UNBOUND:                -3.115
REMARK SMILES CCCCCCCCCCCCCCCCCCCCCC(=O)[O-]
REMARK SMILES IDX 12 1 11 2 10 3 9 4 8 5 7 6 6 7 5 8 4 9 3 10 2 11 1 12 13 13
REMARK SMILES IDX 14 14 15 15 16 16 17 17 18 18 19 19 20 20 21 21 22 22 23 23
REMARK SMILES IDX 24 24
REMARK H PARENT
REMARK Flexibility Score: inf
ROOT
ATOM      1  C   UNL     1      35.268  -9.474  21.116  1.00  0.00     0.000 C 
ENDROOT
BRANCH   1   2
ATOM      2  C   UNL     1      34.118  -9.647  20.110  1.00  0.00     0.000 C 
BRANCH   2   3
ATOM      3  C   UNL     1      32.957  -8.664  20.351  1.00  0.00     0.000 C 
BRANCH   3   4
ATOM      4  C   UNL     1      32.467  -8.570  21.811  1.00  0.00    -0.000 C 
BRANCH   4   5
ATOM      5  C   UNL     1      30.960  -8.810  22.016  1.00  0.00    -0.000 C 
BRANCH   5   6
ATOM      6  C   UNL     1      30.265  -9.351  20.755  1.00  0.00    -0.000 C 
BRANCH   6   7
ATOM      7  C   UNL     1      28.830  -8.820  20.593  1.00  0.00    -0.000 C 
BRANCH   7   8
ATOM      8  C   UNL     1      27.726  -9.895  20.649  1.00  0.00    -0.000 C 
BRANCH   8   9
ATOM      9  C   UNL     1      28.205 -11.253  21.205  1.00  0.00    -0.000 C 
BRANCH   9  10
ATOM     10  C   UNL     1      27.926 -12.412  20.231  1.00  0.00    -0.000 C 
BRANCH  10  11
ATOM     11  C   UNL     1      26.649 -12.193  19.403  1.00  0.00    -0.003 C 
ATOM     12  C   UNL     1      26.629 -13.023  18.119  1.00  0.00     0.004 C 
ENDBRANCH  10  11
ENDBRANCH   9  10
ENDBRANCH   8   9
ENDBRANCH   7   8
ENDBRANCH   6   7
ENDBRANCH   5   6
ENDBRANCH   4   5
ENDBRANCH   3   4
ENDBRANCH   2   3
ENDBRANCH   1   2
BRANCH   1  13
ATOM     13  C   UNL     1      36.212 -10.687  21.144  1.00  0.00     0.000 C 
BRANCH  13  14
ATOM     14  C   UNL     1      37.677 -10.296  21.396  1.00  0.00     0.000 C 
BRANCH  14  15
ATOM     15  C   UNL     1      38.081 -10.601  22.846  1.00  0.00     0.000 C 
BRANCH  15  16
ATOM     16  C   UNL     1      38.516  -9.343  23.620  1.00  0.00     0.000 C 
BRANCH  16  17
ATOM     17  C   UNL     1      37.587  -8.947  24.784  1.00  0.00     0.000 C 
BRANCH  17  18
ATOM     18  C   UNL     1      37.125  -7.477  24.771  1.00  0.00     0.000 C 
BRANCH  18  19
ATOM     19  C   UNL     1      36.806  -6.942  23.356  1.00  0.00     0.000 C 
BRANCH  19  20
ATOM     20  C   UNL     1      35.313  -6.636  23.143  1.00  0.00     0.006 C 
BRANCH  20  21
ATOM     21  C   UNL     1      34.899  -5.299  23.773  1.00  0.00     0.053 C 
BRANCH  21  22
ATOM     22  C   UNL     1      34.430  -4.348  22.719  1.00  0.00     0.041 C 
ATOM     23  O   UNL     1      34.359  -3.114  22.964  1.00  0.00    -0.550 OA
ATOM     24  O   UNL     1      34.020  -4.829  21.481  1.00  0.00    -0.550 OA
ENDBRANCH  21  22
ENDBRANCH  20  21
ENDBRANCH  19  20
ENDBRANCH  18  19
ENDBRANCH  17  18
ENDBRANCH  16  17
ENDBRANCH  15  16
ENDBRANCH  14  15
ENDBRANCH  13  14
ENDBRANCH   1  13
TORSDOF 20
ENDMDL
MODEL 3
REMARK VINA RESULT:    -6.048      2.032      3.595
REMARK INTER + INTRA:         -16.235
REMARK INTER:                 -13.673
REMARK INTRA:                  -2.562
REMARK UNBOUND:                -3.115
REMARK SMILES CCCCCCCCCCCCCCCCCCCCCC(=O)[O-]
REMARK SMILES IDX 12 1 11 2 10 3 9 4 8 5 7 6 6 7 5 8 4 9 3 10 2 11 1 12 13 13
REMARK SMILES IDX 14 14 15 15 16 16 17 17 18 18 19 19 20 20 21 21 22 22 23 23
REMARK SMILES IDX 24 24
REMARK H PARENT
REMARK Flexibility Score: inf
ROOT
ATOM      1  C   UNL     1      26.988  -6.275  22.462  1.00  0.00     0.000 C 
ENDROOT
BRANCH   1   2
ATOM      2  C   UNL     1      26.554  -5.347  21.314  1.00  0.00     0.000 C 
BRANCH   2   3
ATOM      3  C   UNL     1      27.596  -5.264  20.183  1.00  0.00     0.000 C 
BRANCH   3   4
ATOM      4  C   UNL     1      27.270  -6.095  18.925  1.00  0.00    -0.000 C 
BRANCH   4   5
ATOM      5  C   UNL     1      25.875  -6.746  18.910  1.00  0.00    -0.000 C 
BRANCH   5   6
ATOM      6  C   UNL     1      25.934  -8.280  18.813  1.00  0.00    -0.000 C 
BRANCH   6   7
ATOM      7  C   UNL     1      27.032  -8.890  19.701  1.00  0.00    -0.000 C 
BRANCH   7   8
ATOM      8  C   UNL     1      26.679 -10.248  20.339  1.00  0.00    -0.000 C 
BRANCH   8   9
ATOM      9  C   UNL     1      27.909 -11.061  20.797  1.00  0.00    -0.000 C 
BRANCH   9  10
ATOM     10  C   UNL     1      27.889 -12.502  20.256  1.00  0.00    -0.000 C 
BRANCH  10  11
ATOM     11  C   UNL     1      26.833 -12.706  19.158  1.00  0.00    -0.003 C 
ATOM     12  C   UNL     1      27.300 -13.661  18.059  1.00  0.00     0.004 C 
ENDBRANCH  10  11
ENDBRANCH   9  10
ENDBRANCH   8   9
ENDBRANCH   7   8
ENDBRANCH   6   7
ENDBRANCH   5   6
ENDBRANCH   4   5
ENDBRANCH   3   4
ENDBRANCH   2   3
ENDBRANCH   1   2
BRANCH   1  13
ATOM     13  C   UNL     1      28.513  -6.297  22.655  1.00  0.00     0.000 C 
BRANCH  13  14
ATOM     14  C   UNL     1      29.105  -7.712  22.556  1.00  0.00     0.000 C 
BRANCH  14  15
ATOM     15  C   UNL     1      30.452  -7.690  21.819  1.00  0.00     0.000 C 
BRANCH  15  16
ATOM     16  C   UNL     1      30.731  -8.992  21.047  1.00  0.00     0.000 C 
BRANCH  16  17
ATOM     17  C   UNL     1      32.203  -9.198  20.638  1.00  0.00     0.000 C 
BRANCH  17  18
ATOM     18  C   UNL     1      33.229  -8.895  21.747  1.00  0.00     0.000 C 
BRANCH  18  19
ATOM     19  C   UNL     1      34.383  -7.974  21.289  1.00  0.00     0.000 C 
BRANCH  19  20
ATOM     20  C   UNL     1      34.409  -6.620  22.018  1.00  0.00     0.006 C 
BRANCH  20  21
ATOM     21  C   UNL     1      33.635  -5.536  21.257  1.00  0.00     0.053 C 
BRANCH  21  22
ATOM     22  C   UNL     1      33.227  -4.438  22.185  1.00  0.00     0.041 C 
ATOM     23  O   UNL     1      32.026  -4.333  22.554  1.00  0.00    -0.550 OA
ATOM     24  O   UNL     1      34.161  -3.496  22.603  1.00  0.00    -0.550 OA
ENDBRANCH  21  22
ENDBRANCH  20  21
ENDBRANCH  19  20
ENDBRANCH  18  19
ENDBRANCH  17  18
ENDBRANCH  16  17
ENDBRANCH  15  16
ENDBRANCH  14  15
ENDBRANCH  13  14
ENDBRANCH   1  13
TORSDOF 20
ENDMDL
MODEL 4
REMARK VINA RESULT:    -5.993      3.575      7.519
REMARK INTER + INTRA:         -16.115
REMARK INTER:                 -14.184
REMARK INTRA:                  -1.932
REMARK UNBOUND:                -3.115
REMARK SMILES CCCCCCCCCCCCCCCCCCCCCC(=O)[O-]
REMARK SMILES IDX 12 1 11 2 10 3 9 4 8 5 7 6 6 7 5 8 4 9 3 10 2 11 1 12 13 13
REMARK SMILES IDX 14 14 15 15 16 16 17 17 18 18 19 19 20 20 21 21 22 22 23 23
REMARK SMILES IDX 24 24
REMARK H PARENT
REMARK Flexibility Score: inf
ROOT
ATOM      1  C   UNL     1      28.328 -10.212  22.117  1.00  0.00     0.000 C 
ENDROOT
BRANCH   1   2
ATOM      2  C   UNL     1      29.084  -8.885  21.942  1.00  0.00     0.000 C 
BRANCH   2   3
ATOM      3  C   UNL     1      30.024  -8.886  20.722  1.00  0.00     0.000 C 
BRANCH   3   4
ATOM      4  C   UNL     1      31.511  -9.151  21.036  1.00  0.00    -0.000 C 
BRANCH   4   5
ATOM      5  C   UNL     1      32.430  -9.279  19.807  1.00  0.00    -0.000 C 
BRANCH   5   6
ATOM      6  C   UNL     1      33.898  -9.537  20.184  1.00  0.00    -0.000 C 
BRANCH   6   7
ATOM      7  C   UNL     1      34.307  -8.836  21.492  1.00  0.00    -0.000 C 
BRANCH   7   8
ATOM      8  C   UNL     1      35.810  -8.905  21.828  1.00  0.00    -0.000 C 
BRANCH   8   9
ATOM      9  C   UNL     1      36.541 -10.100  21.177  1.00  0.00    -0.000 C 
BRANCH   9  10
ATOM     10  C   UNL     1      37.385 -10.890  22.193  1.00  0.00    -0.000 C 
BRANCH  10  11
ATOM     11  C   UNL     1      38.345 -11.883  21.519  1.00  0.00    -0.003 C 
ATOM     12  C   UNL     1      39.275 -11.211  20.508  1.00  0.00     0.004 C 
ENDBRANCH  10  11
ENDBRANCH   9  10
ENDBRANCH   8   9
ENDBRANCH   7   8
ENDBRANCH   6   7
ENDBRANCH   5   6
ENDBRANCH   4   5
ENDBRANCH   3   4
ENDBRANCH   2   3
ENDBRANCH   1   2
BRANCH   1  13
ATOM     13  C   UNL     1      28.401 -11.100  20.864  1.00  0.00     0.000 C 
BRANCH  13  14
ATOM     14  C   UNL     1      27.019 -11.376  20.249  1.00  0.00     0.000 C 
BRANCH  14  15
ATOM     15  C   UNL     1      26.157 -10.105  20.253  1.00  0.00     0.000 C 
BRANCH  15  16
ATOM     16  C   UNL     1      26.413  -9.207  19.029  1.00  0.00     0.000 C 
BRANCH  16  17
ATOM     17  C   UNL     1      25.862  -7.774  19.153  1.00  0.00     0.000 C 
BRANCH  17  18
ATOM     18  C   UNL     1      25.299  -7.417  20.542  1.00  0.00     0.000 C 
BRANCH  18  19
ATOM     19  C   UNL     1      26.163  -6.395  21.316  1.00  0.00     0.000 C 
BRANCH  19  20
ATOM     20  C   UNL     1      27.141  -5.619  20.419  1.00  0.00     0.006 C 
BRANCH  20  21
ATOM     21  C   UNL     1      26.665  -4.186  20.145  1.00  0.00     0.053 C 
BRANCH  21  22
ATOM     22  C   UNL     1      27.136  -3.728  18.802  1.00  0.00     0.041 C 
ATOM     23  O   UNL     1      27.912  -4.451  18.122  1.00  0.00    -0.550 OA
ATOM     24  O   UNL     1      26.759  -2.479  18.321  1.00  0.00    -0.550 OA
ENDBRANCH  21  22
ENDBRANCH  20  21
ENDBRANCH  19  20
ENDBRANCH  18  19
ENDBRANCH  17  18
ENDBRANCH  16  17
ENDBRANCH  15  16
ENDBRANCH  14  15
ENDBRANCH  13  14
ENDBRANCH   1  13
TORSDOF 20
ENDMDL
MODEL 5
REMARK VINA RESULT:    -5.983      2.889      4.961
REMARK INTER + INTRA:         -16.093
REMARK INTER:                 -13.578
REMARK INTRA:                  -2.515
REMARK UNBOUND:                -3.115
REMARK SMILES CCCCCCCCCCCCCCCCCCCCCC(=O)[O-]
REMARK SMILES IDX 12 1 11 2 10 3 9 4 8 5 7 6 6 7 5 8 4 9 3 10 2 11 1 12 13 13
REMARK SMILES IDX 14 14 15 15 16 16 17 17 18 18 19 19 20 20 21 21 22 22 23 23
REMARK SMILES IDX 24 24
REMARK H PARENT
REMARK Flexibility Score: inf
ROOT
ATOM      1  C   UNL     1      26.101  -5.328  22.648  1.00  0.00     0.000 C 
ENDROOT
BRANCH   1   2
ATOM      2  C   UNL     1      27.096  -5.218  23.815  1.00  0.00     0.000 C 
BRANCH   2   3
ATOM      3  C   UNL     1      27.811  -6.547  24.121  1.00  0.00     0.000 C 
BRANCH   3   4
ATOM      4  C   UNL     1      29.189  -6.724  23.449  1.00  0.00    -0.000 C 
BRANCH   4   5
ATOM      5  C   UNL     1      29.202  -7.631  22.205  1.00  0.00    -0.000 C 
BRANCH   5   6
ATOM      6  C   UNL     1      29.566  -9.089  22.534  1.00  0.00    -0.000 C 
BRANCH   6   7
ATOM      7  C   UNL     1      28.463 -10.082  22.129  1.00  0.00    -0.000 C 
BRANCH   7   8
ATOM      8  C   UNL     1      28.648 -10.736  20.746  1.00  0.00    -0.000 C 
BRANCH   8   9
ATOM      9  C   UNL     1      27.473 -11.645  20.324  1.00  0.00    -0.000 C 
BRANCH   9  10
ATOM     10  C   UNL     1      27.941 -13.061  19.942  1.00  0.00    -0.000 C 
BRANCH  10  11
ATOM     11  C   UNL     1      27.087 -13.685  18.827  1.00  0.00    -0.003 C 
ATOM     12  C   UNL     1      26.207 -12.658  18.113  1.00  0.00     0.004 C 
ENDBRANCH  10  11
ENDBRANCH   9  10
ENDBRANCH   8   9
ENDBRANCH   7   8
ENDBRANCH   6   7
ENDBRANCH   5   6
ENDBRANCH   4   5
ENDBRANCH   3   4
ENDBRANCH   2   3
ENDBRANCH   1   2
BRANCH   1  13
ATOM     13  C   UNL     1      25.696  -3.954  22.090  1.00  0.00     0.000 C 
BRANCH  13  14
ATOM     14  C   UNL     1      26.846  -3.249  21.351  1.00  0.00     0.000 C 
BRANCH  14  15
ATOM     15  C   UNL     1      26.308  -2.398  20.192  1.00  0.00     0.000 C 
BRANCH  15  16
ATOM     16  C   UNL     1      26.843  -2.852  18.821  1.00  0.00     0.000 C 
BRANCH  16  17
ATOM     17  C   UNL     1      28.023  -3.840  18.883  1.00  0.00     0.000 C 
BRANCH  17  18
ATOM     18  C   UNL     1      27.722  -5.242  18.319  1.00  0.00     0.000 C 
BRANCH  18  19
ATOM     19  C   UNL     1      27.758  -6.360  19.386  1.00  0.00     0.000 C 
BRANCH  19  20
ATOM     20  C   UNL     1      27.062  -7.656  18.937  1.00  0.00     0.006 C 
BRANCH  20  21
ATOM     21  C   UNL     1      26.072  -8.177  19.987  1.00  0.00     0.053 C 
BRANCH  21  22
ATOM     22  C   UNL     1      24.708  -7.614  19.742  1.00  0.00     0.041 C 
ATOM     23  O   UNL     1      24.483  -6.927  18.710  1.00  0.00    -0.550 OA
ATOM     24  O   UNL     1      23.699  -7.803  20.679  1.00  0.00    -0.550 OA
ENDBRANCH  21  22
ENDBRANCH  20  21
ENDBRANCH  19  20
ENDBRANCH  18  19
ENDBRANCH  17  18
ENDBRANCH  16  17
ENDBRANCH  15  16
ENDBRANCH  14  15
ENDBRANCH  13  14
ENDBRANCH   1  13
TORSDOF 20
ENDMDL
MODEL 6
REMARK VINA RESULT:    -5.955      3.266      6.329
REMARK INTER + INTRA:         -16.034
REMARK INTER:                 -14.051
REMARK INTRA:                  -1.983
REMARK UNBOUND:                -3.115
REMARK SMILES CCCCCCCCCCCCCCCCCCCCCC(=O)[O-]
REMARK SMILES IDX 12 1 11 2 10 3 9 4 8 5 7 6 6 7 5 8 4 9 3 10 2 11 1 12 13 13
REMARK SMILES IDX 14 14 15 15 16 16 17 17 18 18 19 19 20 20 21 21 22 22 23 23
REMARK SMILES IDX 24 24
REMARK H PARENT
REMARK Flexibility Score: inf
ROOT
ATOM      1  C   UNL     1      29.556  -9.587  22.162  1.00  0.00     0.000 C 
ENDROOT
BRANCH   1   2
ATOM      2  C   UNL     1      28.240 -10.381  22.096  1.00  0.00     0.000 C 
BRANCH   2   3
ATOM      3  C   UNL     1      28.240 -11.452  20.990  1.00  0.00     0.000 C 
BRANCH   3   4
ATOM      4  C   UNL     1      27.053 -11.384  20.007  1.00  0.00    -0.000 C 
BRANCH   4   5
ATOM      5  C   UNL     1      26.077 -10.215  20.235  1.00  0.00    -0.000 C 
BRANCH   5   6
ATOM      6  C   UNL     1      26.363  -9.012  19.319  1.00  0.00    -0.000 C 
BRANCH   6   7
ATOM      7  C   UNL     1      25.314  -7.895  19.461  1.00  0.00    -0.000 C 
BRANCH   7   8
ATOM      8  C   UNL     1      25.798  -6.635  20.206  1.00  0.00    -0.000 C 
BRANCH   8   9
ATOM      9  C   UNL     1      27.007  -6.885  21.133  1.00  0.00    -0.000 C 
BRANCH   9  10
ATOM     10  C   UNL     1      26.758  -6.374  22.564  1.00  0.00    -0.000 C 
BRANCH  10  11
ATOM     11  C   UNL     1      28.007  -6.479  23.454  1.00  0.00    -0.003 C 
ATOM     12  C   UNL     1      27.672  -6.468  24.946  1.00  0.00     0.004 C 
ENDBRANCH  10  11
ENDBRANCH   9  10
ENDBRANCH   8   9
ENDBRANCH   7   8
ENDBRANCH   6   7
ENDBRANCH   5   6
ENDBRANCH   4   5
ENDBRANCH   3   4
ENDBRANCH   2   3
ENDBRANCH   1   2
BRANCH   1  13
ATOM     13  C   UNL     1      30.030  -9.121  20.776  1.00  0.00     0.000 C 
BRANCH  13  14
ATOM     14  C   UNL     1      31.555  -9.224  20.604  1.00  0.00     0.000 C 
BRANCH  14  15
ATOM     15  C   UNL     1      32.274  -8.197  21.490  1.00  0.00     0.000 C 
BRANCH  15  16
ATOM     16  C   UNL     1      33.653  -7.793  20.936  1.00  0.00     0.000 C 
BRANCH  16  17
ATOM     17  C   UNL     1      34.781  -7.746  21.984  1.00  0.00     0.000 C 
BRANCH  17  18
ATOM     18  C   UNL     1      35.729  -8.962  21.967  1.00  0.00     0.000 C 
BRANCH  18  19
ATOM     19  C   UNL     1      35.561  -9.860  20.721  1.00  0.00     0.000 C 
BRANCH  19  20
ATOM     20  C   UNL     1      36.645 -10.945  20.600  1.00  0.00     0.006 C 
BRANCH  20  21
ATOM     21  C   UNL     1      37.547 -11.005  21.841  1.00  0.00     0.053 C 
BRANCH  21  22
ATOM     22  C   UNL     1      38.886 -11.565  21.484  1.00  0.00     0.041 C 
ATOM     23  O   UNL     1      38.978 -12.718  20.985  1.00  0.00    -0.550 OA
ATOM     24  O   UNL     1      40.039 -10.836  21.753  1.00  0.00    -0.550 OA
ENDBRANCH  21  22
ENDBRANCH  20  21
ENDBRANCH  19  20
ENDBRANCH  18  19
ENDBRANCH  17  18
ENDBRANCH  16  17
ENDBRANCH  15  16
ENDBRANCH  14  15
ENDBRANCH  13  14
ENDBRANCH   1  13
TORSDOF 20
ENDMDL
MODEL 7
REMARK VINA RESULT:    -5.935      3.144      6.596
REMARK INTER + INTRA:         -15.990
REMARK INTER:                 -13.078
REMARK INTRA:                  -2.912
REMARK UNBOUND:                -3.115
REMARK SMILES CCCCCCCCCCCCCCCCCCCCCC(=O)[O-]
REMARK SMILES IDX 12 1 11 2 10 3 9 4 8 5 7 6 6 7 5 8 4 9 3 10 2 11 1 12 13 13
REMARK SMILES IDX 14 14 15 15 16 16 17 17 18 18 19 19 20 20 21 21 22 22 23 23
REMARK SMILES IDX 24 24
REMARK H PARENT
REMARK Flexibility Score: inf
ROOT
ATOM      1  C   UNL     1      29.841  -9.551  21.547  1.00  0.00     0.000 C 
ENDROOT
BRANCH   1   2
ATOM      2  C   UNL     1      29.917  -8.015  21.529  1.00  0.00     0.000 C 
BRANCH   2   3
ATOM      3  C   UNL     1      29.233  -7.366  22.747  1.00  0.00     0.000 C 
BRANCH   3   4
ATOM      4  C   UNL     1      29.671  -5.919  23.054  1.00  0.00    -0.000 C 
BRANCH   4   5
ATOM      5  C   UNL     1      30.599  -5.276  22.006  1.00  0.00    -0.000 C 
BRANCH   5   6
ATOM      6  C   UNL     1      32.043  -5.114  22.508  1.00  0.00    -0.000 C 
BRANCH   6   7
ATOM      7  C   UNL     1      33.080  -5.200  21.374  1.00  0.00    -0.000 C 
BRANCH   7   8
ATOM      8  C   UNL     1      34.118  -6.329  21.522  1.00  0.00    -0.000 C 
BRANCH   8   9
ATOM      9  C   UNL     1      33.606  -7.547  22.321  1.00  0.00    -0.000 C 
BRANCH   9  10
ATOM     10  C   UNL     1      33.680  -8.851  21.505  1.00  0.00    -0.000 C 
BRANCH  10  11
ATOM     11  C   UNL     1      33.204  -8.669  20.055  1.00  0.00    -0.003 C 
ATOM     12  C   UNL     1      33.439  -9.911  19.196  1.00  0.00     0.004 C 
ENDBRANCH  10  11
ENDBRANCH   9  10
ENDBRANCH   8   9
ENDBRANCH   7   8
ENDBRANCH   6   7
ENDBRANCH   5   6
ENDBRANCH   4   5
ENDBRANCH   3   4
ENDBRANCH   2   3
ENDBRANCH   1   2
BRANCH   1  13
ATOM     13  C   UNL     1      28.443 -10.066  21.927  1.00  0.00     0.000 C 
BRANCH  13  14
ATOM     14  C   UNL     1      27.918 -11.133  20.952  1.00  0.00     0.000 C 
BRANCH  14  15
ATOM     15  C   UNL     1      26.694 -10.615  20.184  1.00  0.00     0.000 C 
BRANCH  15  16
ATOM     16  C   UNL     1      26.543  -9.085  20.264  1.00  0.00     0.000 C 
BRANCH  16  17
ATOM     17  C   UNL     1      25.606  -8.472  19.206  1.00  0.00     0.000 C 
BRANCH  17  18
ATOM     18  C   UNL     1      26.052  -7.099  18.667  1.00  0.00     0.000 C 
BRANCH  18  19
ATOM     19  C   UNL     1      27.577  -6.866  18.753  1.00  0.00     0.000 C 
BRANCH  19  20
ATOM     20  C   UNL     1      27.954  -5.542  19.439  1.00  0.00     0.006 C 
BRANCH  20  21
ATOM     21  C   UNL     1      27.888  -4.349  18.476  1.00  0.00     0.053 C 
BRANCH  21  22
ATOM     22  C   UNL     1      26.914  -3.330  18.974  1.00  0.00     0.041 C 
ATOM     23  O   UNL     1      26.708  -2.275  18.316  1.00  0.00    -0.550 OA
ATOM     24  O   UNL     1      26.271  -3.519  20.192  1.00  0.00    -0.550 OA
ENDBRANCH  21  22
ENDBRANCH  20  21
ENDBRANCH  19  20
ENDBRANCH  18  19
ENDBRANCH  17  18
ENDBRANCH  16  17
ENDBRANCH  15  16
ENDBRANCH  14  15
ENDBRANCH  13  14
ENDBRANCH   1  13
TORSDOF 20
ENDMDL
MODEL 8
REMARK VINA RESULT:    -5.885      5.702      9.074
REMARK INTER + INTRA:         -15.881
REMARK INTER:                 -14.567
REMARK INTRA:                  -1.314
REMARK UNBOUND:                -3.115
REMARK SMILES CCCCCCCCCCCCCCCCCCCCCC(=O)[O-]
REMARK SMILES IDX 12 1 11 2 10 3 9 4 8 5 7 6 6 7 5 8 4 9 3 10 2 11 1 12 13 13
REMARK SMILES IDX 14 14 15 15 16 16 17 17 18 18 19 19 20 20 21 21 22 22 23 23
REMARK SMILES IDX 24 24
REMARK H PARENT
REMARK Flexibility Score: inf
ROOT
ATOM      1  C   UNL     1      36.055  -8.054  22.853  1.00  0.00     0.000 C 
ENDROOT
BRANCH   1   2
ATOM      2  C   UNL     1      34.929  -7.903  21.817  1.00  0.00     0.000 C 
BRANCH   2   3
ATOM      3  C   UNL     1      33.672  -8.719  22.173  1.00  0.00     0.000 C 
BRANCH   3   4
ATOM      4  C   UNL     1      32.496  -8.583  21.184  1.00  0.00    -0.000 C 
BRANCH   4   5
ATOM      5  C   UNL     1      31.094  -8.728  21.805  1.00  0.00    -0.000 C 
BRANCH   5   6
ATOM      6  C   UNL     1      30.068  -9.326  20.828  1.00  0.00    -0.000 C 
BRANCH   6   7
ATOM      7  C   UNL     1      28.636  -9.313  21.390  1.00  0.00    -0.000 C 
BRANCH   7   8
ATOM      8  C   UNL     1      28.040 -10.703  21.693  1.00  0.00    -0.000 C 
BRANCH   8   9
ATOM      9  C   UNL     1      27.368 -11.372  20.475  1.00  0.00    -0.000 C 
BRANCH   9  10
ATOM     10  C   UNL     1      28.024 -12.717  20.114  1.00  0.00    -0.000 C 
BRANCH  10  11
ATOM     11  C   UNL     1      27.233 -13.494  19.049  1.00  0.00    -0.003 C 
ATOM     12  C   UNL     1      26.284 -12.600  18.251  1.00  0.00     0.004 C 
ENDBRANCH  10  11
ENDBRANCH   9  10
ENDBRANCH   8   9
ENDBRANCH   7   8
ENDBRANCH   6   7
ENDBRANCH   5   6
ENDBRANCH   4   5
ENDBRANCH   3   4
ENDBRANCH   2   3
ENDBRANCH   1   2
BRANCH   1  13
ATOM     13  C   UNL     1      37.217  -8.917  22.335  1.00  0.00     0.000 C 
BRANCH  13  14
ATOM     14  C   UNL     1      36.824 -10.391  22.144  1.00  0.00     0.000 C 
BRANCH  14  15
ATOM     15  C   UNL     1      37.164 -10.867  20.725  1.00  0.00     0.000 C 
BRANCH  15  16
ATOM     16  C   UNL     1      38.447 -11.716  20.671  1.00  0.00     0.000 C 
BRANCH  16  17
ATOM     17  C   UNL     1      38.785 -12.458  21.979  1.00  0.00     0.000 C 
BRANCH  17  18
ATOM     18  C   UNL     1      40.289 -12.690  22.219  1.00  0.00     0.000 C 
BRANCH  18  19
ATOM     19  C   UNL     1      41.175 -11.498  21.792  1.00  0.00     0.000 C 
BRANCH  19  20
ATOM     20  C   UNL     1      41.723 -10.689  22.980  1.00  0.00     0.006 C 
BRANCH  20  21
ATOM     21  C   UNL     1      40.673  -9.736  23.566  1.00  0.00     0.053 C 
BRANCH  21  22
ATOM     22  C   UNL     1      41.241  -8.983  24.726  1.00  0.00     0.041 C 
ATOM     23  O   UNL     1      42.451  -9.132  25.046  1.00  0.00    -0.550 OA
ATOM     24  O   UNL     1      40.424  -8.155  25.487  1.00  0.00    -0.550 OA
ENDBRANCH  21  22
ENDBRANCH  20  21
ENDBRANCH  19  20
ENDBRANCH  18  19
ENDBRANCH  17  18
ENDBRANCH  16  17
ENDBRANCH  15  16
ENDBRANCH  14  15
ENDBRANCH  13  14
ENDBRANCH   1  13
TORSDOF 20
ENDMDL
MODEL 9
REMARK VINA RESULT:    -5.838      4.584      7.462
REMARK INTER + INTRA:         -15.779
REMARK INTER:                 -14.300
REMARK INTRA:                  -1.479
REMARK UNBOUND:                -3.115
REMARK SMILES CCCCCCCCCCCCCCCCCCCCCC(=O)[O-]
REMARK SMILES IDX 12 1 11 2 10 3 9 4 8 5 7 6 6 7 5 8 4 9 3 10 2 11 1 12 13 13
REMARK SMILES IDX 14 14 15 15 16 16 17 17 18 18 19 19 20 20 21 21 22 22 23 23
REMARK SMILES IDX 24 24
REMARK H PARENT
REMARK Flexibility Score: inf
ROOT
ATOM      1  C   UNL     1      34.566  -8.479  22.465  1.00  0.00     0.000 C 
ENDROOT
BRANCH   1   2
ATOM      2  C   UNL     1      34.633  -8.957  21.005  1.00  0.00     0.000 C 
BRANCH   2   3
ATOM      3  C   UNL     1      33.255  -8.976  20.317  1.00  0.00     0.000 C 
BRANCH   3   4
ATOM      4  C   UNL     1      32.043  -8.869  21.265  1.00  0.00    -0.000 C 
BRANCH   4   5
ATOM      5  C   UNL     1      30.689  -9.263  20.649  1.00  0.00    -0.000 C 
BRANCH   5   6
ATOM      6  C   UNL     1      29.492  -8.831  21.513  1.00  0.00    -0.000 C 
BRANCH   6   7
ATOM      7  C   UNL     1      28.833 -10.012  22.247  1.00  0.00    -0.000 C 
BRANCH   7   8
ATOM      8  C   UNL     1      28.220 -11.091  21.333  1.00  0.00    -0.000 C 
BRANCH   8   9
ATOM      9  C   UNL     1      26.955 -10.624  20.579  1.00  0.00    -0.000 C 
BRANCH   9  10
ATOM     10  C   UNL     1      26.537 -11.612  19.475  1.00  0.00    -0.000 C 
BRANCH  10  11
ATOM     11  C   UNL     1      27.413 -12.875  19.450  1.00  0.00    -0.003 C 
ATOM     12  C   UNL     1      27.038 -13.831  18.318  1.00  0.00     0.004 C 
ENDBRANCH  10  11
ENDBRANCH   9  10
ENDBRANCH   8   9
ENDBRANCH   7   8
ENDBRANCH   6   7
ENDBRANCH   5   6
ENDBRANCH   4   5
ENDBRANCH   3   4
ENDBRANCH   2   3
ENDBRANCH   1   2
BRANCH   1  13
ATOM     13  C   UNL     1      35.203  -7.094  22.660  1.00  0.00     0.000 C 
BRANCH  13  14
ATOM     14  C   UNL     1      35.877  -6.936  24.033  1.00  0.00     0.000 C 
BRANCH  14  15
ATOM     15  C   UNL     1      37.272  -6.312  23.887  1.00  0.00     0.000 C 
BRANCH  15  16
ATOM     16  C   UNL     1      38.353  -7.077  24.674  1.00  0.00     0.000 C 
BRANCH  16  17
ATOM     17  C   UNL     1      37.831  -8.277  25.487  1.00  0.00     0.000 C 
BRANCH  17  18
ATOM     18  C   UNL     1      38.172  -9.657  24.892  1.00  0.00     0.000 C 
BRANCH  18  19
ATOM     19  C   UNL     1      39.430  -9.650  23.994  1.00  0.00     0.000 C 
BRANCH  19  20
ATOM     20  C   UNL     1      39.480 -10.826  23.004  1.00  0.00     0.006 C 
BRANCH  20  21
ATOM     21  C   UNL     1      38.099 -11.149  22.416  1.00  0.00     0.053 C 
BRANCH  21  22
ATOM     22  C   UNL     1      38.155 -11.144  20.922  1.00  0.00     0.041 C 
ATOM     23  O   UNL     1      37.090 -11.155  20.249  1.00  0.00    -0.550 OA
ATOM     24  O   UNL     1      39.382 -11.181  20.271  1.00  0.00    -0.550 OA
ENDBRANCH  21  22
ENDBRANCH  20  21
ENDBRANCH  19  20
ENDBRANCH  18  19
ENDBRANCH  17  18
ENDBRANCH  16  17
ENDBRANCH  15  16
ENDBRANCH  14  15
ENDBRANCH  13  14
ENDBRANCH   1  13
TORSDOF 20
ENDMDL
