MODEL 1
REMARK VINA RESULT:    -5.087      0.000      0.000
REMARK INTER + INTRA:          -5.235
REMARK INTER:                  -5.235
REMARK INTRA:                   0.000
REMARK UNBOUND:                 0.000
REMARK SMILES O=c1ccc2ccc(O)cc2o1
REMARK SMILES IDX 6 1 7 2 8 3 10 4 11 5 5 6 4 7 3 8 2 9 1 10 12 11 9 12
REMARK H PARENT 9 13
REMARK Flexibility Score: inf
ROOT
ATOM      1  C   UNL     1       8.222  -7.974  -6.801  1.00  0.00     0.016 A 
ATOM      2  C   UNL     1       7.619  -7.101  -5.890  1.00  0.00     0.047 A 
ATOM      3  C   UNL     1       8.073  -5.784  -5.764  1.00  0.00     0.119 A 
ATOM      4  C   UNL     1       9.140  -5.333  -6.555  1.00  0.00     0.094 A 
ATOM      5  C   UNL     1       9.751  -6.199  -7.469  1.00  0.00     0.142 A 
ATOM      6  C   UNL     1       9.290  -7.528  -7.593  1.00  0.00     0.018 A 
ATOM      7  C   UNL     1       9.919  -8.370  -8.515  1.00  0.00     0.019 A 
ATOM      8  C   UNL     1      10.977  -7.876  -9.278  1.00  0.00     0.094 A 
ATOM      9  C   UNL     1      11.380  -6.549  -9.102  1.00  0.00     0.336 A 
ATOM     10  O   UNL     1      12.333  -6.086  -9.783  1.00  0.00    -0.246 OA
ATOM     11  O   UNL     1      10.763  -5.769  -8.218  1.00  0.00    -0.423 OA
ENDROOT
BRANCH   3  12
ATOM     12  O   UNL     1       7.458  -4.930  -4.851  1.00  0.00    -0.508 OA
ATOM     13  H   UNL     1       7.793  -4.842  -3.899  1.00  0.00     0.293 HD
ENDBRANCH   3  12
TORSDOF 1
ENDMDL
MODEL 2
REMARK VINA RESULT:    -5.037     21.810     22.613
REMARK INTER + INTRA:          -5.185
REMARK INTER:                  -5.185
REMARK INTRA:                   0.000
REMARK UNBOUND:                 0.000
REMARK SMILES O=c1ccc2ccc(O)cc2o1
REMARK SMILES IDX 6 1 7 2 8 3 10 4 11 5 5 6 4 7 3 8 2 9 1 10 12 11 9 12
REMARK H PARENT 9 13
REMARK Flexibility Score: inf
ROOT
ATOM      1  C   UNL     1      19.194   7.782 -20.647  1.00  0.00     0.016 A 
ATOM      2  C   UNL     1      17.948   7.717 -21.279  1.00  0.00     0.047 A 
ATOM      3  C   UNL     1      17.812   7.069 -22.511  1.00  0.00     0.119 A 
ATOM      4  C   UNL     1      18.931   6.479 -23.119  1.00  0.00     0.094 A 
ATOM      5  C   UNL     1      20.181   6.539 -22.495  1.00  0.00     0.142 A 
ATOM      6  C   UNL     1      20.315   7.195 -21.251  1.00  0.00     0.018 A 
ATOM      7  C   UNL     1      21.577   7.238 -20.652  1.00  0.00     0.019 A 
ATOM      8  C   UNL     1      22.660   6.638 -21.295  1.00  0.00     0.094 A 
ATOM      9  C   UNL     1      22.453   6.006 -22.526  1.00  0.00     0.336 A 
ATOM     10  O   UNL     1      23.418   5.459 -23.121  1.00  0.00    -0.246 OA
ATOM     11  O   UNL     1      21.241   5.979 -23.074  1.00  0.00    -0.423 OA
ENDROOT
BRANCH   3  12
ATOM     12  O   UNL     1      16.562   7.014 -23.124  1.00  0.00    -0.508 OA
ATOM     13  H   UNL     1      16.407   7.401 -24.048  1.00  0.00     0.293 HD
ENDBRANCH   3  12
TORSDOF 1
ENDMDL
MODEL 3
REMARK VINA RESULT:    -4.948     21.635     22.416
REMARK INTER + INTRA:          -5.093
REMARK INTER:                  -5.093
REMARK INTRA:                   0.000
REMARK UNBOUND:                 0.000
REMARK SMILES O=c1ccc2ccc(O)cc2o1
REMARK SMILES IDX 6 1 7 2 8 3 10 4 11 5 5 6 4 7 3 8 2 9 1 10 12 11 9 12
REMARK H PARENT 9 13
REMARK Flexibility Score: inf
ROOT
ATOM      1  C   UNL     1      20.126   6.256 -23.125  1.00  0.00     0.016 A 
ATOM      2  C   UNL     1      21.367   5.876 -22.605  1.00  0.00     0.047 A 
ATOM      3  C   UNL     1      21.726   6.228 -21.299  1.00  0.00     0.119 A 
ATOM      4  C   UNL     1      20.836   6.968 -20.505  1.00  0.00     0.094 A 
ATOM      5  C   UNL     1      19.593   7.354 -21.016  1.00  0.00     0.142 A 
ATOM      6  C   UNL     1      19.235   6.996 -22.335  1.00  0.00     0.018 A 
ATOM      7  C   UNL     1      17.985   7.396 -22.818  1.00  0.00     0.019 A 
ATOM      8  C   UNL     1      17.136   8.131 -21.991  1.00  0.00     0.094 A 
ATOM      9  C   UNL     1      17.557   8.449 -20.696  1.00  0.00     0.336 A 
ATOM     10  O   UNL     1      16.804   9.111 -19.935  1.00  0.00    -0.246 OA
ATOM     11  O   UNL     1      18.751   8.056 -20.261  1.00  0.00    -0.423 OA
ENDROOT
BRANCH   3  12
ATOM     12  O   UNL     1      22.966   5.839 -20.799  1.00  0.00    -0.508 OA
ATOM     13  H   UNL     1      23.815   6.336 -21.042  1.00  0.00     0.293 HD
ENDBRANCH   3  12
TORSDOF 1
ENDMDL
MODEL 4
REMARK VINA RESULT:    -4.783      9.757     10.895
REMARK INTER + INTRA:          -4.923
REMARK INTER:                  -4.923
REMARK INTRA:                   0.000
REMARK UNBOUND:                 0.000
REMARK SMILES O=c1ccc2ccc(O)cc2o1
REMARK SMILES IDX 6 1 7 2 8 3 10 4 11 5 5 6 4 7 3 8 2 9 1 10 12 11 9 12
REMARK H PARENT 9 13
REMARK Flexibility Score: inf
ROOT
ATOM      1  C   UNL     1      12.775   4.102  -3.289  1.00  0.00     0.016 A 
ATOM      2  C   UNL     1      11.591   3.485  -2.875  1.00  0.00     0.047 A 
ATOM      3  C   UNL     1      10.889   2.644  -3.745  1.00  0.00     0.119 A 
ATOM      4  C   UNL     1      11.374   2.415  -5.041  1.00  0.00     0.094 A 
ATOM      5  C   UNL     1      12.558   3.028  -5.465  1.00  0.00     0.142 A 
ATOM      6  C   UNL     1      13.264   3.877  -4.584  1.00  0.00     0.018 A 
ATOM      7  C   UNL     1      14.444   4.475  -5.037  1.00  0.00     0.019 A 
ATOM      8  C   UNL     1      14.886   4.218  -6.334  1.00  0.00     0.094 A 
ATOM      9  C   UNL     1      14.136   3.366  -7.151  1.00  0.00     0.336 A 
ATOM     10  O   UNL     1      14.520   3.122  -8.325  1.00  0.00    -0.246 OA
ATOM     11  O   UNL     1      13.017   2.810  -6.695  1.00  0.00    -0.423 OA
ENDROOT
BRANCH   3  12
ATOM     12  O   UNL     1       9.711   2.038  -3.313  1.00  0.00    -0.508 OA
ATOM     13  H   UNL     1       8.802   2.370  -3.615  1.00  0.00     0.293 HD
ENDBRANCH   3  12
TORSDOF 1
ENDMDL
MODEL 5
REMARK VINA RESULT:    -4.762     13.134     15.058
REMARK INTER + INTRA:          -4.901
REMARK INTER:                  -4.901
REMARK INTRA:                   0.000
REMARK UNBOUND:                 0.000
REMARK SMILES O=c1ccc2ccc(O)cc2o1
REMARK SMILES IDX 6 1 7 2 8 3 10 4 11 5 5 6 4 7 3 8 2 9 1 10 12 11 9 12
REMARK H PARENT 9 13
REMARK Flexibility Score: inf
ROOT
ATOM      1  C   UNL     1      18.133  -2.492 -16.403  1.00  0.00     0.016 A 
ATOM      2  C   UNL     1      18.132  -1.529 -15.389  1.00  0.00     0.047 A 
ATOM      3  C   UNL     1      18.879  -0.354 -15.527  1.00  0.00     0.119 A 
ATOM      4  C   UNL     1      19.636  -0.139 -16.689  1.00  0.00     0.094 A 
ATOM      5  C   UNL     1      19.645  -1.097 -17.708  1.00  0.00     0.142 A 
ATOM      6  C   UNL     1      18.889  -2.282 -17.565  1.00  0.00     0.018 A 
ATOM      7  C   UNL     1      18.918  -3.220 -18.601  1.00  0.00     0.019 A 
ATOM      8  C   UNL     1      19.686  -2.962 -19.736  1.00  0.00     0.094 A 
ATOM      9  C   UNL     1      20.408  -1.767 -19.809  1.00  0.00     0.336 A 
ATOM     10  O   UNL     1      21.107  -1.517 -20.826  1.00  0.00    -0.246 OA
ATOM     11  O   UNL     1      20.364  -0.891 -18.809  1.00  0.00    -0.423 OA
ENDROOT
BRANCH   3  12
ATOM     12  O   UNL     1      18.863   0.594 -14.507  1.00  0.00    -0.508 OA
ATOM     13  H   UNL     1      18.647   0.339 -13.550  1.00  0.00     0.293 HD
ENDBRANCH   3  12
TORSDOF 1
ENDMDL
MODEL 6
REMARK VINA RESULT:    -4.743     21.558     22.078
REMARK INTER + INTRA:          -4.881
REMARK INTER:                  -4.881
REMARK INTRA:                   0.000
REMARK UNBOUND:                 0.000
REMARK SMILES O=c1ccc2ccc(O)cc2o1
REMARK SMILES IDX 6 1 7 2 8 3 10 4 11 5 5 6 4 7 3 8 2 9 1 10 12 11 9 12
REMARK H PARENT 9 13
REMARK Flexibility Score: inf
ROOT
ATOM      1  C   UNL     1      17.768   7.336 -22.583  1.00  0.00     0.016 A 
ATOM      2  C   UNL     1      17.011   8.101 -21.691  1.00  0.00     0.047 A 
ATOM      3  C   UNL     1      17.559   8.519 -20.473  1.00  0.00     0.119 A 
ATOM      4  C   UNL     1      18.878   8.169 -20.143  1.00  0.00     0.094 A 
ATOM      5  C   UNL     1      19.643   7.404 -21.029  1.00  0.00     0.142 A 
ATOM      6  C   UNL     1      19.085   6.984 -22.257  1.00  0.00     0.018 A 
ATOM      7  C   UNL     1      19.875   6.220 -23.122  1.00  0.00     0.019 A 
ATOM      8  C   UNL     1      21.180   5.897 -22.750  1.00  0.00     0.094 A 
ATOM      9  C   UNL     1      21.666   6.348 -21.519  1.00  0.00     0.336 A 
ATOM     10  O   UNL     1      22.841   6.066 -21.166  1.00  0.00    -0.246 OA
ATOM     11  O   UNL     1      20.893   7.073 -20.714  1.00  0.00    -0.423 OA
ENDROOT
BRANCH   3  12
ATOM     12  O   UNL     1      16.788   9.280 -19.598  1.00  0.00    -0.508 OA
ATOM     13  H   UNL     1      15.807   9.461 -19.776  1.00  0.00     0.293 HD
ENDBRANCH   3  12
TORSDOF 1
ENDMDL
MODEL 7
REMARK VINA RESULT:    -4.737      2.223      2.259
REMARK INTER + INTRA:          -4.876
REMARK INTER:                  -4.876
REMARK INTRA:                   0.000
REMARK UNBOUND:                 0.000
REMARK SMILES O=c1ccc2ccc(O)cc2o1
REMARK SMILES IDX 6 1 7 2 8 3 10 4 11 5 5 6 4 7 3 8 2 9 1 10 12 11 9 12
REMARK H PARENT 9 13
REMARK Flexibility Score: inf
ROOT
ATOM      1  C   UNL     1       7.833  -8.106  -6.663  1.00  0.00     0.016 A 
ATOM      2  C   UNL     1       7.713  -7.147  -5.652  1.00  0.00     0.047 A 
ATOM      3  C   UNL     1       7.733  -5.783  -5.964  1.00  0.00     0.119 A 
ATOM      4  C   UNL     1       7.875  -5.373  -7.298  1.00  0.00     0.094 A 
ATOM      5  C   UNL     1       7.996  -6.324  -8.316  1.00  0.00     0.142 A 
ATOM      6  C   UNL     1       7.976  -7.700  -7.997  1.00  0.00     0.018 A 
ATOM      7  C   UNL     1       8.099  -8.628  -9.036  1.00  0.00     0.019 A 
ATOM      8  C   UNL     1       8.239  -8.172 -10.347  1.00  0.00     0.094 A 
ATOM      9  C   UNL     1       8.251  -6.794 -10.588  1.00  0.00     0.336 A 
ATOM     10  O   UNL     1       8.376  -6.363 -11.765  1.00  0.00    -0.246 OA
ATOM     11  O   UNL     1       8.131  -5.933  -9.581  1.00  0.00    -0.423 OA
ENDROOT
BRANCH   3  12
ATOM     12  O   UNL     1       7.611  -4.843  -4.943  1.00  0.00    -0.508 OA
ATOM     13  H   UNL     1       8.421  -4.372  -4.557  1.00  0.00     0.293 HD
ENDBRANCH   3  12
TORSDOF 1
ENDMDL
MODEL 8
REMARK VINA RESULT:    -4.732     12.034     13.373
REMARK INTER + INTRA:          -4.870
REMARK INTER:                  -4.870
REMARK INTRA:                   0.000
REMARK UNBOUND:                 0.000
REMARK SMILES O=c1ccc2ccc(O)cc2o1
REMARK SMILES IDX 6 1 7 2 8 3 10 4 11 5 5 6 4 7 3 8 2 9 1 10 12 11 9 12
REMARK H PARENT 9 13
REMARK Flexibility Score: inf
ROOT
ATOM      1  C   UNL     1       4.227   4.717  -7.756  1.00  0.00     0.016 A 
ATOM      2  C   UNL     1       4.793   3.439  -7.788  1.00  0.00     0.047 A 
ATOM      3  C   UNL     1       5.561   3.031  -8.884  1.00  0.00     0.119 A 
ATOM      4  C   UNL     1       5.764   3.908  -9.960  1.00  0.00     0.094 A 
ATOM      5  C   UNL     1       5.202   5.189  -9.938  1.00  0.00     0.142 A 
ATOM      6  C   UNL     1       4.427   5.596  -8.830  1.00  0.00     0.018 A 
ATOM      7  C   UNL     1       3.878   6.882  -8.836  1.00  0.00     0.019 A 
ATOM      8  C   UNL     1       4.108   7.718  -9.929  1.00  0.00     0.094 A 
ATOM      9  C   UNL     1       4.885   7.247 -10.992  1.00  0.00     0.336 A 
ATOM     10  O   UNL     1       5.104   7.987 -11.987  1.00  0.00    -0.246 OA
ATOM     11  O   UNL     1       5.396   6.019 -10.960  1.00  0.00    -0.423 OA
ENDROOT
BRANCH   3  12
ATOM     12  O   UNL     1       6.117   1.754  -8.896  1.00  0.00    -0.508 OA
ATOM     13  H   UNL     1       5.717   0.996  -8.355  1.00  0.00     0.293 HD
ENDBRANCH   3  12
TORSDOF 1
ENDMDL
