MODEL 1
REMARK VINA RESULT:    -9.028      0.000      0.000
REMARK INTER + INTRA:         -13.084
REMARK INTER:                 -11.931
REMARK INTRA:                  -1.153
REMARK UNBOUND:                -1.153
REMARK SMILES CC[C@H](C=C[C@H](C)[C@H]1CC[C@@H]2C3=CC[C@H]4C[C@H](O)CC[C@]4(C)[C@@H]3CC[C@@]21C)C(C)C
REMARK SMILES IDX 6 1 7 2 5 3 4 4 3 5 2 6 1 7 28 8 29 9 30 10 8 11 9 12 26 13
REMARK SMILES IDX 10 14 11 15 25 16 27 17 12 18 24 19 23 20 13 21 21 22 14 23
REMARK SMILES IDX 15 24 20 25 22 26 16 27 19 28 17 29 18 30
REMARK H PARENT 18 31
REMARK Flexibility Score: inf
ROOT
ATOM      1  C   UNL     1     -34.054  40.808  40.355  1.00  0.00     0.012 C 
ATOM      2  C   UNL     1     -33.586  39.616  39.493  1.00  0.00     0.012 C 
ENDROOT
BRANCH   1   3
ATOM      3  C   UNL     1     -34.039  42.114  39.576  1.00  0.00    -0.028 C 
ATOM      4  C   UNL     1     -34.840  43.163  39.844  1.00  0.00    -0.027 C 
BRANCH   4   5
ATOM      5  C   UNL     1     -34.787  44.493  39.113  1.00  0.00     0.014 C 
BRANCH   5   6
ATOM      6  C   UNL     1     -35.178  45.708  40.005  1.00  0.00     0.004 C 
ATOM      7  C   UNL     1     -35.191  45.497  41.520  1.00  0.00     0.004 C 
ENDBRANCH   5   6
BRANCH   5   8
ATOM      8  C   UNL     1     -33.572  44.650  38.137  1.00  0.00    -0.011 C 
ATOM      9  C   UNL     1     -32.263  45.149  38.771  1.00  0.00     0.008 C 
ATOM     10  C   UNL     1     -33.927  45.484  36.896  1.00  0.00     0.008 C 
ENDBRANCH   5   8
ENDBRANCH   4   5
ENDBRANCH   1   3
BRANCH   1  11
ATOM     11  C   UNL     1     -35.428  40.627  41.104  1.00  0.00     0.002 C 
ATOM     12  C   UNL     1     -36.295  39.514  40.498  1.00  0.00     0.005 C 
ATOM     13  C   UNL     1     -35.397  40.299  42.639  1.00  0.00    -0.023 C 
ATOM     14  C   UNL     1     -36.208  38.319  41.443  1.00  0.00     0.009 C 
ATOM     15  C   UNL     1     -35.387  38.749  42.673  1.00  0.00     0.021 C 
ATOM     16  C   UNL     1     -36.704  40.880  43.306  1.00  0.00     0.008 C 
ATOM     17  C   UNL     1     -34.155  40.915  43.342  1.00  0.00     0.012 C 
ATOM     18  C   UNL     1     -35.921  38.113  43.951  1.00  0.00    -0.067 C 
ATOM     19  C   UNL     1     -37.349  40.059  44.452  1.00  0.00     0.009 C 
ATOM     20  C   UNL     1     -36.412  39.012  45.083  1.00  0.00     0.021 C 
ATOM     21  C   UNL     1     -36.050  36.766  43.982  1.00  0.00    -0.027 C 
ATOM     22  C   UNL     1     -36.988  38.218  46.334  1.00  0.00    -0.023 C 
ATOM     23  C   UNL     1     -36.765  36.019  45.069  1.00  0.00     0.031 C 
ATOM     24  C   UNL     1     -37.724  36.935  45.840  1.00  0.00     0.002 C 
ATOM     25  C   UNL     1     -37.996  39.073  47.167  1.00  0.00     0.010 C 
ATOM     26  C   UNL     1     -35.775  37.863  47.250  1.00  0.00     0.012 C 
ATOM     27  C   UNL     1     -38.422  36.149  46.975  1.00  0.00     0.036 C 
ATOM     28  C   UNL     1     -38.652  38.286  48.313  1.00  0.00     0.032 C 
ATOM     29  C   UNL     1     -39.374  37.036  47.794  1.00  0.00     0.114 C 
BRANCH  29  30
ATOM     30  O   UNL     1     -40.478  37.418  47.013  1.00  0.00    -0.393 OA
ATOM     31  H   UNL     1     -40.118  37.817  46.179  1.00  0.00     0.210 HD
ENDBRANCH  29  30
ENDBRANCH   1  11
TORSDOF 6
ENDMDL
MODEL 2
REMARK VINA RESULT:    -8.773      1.850      3.273
REMARK INTER + INTRA:         -12.747
REMARK INTER:                 -12.305
REMARK INTRA:                  -0.442
REMARK UNBOUND:                -1.153
REMARK SMILES CC[C@H](C=C[C@H](C)[C@H]1CC[C@@H]2C3=CC[C@H]4C[C@H](O)CC[C@]4(C)[C@@H]3CC[C@@]21C)C(C)C
REMARK SMILES IDX 6 1 7 2 5 3 4 4 3 5 2 6 1 7 28 8 29 9 30 10 8 11 9 12 26 13
REMARK SMILES IDX 10 14 11 15 25 16 27 17 12 18 24 19 23 20 13 21 21 22 14 23
REMARK SMILES IDX 15 24 20 25 22 26 16 27 19 28 17 29 18 30
REMARK H PARENT 18 31
REMARK Flexibility Score: inf
ROOT
ATOM      1  C   UNL     1     -31.055  41.353  41.465  1.00  0.00     0.012 C 
ATOM      2  C   UNL     1     -29.917  40.692  40.658  1.00  0.00     0.012 C 
ENDROOT
BRANCH   1   3
ATOM      3  C   UNL     1     -32.255  41.682  40.591  1.00  0.00    -0.028 C 
ATOM      4  C   UNL     1     -32.753  42.923  40.427  1.00  0.00    -0.027 C 
BRANCH   4   5
ATOM      5  C   UNL     1     -33.911  43.270  39.508  1.00  0.00     0.014 C 
BRANCH   5   6
ATOM      6  C   UNL     1     -35.304  43.168  40.197  1.00  0.00     0.004 C 
ATOM      7  C   UNL     1     -35.414  43.655  41.643  1.00  0.00     0.004 C 
ENDBRANCH   5   6
BRANCH   5   8
ATOM      8  C   UNL     1     -33.642  44.484  38.555  1.00  0.00    -0.011 C 
ATOM      9  C   UNL     1     -32.266  45.157  38.698  1.00  0.00     0.008 C 
ATOM     10  C   UNL     1     -34.766  45.531  38.616  1.00  0.00     0.008 C 
ENDBRANCH   5   8
ENDBRANCH   4   5
ENDBRANCH   1   3
BRANCH   1  11
ATOM     11  C   UNL     1     -31.512  40.598  42.770  1.00  0.00     0.002 C 
ATOM     12  C   UNL     1     -31.507  41.500  44.012  1.00  0.00     0.005 C 
ATOM     13  C   UNL     1     -32.934  39.933  42.781  1.00  0.00    -0.023 C 
ATOM     14  C   UNL     1     -32.963  41.844  44.318  1.00  0.00     0.009 C 
ATOM     15  C   UNL     1     -33.848  41.055  43.335  1.00  0.00     0.021 C 
ATOM     16  C   UNL     1     -32.901  38.689  43.752  1.00  0.00     0.008 C 
ATOM     17  C   UNL     1     -33.367  39.458  41.367  1.00  0.00     0.012 C 
ATOM     18  C   UNL     1     -35.140  40.589  43.997  1.00  0.00    -0.067 C 
ATOM     19  C   UNL     1     -34.172  38.401  44.592  1.00  0.00     0.009 C 
ATOM     20  C   UNL     1     -35.444  39.095  44.069  1.00  0.00     0.021 C 
ATOM     21  C   UNL     1     -35.911  41.520  44.605  1.00  0.00    -0.027 C 
ATOM     22  C   UNL     1     -36.796  38.747  44.829  1.00  0.00    -0.023 C 
ATOM     23  C   UNL     1     -37.081  41.191  45.486  1.00  0.00     0.031 C 
ATOM     24  C   UNL     1     -37.002  39.750  46.005  1.00  0.00     0.002 C 
ATOM     25  C   UNL     1     -36.793  37.298  45.413  1.00  0.00     0.010 C 
ATOM     26  C   UNL     1     -37.950  38.850  43.782  1.00  0.00     0.012 C 
ATOM     27  C   UNL     1     -38.235  39.426  46.882  1.00  0.00     0.036 C 
ATOM     28  C   UNL     1     -38.043  36.982  46.250  1.00  0.00     0.032 C 
ATOM     29  C   UNL     1     -38.213  37.980  47.403  1.00  0.00     0.114 C 
BRANCH  29  30
ATOM     30  O   UNL     1     -37.172  37.812  48.331  1.00  0.00    -0.393 OA
ATOM     31  H   UNL     1     -37.290  36.915  48.739  1.00  0.00     0.210 HD
ENDBRANCH  29  30
ENDBRANCH   1  11
TORSDOF 6
ENDMDL
MODEL 3
REMARK VINA RESULT:    -8.745      2.721      9.253
REMARK INTER + INTRA:         -12.710
REMARK INTER:                 -11.695
REMARK INTRA:                  -1.015
REMARK UNBOUND:                -1.153
REMARK SMILES CC[C@H](C=C[C@H](C)[C@H]1CC[C@@H]2C3=CC[C@H]4C[C@H](O)CC[C@]4(C)[C@@H]3CC[C@@]21C)C(C)C
REMARK SMILES IDX 6 1 7 2 5 3 4 4 3 5 2 6 1 7 28 8 29 9 30 10 8 11 9 12 26 13
REMARK SMILES IDX 10 14 11 15 25 16 27 17 12 18 24 19 23 20 13 21 21 22 14 23
REMARK SMILES IDX 15 24 20 25 22 26 16 27 19 28 17 29 18 30
REMARK H PARENT 18 31
REMARK Flexibility Score: inf
ROOT
ATOM      1  C   UNL     1     -36.589  37.836  46.653  1.00  0.00     0.012 C 
ATOM      2  C   UNL     1     -35.497  37.605  47.719  1.00  0.00     0.012 C 
ENDROOT
BRANCH   1   3
ATOM      3  C   UNL     1     -37.978  37.512  47.181  1.00  0.00    -0.028 C 
ATOM      4  C   UNL     1     -38.702  38.339  47.960  1.00  0.00    -0.027 C 
BRANCH   4   5
ATOM      5  C   UNL     1     -40.114  38.052  48.439  1.00  0.00     0.014 C 
BRANCH   5   6
ATOM      6  C   UNL     1     -41.135  37.856  47.280  1.00  0.00     0.004 C 
ATOM      7  C   UNL     1     -40.974  38.738  46.040  1.00  0.00     0.004 C 
ENDBRANCH   5   6
BRANCH   5   8
ATOM      8  C   UNL     1     -40.198  37.088  49.671  1.00  0.00    -0.011 C 
ATOM      9  C   UNL     1     -40.369  35.595  49.345  1.00  0.00     0.008 C 
ATOM     10  C   UNL     1     -41.249  37.544  50.695  1.00  0.00     0.008 C 
ENDBRANCH   5   8
ENDBRANCH   4   5
ENDBRANCH   1   3
BRANCH   1  11
ATOM     11  C   UNL     1     -36.582  39.243  45.944  1.00  0.00     0.002 C 
ATOM     12  C   UNL     1     -35.612  40.236  46.601  1.00  0.00     0.005 C 
ATOM     13  C   UNL     1     -36.219  39.302  44.418  1.00  0.00    -0.023 C 
ATOM     14  C   UNL     1     -34.395  40.340  45.686  1.00  0.00     0.009 C 
ATOM     15  C   UNL     1     -34.682  39.505  44.424  1.00  0.00     0.021 C 
ATOM     16  C   UNL     1     -36.958  40.537  43.770  1.00  0.00     0.008 C 
ATOM     17  C   UNL     1     -36.643  38.009  43.667  1.00  0.00     0.012 C 
ATOM     18  C   UNL     1     -34.096  40.157  43.177  1.00  0.00    -0.067 C 
ATOM     19  C   UNL     1     -36.208  41.320  42.663  1.00  0.00     0.009 C 
ATOM     20  C   UNL     1     -35.029  40.554  42.035  1.00  0.00     0.021 C 
ATOM     21  C   UNL     1     -32.780  40.469  43.184  1.00  0.00    -0.027 C 
ATOM     22  C   UNL     1     -34.294  41.269  40.820  1.00  0.00    -0.023 C 
ATOM     23  C   UNL     1     -32.113  41.311  42.136  1.00  0.00     0.031 C 
ATOM     24  C   UNL     1     -33.135  42.158  41.366  1.00  0.00     0.002 C 
ATOM     25  C   UNL     1     -35.260  42.175  39.992  1.00  0.00     0.010 C 
ATOM     26  C   UNL     1     -33.756  40.142  39.883  1.00  0.00     0.012 C 
ATOM     27  C   UNL     1     -32.427  42.989  40.270  1.00  0.00     0.036 C 
ATOM     28  C   UNL     1     -34.546  42.964  38.884  1.00  0.00     0.032 C 
ATOM     29  C   UNL     1     -33.417  43.834  39.453  1.00  0.00     0.114 C 
BRANCH  29  30
ATOM     30  O   UNL     1     -33.964  44.853  40.252  1.00  0.00    -0.393 OA
ATOM     31  H   UNL     1     -34.815  45.131  39.824  1.00  0.00     0.210 HD
ENDBRANCH  29  30
ENDBRANCH   1  11
TORSDOF 6
ENDMDL
MODEL 4
REMARK VINA RESULT:    -8.721      1.667      2.606
REMARK INTER + INTRA:         -12.678
REMARK INTER:                 -11.962
REMARK INTRA:                  -0.716
REMARK UNBOUND:                -1.153
REMARK SMILES CC[C@H](C=C[C@H](C)[C@H]1CC[C@@H]2C3=CC[C@H]4C[C@H](O)CC[C@]4(C)[C@@H]3CC[C@@]21C)C(C)C
REMARK SMILES IDX 6 1 7 2 5 3 4 4 3 5 2 6 1 7 28 8 29 9 30 10 8 11 9 12 26 13
REMARK SMILES IDX 10 14 11 15 25 16 27 17 12 18 24 19 23 20 13 21 21 22 14 23
REMARK SMILES IDX 15 24 20 25 22 26 16 27 19 28 17 29 18 30
REMARK H PARENT 18 31
REMARK Flexibility Score: inf
ROOT
ATOM      1  C   UNL     1     -32.477  42.304  40.866  1.00  0.00     0.012 C 
ATOM      2  C   UNL     1     -30.980  42.099  40.553  1.00  0.00     0.012 C 
ENDROOT
BRANCH   1   3
ATOM      3  C   UNL     1     -33.188  43.080  39.768  1.00  0.00    -0.028 C 
ATOM      4  C   UNL     1     -32.969  44.382  39.500  1.00  0.00    -0.027 C 
BRANCH   4   5
ATOM      5  C   UNL     1     -33.627  45.148  38.365  1.00  0.00     0.014 C 
BRANCH   5   6
ATOM      6  C   UNL     1     -35.011  45.752  38.744  1.00  0.00     0.004 C 
ATOM      7  C   UNL     1     -35.367  45.825  40.230  1.00  0.00     0.004 C 
ENDBRANCH   5   6
BRANCH   5   8
ATOM      8  C   UNL     1     -32.642  46.022  37.517  1.00  0.00    -0.011 C 
ATOM      9  C   UNL     1     -33.208  46.584  36.202  1.00  0.00     0.008 C 
ATOM     10  C   UNL     1     -31.300  45.315  37.272  1.00  0.00     0.008 C 
ENDBRANCH   5   8
ENDBRANCH   4   5
ENDBRANCH   1   3
BRANCH   1  11
ATOM     11  C   UNL     1     -33.292  41.009  41.243  1.00  0.00     0.002 C 
ATOM     12  C   UNL     1     -32.406  39.894  41.816  1.00  0.00     0.005 C 
ATOM     13  C   UNL     1     -34.461  41.146  42.283  1.00  0.00    -0.023 C 
ATOM     14  C   UNL     1     -32.647  39.864  43.323  1.00  0.00     0.009 C 
ATOM     15  C   UNL     1     -33.763  40.877  43.641  1.00  0.00     0.021 C 
ATOM     16  C   UNL     1     -35.547  40.045  41.968  1.00  0.00     0.008 C 
ATOM     17  C   UNL     1     -35.130  42.547  42.227  1.00  0.00     0.012 C 
ATOM     18  C   UNL     1     -34.668  40.378  44.761  1.00  0.00    -0.067 C 
ATOM     19  C   UNL     1     -36.272  39.390  43.172  1.00  0.00     0.009 C 
ATOM     20  C   UNL     1     -36.157  40.184  44.487  1.00  0.00     0.021 C 
ATOM     21  C   UNL     1     -34.088  40.011  45.928  1.00  0.00    -0.027 C 
ATOM     22  C   UNL     1     -36.973  39.612  45.725  1.00  0.00    -0.023 C 
ATOM     23  C   UNL     1     -34.809  39.294  47.031  1.00  0.00     0.031 C 
ATOM     24  C   UNL     1     -36.080  38.606  46.515  1.00  0.00     0.002 C 
ATOM     25  C   UNL     1     -38.277  38.872  45.287  1.00  0.00     0.010 C 
ATOM     26  C   UNL     1     -37.377  40.833  46.611  1.00  0.00     0.012 C 
ATOM     27  C   UNL     1     -36.822  37.904  47.677  1.00  0.00     0.036 C 
ATOM     28  C   UNL     1     -39.020  38.212  46.459  1.00  0.00     0.032 C 
ATOM     29  C   UNL     1     -38.118  37.224  47.211  1.00  0.00     0.114 C 
BRANCH  29  30
ATOM     30  O   UNL     1     -37.823  36.129  46.380  1.00  0.00    -0.393 OA
ATOM     31  H   UNL     1     -37.916  35.311  46.934  1.00  0.00     0.210 HD
ENDBRANCH  29  30
ENDBRANCH   1  11
TORSDOF 6
ENDMDL
MODEL 5
REMARK VINA RESULT:    -8.657      1.693      3.427
REMARK INTER + INTRA:         -12.593
REMARK INTER:                 -12.032
REMARK INTRA:                  -0.561
REMARK UNBOUND:                -1.153
REMARK SMILES CC[C@H](C=C[C@H](C)[C@H]1CC[C@@H]2C3=CC[C@H]4C[C@H](O)CC[C@]4(C)[C@@H]3CC[C@@]21C)C(C)C
REMARK SMILES IDX 6 1 7 2 5 3 4 4 3 5 2 6 1 7 28 8 29 9 30 10 8 11 9 12 26 13
REMARK SMILES IDX 10 14 11 15 25 16 27 17 12 18 24 19 23 20 13 21 21 22 14 23
REMARK SMILES IDX 15 24 20 25 22 26 16 27 19 28 17 29 18 30
REMARK H PARENT 18 31
REMARK Flexibility Score: inf
ROOT
ATOM      1  C   UNL     1     -35.175  42.008  40.436  1.00  0.00     0.012 C 
ATOM      2  C   UNL     1     -34.927  43.526  40.570  1.00  0.00     0.012 C 
ENDROOT
BRANCH   1   3
ATOM      3  C   UNL     1     -33.944  41.195  40.807  1.00  0.00    -0.028 C 
ATOM      4  C   UNL     1     -32.742  41.732  41.092  1.00  0.00    -0.027 C 
BRANCH   4   5
ATOM      5  C   UNL     1     -31.525  40.933  41.524  1.00  0.00     0.014 C 
BRANCH   5   6
ATOM      6  C   UNL     1     -30.183  41.499  40.974  1.00  0.00     0.004 C 
ATOM      7  C   UNL     1     -28.954  40.590  41.038  1.00  0.00     0.004 C 
ENDBRANCH   5   6
BRANCH   5   8
ATOM      8  C   UNL     1     -31.567  40.439  43.010  1.00  0.00    -0.011 C 
ATOM      9  C   UNL     1     -32.488  39.240  43.292  1.00  0.00     0.008 C 
ATOM     10  C   UNL     1     -31.850  41.585  43.996  1.00  0.00     0.008 C 
ENDBRANCH   5   8
ENDBRANCH   4   5
ENDBRANCH   1   3
BRANCH   1  11
ATOM     11  C   UNL     1     -36.451  41.444  41.170  1.00  0.00     0.002 C 
ATOM     12  C   UNL     1     -36.977  40.148  40.536  1.00  0.00     0.005 C 
ATOM     13  C   UNL     1     -36.338  41.107  42.699  1.00  0.00    -0.023 C 
ATOM     14  C   UNL     1     -36.570  39.004  41.461  1.00  0.00     0.009 C 
ATOM     15  C   UNL     1     -35.905  39.619  42.706  1.00  0.00     0.021 C 
ATOM     16  C   UNL     1     -37.758  41.295  43.363  1.00  0.00     0.008 C 
ATOM     17  C   UNL     1     -35.316  42.026  43.425  1.00  0.00     0.012 C 
ATOM     18  C   UNL     1     -36.249  38.837  43.968  1.00  0.00    -0.067 C 
ATOM     19  C   UNL     1     -38.158  40.307  44.488  1.00  0.00     0.009 C 
ATOM     20  C   UNL     1     -36.974  39.545  45.110  1.00  0.00     0.021 C 
ATOM     21  C   UNL     1     -36.005  37.506  43.974  1.00  0.00    -0.027 C 
ATOM     22  C   UNL     1     -37.316  38.600  46.342  1.00  0.00    -0.023 C 
ATOM     23  C   UNL     1     -36.493  36.570  45.041  1.00  0.00     0.031 C 
ATOM     24  C   UNL     1     -37.670  37.174  45.818  1.00  0.00     0.002 C 
ATOM     25  C   UNL     1     -38.524  39.130  47.179  1.00  0.00     0.010 C 
ATOM     26  C   UNL     1     -36.056  38.573  47.263  1.00  0.00     0.012 C 
ATOM     27  C   UNL     1     -38.131  36.205  46.934  1.00  0.00     0.036 C 
ATOM     28  C   UNL     1     -38.944  38.172  48.305  1.00  0.00     0.032 C 
ATOM     29  C   UNL     1     -39.293  36.782  47.758  1.00  0.00     0.114 C 
BRANCH  29  30
ATOM     30  O   UNL     1     -40.456  36.861  46.973  1.00  0.00    -0.393 OA
ATOM     31  H   UNL     1     -41.225  36.683  47.575  1.00  0.00     0.210 HD
ENDBRANCH  29  30
ENDBRANCH   1  11
TORSDOF 6
ENDMDL
MODEL 6
REMARK VINA RESULT:    -8.621      2.815      8.687
REMARK INTER + INTRA:         -12.546
REMARK INTER:                 -12.266
REMARK INTRA:                  -0.281
REMARK UNBOUND:                -1.153
REMARK SMILES CC[C@H](C=C[C@H](C)[C@H]1CC[C@@H]2C3=CC[C@H]4C[C@H](O)CC[C@]4(C)[C@@H]3CC[C@@]21C)C(C)C
REMARK SMILES IDX 6 1 7 2 5 3 4 4 3 5 2 6 1 7 28 8 29 9 30 10 8 11 9 12 26 13
REMARK SMILES IDX 10 14 11 15 25 16 27 17 12 18 24 19 23 20 13 21 21 22 14 23
REMARK SMILES IDX 15 24 20 25 22 26 16 27 19 28 17 29 18 30
REMARK H PARENT 18 31
REMARK Flexibility Score: inf
ROOT
ATOM      1  C   UNL     1     -36.930  34.915  45.691  1.00  0.00     0.012 C 
ATOM      2  C   UNL     1     -36.213  33.839  46.533  1.00  0.00     0.012 C 
ENDROOT
BRANCH   1   3
ATOM      3  C   UNL     1     -37.442  36.061  46.548  1.00  0.00    -0.028 C 
ATOM      4  C   UNL     1     -38.709  36.164  46.994  1.00  0.00    -0.027 C 
BRANCH   4   5
ATOM      5  C   UNL     1     -39.212  37.272  47.903  1.00  0.00     0.014 C 
BRANCH   5   6
ATOM      6  C   UNL     1     -38.985  38.700  47.326  1.00  0.00     0.004 C 
ATOM      7  C   UNL     1     -39.571  39.007  45.947  1.00  0.00     0.004 C 
ENDBRANCH   5   6
BRANCH   5   8
ATOM      8  C   UNL     1     -40.579  36.965  48.606  1.00  0.00    -0.011 C 
ATOM      9  C   UNL     1     -41.094  38.045  49.571  1.00  0.00     0.008 C 
ATOM     10  C   UNL     1     -40.588  35.584  49.281  1.00  0.00     0.008 C 
ENDBRANCH   5   8
ENDBRANCH   4   5
ENDBRANCH   1   3
BRANCH   1  11
ATOM     11  C   UNL     1     -36.137  35.466  44.446  1.00  0.00     0.002 C 
ATOM     12  C   UNL     1     -36.914  35.313  43.130  1.00  0.00     0.005 C 
ATOM     13  C   UNL     1     -35.693  36.972  44.459  1.00  0.00    -0.023 C 
ATOM     14  C   UNL     1     -37.441  36.697  42.761  1.00  0.00     0.009 C 
ATOM     15  C   UNL     1     -36.885  37.702  43.788  1.00  0.00     0.021 C 
ATOM     16  C   UNL     1     -34.375  37.116  43.601  1.00  0.00     0.008 C 
ATOM     17  C   UNL     1     -35.417  37.487  45.899  1.00  0.00     0.012 C 
ATOM     18  C   UNL     1     -36.558  39.041  43.139  1.00  0.00    -0.067 C 
ATOM     19  C   UNL     1     -34.206  38.408  42.760  1.00  0.00     0.009 C 
ATOM     20  C   UNL     1     -35.125  39.566  43.190  1.00  0.00     0.021 C 
ATOM     21  C   UNL     1     -37.535  39.658  42.433  1.00  0.00    -0.027 C 
ATOM     22  C   UNL     1     -34.915  40.947  42.431  1.00  0.00    -0.023 C 
ATOM     23  C   UNL     1     -37.306  40.854  41.557  1.00  0.00     0.031 C 
ATOM     24  C   UNL     1     -35.828  40.988  41.167  1.00  0.00     0.002 C 
ATOM     25  C   UNL     1     -33.436  41.156  41.976  1.00  0.00     0.010 C 
ATOM     26  C   UNL     1     -35.283  42.083  43.438  1.00  0.00     0.012 C 
ATOM     27  C   UNL     1     -35.614  42.247  40.293  1.00  0.00     0.036 C 
ATOM     28  C   UNL     1     -33.236  42.430  41.141  1.00  0.00     0.032 C 
ATOM     29  C   UNL     1     -34.140  42.437  39.901  1.00  0.00     0.114 C 
BRANCH  29  30
ATOM     30  O   UNL     1     -33.736  41.423  39.016  1.00  0.00    -0.393 OA
ATOM     31  H   UNL     1     -33.215  40.766  39.547  1.00  0.00     0.210 HD
ENDBRANCH  29  30
ENDBRANCH   1  11
TORSDOF 6
ENDMDL
MODEL 7
REMARK VINA RESULT:    -8.617      3.203      9.100
REMARK INTER + INTRA:         -12.540
REMARK INTER:                 -12.104
REMARK INTRA:                  -0.437
REMARK UNBOUND:                -1.153
REMARK SMILES CC[C@H](C=C[C@H](C)[C@H]1CC[C@@H]2C3=CC[C@H]4C[C@H](O)CC[C@]4(C)[C@@H]3CC[C@@]21C)C(C)C
REMARK SMILES IDX 6 1 7 2 5 3 4 4 3 5 2 6 1 7 28 8 29 9 30 10 8 11 9 12 26 13
REMARK SMILES IDX 10 14 11 15 25 16 27 17 12 18 24 19 23 20 13 21 21 22 14 23
REMARK SMILES IDX 15 24 20 25 22 26 16 27 19 28 17 29 18 30
REMARK H PARENT 18 31
REMARK Flexibility Score: inf
ROOT
ATOM      1  C   UNL     1     -39.054  39.492  45.580  1.00  0.00     0.012 C 
ATOM      2  C   UNL     1     -39.696  39.418  44.179  1.00  0.00     0.012 C 
ENDROOT
BRANCH   1   3
ATOM      3  C   UNL     1     -39.815  38.659  46.600  1.00  0.00    -0.028 C 
ATOM      4  C   UNL     1     -39.282  38.196  47.747  1.00  0.00    -0.027 C 
BRANCH   4   5
ATOM      5  C   UNL     1     -40.052  37.419  48.800  1.00  0.00     0.014 C 
BRANCH   5   6
ATOM      6  C   UNL     1     -41.245  38.212  49.409  1.00  0.00     0.004 C 
ATOM      7  C   UNL     1     -41.664  37.871  50.840  1.00  0.00     0.004 C 
ENDBRANCH   5   6
BRANCH   5   8
ATOM      8  C   UNL     1     -40.263  35.904  48.463  1.00  0.00    -0.011 C 
ATOM      9  C   UNL     1     -40.482  34.973  49.667  1.00  0.00     0.008 C 
ATOM     10  C   UNL     1     -39.161  35.353  47.544  1.00  0.00     0.008 C 
ENDBRANCH   5   8
ENDBRANCH   4   5
ENDBRANCH   1   3
BRANCH   1  11
ATOM     11  C   UNL     1     -37.511  39.182  45.655  1.00  0.00     0.002 C 
ATOM     12  C   UNL     1     -37.160  37.777  45.144  1.00  0.00     0.005 C 
ATOM     13  C   UNL     1     -36.526  40.130  44.882  1.00  0.00    -0.023 C 
ATOM     14  C   UNL     1     -36.537  37.949  43.762  1.00  0.00     0.009 C 
ATOM     15  C   UNL     1     -36.404  39.459  43.490  1.00  0.00     0.021 C 
ATOM     16  C   UNL     1     -35.140  40.142  45.637  1.00  0.00     0.008 C 
ATOM     17  C   UNL     1     -37.066  41.585  44.794  1.00  0.00     0.012 C 
ATOM     18  C   UNL     1     -35.132  39.777  42.713  1.00  0.00    -0.067 C 
ATOM     19  C   UNL     1     -33.855  40.223  44.774  1.00  0.00     0.009 C 
ATOM     20  C   UNL     1     -34.093  40.708  43.332  1.00  0.00     0.021 C 
ATOM     21  C   UNL     1     -34.920  39.120  41.549  1.00  0.00    -0.027 C 
ATOM     22  C   UNL     1     -32.794  40.913  42.438  1.00  0.00    -0.023 C 
ATOM     23  C   UNL     1     -33.624  39.153  40.793  1.00  0.00     0.031 C 
ATOM     24  C   UNL     1     -32.461  39.582  41.697  1.00  0.00     0.002 C 
ATOM     25  C   UNL     1     -31.550  41.330  43.285  1.00  0.00     0.010 C 
ATOM     26  C   UNL     1     -33.109  42.064  41.430  1.00  0.00     0.012 C 
ATOM     27  C   UNL     1     -31.144  39.642  40.886  1.00  0.00     0.036 C 
ATOM     28  C   UNL     1     -30.259  41.420  42.456  1.00  0.00     0.032 C 
ATOM     29  C   UNL     1     -29.953  40.094  41.746  1.00  0.00     0.114 C 
BRANCH  29  30
ATOM     30  O   UNL     1     -29.638  39.110  42.699  1.00  0.00    -0.393 OA
ATOM     31  H   UNL     1     -29.585  38.245  42.215  1.00  0.00     0.210 HD
ENDBRANCH  29  30
ENDBRANCH   1  11
TORSDOF 6
ENDMDL
MODEL 8
REMARK VINA RESULT:    -8.370      2.736      8.512
REMARK INTER + INTRA:         -12.214
REMARK INTER:                 -11.636
REMARK INTRA:                  -0.577
REMARK UNBOUND:                -1.153
REMARK SMILES CC[C@H](C=C[C@H](C)[C@H]1CC[C@@H]2C3=CC[C@H]4C[C@H](O)CC[C@]4(C)[C@@H]3CC[C@@]21C)C(C)C
REMARK SMILES IDX 6 1 7 2 5 3 4 4 3 5 2 6 1 7 28 8 29 9 30 10 8 11 9 12 26 13
REMARK SMILES IDX 10 14 11 15 25 16 27 17 12 18 24 19 23 20 13 21 21 22 14 23
REMARK SMILES IDX 15 24 20 25 22 26 16 27 19 28 17 29 18 30
REMARK H PARENT 18 31
REMARK Flexibility Score: inf
ROOT
ATOM      1  C   UNL     1     -38.114  38.579  46.908  1.00  0.00     0.012 C 
ATOM      2  C   UNL     1     -39.611  38.367  47.221  1.00  0.00     0.012 C 
ENDROOT
BRANCH   1   3
ATOM      3  C   UNL     1     -37.508  37.381  46.194  1.00  0.00    -0.028 C 
ATOM      4  C   UNL     1     -36.486  36.650  46.679  1.00  0.00    -0.027 C 
BRANCH   4   5
ATOM      5  C   UNL     1     -35.916  35.415  46.003  1.00  0.00     0.014 C 
BRANCH   5   6
ATOM      6  C   UNL     1     -37.005  34.403  45.539  1.00  0.00     0.004 C 
ATOM      7  C   UNL     1     -37.771  33.643  46.623  1.00  0.00     0.004 C 
ENDBRANCH   5   6
BRANCH   5   8
ATOM      8  C   UNL     1     -34.710  35.698  45.045  1.00  0.00    -0.011 C 
ATOM      9  C   UNL     1     -35.056  36.388  43.716  1.00  0.00     0.008 C 
ATOM     10  C   UNL     1     -33.856  34.443  44.799  1.00  0.00     0.008 C 
ENDBRANCH   5   8
ENDBRANCH   4   5
ENDBRANCH   1   3
BRANCH   1  11
ATOM     11  C   UNL     1     -37.742  39.915  46.161  1.00  0.00     0.002 C 
ATOM     12  C   UNL     1     -36.600  40.681  46.846  1.00  0.00     0.005 C 
ATOM     13  C   UNL     1     -37.300  39.825  44.658  1.00  0.00    -0.023 C 
ATOM     14  C   UNL     1     -35.348  40.461  46.000  1.00  0.00     0.009 C 
ATOM     15  C   UNL     1     -35.760  39.665  44.748  1.00  0.00     0.021 C 
ATOM     16  C   UNL     1     -37.695  41.171  43.934  1.00  0.00     0.008 C 
ATOM     17  C   UNL     1     -37.977  38.637  43.921  1.00  0.00     0.012 C 
ATOM     18  C   UNL     1     -34.977  40.111  43.519  1.00  0.00    -0.067 C 
ATOM     19  C   UNL     1     -36.728  41.712  42.850  1.00  0.00     0.009 C 
ATOM     20  C   UNL     1     -35.732  40.667  42.314  1.00  0.00     0.021 C 
ATOM     21  C   UNL     1     -33.625  40.108  43.594  1.00  0.00    -0.027 C 
ATOM     22  C   UNL     1     -34.790  41.141  41.124  1.00  0.00    -0.023 C 
ATOM     23  C   UNL     1     -32.729  40.728  42.563  1.00  0.00     0.031 C 
ATOM     24  C   UNL     1     -33.483  41.757  41.711  1.00  0.00     0.002 C 
ATOM     25  C   UNL     1     -35.474  42.212  40.216  1.00  0.00     0.010 C 
ATOM     26  C   UNL     1     -34.486  39.882  40.252  1.00  0.00     0.012 C 
ATOM     27  C   UNL     1     -32.546  42.355  40.635  1.00  0.00     0.036 C 
ATOM     28  C   UNL     1     -34.540  42.767  39.130  1.00  0.00     0.032 C 
ATOM     29  C   UNL     1     -33.268  43.373  39.738  1.00  0.00     0.114 C 
BRANCH  29  30
ATOM     30  O   UNL     1     -33.600  44.523  40.475  1.00  0.00    -0.393 OA
ATOM     31  H   UNL     1     -34.497  44.815  40.168  1.00  0.00     0.210 HD
ENDBRANCH  29  30
ENDBRANCH   1  11
TORSDOF 6
ENDMDL
MODEL 9
REMARK VINA RESULT:    -8.366      1.501      2.567
REMARK INTER + INTRA:         -12.208
REMARK INTER:                 -11.979
REMARK INTRA:                  -0.229
REMARK UNBOUND:                -1.153
REMARK SMILES CC[C@H](C=C[C@H](C)[C@H]1CC[C@@H]2C3=CC[C@H]4C[C@H](O)CC[C@]4(C)[C@@H]3CC[C@@]21C)C(C)C
REMARK SMILES IDX 6 1 7 2 5 3 4 4 3 5 2 6 1 7 28 8 29 9 30 10 8 11 9 12 26 13
REMARK SMILES IDX 10 14 11 15 25 16 27 17 12 18 24 19 23 20 13 21 21 22 14 23
REMARK SMILES IDX 15 24 20 25 22 26 16 27 19 28 17 29 18 30
REMARK H PARENT 18 31
REMARK Flexibility Score: inf
ROOT
ATOM      1  C   UNL     1     -32.810  42.277  40.550  1.00  0.00     0.012 C 
ATOM      2  C   UNL     1     -32.674  40.887  39.895  1.00  0.00     0.012 C 
ENDROOT
BRANCH   1   3
ATOM      3  C   UNL     1     -33.163  43.353  39.535  1.00  0.00    -0.028 C 
ATOM      4  C   UNL     1     -32.392  44.427  39.274  1.00  0.00    -0.027 C 
BRANCH   4   5
ATOM      5  C   UNL     1     -32.705  45.472  38.217  1.00  0.00     0.014 C 
BRANCH   5   6
ATOM      6  C   UNL     1     -31.555  45.677  37.187  1.00  0.00     0.004 C 
ATOM      7  C   UNL     1     -30.406  44.667  37.201  1.00  0.00     0.004 C 
ENDBRANCH   5   6
BRANCH   5   8
ATOM      8  C   UNL     1     -34.179  45.438  37.687  1.00  0.00    -0.011 C 
ATOM      9  C   UNL     1     -34.437  46.194  36.373  1.00  0.00     0.008 C 
ATOM     10  C   UNL     1     -35.193  45.857  38.762  1.00  0.00     0.008 C 
ENDBRANCH   5   8
ENDBRANCH   4   5
ENDBRANCH   1   3
BRANCH   1  11
ATOM     11  C   UNL     1     -33.763  42.366  41.803  1.00  0.00     0.002 C 
ATOM     12  C   UNL     1     -35.243  42.502  41.416  1.00  0.00     0.005 C 
ATOM     13  C   UNL     1     -33.741  41.184  42.835  1.00  0.00    -0.023 C 
ATOM     14  C   UNL     1     -35.893  41.143  41.661  1.00  0.00     0.009 C 
ATOM     15  C   UNL     1     -34.836  40.225  42.303  1.00  0.00     0.021 C 
ATOM     16  C   UNL     1     -34.117  41.751  44.260  1.00  0.00     0.008 C 
ATOM     17  C   UNL     1     -32.346  40.505  42.915  1.00  0.00     0.012 C 
ATOM     18  C   UNL     1     -35.459  39.295  43.338  1.00  0.00    -0.067 C 
ATOM     19  C   UNL     1     -34.968  40.848  45.188  1.00  0.00     0.009 C 
ATOM     20  C   UNL     1     -34.980  39.361  44.786  1.00  0.00     0.021 C 
ATOM     21  C   UNL     1     -36.505  38.528  42.951  1.00  0.00    -0.027 C 
ATOM     22  C   UNL     1     -35.748  38.375  45.767  1.00  0.00    -0.023 C 
ATOM     23  C   UNL     1     -37.361  37.740  43.900  1.00  0.00     0.031 C 
ATOM     24  C   UNL     1     -37.243  38.273  45.333  1.00  0.00     0.002 C 
ATOM     25  C   UNL     1     -35.699  38.856  47.252  1.00  0.00     0.010 C 
ATOM     26  C   UNL     1     -35.033  36.990  45.677  1.00  0.00     0.012 C 
ATOM     27  C   UNL     1     -38.107  37.423  46.295  1.00  0.00     0.036 C 
ATOM     28  C   UNL     1     -36.533  37.979  48.199  1.00  0.00     0.032 C 
ATOM     29  C   UNL     1     -37.999  37.905  47.751  1.00  0.00     0.114 C 
BRANCH  29  30
ATOM     30  O   UNL     1     -38.600  39.168  47.893  1.00  0.00    -0.393 OA
ATOM     31  H   UNL     1     -39.116  39.148  48.741  1.00  0.00     0.210 HD
ENDBRANCH  29  30
ENDBRANCH   1  11
TORSDOF 6
ENDMDL
