MODEL 1
REMARK VINA RESULT:    -6.410      0.000      0.000
REMARK INTER + INTRA:         -10.492
REMARK INTER:                  -9.408
REMARK INTRA:                  -1.084
REMARK UNBOUND:                -1.084
REMARK SMILES O=c1c(O[C@H]2O[C@H](CO)[C@H](O)[C@H](O)[C@@H]2O)c(-c2ccc(O)c(O)c2)oc2cc(O)cc(O)c12
REMARK SMILES IDX 4 1 3 2 16 3 25 4 2 5 26 6 1 7 33 8 27 9 31 10 28 11 30 12
REMARK SMILES IDX 17 13 18 14 19 15 20 16 24 17 22 18 21 19 23 21 32 23 29 25
REMARK SMILES IDX 5 27 14 28 6 29 12 30 7 31 10 32 15 33 13 35 8 37 9 38 11 40
REMARK H PARENT 21 20 23 22 32 24 29 26 15 34 13 36 9 39 11 41
REMARK Flexibility Score: inf
ROOT
ATOM      1  O   UNL     1      11.254   2.005  -0.297  1.00  0.00    -0.454 OA
ENDROOT
BRANCH   1   2
ATOM      2  C   UNL     1      11.621   1.207   0.796  1.00  0.00     0.214 A 
ATOM      3  C   UNL     1      12.968   1.079   1.151  1.00  0.00     0.180 A 
ATOM      4  O   UNL     1      13.287   0.630   2.360  1.00  0.00    -0.452 OA
ATOM      5  C   UNL     1      10.648   0.643   1.636  1.00  0.00     0.239 A 
ATOM      6  C   UNL     1      12.403   0.170   3.232  1.00  0.00     0.146 A 
ATOM      7  O   UNL     1       9.443   0.654   1.280  1.00  0.00    -0.285 OA
ATOM      8  C   UNL     1      11.030   0.113   2.884  1.00  0.00     0.111 A 
ATOM      9  C   UNL     1      12.824  -0.241   4.495  1.00  0.00     0.094 A 
ATOM     10  C   UNL     1      10.099  -0.412   3.822  1.00  0.00     0.134 A 
ATOM     11  C   UNL     1      11.895  -0.729   5.426  1.00  0.00     0.123 A 
ATOM     12  C   UNL     1      10.545  -0.822   5.084  1.00  0.00     0.093 A 
BRANCH   3  13
ATOM     13  C   UNL     1      14.054   1.391   0.193  1.00  0.00     0.025 A 
ATOM     14  C   UNL     1      15.003   2.391   0.491  1.00  0.00     0.016 A 
ATOM     15  C   UNL     1      16.127   2.569  -0.327  1.00  0.00     0.051 A 
ATOM     16  C   UNL     1      16.355   1.704  -1.415  1.00  0.00     0.157 A 
ATOM     17  C   UNL     1      14.260   0.566  -0.929  1.00  0.00     0.062 A 
ATOM     18  C   UNL     1      15.437   0.679  -1.685  1.00  0.00     0.158 A 
BRANCH  16  19
ATOM     19  O   UNL     1      17.488   1.857  -2.230  1.00  0.00    -0.504 OA
ATOM     20  H   UNL     1      18.302   2.357  -1.878  1.00  0.00     0.293 HD
ENDBRANCH  16  19
BRANCH  18  21
ATOM     21  O   UNL     1      15.724  -0.295  -2.631  1.00  0.00    -0.504 OA
ATOM     22  H   UNL     1      16.568  -0.236  -3.193  1.00  0.00     0.293 HD
ENDBRANCH  18  21
ENDBRANCH   3  13
BRANCH  10  23
ATOM     23  O   UNL     1       8.746  -0.528   3.502  1.00  0.00    -0.507 OA
ATOM     24  H   UNL     1       8.400  -0.313   2.565  1.00  0.00     0.293 HD
ENDBRANCH  10  23
BRANCH  11  25
ATOM     25  O   UNL     1      12.304  -1.125   6.700  1.00  0.00    -0.508 OA
ATOM     26  H   UNL     1      12.720  -2.031   6.843  1.00  0.00     0.293 HD
ENDBRANCH  11  25
ENDBRANCH   1   2
BRANCH   1  27
ATOM     27  C   UNL     1      11.524   3.412  -0.272  1.00  0.00     0.339 C 
ATOM     28  C   UNL     1      11.517   3.984   1.175  1.00  0.00     0.214 C 
ATOM     29  O   UNL     1      10.697   4.097  -1.214  1.00  0.00    -0.332 OA
ATOM     30  C   UNL     1      10.128   4.455   1.631  1.00  0.00     0.180 C 
ATOM     31  C   UNL     1       9.390   4.340  -0.724  1.00  0.00     0.179 C 
ATOM     32  C   UNL     1       9.442   5.243   0.519  1.00  0.00     0.177 C 
BRANCH  28  33
ATOM     33  O   UNL     1      12.427   5.056   1.247  1.00  0.00    -0.384 OA
ATOM     34  H   UNL     1      12.379   5.553   0.392  1.00  0.00     0.211 HD
ENDBRANCH  28  33
BRANCH  30  35
ATOM     35  O   UNL     1      10.210   5.244   2.787  1.00  0.00    -0.387 OA
ATOM     36  H   UNL     1       9.393   5.808   2.797  1.00  0.00     0.211 HD
ENDBRANCH  30  35
BRANCH  31  37
ATOM     37  C   UNL     1       8.550   5.014  -1.827  1.00  0.00     0.191 C 
BRANCH  37  38
ATOM     38  O   UNL     1       9.365   5.662  -2.766  1.00  0.00    -0.394 OA
ATOM     39  H   UNL     1       8.760   6.259  -3.294  1.00  0.00     0.210 HD
ENDBRANCH  37  38
ENDBRANCH  31  37
BRANCH  32  40
ATOM     40  O   UNL     1      10.130   6.437   0.199  1.00  0.00    -0.387 OA
ATOM     41  H   UNL     1       9.549   7.054  -0.312  1.00  0.00     0.211 HD
ENDBRANCH  32  40
ENDBRANCH   1  27
TORSDOF 12
ENDMDL
MODEL 2
REMARK VINA RESULT:    -6.353      2.410      5.264
REMARK INTER + INTRA:         -10.409
REMARK INTER:                  -9.240
REMARK INTRA:                  -1.169
REMARK UNBOUND:                -1.084
REMARK SMILES O=c1c(O[C@H]2O[C@H](CO)[C@H](O)[C@H](O)[C@@H]2O)c(-c2ccc(O)c(O)c2)oc2cc(O)cc(O)c12
REMARK SMILES IDX 4 1 3 2 16 3 25 4 2 5 26 6 1 7 33 8 27 9 31 10 28 11 30 12
REMARK SMILES IDX 17 13 18 14 19 15 20 16 24 17 22 18 21 19 23 21 32 23 29 25
REMARK SMILES IDX 5 27 14 28 6 29 12 30 7 31 10 32 15 33 13 35 8 37 9 38 11 40
REMARK H PARENT 21 20 23 22 32 24 29 26 15 34 13 36 9 39 11 41
REMARK Flexibility Score: inf
ROOT
ATOM      1  O   UNL     1      14.222   0.922   1.295  1.00  0.00    -0.454 OA
ENDROOT
BRANCH   1   2
ATOM      2  C   UNL     1      13.449   0.833   2.462  1.00  0.00     0.214 A 
ATOM      3  C   UNL     1      12.159   0.295   2.410  1.00  0.00     0.180 A 
ATOM      4  O   UNL     1      11.573  -0.112   3.530  1.00  0.00    -0.452 OA
ATOM      5  C   UNL     1      13.998   1.142   3.716  1.00  0.00     0.239 A 
ATOM      6  C   UNL     1      12.085   0.071   4.737  1.00  0.00     0.146 A 
ATOM      7  O   UNL     1      15.110   1.724   3.777  1.00  0.00    -0.285 OA
ATOM      8  C   UNL     1      13.317   0.757   4.887  1.00  0.00     0.111 A 
ATOM      9  C   UNL     1      11.420  -0.428   5.856  1.00  0.00     0.094 A 
ATOM     10  C   UNL     1      13.837   0.969   6.193  1.00  0.00     0.134 A 
ATOM     11  C   UNL     1      11.955  -0.241   7.139  1.00  0.00     0.123 A 
ATOM     12  C   UNL     1      13.150   0.462   7.302  1.00  0.00     0.093 A 
BRANCH   3  13
ATOM     13  C   UNL     1      11.408   0.207   1.135  1.00  0.00     0.025 A 
ATOM     14  C   UNL     1      11.540  -0.926   0.306  1.00  0.00     0.016 A 
ATOM     15  C   UNL     1      10.704  -1.092  -0.807  1.00  0.00     0.051 A 
ATOM     16  C   UNL     1       9.679  -0.163  -1.068  1.00  0.00     0.157 A 
ATOM     17  C   UNL     1      10.416   1.161   0.836  1.00  0.00     0.062 A 
ATOM     18  C   UNL     1       9.516   0.940  -0.217  1.00  0.00     0.158 A 
BRANCH  16  19
ATOM     19  O   UNL     1       8.821  -0.329  -2.166  1.00  0.00    -0.504 OA
ATOM     20  H   UNL     1       8.968   0.216  -3.012  1.00  0.00     0.293 HD
ENDBRANCH  16  19
BRANCH  18  21
ATOM     21  O   UNL     1       8.410   1.769  -0.340  1.00  0.00    -0.504 OA
ATOM     22  H   UNL     1       7.510   1.391  -0.621  1.00  0.00     0.293 HD
ENDBRANCH  18  21
ENDBRANCH   3  13
BRANCH  10  23
ATOM     23  O   UNL     1      15.023   1.680   6.386  1.00  0.00    -0.507 OA
ATOM     24  H   UNL     1      15.789   1.631   5.713  1.00  0.00     0.293 HD
ENDBRANCH  10  23
BRANCH  11  25
ATOM     25  O   UNL     1      11.308  -0.753   8.263  1.00  0.00    -0.508 OA
ATOM     26  H   UNL     1      10.809  -0.139   8.887  1.00  0.00     0.293 HD
ENDBRANCH  11  25
ENDBRANCH   1   2
BRANCH   1  27
ATOM     27  C   UNL     1      14.667   2.203   0.833  1.00  0.00     0.339 C 
ATOM     28  C   UNL     1      13.515   3.024   0.184  1.00  0.00     0.214 C 
ATOM     29  O   UNL     1      15.851   2.067   0.046  1.00  0.00    -0.332 OA
ATOM     30  C   UNL     1      13.365   2.766  -1.322  1.00  0.00     0.180 C 
ATOM     31  C   UNL     1      15.584   1.680  -1.290  1.00  0.00     0.179 C 
ATOM     32  C   UNL     1      14.733   2.747  -1.998  1.00  0.00     0.177 C 
BRANCH  28  33
ATOM     33  O   UNL     1      13.748   4.394   0.408  1.00  0.00    -0.384 OA
ATOM     34  H   UNL     1      14.535   4.660  -0.130  1.00  0.00     0.211 HD
ENDBRANCH  28  33
BRANCH  30  35
ATOM     35  O   UNL     1      12.553   3.735  -1.928  1.00  0.00    -0.387 OA
ATOM     36  H   UNL     1      11.622   3.391  -1.874  1.00  0.00     0.211 HD
ENDBRANCH  30  35
BRANCH  31  37
ATOM     37  C   UNL     1      16.916   1.488  -2.041  1.00  0.00     0.191 C 
BRANCH  37  38
ATOM     38  O   UNL     1      17.963   2.175  -1.409  1.00  0.00    -0.394 OA
ATOM     39  H   UNL     1      17.669   3.129  -1.342  1.00  0.00     0.210 HD
ENDBRANCH  37  38
ENDBRANCH  31  37
BRANCH  32  40
ATOM     40  O   UNL     1      15.392   3.996  -1.920  1.00  0.00    -0.387 OA
ATOM     41  H   UNL     1      16.372   3.884  -1.992  1.00  0.00     0.211 HD
ENDBRANCH  32  40
ENDBRANCH   1  27
TORSDOF 12
ENDMDL
MODEL 3
REMARK VINA RESULT:    -6.226      1.892      5.959
REMARK INTER + INTRA:         -10.222
REMARK INTER:                  -9.772
REMARK INTRA:                  -0.450
REMARK UNBOUND:                -1.084
REMARK SMILES O=c1c(O[C@H]2O[C@H](CO)[C@H](O)[C@H](O)[C@@H]2O)c(-c2ccc(O)c(O)c2)oc2cc(O)cc(O)c12
REMARK SMILES IDX 4 1 3 2 16 3 25 4 2 5 26 6 1 7 33 8 27 9 31 10 28 11 30 12
REMARK SMILES IDX 17 13 18 14 19 15 20 16 24 17 22 18 21 19 23 21 32 23 29 25
REMARK SMILES IDX 5 27 14 28 6 29 12 30 7 31 10 32 15 33 13 35 8 37 9 38 11 40
REMARK H PARENT 21 20 23 22 32 24 29 26 15 34 13 36 9 39 11 41
REMARK Flexibility Score: inf
ROOT
ATOM      1  O   UNL     1      14.799   2.941   2.158  1.00  0.00    -0.454 OA
ENDROOT
BRANCH   1   2
ATOM      2  C   UNL     1      13.726   3.382   1.369  1.00  0.00     0.214 A 
ATOM      3  C   UNL     1      13.640   3.002   0.026  1.00  0.00     0.180 A 
ATOM      4  O   UNL     1      12.481   3.114  -0.613  1.00  0.00    -0.452 OA
ATOM      5  C   UNL     1      12.654   4.085   1.939  1.00  0.00     0.239 A 
ATOM      6  C   UNL     1      11.406   3.686  -0.094  1.00  0.00     0.146 A 
ATOM      7  O   UNL     1      12.758   4.529   3.110  1.00  0.00    -0.285 OA
ATOM      8  C   UNL     1      11.461   4.247   1.207  1.00  0.00     0.111 A 
ATOM      9  C   UNL     1      10.219   3.722  -0.823  1.00  0.00     0.094 A 
ATOM     10  C   UNL     1      10.306   4.883   1.736  1.00  0.00     0.134 A 
ATOM     11  C   UNL     1       9.074   4.325  -0.281  1.00  0.00     0.123 A 
ATOM     12  C   UNL     1       9.125   4.910   0.985  1.00  0.00     0.093 A 
BRANCH   3  13
ATOM     13  C   UNL     1      14.825   2.515  -0.718  1.00  0.00     0.025 A 
ATOM     14  C   UNL     1      16.108   3.023  -0.428  1.00  0.00     0.016 A 
ATOM     15  C   UNL     1      17.248   2.445  -1.003  1.00  0.00     0.051 A 
ATOM     16  C   UNL     1      17.127   1.305  -1.821  1.00  0.00     0.157 A 
ATOM     17  C   UNL     1      14.708   1.409  -1.581  1.00  0.00     0.062 A 
ATOM     18  C   UNL     1      15.856   0.769  -2.072  1.00  0.00     0.158 A 
BRANCH  16  19
ATOM     19  O   UNL     1      18.262   0.701  -2.385  1.00  0.00    -0.504 OA
ATOM     20  H   UNL     1      18.468   0.832  -3.373  1.00  0.00     0.293 HD
ENDBRANCH  16  19
BRANCH  18  21
ATOM     21  O   UNL     1      15.720  -0.451  -2.720  1.00  0.00    -0.504 OA
ATOM     22  H   UNL     1      16.516  -0.884  -3.179  1.00  0.00     0.293 HD
ENDBRANCH  18  21
ENDBRANCH   3  13
BRANCH  10  23
ATOM     23  O   UNL     1      10.332   5.487   2.994  1.00  0.00    -0.507 OA
ATOM     24  H   UNL     1      10.466   6.494   3.099  1.00  0.00     0.293 HD
ENDBRANCH  10  23
BRANCH  11  25
ATOM     25  O   UNL     1       7.875   4.348  -0.994  1.00  0.00    -0.508 OA
ATOM     26  H   UNL     1       7.579   3.540  -1.518  1.00  0.00     0.293 HD
ENDBRANCH  11  25
ENDBRANCH   1   2
BRANCH   1  27
ATOM     27  C   UNL     1      14.919   1.551   2.481  1.00  0.00     0.339 C 
ATOM     28  C   UNL     1      13.551   0.812   2.406  1.00  0.00     0.214 C 
ATOM     29  O   UNL     1      15.650   1.381   3.697  1.00  0.00    -0.332 OA
ATOM     30  C   UNL     1      12.777   0.838   3.733  1.00  0.00     0.180 C 
ATOM     31  C   UNL     1      14.852   1.579   4.851  1.00  0.00     0.179 C 
ATOM     32  C   UNL     1      13.714   0.547   4.901  1.00  0.00     0.177 C 
BRANCH  28  33
ATOM     33  O   UNL     1      13.773  -0.523   2.016  1.00  0.00    -0.384 OA
ATOM     34  H   UNL     1      13.697  -1.091   2.822  1.00  0.00     0.211 HD
ENDBRANCH  28  33
BRANCH  30  35
ATOM     35  O   UNL     1      11.725  -0.087   3.729  1.00  0.00    -0.387 OA
ATOM     36  H   UNL     1      10.947   0.378   3.321  1.00  0.00     0.211 HD
ENDBRANCH  30  35
BRANCH  31  37
ATOM     37  C   UNL     1      15.734   1.448   6.108  1.00  0.00     0.191 C 
BRANCH  37  38
ATOM     38  O   UNL     1      15.749   2.640   6.848  1.00  0.00    -0.394 OA
ATOM     39  H   UNL     1      16.562   3.142   6.550  1.00  0.00     0.210 HD
ENDBRANCH  37  38
ENDBRANCH  31  37
BRANCH  32  40
ATOM     40  O   UNL     1      14.263  -0.756   4.842  1.00  0.00    -0.387 OA
ATOM     41  H   UNL     1      13.842  -1.285   4.120  1.00  0.00     0.211 HD
ENDBRANCH  32  40
ENDBRANCH   1  27
TORSDOF 12
ENDMDL
MODEL 4
REMARK VINA RESULT:    -5.993      2.085      5.974
REMARK INTER + INTRA:          -9.880
REMARK INTER:                  -9.362
REMARK INTRA:                  -0.519
REMARK UNBOUND:                -1.084
REMARK SMILES O=c1c(O[C@H]2O[C@H](CO)[C@H](O)[C@H](O)[C@@H]2O)c(-c2ccc(O)c(O)c2)oc2cc(O)cc(O)c12
REMARK SMILES IDX 4 1 3 2 16 3 25 4 2 5 26 6 1 7 33 8 27 9 31 10 28 11 30 12
REMARK SMILES IDX 17 13 18 14 19 15 20 16 24 17 22 18 21 19 23 21 32 23 29 25
REMARK SMILES IDX 5 27 14 28 6 29 12 30 7 31 10 32 15 33 13 35 8 37 9 38 11 40
REMARK H PARENT 21 20 23 22 32 24 29 26 15 34 13 36 9 39 11 41
REMARK Flexibility Score: inf
ROOT
ATOM      1  O   UNL     1      11.441   1.891   1.464  1.00  0.00    -0.454 OA
ENDROOT
BRANCH   1   2
ATOM      2  C   UNL     1      11.149   2.982   0.635  1.00  0.00     0.214 A 
ATOM      3  C   UNL     1      11.804   3.127  -0.592  1.00  0.00     0.180 A 
ATOM      4  O   UNL     1      11.294   3.933  -1.516  1.00  0.00    -0.452 OA
ATOM      5  C   UNL     1      10.102   3.864   0.946  1.00  0.00     0.239 A 
ATOM      6  C   UNL     1      10.251   4.722  -1.311  1.00  0.00     0.146 A 
ATOM      7  O   UNL     1       9.573   3.818   2.085  1.00  0.00    -0.285 OA
ATOM      8  C   UNL     1       9.629   4.756  -0.038  1.00  0.00     0.111 A 
ATOM      9  C   UNL     1       9.757   5.504  -2.353  1.00  0.00     0.094 A 
ATOM     10  C   UNL     1       8.528   5.630   0.173  1.00  0.00     0.134 A 
ATOM     11  C   UNL     1       8.652   6.342  -2.146  1.00  0.00     0.123 A 
ATOM     12  C   UNL     1       8.051   6.410  -0.888  1.00  0.00     0.093 A 
BRANCH   3  13
ATOM     13  C   UNL     1      13.084   2.434  -0.872  1.00  0.00     0.025 A 
ATOM     14  C   UNL     1      13.119   1.329  -1.748  1.00  0.00     0.016 A 
ATOM     15  C   UNL     1      14.345   0.781  -2.150  1.00  0.00     0.051 A 
ATOM     16  C   UNL     1      15.555   1.375  -1.739  1.00  0.00     0.157 A 
ATOM     17  C   UNL     1      14.297   2.987  -0.421  1.00  0.00     0.062 A 
ATOM     18  C   UNL     1      15.521   2.503  -0.907  1.00  0.00     0.158 A 
BRANCH  16  19
ATOM     19  O   UNL     1      16.790   0.851  -2.154  1.00  0.00    -0.504 OA
ATOM     20  H   UNL     1      17.654   1.222  -1.766  1.00  0.00     0.293 HD
ENDBRANCH  16  19
BRANCH  18  21
ATOM     21  O   UNL     1      16.681   3.214  -0.635  1.00  0.00    -0.504 OA
ATOM     22  H   UNL     1      17.337   2.885   0.067  1.00  0.00     0.293 HD
ENDBRANCH  18  21
ENDBRANCH   3  13
BRANCH  10  23
ATOM     23  O   UNL     1       7.918   5.727   1.424  1.00  0.00    -0.507 OA
ATOM     24  H   UNL     1       7.717   6.633   1.850  1.00  0.00     0.293 HD
ENDBRANCH  10  23
BRANCH  11  25
ATOM     25  O   UNL     1       8.137   7.114  -3.188  1.00  0.00    -0.508 OA
ATOM     26  H   UNL     1       8.724   7.381  -3.961  1.00  0.00     0.293 HD
ENDBRANCH  11  25
ENDBRANCH   1   2
BRANCH   1  27
ATOM     27  C   UNL     1      10.872   0.607   1.178  1.00  0.00     0.339 C 
ATOM     28  C   UNL     1      10.091   0.600  -0.168  1.00  0.00     0.214 C 
ATOM     29  O   UNL     1      10.158   0.112   2.312  1.00  0.00    -0.332 OA
ATOM     30  C   UNL     1       8.613   0.988  -0.010  1.00  0.00     0.180 C 
ATOM     31  C   UNL     1       8.858   0.662   2.427  1.00  0.00     0.179 C 
ATOM     32  C   UNL     1       8.006   0.288   1.203  1.00  0.00     0.177 C 
BRANCH  28  33
ATOM     33  O   UNL     1      10.184  -0.680  -0.745  1.00  0.00    -0.384 OA
ATOM     34  H   UNL     1       9.683  -0.666  -1.598  1.00  0.00     0.211 HD
ENDBRANCH  28  33
BRANCH  30  35
ATOM     35  O   UNL     1       7.875   0.668  -1.158  1.00  0.00    -0.387 OA
ATOM     36  H   UNL     1       7.011   1.152  -1.077  1.00  0.00     0.211 HD
ENDBRANCH  30  35
BRANCH  31  37
ATOM     37  C   UNL     1       8.192   0.129   3.711  1.00  0.00     0.191 C 
BRANCH  37  38
ATOM     38  O   UNL     1       7.916   1.168   4.612  1.00  0.00    -0.394 OA
ATOM     39  H   UNL     1       7.069   0.913   5.080  1.00  0.00     0.210 HD
ENDBRANCH  37  38
ENDBRANCH  31  37
BRANCH  32  40
ATOM     40  O   UNL     1       7.987  -1.120   1.061  1.00  0.00    -0.387 OA
ATOM     41  H   UNL     1       7.928  -1.563   1.943  1.00  0.00     0.211 HD
ENDBRANCH  32  40
ENDBRANCH   1  27
TORSDOF 12
ENDMDL
MODEL 5
REMARK VINA RESULT:    -5.905      2.688      4.629
REMARK INTER + INTRA:          -9.751
REMARK INTER:                  -9.396
REMARK INTRA:                  -0.355
REMARK UNBOUND:                -1.084
REMARK SMILES O=c1c(O[C@H]2O[C@H](CO)[C@H](O)[C@H](O)[C@@H]2O)c(-c2ccc(O)c(O)c2)oc2cc(O)cc(O)c12
REMARK SMILES IDX 4 1 3 2 16 3 25 4 2 5 26 6 1 7 33 8 27 9 31 10 28 11 30 12
REMARK SMILES IDX 17 13 18 14 19 15 20 16 24 17 22 18 21 19 23 21 32 23 29 25
REMARK SMILES IDX 5 27 14 28 6 29 12 30 7 31 10 32 15 33 13 35 8 37 9 38 11 40
REMARK H PARENT 21 20 23 22 32 24 29 26 15 34 13 36 9 39 11 41
REMARK Flexibility Score: inf
ROOT
ATOM      1  O   UNL     1      12.209   1.359   1.854  1.00  0.00    -0.454 OA
ENDROOT
BRANCH   1   2
ATOM      2  C   UNL     1      13.385   1.351   2.618  1.00  0.00     0.214 A 
ATOM      3  C   UNL     1      14.414   2.253   2.331  1.00  0.00     0.180 A 
ATOM      4  O   UNL     1      15.352   2.489   3.242  1.00  0.00    -0.452 OA
ATOM      5  C   UNL     1      13.495   0.548   3.764  1.00  0.00     0.239 A 
ATOM      6  C   UNL     1      15.453   1.827   4.383  1.00  0.00     0.146 A 
ATOM      7  O   UNL     1      12.634  -0.342   3.980  1.00  0.00    -0.285 OA
ATOM      8  C   UNL     1      14.543   0.780   4.677  1.00  0.00     0.111 A 
ATOM      9  C   UNL     1      16.445   2.171   5.300  1.00  0.00     0.094 A 
ATOM     10  C   UNL     1      14.684   0.060   5.894  1.00  0.00     0.134 A 
ATOM     11  C   UNL     1      16.559   1.475   6.512  1.00  0.00     0.123 A 
ATOM     12  C   UNL     1      15.690   0.421   6.799  1.00  0.00     0.093 A 
BRANCH   3  13
ATOM     13  C   UNL     1      14.510   2.923   1.012  1.00  0.00     0.025 A 
ATOM     14  C   UNL     1      15.721   2.905   0.290  1.00  0.00     0.016 A 
ATOM     15  C   UNL     1      15.769   3.383  -1.027  1.00  0.00     0.051 A 
ATOM     16  C   UNL     1      14.592   3.821  -1.664  1.00  0.00     0.157 A 
ATOM     17  C   UNL     1      13.348   3.414   0.386  1.00  0.00     0.062 A 
ATOM     18  C   UNL     1      13.378   3.795  -0.963  1.00  0.00     0.158 A 
BRANCH  16  19
ATOM     19  O   UNL     1      14.622   4.281  -2.991  1.00  0.00    -0.504 OA
ATOM     20  H   UNL     1      15.298   4.989  -3.267  1.00  0.00     0.293 HD
ENDBRANCH  16  19
BRANCH  18  21
ATOM     21  O   UNL     1      12.180   4.045  -1.618  1.00  0.00    -0.504 OA
ATOM     22  H   UNL     1      11.920   3.513  -2.443  1.00  0.00     0.293 HD
ENDBRANCH  18  21
ENDBRANCH   3  13
BRANCH  10  23
ATOM     23  O   UNL     1      13.838  -1.007   6.200  1.00  0.00    -0.507 OA
ATOM     24  H   UNL     1      13.846  -1.868   5.650  1.00  0.00     0.293 HD
ENDBRANCH  10  23
BRANCH  11  25
ATOM     25  O   UNL     1      17.535   1.825   7.446  1.00  0.00    -0.508 OA
ATOM     26  H   UNL     1      17.278   2.290   8.301  1.00  0.00     0.293 HD
ENDBRANCH  11  25
ENDBRANCH   1   2
BRANCH   1  27
ATOM     27  C   UNL     1      11.827   0.187   1.125  1.00  0.00     0.339 C 
ATOM     28  C   UNL     1      12.027   0.359  -0.408  1.00  0.00     0.214 C 
ATOM     29  O   UNL     1      10.533  -0.258   1.535  1.00  0.00    -0.332 OA
ATOM     30  C   UNL     1      10.796   0.945  -1.115  1.00  0.00     0.180 C 
ATOM     31  C   UNL     1       9.481   0.465   0.920  1.00  0.00     0.179 C 
ATOM     32  C   UNL     1       9.522   0.279  -0.605  1.00  0.00     0.177 C 
BRANCH  28  33
ATOM     33  O   UNL     1      12.345  -0.891  -0.972  1.00  0.00    -0.384 OA
ATOM     34  H   UNL     1      12.784  -1.437  -0.272  1.00  0.00     0.211 HD
ENDBRANCH  28  33
BRANCH  30  35
ATOM     35  O   UNL     1      10.885   0.792  -2.506  1.00  0.00    -0.387 OA
ATOM     36  H   UNL     1      11.452   1.540  -2.832  1.00  0.00     0.211 HD
ENDBRANCH  30  35
BRANCH  31  37
ATOM     37  C   UNL     1       8.130  -0.031   1.473  1.00  0.00     0.191 C 
BRANCH  37  38
ATOM     38  O   UNL     1       7.878   0.492   2.750  1.00  0.00    -0.394 OA
ATOM     39  H   UNL     1       6.893   0.397   2.899  1.00  0.00     0.210 HD
ENDBRANCH  37  38
ENDBRANCH  31  37
BRANCH  32  40
ATOM     40  O   UNL     1       9.476  -1.102  -0.908  1.00  0.00    -0.387 OA
ATOM     41  H   UNL     1       8.755  -1.299  -1.555  1.00  0.00     0.211 HD
ENDBRANCH  32  40
ENDBRANCH   1  27
TORSDOF 12
ENDMDL
MODEL 6
REMARK VINA RESULT:    -5.893      2.742      5.084
REMARK INTER + INTRA:          -9.734
REMARK INTER:                  -8.893
REMARK INTRA:                  -0.841
REMARK UNBOUND:                -1.084
REMARK SMILES O=c1c(O[C@H]2O[C@H](CO)[C@H](O)[C@H](O)[C@@H]2O)c(-c2ccc(O)c(O)c2)oc2cc(O)cc(O)c12
REMARK SMILES IDX 4 1 3 2 16 3 25 4 2 5 26 6 1 7 33 8 27 9 31 10 28 11 30 12
REMARK SMILES IDX 17 13 18 14 19 15 20 16 24 17 22 18 21 19 23 21 32 23 29 25
REMARK SMILES IDX 5 27 14 28 6 29 12 30 7 31 10 32 15 33 13 35 8 37 9 38 11 40
REMARK H PARENT 21 20 23 22 32 24 29 26 15 34 13 36 9 39 11 41
REMARK Flexibility Score: inf
ROOT
ATOM      1  O   UNL     1      14.176   0.785   2.673  1.00  0.00    -0.454 OA
ENDROOT
BRANCH   1   2
ATOM      2  C   UNL     1      13.230   0.222   3.542  1.00  0.00     0.214 A 
ATOM      3  C   UNL     1      13.454   0.228   4.922  1.00  0.00     0.180 A 
ATOM      4  O   UNL     1      12.437   0.027   5.752  1.00  0.00    -0.452 OA
ATOM      5  C   UNL     1      11.988  -0.224   3.064  1.00  0.00     0.239 A 
ATOM      6  C   UNL     1      11.219  -0.307   5.356  1.00  0.00     0.146 A 
ATOM      7  O   UNL     1      11.807  -0.338   1.826  1.00  0.00    -0.285 OA
ATOM      8  C   UNL     1      10.949  -0.495   3.977  1.00  0.00     0.111 A 
ATOM      9  C   UNL     1      10.200  -0.457   6.296  1.00  0.00     0.094 A 
ATOM     10  C   UNL     1       9.643  -0.882   3.572  1.00  0.00     0.134 A 
ATOM     11  C   UNL     1       8.906  -0.810   5.886  1.00  0.00     0.123 A 
ATOM     12  C   UNL     1       8.636  -1.030   4.534  1.00  0.00     0.093 A 
BRANCH   3  13
ATOM     13  C   UNL     1      14.813   0.411   5.485  1.00  0.00     0.025 A 
ATOM     14  C   UNL     1      15.720  -0.668   5.523  1.00  0.00     0.016 A 
ATOM     15  C   UNL     1      17.057  -0.459   5.891  1.00  0.00     0.051 A 
ATOM     16  C   UNL     1      17.522   0.843   6.157  1.00  0.00     0.157 A 
ATOM     17  C   UNL     1      15.273   1.702   5.806  1.00  0.00     0.062 A 
ATOM     18  C   UNL     1      16.632   1.924   6.073  1.00  0.00     0.158 A 
BRANCH  16  19
ATOM     19  O   UNL     1      18.864   1.070   6.505  1.00  0.00    -0.504 OA
ATOM     20  H   UNL     1      19.479   0.283   6.694  1.00  0.00     0.293 HD
ENDBRANCH  16  19
BRANCH  18  21
ATOM     21  O   UNL     1      17.098   3.229   6.150  1.00  0.00    -0.504 OA
ATOM     22  H   UNL     1      17.876   3.465   6.759  1.00  0.00     0.293 HD
ENDBRANCH  18  21
ENDBRANCH   3  13
BRANCH  10  23
ATOM     23  O   UNL     1       9.349  -1.122   2.229  1.00  0.00    -0.507 OA
ATOM     24  H   UNL     1       8.624  -0.595   1.740  1.00  0.00     0.293 HD
ENDBRANCH  10  23
BRANCH  11  25
ATOM     25  O   UNL     1       7.875  -0.942   6.816  1.00  0.00    -0.508 OA
ATOM     26  H   UNL     1       6.987  -1.329   6.540  1.00  0.00     0.293 HD
ENDBRANCH  11  25
ENDBRANCH   1   2
BRANCH   1  27
ATOM     27  C   UNL     1      14.143   2.192   2.402  1.00  0.00     0.339 C 
ATOM     28  C   UNL     1      12.728   2.672   1.969  1.00  0.00     0.214 C 
ATOM     29  O   UNL     1      15.215   2.559   1.532  1.00  0.00    -0.332 OA
ATOM     30  C   UNL     1      12.498   2.587   0.453  1.00  0.00     0.180 C 
ATOM     31  C   UNL     1      14.935   2.291   0.169  1.00  0.00     0.179 C 
ATOM     32  C   UNL     1      13.719   3.107  -0.300  1.00  0.00     0.177 C 
BRANCH  28  33
ATOM     33  O   UNL     1      12.543   3.999   2.401  1.00  0.00    -0.384 OA
ATOM     34  H   UNL     1      11.757   4.016   3.003  1.00  0.00     0.211 HD
ENDBRANCH  28  33
BRANCH  30  35
ATOM     35  O   UNL     1      11.361   3.310   0.067  1.00  0.00    -0.387 OA
ATOM     36  H   UNL     1      10.588   2.870   0.509  1.00  0.00     0.211 HD
ENDBRANCH  30  35
BRANCH  31  37
ATOM     37  C   UNL     1      16.167   2.649  -0.685  1.00  0.00     0.191 C 
BRANCH  37  38
ATOM     38  O   UNL     1      16.507   4.003  -0.549  1.00  0.00    -0.394 OA
ATOM     39  H   UNL     1      16.168   4.458  -1.374  1.00  0.00     0.210 HD
ENDBRANCH  37  38
ENDBRANCH  31  37
BRANCH  32  40
ATOM     40  O   UNL     1      13.958   4.480  -0.058  1.00  0.00    -0.387 OA
ATOM     41  H   UNL     1      13.297   4.848   0.578  1.00  0.00     0.211 HD
ENDBRANCH  32  40
ENDBRANCH   1  27
TORSDOF 12
ENDMDL
MODEL 7
REMARK VINA RESULT:    -5.819      2.433      3.822
REMARK INTER + INTRA:          -9.625
REMARK INTER:                  -9.245
REMARK INTRA:                  -0.380
REMARK UNBOUND:                -1.084
REMARK SMILES O=c1c(O[C@H]2O[C@H](CO)[C@H](O)[C@H](O)[C@@H]2O)c(-c2ccc(O)c(O)c2)oc2cc(O)cc(O)c12
REMARK SMILES IDX 4 1 3 2 16 3 25 4 2 5 26 6 1 7 33 8 27 9 31 10 28 11 30 12
REMARK SMILES IDX 17 13 18 14 19 15 20 16 24 17 22 18 21 19 23 21 32 23 29 25
REMARK SMILES IDX 5 27 14 28 6 29 12 30 7 31 10 32 15 33 13 35 8 37 9 38 11 40
REMARK H PARENT 21 20 23 22 32 24 29 26 15 34 13 36 9 39 11 41
REMARK Flexibility Score: inf
ROOT
ATOM      1  O   UNL     1      12.176   1.317   1.554  1.00  0.00    -0.454 OA
ENDROOT
BRANCH   1   2
ATOM      2  C   UNL     1      13.333   1.331   2.347  1.00  0.00     0.214 A 
ATOM      3  C   UNL     1      14.339   2.270   2.104  1.00  0.00     0.180 A 
ATOM      4  O   UNL     1      15.246   2.516   3.043  1.00  0.00    -0.452 OA
ATOM      5  C   UNL     1      13.439   0.508   3.480  1.00  0.00     0.239 A 
ATOM      6  C   UNL     1      15.340   1.834   4.173  1.00  0.00     0.146 A 
ATOM      7  O   UNL     1      12.602  -0.412   3.656  1.00  0.00    -0.285 OA
ATOM      8  C   UNL     1      14.457   0.754   4.423  1.00  0.00     0.111 A 
ATOM      9  C   UNL     1      16.297   2.191   5.122  1.00  0.00     0.094 A 
ATOM     10  C   UNL     1      14.591   0.014   5.630  1.00  0.00     0.134 A 
ATOM     11  C   UNL     1      16.404   1.474   6.323  1.00  0.00     0.123 A 
ATOM     12  C   UNL     1      15.562   0.388   6.566  1.00  0.00     0.093 A 
BRANCH   3  13
ATOM     13  C   UNL     1      14.447   2.969   0.802  1.00  0.00     0.025 A 
ATOM     14  C   UNL     1      15.707   3.163   0.199  1.00  0.00     0.016 A 
ATOM     15  C   UNL     1      15.799   3.665  -1.107  1.00  0.00     0.051 A 
ATOM     16  C   UNL     1      14.631   3.914  -1.854  1.00  0.00     0.157 A 
ATOM     17  C   UNL     1      13.284   3.272   0.068  1.00  0.00     0.062 A 
ATOM     18  C   UNL     1      13.378   3.676  -1.272  1.00  0.00     0.158 A 
BRANCH  16  19
ATOM     19  O   UNL     1      14.709   4.395  -3.170  1.00  0.00    -0.504 OA
ATOM     20  H   UNL     1      15.260   5.225  -3.375  1.00  0.00     0.293 HD
ENDBRANCH  16  19
BRANCH  18  21
ATOM     21  O   UNL     1      12.222   3.736  -2.038  1.00  0.00    -0.504 OA
ATOM     22  H   UNL     1      11.552   2.973  -2.025  1.00  0.00     0.293 HD
ENDBRANCH  18  21
ENDBRANCH   3  13
BRANCH  10  23
ATOM     23  O   UNL     1      13.771  -1.085   5.893  1.00  0.00    -0.507 OA
ATOM     24  H   UNL     1      12.821  -1.142   5.522  1.00  0.00     0.293 HD
ENDBRANCH  10  23
BRANCH  11  25
ATOM     25  O   UNL     1      17.345   1.836   7.287  1.00  0.00    -0.508 OA
ATOM     26  H   UNL     1      17.116   2.520   7.990  1.00  0.00     0.293 HD
ENDBRANCH  11  25
ENDBRANCH   1   2
BRANCH   1  27
ATOM     27  C   UNL     1      10.910   1.647   2.138  1.00  0.00     0.339 C 
ATOM     28  C   UNL     1       9.787   0.666   1.692  1.00  0.00     0.214 C 
ATOM     29  O   UNL     1      10.625   3.036   1.964  1.00  0.00    -0.332 OA
ATOM     30  C   UNL     1       9.074   1.110   0.406  1.00  0.00     0.180 C 
ATOM     31  C   UNL     1      10.110   3.336   0.679  1.00  0.00     0.179 C 
ATOM     32  C   UNL     1       8.776   2.606   0.451  1.00  0.00     0.177 C 
BRANCH  28  33
ATOM     33  O   UNL     1       8.848   0.542   2.734  1.00  0.00    -0.384 OA
ATOM     34  H   UNL     1       9.256   0.913   3.556  1.00  0.00     0.211 HD
ENDBRANCH  28  33
BRANCH  30  35
ATOM     35  O   UNL     1       7.882   0.397   0.211  1.00  0.00    -0.387 OA
ATOM     36  H   UNL     1       7.173   0.905   0.687  1.00  0.00     0.211 HD
ENDBRANCH  30  35
BRANCH  31  37
ATOM     37  C   UNL     1       9.901   4.858   0.557  1.00  0.00     0.191 C 
BRANCH  37  38
ATOM     38  O   UNL     1      10.129   5.302  -0.754  1.00  0.00    -0.394 OA
ATOM     39  H   UNL     1      11.063   5.660  -0.768  1.00  0.00     0.210 HD
ENDBRANCH  37  38
ENDBRANCH  31  37
BRANCH  32  40
ATOM     40  O   UNL     1       7.875   2.947   1.487  1.00  0.00    -0.387 OA
ATOM     41  H   UNL     1       7.690   3.918   1.490  1.00  0.00     0.211 HD
ENDBRANCH  32  40
ENDBRANCH   1  27
TORSDOF 12
ENDMDL
MODEL 8
REMARK VINA RESULT:    -5.767      3.262      5.589
REMARK INTER + INTRA:          -9.548
REMARK INTER:                  -9.312
REMARK INTRA:                  -0.236
REMARK UNBOUND:                -1.084
REMARK SMILES O=c1c(O[C@H]2O[C@H](CO)[C@H](O)[C@H](O)[C@@H]2O)c(-c2ccc(O)c(O)c2)oc2cc(O)cc(O)c12
REMARK SMILES IDX 4 1 3 2 16 3 25 4 2 5 26 6 1 7 33 8 27 9 31 10 28 11 30 12
REMARK SMILES IDX 17 13 18 14 19 15 20 16 24 17 22 18 21 19 23 21 32 23 29 25
REMARK SMILES IDX 5 27 14 28 6 29 12 30 7 31 10 32 15 33 13 35 8 37 9 38 11 40
REMARK H PARENT 21 20 23 22 32 24 29 26 15 34 13 36 9 39 11 41
REMARK Flexibility Score: inf
ROOT
ATOM      1  O   UNL     1      14.017   0.981   3.686  1.00  0.00    -0.454 OA
ENDROOT
BRANCH   1   2
ATOM      2  C   UNL     1      13.474   0.420   4.851  1.00  0.00     0.214 A 
ATOM      3  C   UNL     1      14.194   0.457   6.049  1.00  0.00     0.180 A 
ATOM      4  O   UNL     1      13.561   0.257   7.200  1.00  0.00    -0.452 OA
ATOM      5  C   UNL     1      12.154  -0.055   4.874  1.00  0.00     0.239 A 
ATOM      6  C   UNL     1      12.291  -0.104   7.288  1.00  0.00     0.146 A 
ATOM      7  O   UNL     1      11.528  -0.197   3.793  1.00  0.00    -0.285 OA
ATOM      8  C   UNL     1      11.534  -0.324   6.110  1.00  0.00     0.111 A 
ATOM      9  C   UNL     1      11.697  -0.252   8.541  1.00  0.00     0.094 A 
ATOM     10  C   UNL     1      10.179  -0.740   6.224  1.00  0.00     0.134 A 
ATOM     11  C   UNL     1      10.351  -0.633   8.645  1.00  0.00     0.123 A 
ATOM     12  C   UNL     1       9.604  -0.885   7.493  1.00  0.00     0.093 A 
BRANCH   3  13
ATOM     13  C   UNL     1      15.660   0.673   6.064  1.00  0.00     0.025 A 
ATOM     14  C   UNL     1      16.192   1.968   5.900  1.00  0.00     0.016 A 
ATOM     15  C   UNL     1      17.562   2.202   6.087  1.00  0.00     0.051 A 
ATOM     16  C   UNL     1      18.406   1.158   6.510  1.00  0.00     0.157 A 
ATOM     17  C   UNL     1      16.521  -0.378   6.435  1.00  0.00     0.062 A 
ATOM     18  C   UNL     1      17.870  -0.120   6.721  1.00  0.00     0.158 A 
BRANCH  16  19
ATOM     19  O   UNL     1      19.776   1.383   6.724  1.00  0.00    -0.504 OA
ATOM     20  H   UNL     1      20.138   2.333   6.736  1.00  0.00     0.293 HD
ENDBRANCH  16  19
BRANCH  18  21
ATOM     21  O   UNL     1      18.634  -1.119   7.310  1.00  0.00    -0.504 OA
ATOM     22  H   UNL     1      19.242  -0.909   8.096  1.00  0.00     0.293 HD
ENDBRANCH  18  21
ENDBRANCH   3  13
BRANCH  10  23
ATOM     23  O   UNL     1       9.413  -1.011   5.090  1.00  0.00    -0.507 OA
ATOM     24  H   UNL     1       8.995  -0.261   4.538  1.00  0.00     0.293 HD
ENDBRANCH  10  23
BRANCH  11  25
ATOM     25  O   UNL     1       9.742  -0.763   9.893  1.00  0.00    -0.508 OA
ATOM     26  H   UNL     1      10.195  -1.282  10.629  1.00  0.00     0.293 HD
ENDBRANCH  11  25
ENDBRANCH   1   2
BRANCH   1  27
ATOM     27  C   UNL     1      13.186   1.173   2.535  1.00  0.00     0.339 C 
ATOM     28  C   UNL     1      13.726   0.415   1.289  1.00  0.00     0.214 C 
ATOM     29  O   UNL     1      12.909   2.562   2.344  1.00  0.00    -0.332 OA
ATOM     30  C   UNL     1      14.712   1.248   0.456  1.00  0.00     0.180 C 
ATOM     31  C   UNL     1      13.964   3.249   1.696  1.00  0.00     0.179 C 
ATOM     32  C   UNL     1      14.196   2.674   0.289  1.00  0.00     0.177 C 
BRANCH  28  33
ATOM     33  O   UNL     1      12.640   0.025   0.483  1.00  0.00    -0.384 OA
ATOM     34  H   UNL     1      12.122  -0.656   0.980  1.00  0.00     0.211 HD
ENDBRANCH  28  33
BRANCH  30  35
ATOM     35  O   UNL     1      14.929   0.673  -0.805  1.00  0.00    -0.387 OA
ATOM     36  H   UNL     1      15.753   0.125  -0.722  1.00  0.00     0.211 HD
ENDBRANCH  30  35
BRANCH  31  37
ATOM     37  C   UNL     1      13.611   4.747   1.597  1.00  0.00     0.191 C 
BRANCH  37  38
ATOM     38  O   UNL     1      12.233   4.937   1.423  1.00  0.00    -0.394 OA
ATOM     39  H   UNL     1      11.878   4.076   1.057  1.00  0.00     0.210 HD
ENDBRANCH  37  38
ENDBRANCH  31  37
BRANCH  32  40
ATOM     40  O   UNL     1      12.986   2.728  -0.442  1.00  0.00    -0.387 OA
ATOM     41  H   UNL     1      12.212   2.849   0.162  1.00  0.00     0.211 HD
ENDBRANCH  32  40
ENDBRANCH   1  27
TORSDOF 12
ENDMDL
MODEL 9
REMARK VINA RESULT:    -5.649      2.166      3.694
REMARK INTER + INTRA:          -9.376
REMARK INTER:                  -7.986
REMARK INTRA:                  -1.390
REMARK UNBOUND:                -1.084
REMARK SMILES O=c1c(O[C@H]2O[C@H](CO)[C@H](O)[C@H](O)[C@@H]2O)c(-c2ccc(O)c(O)c2)oc2cc(O)cc(O)c12
REMARK SMILES IDX 4 1 3 2 16 3 25 4 2 5 26 6 1 7 33 8 27 9 31 10 28 11 30 12
REMARK SMILES IDX 17 13 18 14 19 15 20 16 24 17 22 18 21 19 23 21 32 23 29 25
REMARK SMILES IDX 5 27 14 28 6 29 12 30 7 31 10 32 15 33 13 35 8 37 9 38 11 40
REMARK H PARENT 21 20 23 22 32 24 29 26 15 34 13 36 9 39 11 41
REMARK Flexibility Score: inf
ROOT
ATOM      1  O   UNL     1      11.567  -0.233   1.485  1.00  0.00    -0.454 OA
ENDROOT
BRANCH   1   2
ATOM      2  C   UNL     1      12.602   0.050   2.387  1.00  0.00     0.214 A 
ATOM      3  C   UNL     1      13.832   0.522   1.919  1.00  0.00     0.180 A 
ATOM      4  O   UNL     1      14.670   1.114   2.763  1.00  0.00    -0.452 OA
ATOM      5  C   UNL     1      12.382   0.005   3.773  1.00  0.00     0.239 A 
ATOM      6  C   UNL     1      14.473   1.184   4.069  1.00  0.00     0.146 A 
ATOM      7  O   UNL     1      11.327  -0.515   4.215  1.00  0.00    -0.285 OA
ATOM      8  C   UNL     1      13.326   0.583   4.645  1.00  0.00     0.111 A 
ATOM      9  C   UNL     1      15.387   1.863   4.874  1.00  0.00     0.094 A 
ATOM     10  C   UNL     1      13.145   0.642   6.054  1.00  0.00     0.134 A 
ATOM     11  C   UNL     1      15.186   1.943   6.260  1.00  0.00     0.123 A 
ATOM     12  C   UNL     1      14.077   1.327   6.843  1.00  0.00     0.093 A 
BRANCH   3  13
ATOM     13  C   UNL     1      14.245   0.338   0.508  1.00  0.00     0.025 A 
ATOM     14  C   UNL     1      14.234  -0.945  -0.077  1.00  0.00     0.016 A 
ATOM     15  C   UNL     1      14.455  -1.100  -1.453  1.00  0.00     0.051 A 
ATOM     16  C   UNL     1      14.620   0.032  -2.275  1.00  0.00     0.157 A 
ATOM     17  C   UNL     1      14.465   1.461  -0.312  1.00  0.00     0.062 A 
ATOM     18  C   UNL     1      14.583   1.311  -1.702  1.00  0.00     0.158 A 
BRANCH  16  19
ATOM     19  O   UNL     1      14.819  -0.107  -3.658  1.00  0.00    -0.504 OA
ATOM     20  H   UNL     1      15.160  -0.988  -4.035  1.00  0.00     0.293 HD
ENDBRANCH  16  19
BRANCH  18  21
ATOM     21  O   UNL     1      14.560   2.444  -2.504  1.00  0.00    -0.504 OA
ATOM     22  H   UNL     1      14.920   2.412  -3.453  1.00  0.00     0.293 HD
ENDBRANCH  18  21
ENDBRANCH   3  13
BRANCH  10  23
ATOM     23  O   UNL     1      12.053   0.024   6.665  1.00  0.00    -0.507 OA
ATOM     24  H   UNL     1      11.287  -0.368   6.115  1.00  0.00     0.293 HD
ENDBRANCH  10  23
BRANCH  11  25
ATOM     25  O   UNL     1      16.083   2.638   7.071  1.00  0.00    -0.508 OA
ATOM     26  H   UNL     1      16.073   3.645   7.096  1.00  0.00     0.293 HD
ENDBRANCH  11  25
ENDBRANCH   1   2
BRANCH   1  27
ATOM     27  C   UNL     1      10.399   0.597   1.459  1.00  0.00     0.339 C 
ATOM     28  C   UNL     1       9.254  -0.031   0.613  1.00  0.00     0.214 C 
ATOM     29  O   UNL     1      10.749   1.942   1.129  1.00  0.00    -0.332 OA
ATOM     30  C   UNL     1       9.312   0.365  -0.870  1.00  0.00     0.180 C 
ATOM     31  C   UNL     1      10.920   2.141  -0.263  1.00  0.00     0.179 C 
ATOM     32  C   UNL     1       9.607   1.855  -1.012  1.00  0.00     0.177 C 
BRANCH  28  33
ATOM     33  O   UNL     1       8.016   0.360   1.157  1.00  0.00    -0.384 OA
ATOM     34  H   UNL     1       7.507  -0.461   1.374  1.00  0.00     0.211 HD
ENDBRANCH  28  33
BRANCH  30  35
ATOM     35  O   UNL     1       8.114   0.056  -1.529  1.00  0.00    -0.387 OA
ATOM     36  H   UNL     1       8.138   0.545  -2.394  1.00  0.00     0.211 HD
ENDBRANCH  30  35
BRANCH  31  37
ATOM     37  C   UNL     1      11.363   3.595  -0.520  1.00  0.00     0.191 C 
BRANCH  37  38
ATOM     38  O   UNL     1      11.959   3.732  -1.782  1.00  0.00    -0.394 OA
ATOM     39  H   UNL     1      11.808   4.682  -2.058  1.00  0.00     0.210 HD
ENDBRANCH  37  38
ENDBRANCH  31  37
BRANCH  32  40
ATOM     40  O   UNL     1       8.578   2.664  -0.473  1.00  0.00    -0.387 OA
ATOM     41  H   UNL     1       7.848   2.789  -1.128  1.00  0.00     0.211 HD
ENDBRANCH  32  40
ENDBRANCH   1  27
TORSDOF 12
ENDMDL
