MODEL 1
REMARK VINA RESULT:    -3.857      0.000      0.000
REMARK INTER + INTRA:          -8.509
REMARK INTER:                  -6.563
REMARK INTRA:                  -1.946
REMARK UNBOUND:                -1.946
REMARK SMILES CCCCCCCCCCCCCC(=O)[O-]
REMARK SMILES IDX 8 1 9 2 10 3 11 4 12 5 13 6 14 7 15 8 16 9 7 10 6 11 5 12
REMARK SMILES IDX 4 13 3 14 2 15 1 16
REMARK H PARENT
REMARK Flexibility Score: inf
ROOT
ATOM      1  C   UNL     1     176.914 174.689 182.100  1.00  0.00     0.000 C 
ENDROOT
BRANCH   1   2
ATOM      2  C   UNL     1     175.759 173.728 181.753  1.00  0.00     0.000 C 
BRANCH   2   3
ATOM      3  C   UNL     1     174.447 173.995 182.512  1.00  0.00     0.000 C 
BRANCH   3   4
ATOM      4  C   UNL     1     173.398 174.720 181.652  1.00  0.00     0.000 C 
BRANCH   4   5
ATOM      5  C   UNL     1     172.444 175.592 182.487  1.00  0.00     0.006 C 
BRANCH   5   6
ATOM      6  C   UNL     1     172.530 177.095 182.179  1.00  0.00     0.053 C 
BRANCH   6   7
ATOM      7  C   UNL     1     171.595 177.497 181.080  1.00  0.00     0.041 C 
ATOM      8  O   UNL     1     170.391 177.761 181.338  1.00  0.00    -0.550 OA
ATOM      9  O   UNL     1     172.060 177.609 179.776  1.00  0.00    -0.550 OA
ENDBRANCH   6   7
ENDBRANCH   5   6
ENDBRANCH   4   5
ENDBRANCH   3   4
ENDBRANCH   2   3
ENDBRANCH   1   2
BRANCH   1  10
ATOM     10  C   UNL     1     176.581 175.755 183.162  1.00  0.00     0.000 C 
BRANCH  10  11
ATOM     11  C   UNL     1     176.277 177.158 182.600  1.00  0.00    -0.000 C 
BRANCH  11  12
ATOM     12  C   UNL     1     177.370 177.745 181.685  1.00  0.00    -0.000 C 
BRANCH  12  13
ATOM     13  C   UNL     1     176.981 177.857 180.199  1.00  0.00    -0.000 C 
BRANCH  13  14
ATOM     14  C   UNL     1     175.544 177.387 179.924  1.00  0.00    -0.000 C 
BRANCH  14  15
ATOM     15  C   UNL     1     175.488 176.220 178.924  1.00  0.00    -0.003 C 
ATOM     16  C   UNL     1     176.654 176.234 177.937  1.00  0.00     0.004 C 
ENDBRANCH  14  15
ENDBRANCH  13  14
ENDBRANCH  12  13
ENDBRANCH  11  12
ENDBRANCH  10  11
ENDBRANCH   1  10
TORSDOF 12
ENDMDL
MODEL 2
REMARK VINA RESULT:    -3.857      1.993      4.905
REMARK INTER + INTRA:          -8.508
REMARK INTER:                  -6.701
REMARK INTRA:                  -1.807
REMARK UNBOUND:                -1.946
REMARK SMILES CCCCCCCCCCCCCC(=O)[O-]
REMARK SMILES IDX 8 1 9 2 10 3 11 4 12 5 13 6 14 7 15 8 16 9 7 10 6 11 5 12
REMARK SMILES IDX 4 13 3 14 2 15 1 16
REMARK H PARENT
REMARK Flexibility Score: inf
ROOT
ATOM      1  C   UNL     1     175.544 173.828 182.202  1.00  0.00     0.000 C 
ENDROOT
BRANCH   1   2
ATOM      2  C   UNL     1     176.711 174.738 182.635  1.00  0.00     0.000 C 
BRANCH   2   3
ATOM      3  C   UNL     1     176.291 176.016 183.383  1.00  0.00     0.000 C 
BRANCH   3   4
ATOM      4  C   UNL     1     176.601 177.298 182.592  1.00  0.00     0.000 C 
BRANCH   4   5
ATOM      5  C   UNL     1     177.284 177.013 181.242  1.00  0.00     0.006 C 
BRANCH   5   6
ATOM      6  C   UNL     1     176.553 177.608 180.028  1.00  0.00     0.053 C 
BRANCH   6   7
ATOM      7  C   UNL     1     176.352 176.596 178.943  1.00  0.00     0.041 C 
ATOM      8  O   UNL     1     177.205 175.689 178.756  1.00  0.00    -0.550 OA
ATOM      9  O   UNL     1     175.207 176.635 178.157  1.00  0.00    -0.550 OA
ENDBRANCH   6   7
ENDBRANCH   5   6
ENDBRANCH   4   5
ENDBRANCH   3   4
ENDBRANCH   2   3
ENDBRANCH   1   2
BRANCH   1  10
ATOM     10  C   UNL     1     174.139 174.436 182.385  1.00  0.00     0.000 C 
BRANCH  10  11
ATOM     11  C   UNL     1     173.515 175.025 181.105  1.00  0.00    -0.000 C 
BRANCH  11  12
ATOM     12  C   UNL     1     173.200 176.534 181.168  1.00  0.00    -0.000 C 
BRANCH  12  13
ATOM     13  C   UNL     1     172.692 177.033 182.533  1.00  0.00    -0.000 C 
BRANCH  13  14
ATOM     14  C   UNL     1     171.348 177.773 182.433  1.00  0.00    -0.000 C 
BRANCH  14  15
ATOM     15  C   UNL     1     170.251 177.118 183.287  1.00  0.00    -0.003 C 
ATOM     16  C   UNL     1     170.331 175.592 183.280  1.00  0.00     0.004 C 
ENDBRANCH  14  15
ENDBRANCH  13  14
ENDBRANCH  12  13
ENDBRANCH  11  12
ENDBRANCH  10  11
ENDBRANCH   1  10
TORSDOF 12
ENDMDL
MODEL 3
REMARK VINA RESULT:    -3.827      1.187      3.191
REMARK INTER + INTRA:          -8.458
REMARK INTER:                  -6.565
REMARK INTRA:                  -1.893
REMARK UNBOUND:                -1.946
REMARK SMILES CCCCCCCCCCCCCC(=O)[O-]
REMARK SMILES IDX 8 1 9 2 10 3 11 4 12 5 13 6 14 7 15 8 16 9 7 10 6 11 5 12
REMARK SMILES IDX 4 13 3 14 2 15 1 16
REMARK H PARENT
REMARK Flexibility Score: inf
ROOT
ATOM      1  C   UNL     1     176.565 176.433 179.610  1.00  0.00     0.000 C 
ENDROOT
BRANCH   1   2
ATOM      2  C   UNL     1     175.354 176.621 178.673  1.00  0.00     0.000 C 
BRANCH   2   3
ATOM      3  C   UNL     1     174.030 176.044 179.204  1.00  0.00     0.000 C 
BRANCH   3   4
ATOM      4  C   UNL     1     173.352 176.961 180.235  1.00  0.00     0.000 C 
BRANCH   4   5
ATOM      5  C   UNL     1     172.574 176.177 181.307  1.00  0.00     0.006 C 
BRANCH   5   6
ATOM      6  C   UNL     1     172.156 177.018 182.524  1.00  0.00     0.053 C 
BRANCH   6   7
ATOM      7  C   UNL     1     170.688 177.312 182.524  1.00  0.00     0.041 C 
ATOM      8  O   UNL     1     170.094 177.581 181.446  1.00  0.00    -0.550 OA
ATOM      9  O   UNL     1     169.967 177.260 183.711  1.00  0.00    -0.550 OA
ENDBRANCH   6   7
ENDBRANCH   5   6
ENDBRANCH   4   5
ENDBRANCH   3   4
ENDBRANCH   2   3
ENDBRANCH   1   2
BRANCH   1  10
ATOM     10  C   UNL     1     177.056 177.716 180.308  1.00  0.00     0.000 C 
BRANCH  10  11
ATOM     11  C   UNL     1     177.234 177.597 181.835  1.00  0.00    -0.000 C 
BRANCH  11  12
ATOM     12  C   UNL     1     176.036 176.983 182.586  1.00  0.00    -0.000 C 
BRANCH  12  13
ATOM     13  C   UNL     1     176.332 175.653 183.302  1.00  0.00    -0.000 C 
BRANCH  13  14
ATOM     14  C   UNL     1     175.402 174.514 182.852  1.00  0.00    -0.000 C 
BRANCH  14  15
ATOM     15  C   UNL     1     176.081 173.559 181.857  1.00  0.00    -0.003 C 
ATOM     16  C   UNL     1     177.605 173.656 181.893  1.00  0.00     0.004 C 
ENDBRANCH  14  15
ENDBRANCH  13  14
ENDBRANCH  12  13
ENDBRANCH  11  12
ENDBRANCH  10  11
ENDBRANCH   1  10
TORSDOF 12
ENDMDL
MODEL 4
REMARK VINA RESULT:    -3.815      1.609      3.524
REMARK INTER + INTRA:          -8.436
REMARK INTER:                  -6.826
REMARK INTRA:                  -1.610
REMARK UNBOUND:                -1.946
REMARK SMILES CCCCCCCCCCCCCC(=O)[O-]
REMARK SMILES IDX 8 1 9 2 10 3 11 4 12 5 13 6 14 7 15 8 16 9 7 10 6 11 5 12
REMARK SMILES IDX 4 13 3 14 2 15 1 16
REMARK H PARENT
REMARK Flexibility Score: inf
ROOT
ATOM      1  C   UNL     1     173.553 175.671 180.369  1.00  0.00     0.000 C 
ENDROOT
BRANCH   1   2
ATOM      2  C   UNL     1     172.954 176.965 180.957  1.00  0.00     0.000 C 
BRANCH   2   3
ATOM      3  C   UNL     1     172.685 176.922 182.472  1.00  0.00     0.000 C 
BRANCH   3   4
ATOM      4  C   UNL     1     171.665 177.980 182.926  1.00  0.00     0.000 C 
BRANCH   4   5
ATOM      5  C   UNL     1     170.352 177.358 183.436  1.00  0.00     0.006 C 
BRANCH   5   6
ATOM      6  C   UNL     1     169.613 176.503 182.394  1.00  0.00     0.053 C 
BRANCH   6   7
ATOM      7  C   UNL     1     168.916 177.345 181.371  1.00  0.00     0.041 C 
ATOM      8  O   UNL     1     169.517 177.694 180.320  1.00  0.00    -0.550 OA
ATOM      9  O   UNL     1     167.592 177.720 181.562  1.00  0.00    -0.550 OA
ENDBRANCH   6   7
ENDBRANCH   5   6
ENDBRANCH   4   5
ENDBRANCH   3   4
ENDBRANCH   2   3
ENDBRANCH   1   2
BRANCH   1  10
ATOM     10  C   UNL     1     174.814 175.870 179.506  1.00  0.00     0.000 C 
BRANCH  10  11
ATOM     11  C   UNL     1     175.211 177.340 179.264  1.00  0.00    -0.000 C 
BRANCH  11  12
ATOM     12  C   UNL     1     176.564 177.759 179.875  1.00  0.00    -0.000 C 
BRANCH  12  13
ATOM     13  C   UNL     1     177.077 176.844 181.002  1.00  0.00    -0.000 C 
BRANCH  13  14
ATOM     14  C   UNL     1     176.810 177.418 182.403  1.00  0.00    -0.000 C 
BRANCH  14  15
ATOM     15  C   UNL     1     176.166 176.391 183.348  1.00  0.00    -0.003 C 
ATOM     16  C   UNL     1     176.293 174.958 182.833  1.00  0.00     0.004 C 
ENDBRANCH  14  15
ENDBRANCH  13  14
ENDBRANCH  12  13
ENDBRANCH  11  12
ENDBRANCH  10  11
ENDBRANCH   1  10
TORSDOF 12
ENDMDL
MODEL 5
REMARK VINA RESULT:    -3.772      0.987      2.923
REMARK INTER + INTRA:          -8.364
REMARK INTER:                  -6.252
REMARK INTRA:                  -2.112
REMARK UNBOUND:                -1.946
REMARK SMILES CCCCCCCCCCCCCC(=O)[O-]
REMARK SMILES IDX 8 1 9 2 10 3 11 4 12 5 13 6 14 7 15 8 16 9 7 10 6 11 5 12
REMARK SMILES IDX 4 13 3 14 2 15 1 16
REMARK H PARENT
REMARK Flexibility Score: inf
ROOT
ATOM      1  C   UNL     1     175.308 176.004 179.232  1.00  0.00     0.000 C 
ENDROOT
BRANCH   1   2
ATOM      2  C   UNL     1     174.033 176.557 179.901  1.00  0.00     0.000 C 
BRANCH   2   3
ATOM      3  C   UNL     1     173.142 175.497 180.572  1.00  0.00     0.000 C 
BRANCH   3   4
ATOM      4  C   UNL     1     172.907 175.775 182.066  1.00  0.00     0.000 C 
BRANCH   4   5
ATOM      5  C   UNL     1     172.942 177.277 182.404  1.00  0.00     0.006 C 
BRANCH   5   6
ATOM      6  C   UNL     1     171.593 177.850 182.866  1.00  0.00     0.053 C 
BRANCH   6   7
ATOM      7  C   UNL     1     170.480 177.485 181.933  1.00  0.00     0.041 C 
ATOM      8  O   UNL     1     169.529 176.761 182.331  1.00  0.00    -0.550 OA
ATOM      9  O   UNL     1     170.476 177.968 180.630  1.00  0.00    -0.550 OA
ENDBRANCH   6   7
ENDBRANCH   5   6
ENDBRANCH   4   5
ENDBRANCH   3   4
ENDBRANCH   2   3
ENDBRANCH   1   2
BRANCH   1  10
ATOM     10  C   UNL     1     176.466 177.012 179.100  1.00  0.00     0.000 C 
BRANCH  10  11
ATOM     11  C   UNL     1     176.717 177.881 180.348  1.00  0.00    -0.000 C 
BRANCH  11  12
ATOM     12  C   UNL     1     177.366 177.144 181.536  1.00  0.00    -0.000 C 
BRANCH  12  13
ATOM     13  C   UNL     1     176.495 177.062 182.803  1.00  0.00    -0.000 C 
BRANCH  13  14
ATOM     14  C   UNL     1     176.245 175.616 183.261  1.00  0.00    -0.000 C 
BRANCH  14  15
ATOM     15  C   UNL     1     176.866 174.581 182.309  1.00  0.00    -0.003 C 
ATOM     16  C   UNL     1     175.909 173.437 181.976  1.00  0.00     0.004 C 
ENDBRANCH  14  15
ENDBRANCH  13  14
ENDBRANCH  12  13
ENDBRANCH  11  12
ENDBRANCH  10  11
ENDBRANCH   1  10
TORSDOF 12
ENDMDL
MODEL 6
REMARK VINA RESULT:    -3.732      0.843      1.606
REMARK INTER + INTRA:          -8.296
REMARK INTER:                  -6.500
REMARK INTRA:                  -1.796
REMARK UNBOUND:                -1.946
REMARK SMILES CCCCCCCCCCCCCC(=O)[O-]
REMARK SMILES IDX 8 1 9 2 10 3 11 4 12 5 13 6 14 7 15 8 16 9 7 10 6 11 5 12
REMARK SMILES IDX 4 13 3 14 2 15 1 16
REMARK H PARENT
REMARK Flexibility Score: inf
ROOT
ATOM      1  C   UNL     1     175.478 174.051 181.924  1.00  0.00     0.000 C 
ENDROOT
BRANCH   1   2
ATOM      2  C   UNL     1     174.259 174.001 182.867  1.00  0.00     0.000 C 
BRANCH   2   3
ATOM      3  C   UNL     1     173.124 174.977 182.508  1.00  0.00     0.000 C 
BRANCH   3   4
ATOM      4  C   UNL     1     173.270 175.566 181.095  1.00  0.00     0.000 C 
BRANCH   4   5
ATOM      5  C   UNL     1     172.963 177.074 181.044  1.00  0.00     0.006 C 
BRANCH   5   6
ATOM      6  C   UNL     1     171.559 177.448 181.544  1.00  0.00     0.053 C 
BRANCH   6   7
ATOM      7  C   UNL     1     170.638 177.802 180.417  1.00  0.00     0.041 C 
ATOM      8  O   UNL     1     171.107 178.125 179.294  1.00  0.00    -0.550 OA
ATOM      9  O   UNL     1     169.262 177.747 180.598  1.00  0.00    -0.550 OA
ENDBRANCH   6   7
ENDBRANCH   5   6
ENDBRANCH   4   5
ENDBRANCH   3   4
ENDBRANCH   2   3
ENDBRANCH   1   2
BRANCH   1  10
ATOM     10  C   UNL     1     176.703 174.802 182.481  1.00  0.00     0.000 C 
BRANCH  10  11
ATOM     11  C   UNL     1     176.374 176.075 183.286  1.00  0.00    -0.000 C 
BRANCH  11  12
ATOM     12  C   UNL     1     176.327 177.376 182.459  1.00  0.00    -0.000 C 
BRANCH  12  13
ATOM     13  C   UNL     1     177.355 177.454 181.315  1.00  0.00    -0.000 C 
BRANCH  13  14
ATOM     14  C   UNL     1     176.699 177.639 179.937  1.00  0.00    -0.000 C 
BRANCH  14  15
ATOM     15  C   UNL     1     176.580 176.318 179.160  1.00  0.00    -0.003 C 
ATOM     16  C   UNL     1     175.423 176.323 178.162  1.00  0.00     0.004 C 
ENDBRANCH  14  15
ENDBRANCH  13  14
ENDBRANCH  12  13
ENDBRANCH  11  12
ENDBRANCH  10  11
ENDBRANCH   1  10
TORSDOF 12
ENDMDL
MODEL 7
REMARK VINA RESULT:    -3.712      1.974      5.378
REMARK INTER + INTRA:          -8.262
REMARK INTER:                  -6.869
REMARK INTRA:                  -1.393
REMARK UNBOUND:                -1.946
REMARK SMILES CCCCCCCCCCCCCC(=O)[O-]
REMARK SMILES IDX 8 1 9 2 10 3 11 4 12 5 13 6 14 7 15 8 16 9 7 10 6 11 5 12
REMARK SMILES IDX 4 13 3 14 2 15 1 16
REMARK H PARENT
REMARK Flexibility Score: inf
ROOT
ATOM      1  C   UNL     1     173.518 175.837 182.314  1.00  0.00     0.000 C 
ENDROOT
BRANCH   1   2
ATOM      2  C   UNL     1     174.767 175.090 182.823  1.00  0.00     0.000 C 
BRANCH   2   3
ATOM      3  C   UNL     1     175.945 175.997 183.223  1.00  0.00     0.000 C 
BRANCH   3   4
ATOM      4  C   UNL     1     177.001 176.126 182.113  1.00  0.00     0.000 C 
BRANCH   4   5
ATOM      5  C   UNL     1     177.070 177.545 181.520  1.00  0.00     0.006 C 
BRANCH   5   6
ATOM      6  C   UNL     1     177.071 177.586 179.983  1.00  0.00     0.053 C 
BRANCH   6   7
ATOM      7  C   UNL     1     175.801 177.039 179.408  1.00  0.00     0.041 C 
ATOM      8  O   UNL     1     175.762 175.861 178.964  1.00  0.00    -0.550 OA
ATOM      9  O   UNL     1     174.653 177.819 179.388  1.00  0.00    -0.550 OA
ENDBRANCH   6   7
ENDBRANCH   5   6
ENDBRANCH   4   5
ENDBRANCH   3   4
ENDBRANCH   2   3
ENDBRANCH   1   2
BRANCH   1  10
ATOM     10  C   UNL     1     173.474 177.341 182.651  1.00  0.00     0.000 C 
BRANCH  10  11
ATOM     11  C   UNL     1     172.059 177.945 182.742  1.00  0.00    -0.000 C 
BRANCH  11  12
ATOM     12  C   UNL     1     171.033 177.356 181.753  1.00  0.00    -0.000 C 
BRANCH  12  13
ATOM     13  C   UNL     1     169.662 177.015 182.365  1.00  0.00    -0.000 C 
BRANCH  13  14
ATOM     14  C   UNL     1     169.498 175.515 182.660  1.00  0.00    -0.000 C 
BRANCH  14  15
ATOM     15  C   UNL     1     170.263 175.076 183.919  1.00  0.00    -0.003 C 
ATOM     16  C   UNL     1     170.816 173.656 183.807  1.00  0.00     0.004 C 
ENDBRANCH  14  15
ENDBRANCH  13  14
ENDBRANCH  12  13
ENDBRANCH  11  12
ENDBRANCH  10  11
ENDBRANCH   1  10
TORSDOF 12
ENDMDL
MODEL 8
REMARK VINA RESULT:    -3.692      1.230      3.218
REMARK INTER + INTRA:          -8.228
REMARK INTER:                  -6.351
REMARK INTRA:                  -1.877
REMARK UNBOUND:                -1.946
REMARK SMILES CCCCCCCCCCCCCC(=O)[O-]
REMARK SMILES IDX 8 1 9 2 10 3 11 4 12 5 13 6 14 7 15 8 16 9 7 10 6 11 5 12
REMARK SMILES IDX 4 13 3 14 2 15 1 16
REMARK H PARENT
REMARK Flexibility Score: inf
ROOT
ATOM      1  C   UNL     1     177.256 177.745 181.609  1.00  0.00     0.000 C 
ENDROOT
BRANCH   1   2
ATOM      2  C   UNL     1     177.085 176.336 182.212  1.00  0.00     0.000 C 
BRANCH   2   3
ATOM      3  C   UNL     1     176.001 176.225 183.299  1.00  0.00     0.000 C 
BRANCH   3   4
ATOM      4  C   UNL     1     175.015 175.073 183.041  1.00  0.00     0.000 C 
BRANCH   4   5
ATOM      5  C   UNL     1     173.634 175.566 182.572  1.00  0.00     0.006 C 
BRANCH   5   6
ATOM      6  C   UNL     1     173.465 177.093 182.608  1.00  0.00     0.053 C 
BRANCH   6   7
ATOM      7  C   UNL     1     172.206 177.534 181.926  1.00  0.00     0.041 C 
ATOM      8  O   UNL     1     172.228 177.877 180.714  1.00  0.00    -0.550 OA
ATOM      9  O   UNL     1     171.003 177.538 182.620  1.00  0.00    -0.550 OA
ENDBRANCH   6   7
ENDBRANCH   5   6
ENDBRANCH   4   5
ENDBRANCH   3   4
ENDBRANCH   2   3
ENDBRANCH   1   2
BRANCH   1  10
ATOM     10  C   UNL     1     176.919 177.857 180.109  1.00  0.00     0.000 C 
BRANCH  10  11
ATOM     11  C   UNL     1     175.651 177.099 179.669  1.00  0.00    -0.000 C 
BRANCH  11  12
ATOM     12  C   UNL     1     175.906 175.846 178.807  1.00  0.00    -0.000 C 
BRANCH  12  13
ATOM     13  C   UNL     1     175.264 174.551 179.337  1.00  0.00    -0.000 C 
BRANCH  13  14
ATOM     14  C   UNL     1     176.300 173.548 179.869  1.00  0.00    -0.000 C 
BRANCH  14  15
ATOM     15  C   UNL     1     175.667 172.460 180.752  1.00  0.00    -0.003 C 
ATOM     16  C   UNL     1     176.671 171.818 181.708  1.00  0.00     0.004 C 
ENDBRANCH  14  15
ENDBRANCH  13  14
ENDBRANCH  12  13
ENDBRANCH  11  12
ENDBRANCH  10  11
ENDBRANCH   1  10
TORSDOF 12
ENDMDL
MODEL 9
REMARK VINA RESULT:    -3.670      3.281      4.523
REMARK INTER + INTRA:          -8.190
REMARK INTER:                  -6.204
REMARK INTRA:                  -1.987
REMARK UNBOUND:                -1.946
REMARK SMILES CCCCCCCCCCCCCC(=O)[O-]
REMARK SMILES IDX 8 1 9 2 10 3 11 4 12 5 13 6 14 7 15 8 16 9 7 10 6 11 5 12
REMARK SMILES IDX 4 13 3 14 2 15 1 16
REMARK H PARENT
REMARK Flexibility Score: inf
ROOT
ATOM      1  C   UNL     1     174.329 176.854 182.524  1.00  0.00     0.000 C 
ENDROOT
BRANCH   1   2
ATOM      2  C   UNL     1     173.494 175.592 182.224  1.00  0.00     0.000 C 
BRANCH   2   3
ATOM      3  C   UNL     1     173.999 174.307 182.903  1.00  0.00     0.000 C 
BRANCH   3   4
ATOM      4  C   UNL     1     174.472 173.247 181.894  1.00  0.00     0.000 C 
BRANCH   4   5
ATOM      5  C   UNL     1     176.000 173.058 181.902  1.00  0.00     0.006 C 
BRANCH   5   6
ATOM      6  C   UNL     1     176.581 172.568 180.566  1.00  0.00     0.053 C 
BRANCH   6   7
ATOM      7  C   UNL     1     176.499 171.078 180.432  1.00  0.00     0.041 C 
ATOM      8  O   UNL     1     175.644 170.556 179.669  1.00  0.00    -0.550 OA
ATOM      9  O   UNL     1     177.387 170.267 181.127  1.00  0.00    -0.550 OA
ENDBRANCH   6   7
ENDBRANCH   5   6
ENDBRANCH   4   5
ENDBRANCH   3   4
ENDBRANCH   2   3
ENDBRANCH   1   2
BRANCH   1  10
ATOM     10  C   UNL     1     175.673 176.594 183.233  1.00  0.00     0.000 C 
BRANCH  10  11
ATOM     11  C   UNL     1     176.897 176.524 182.298  1.00  0.00    -0.000 C 
BRANCH  11  12
ATOM     12  C   UNL     1     177.150 177.793 181.459  1.00  0.00    -0.000 C 
BRANCH  12  13
ATOM     13  C   UNL     1     177.047 177.593 179.936  1.00  0.00    -0.000 C 
BRANCH  13  14
ATOM     14  C   UNL     1     176.688 176.150 179.547  1.00  0.00    -0.000 C 
BRANCH  14  15
ATOM     15  C   UNL     1     175.248 176.021 179.025  1.00  0.00    -0.003 C 
ATOM     16  C   UNL     1     174.583 177.377 178.791  1.00  0.00     0.004 C 
ENDBRANCH  14  15
ENDBRANCH  13  14
ENDBRANCH  12  13
ENDBRANCH  11  12
ENDBRANCH  10  11
ENDBRANCH   1  10
TORSDOF 12
ENDMDL
