MODEL 1
REMARK VINA RESULT:     7.406      0.000      0.000
REMARK INTER + INTRA:          17.808
REMARK INTER:                  19.528
REMARK INTRA:                  -1.719
REMARK UNBOUND:                -1.719
REMARK SMILES CCCCCCCCCCCCCCCCCCCCCCCCCCCCCC(=O)[O-]
REMARK SMILES IDX 16 1 17 2 18 3 19 4 20 5 21 6 22 7 23 8 24 9 25 10 26 11
REMARK SMILES IDX 27 12 28 13 29 14 30 15 31 16 32 17 15 18 14 19 13 20 12 21
REMARK SMILES IDX 11 22 10 23 9 24 8 25 7 26 6 27 5 28 4 29 3 30 2 31 1 32
REMARK H PARENT
REMARK Flexibility Score: inf
ROOT
ATOM      1  C   UNL     1     -54.872 121.535 -11.532  1.00  0.00     0.000 C 
ENDROOT
BRANCH   1   2
ATOM      2  C   UNL     1     -56.367 121.249 -11.314  1.00  0.00     0.000 C 
BRANCH   2   3
ATOM      3  C   UNL     1     -56.714 120.996  -9.836  1.00  0.00     0.000 C 
BRANCH   3   4
ATOM      4  C   UNL     1     -57.902 120.030  -9.633  1.00  0.00     0.000 C 
BRANCH   4   5
ATOM      5  C   UNL     1     -57.574 118.888  -8.656  1.00  0.00     0.000 C 
BRANCH   5   6
ATOM      6  C   UNL     1     -58.204 119.084  -7.263  1.00  0.00     0.000 C 
BRANCH   6   7
ATOM      7  C   UNL     1     -58.933 117.855  -6.688  1.00  0.00     0.000 C 
BRANCH   7   8
ATOM      8  C   UNL     1     -59.543 118.111  -5.299  1.00  0.00     0.000 C 
BRANCH   8   9
ATOM      9  C   UNL     1     -58.824 119.233  -4.534  1.00  0.00     0.000 C 
BRANCH   9  10
ATOM     10  C   UNL     1     -59.706 119.883  -3.458  1.00  0.00     0.000 C 
BRANCH  10  11
ATOM     11  C   UNL     1     -58.874 120.272  -2.229  1.00  0.00     0.000 C 
BRANCH  11  12
ATOM     12  C   UNL     1     -58.388 121.724  -2.332  1.00  0.00     0.000 C 
BRANCH  12  13
ATOM     13  C   UNL     1     -59.401 122.651  -3.024  1.00  0.00     0.006 C 
BRANCH  13  14
ATOM     14  C   UNL     1     -59.926 123.786  -2.126  1.00  0.00     0.053 C 
BRANCH  14  15
ATOM     15  C   UNL     1     -60.765 123.279  -0.992  1.00  0.00     0.041 C 
ATOM     16  O   UNL     1     -61.346 122.166  -1.080  1.00  0.00    -0.550 OA
ATOM     17  O   UNL     1     -60.880 124.022   0.176  1.00  0.00    -0.550 OA
ENDBRANCH  14  15
ENDBRANCH  13  14
ENDBRANCH  12  13
ENDBRANCH  11  12
ENDBRANCH  10  11
ENDBRANCH   9  10
ENDBRANCH   8   9
ENDBRANCH   7   8
ENDBRANCH   6   7
ENDBRANCH   5   6
ENDBRANCH   4   5
ENDBRANCH   3   4
ENDBRANCH   2   3
ENDBRANCH   1   2
BRANCH   1  18
ATOM     18  C   UNL     1     -54.590 122.995 -11.925  1.00  0.00     0.000 C 
BRANCH  18  19
ATOM     19  C   UNL     1     -53.913 123.844 -10.831  1.00  0.00     0.000 C 
BRANCH  19  20
ATOM     20  C   UNL     1     -53.694 123.095  -9.497  1.00  0.00     0.000 C 
BRANCH  20  21
ATOM     21  C   UNL     1     -52.653 123.757  -8.570  1.00  0.00     0.000 C 
BRANCH  21  22
ATOM     22  C   UNL     1     -51.229 123.177  -8.697  1.00  0.00     0.000 C 
BRANCH  22  23
ATOM     23  C   UNL     1     -50.108 124.200  -8.427  1.00  0.00     0.000 C 
BRANCH  23  24
ATOM     24  C   UNL     1     -49.151 124.354  -9.623  1.00  0.00    -0.000 C 
BRANCH  24  25
ATOM     25  C   UNL     1     -49.806 123.979 -10.966  1.00  0.00    -0.000 C 
BRANCH  25  26
ATOM     26  C   UNL     1     -48.876 123.261 -11.961  1.00  0.00    -0.000 C 
BRANCH  26  27
ATOM     27  C   UNL     1     -48.895 121.734 -11.801  1.00  0.00    -0.000 C 
BRANCH  27  28
ATOM     28  C   UNL     1     -50.130 121.287 -11.008  1.00  0.00    -0.000 C 
BRANCH  28  29
ATOM     29  C   UNL     1     -51.379 121.104 -11.889  1.00  0.00    -0.000 C 
BRANCH  29  30
ATOM     30  C   UNL     1     -52.367 120.029 -11.403  1.00  0.00    -0.000 C 
BRANCH  30  31
ATOM     31  C   UNL     1     -52.595 120.067  -9.886  1.00  0.00    -0.003 C 
ATOM     32  C   UNL     1     -53.042 118.705  -9.362  1.00  0.00     0.004 C 
ENDBRANCH  30  31
ENDBRANCH  29  30
ENDBRANCH  28  29
ENDBRANCH  27  28
ENDBRANCH  26  27
ENDBRANCH  25  26
ENDBRANCH  24  25
ENDBRANCH  23  24
ENDBRANCH  22  23
ENDBRANCH  21  22
ENDBRANCH  20  21
ENDBRANCH  19  20
ENDBRANCH  18  19
ENDBRANCH   1  18
TORSDOF 28
ENDMDL
MODEL 2
REMARK VINA RESULT:     7.673      3.049      9.958
REMARK INTER + INTRA:          18.514
REMARK INTER:                  20.564
REMARK INTRA:                  -2.049
REMARK UNBOUND:                -1.719
REMARK SMILES CCCCCCCCCCCCCCCCCCCCCCCCCCCCCC(=O)[O-]
REMARK SMILES IDX 16 1 17 2 18 3 19 4 20 5 21 6 22 7 23 8 24 9 25 10 26 11
REMARK SMILES IDX 27 12 28 13 29 14 30 15 31 16 32 17 15 18 14 19 13 20 12 21
REMARK SMILES IDX 11 22 10 23 9 24 8 25 7 26 6 27 5 28 4 29 3 30 2 31 1 32
REMARK H PARENT
REMARK Flexibility Score: inf
ROOT
ATOM      1  C   UNL     1     -54.187 121.209 -12.113  1.00  0.00     0.000 C 
ENDROOT
BRANCH   1   2
ATOM      2  C   UNL     1     -54.655 122.668 -11.986  1.00  0.00     0.000 C 
BRANCH   2   3
ATOM      3  C   UNL     1     -53.734 123.512 -11.087  1.00  0.00     0.000 C 
BRANCH   3   4
ATOM      4  C   UNL     1     -53.602 122.967  -9.647  1.00  0.00     0.000 C 
BRANCH   4   5
ATOM      5  C   UNL     1     -53.492 124.089  -8.599  1.00  0.00     0.000 C 
BRANCH   5   6
ATOM      6  C   UNL     1     -52.167 124.055  -7.813  1.00  0.00     0.000 C 
BRANCH   6   7
ATOM      7  C   UNL     1     -51.000 123.337  -8.517  1.00  0.00     0.000 C 
BRANCH   7   8
ATOM      8  C   UNL     1     -49.985 124.308  -9.143  1.00  0.00     0.000 C 
BRANCH   8   9
ATOM      9  C   UNL     1     -49.142 123.652 -10.248  1.00  0.00     0.000 C 
BRANCH   9  10
ATOM     10  C   UNL     1     -49.958 123.319 -11.505  1.00  0.00     0.000 C 
BRANCH  10  11
ATOM     11  C   UNL     1     -49.911 121.815 -11.806  1.00  0.00     0.000 C 
BRANCH  11  12
ATOM     12  C   UNL     1     -49.331 121.035 -10.619  1.00  0.00     0.000 C 
BRANCH  12  13
ATOM     13  C   UNL     1     -50.411 120.515  -9.654  1.00  0.00     0.006 C 
BRANCH  13  14
ATOM     14  C   UNL     1     -51.800 120.353 -10.299  1.00  0.00     0.053 C 
BRANCH  14  15
ATOM     15  C   UNL     1     -52.833 119.875  -9.323  1.00  0.00     0.041 C 
ATOM     16  O   UNL     1     -53.531 118.861  -9.585  1.00  0.00    -0.550 OA
ATOM     17  O   UNL     1     -53.004 120.532  -8.111  1.00  0.00    -0.550 OA
ENDBRANCH  14  15
ENDBRANCH  13  14
ENDBRANCH  12  13
ENDBRANCH  11  12
ENDBRANCH  10  11
ENDBRANCH   9  10
ENDBRANCH   8   9
ENDBRANCH   7   8
ENDBRANCH   6   7
ENDBRANCH   5   6
ENDBRANCH   4   5
ENDBRANCH   3   4
ENDBRANCH   2   3
ENDBRANCH   1   2
BRANCH   1  18
ATOM     18  C   UNL     1     -55.351 120.204 -12.125  1.00  0.00     0.000 C 
BRANCH  18  19
ATOM     19  C   UNL     1     -56.752 120.828 -11.971  1.00  0.00     0.000 C 
BRANCH  19  20
ATOM     20  C   UNL     1     -57.361 120.668 -10.560  1.00  0.00     0.000 C 
BRANCH  20  21
ATOM     21  C   UNL     1     -56.919 121.757  -9.559  1.00  0.00     0.000 C 
BRANCH  21  22
ATOM     22  C   UNL     1     -56.545 121.222  -8.162  1.00  0.00     0.000 C 
BRANCH  22  23
ATOM     23  C   UNL     1     -57.322 119.958  -7.744  1.00  0.00     0.000 C 
BRANCH  23  24
ATOM     24  C   UNL     1     -57.405 119.797  -6.215  1.00  0.00    -0.000 C 
BRANCH  24  25
ATOM     25  C   UNL     1     -58.294 118.616  -5.783  1.00  0.00    -0.000 C 
BRANCH  25  26
ATOM     26  C   UNL     1     -59.426 118.981  -4.807  1.00  0.00    -0.000 C 
BRANCH  26  27
ATOM     27  C   UNL     1     -58.921 119.273  -3.388  1.00  0.00    -0.000 C 
BRANCH  27  28
ATOM     28  C   UNL     1     -60.043 119.866  -2.523  1.00  0.00    -0.000 C 
BRANCH  28  29
ATOM     29  C   UNL     1     -59.567 121.024  -1.628  1.00  0.00    -0.000 C 
BRANCH  29  30
ATOM     30  C   UNL     1     -58.738 122.103  -2.347  1.00  0.00    -0.000 C 
BRANCH  30  31
ATOM     31  C   UNL     1     -59.591 123.275  -2.852  1.00  0.00    -0.003 C 
ATOM     32  C   UNL     1     -59.496 123.408  -4.370  1.00  0.00     0.004 C 
ENDBRANCH  30  31
ENDBRANCH  29  30
ENDBRANCH  28  29
ENDBRANCH  27  28
ENDBRANCH  26  27
ENDBRANCH  25  26
ENDBRANCH  24  25
ENDBRANCH  23  24
ENDBRANCH  22  23
ENDBRANCH  21  22
ENDBRANCH  20  21
ENDBRANCH  19  20
ENDBRANCH  18  19
ENDBRANCH   1  18
TORSDOF 28
ENDMDL
MODEL 3
REMARK VINA RESULT:     8.078      1.085      2.035
REMARK INTER + INTRA:          19.582
REMARK INTER:                  18.716
REMARK INTRA:                   0.866
REMARK UNBOUND:                -1.719
REMARK SMILES CCCCCCCCCCCCCCCCCCCCCCCCCCCCCC(=O)[O-]
REMARK SMILES IDX 16 1 17 2 18 3 19 4 20 5 21 6 22 7 23 8 24 9 25 10 26 11
REMARK SMILES IDX 27 12 28 13 29 14 30 15 31 16 32 17 15 18 14 19 13 20 12 21
REMARK SMILES IDX 11 22 10 23 9 24 8 25 7 26 6 27 5 28 4 29 3 30 2 31 1 32
REMARK H PARENT
REMARK Flexibility Score: inf
ROOT
ATOM      1  C   UNL     1     -56.329 121.492  -8.468  1.00  0.00     0.000 C 
ENDROOT
BRANCH   1   2
ATOM      2  C   UNL     1     -56.756 122.183  -9.774  1.00  0.00     0.000 C 
BRANCH   2   3
ATOM      3  C   UNL     1     -55.935 121.716 -10.990  1.00  0.00     0.000 C 
BRANCH   3   4
ATOM      4  C   UNL     1     -56.350 120.327 -11.524  1.00  0.00     0.000 C 
BRANCH   4   5
ATOM      5  C   UNL     1     -57.636 119.800 -10.862  1.00  0.00     0.000 C 
BRANCH   5   6
ATOM      6  C   UNL     1     -57.362 118.913  -9.631  1.00  0.00     0.000 C 
BRANCH   6   7
ATOM      7  C   UNL     1     -58.334 119.103  -8.451  1.00  0.00     0.000 C 
BRANCH   7   8
ATOM      8  C   UNL     1     -58.101 118.097  -7.311  1.00  0.00     0.000 C 
BRANCH   8   9
ATOM      9  C   UNL     1     -59.413 117.582  -6.699  1.00  0.00     0.000 C 
BRANCH   9  10
ATOM     10  C   UNL     1     -59.550 117.917  -5.207  1.00  0.00     0.000 C 
BRANCH  10  11
ATOM     11  C   UNL     1     -58.579 119.034  -4.805  1.00  0.00     0.000 C 
BRANCH  11  12
ATOM     12  C   UNL     1     -59.339 120.263  -4.289  1.00  0.00     0.000 C 
BRANCH  12  13
ATOM     13  C   UNL     1     -58.766 120.816  -2.972  1.00  0.00     0.006 C 
BRANCH  13  14
ATOM     14  C   UNL     1     -59.837 121.190  -1.932  1.00  0.00     0.053 C 
BRANCH  14  15
ATOM     15  C   UNL     1     -59.967 122.672  -1.747  1.00  0.00     0.041 C 
ATOM     16  O   UNL     1     -59.609 123.459  -2.662  1.00  0.00    -0.550 OA
ATOM     17  O   UNL     1     -60.513 123.183  -0.577  1.00  0.00    -0.550 OA
ENDBRANCH  14  15
ENDBRANCH  13  14
ENDBRANCH  12  13
ENDBRANCH  11  12
ENDBRANCH  10  11
ENDBRANCH   9  10
ENDBRANCH   8   9
ENDBRANCH   7   8
ENDBRANCH   6   7
ENDBRANCH   5   6
ENDBRANCH   4   5
ENDBRANCH   3   4
ENDBRANCH   2   3
ENDBRANCH   1   2
BRANCH   1  18
ATOM     18  C   UNL     1     -54.864 121.774  -8.090  1.00  0.00     0.000 C 
BRANCH  18  19
ATOM     19  C   UNL     1     -54.181 122.882  -8.915  1.00  0.00     0.000 C 
BRANCH  19  20
ATOM     20  C   UNL     1     -52.939 123.499  -8.234  1.00  0.00     0.000 C 
BRANCH  20  21
ATOM     21  C   UNL     1     -51.663 123.458  -9.101  1.00  0.00     0.000 C 
BRANCH  21  22
ATOM     22  C   UNL     1     -50.460 124.212  -8.498  1.00  0.00     0.000 C 
BRANCH  22  23
ATOM     23  C   UNL     1     -49.134 123.983  -9.251  1.00  0.00     0.000 C 
BRANCH  23  24
ATOM     24  C   UNL     1     -48.904 125.019 -10.366  1.00  0.00    -0.000 C 
BRANCH  24  25
ATOM     25  C   UNL     1     -49.316 124.502 -11.758  1.00  0.00    -0.000 C 
BRANCH  25  26
ATOM     26  C   UNL     1     -48.877 123.061 -12.069  1.00  0.00    -0.000 C 
BRANCH  26  27
ATOM     27  C   UNL     1     -49.531 122.024 -11.145  1.00  0.00    -0.000 C 
BRANCH  27  28
ATOM     28  C   UNL     1     -50.327 120.995 -11.961  1.00  0.00    -0.000 C 
BRANCH  28  29
ATOM     29  C   UNL     1     -51.835 121.301 -12.010  1.00  0.00    -0.000 C 
BRANCH  29  30
ATOM     30  C   UNL     1     -52.573 121.151 -10.668  1.00  0.00    -0.000 C 
BRANCH  30  31
ATOM     31  C   UNL     1     -52.395 119.762 -10.039  1.00  0.00    -0.003 C 
ATOM     32  C   UNL     1     -53.737 119.049  -9.894  1.00  0.00     0.004 C 
ENDBRANCH  30  31
ENDBRANCH  29  30
ENDBRANCH  28  29
ENDBRANCH  27  28
ENDBRANCH  26  27
ENDBRANCH  25  26
ENDBRANCH  24  25
ENDBRANCH  23  24
ENDBRANCH  22  23
ENDBRANCH  21  22
ENDBRANCH  20  21
ENDBRANCH  19  20
ENDBRANCH  18  19
ENDBRANCH   1  18
TORSDOF 28
ENDMDL
MODEL 4
REMARK VINA RESULT:     8.538      3.117     10.657
REMARK INTER + INTRA:          20.793
REMARK INTER:                  21.105
REMARK INTRA:                  -0.312
REMARK UNBOUND:                -1.719
REMARK SMILES CCCCCCCCCCCCCCCCCCCCCCCCCCCCCC(=O)[O-]
REMARK SMILES IDX 16 1 17 2 18 3 19 4 20 5 21 6 22 7 23 8 24 9 25 10 26 11
REMARK SMILES IDX 27 12 28 13 29 14 30 15 31 16 32 17 15 18 14 19 13 20 12 21
REMARK SMILES IDX 11 22 10 23 9 24 8 25 7 26 6 27 5 28 4 29 3 30 2 31 1 32
REMARK H PARENT
REMARK Flexibility Score: inf
ROOT
ATOM      1  C   UNL     1     -56.579 120.213 -12.095  1.00  0.00     0.000 C 
ENDROOT
BRANCH   1   2
ATOM      2  C   UNL     1     -56.465 121.740 -11.952  1.00  0.00     0.000 C 
BRANCH   2   3
ATOM      3  C   UNL     1     -55.277 122.168 -11.073  1.00  0.00     0.000 C 
BRANCH   3   4
ATOM      4  C   UNL     1     -54.347 123.203 -11.745  1.00  0.00     0.000 C 
BRANCH   4   5
ATOM      5  C   UNL     1     -53.126 123.551 -10.876  1.00  0.00     0.000 C 
BRANCH   5   6
ATOM      6  C   UNL     1     -53.387 123.373  -9.367  1.00  0.00     0.000 C 
BRANCH   6   7
ATOM      7  C   UNL     1     -52.138 123.091  -8.510  1.00  0.00     0.000 C 
BRANCH   7   8
ATOM      8  C   UNL     1     -50.901 123.881  -8.969  1.00  0.00     0.000 C 
BRANCH   8   9
ATOM      9  C   UNL     1     -49.772 122.970  -9.478  1.00  0.00     0.000 C 
BRANCH   9  10
ATOM     10  C   UNL     1     -49.423 123.217 -10.952  1.00  0.00     0.000 C 
BRANCH  10  11
ATOM     11  C   UNL     1     -49.106 121.899 -11.669  1.00  0.00     0.000 C 
BRANCH  11  12
ATOM     12  C   UNL     1     -50.393 121.145 -12.029  1.00  0.00     0.000 C 
BRANCH  12  13
ATOM     13  C   UNL     1     -51.392 121.067 -10.862  1.00  0.00     0.006 C 
BRANCH  13  14
ATOM     14  C   UNL     1     -52.386 119.897 -10.967  1.00  0.00     0.053 C 
BRANCH  14  15
ATOM     15  C   UNL     1     -52.869 119.431  -9.626  1.00  0.00     0.041 C 
ATOM     16  O   UNL     1     -53.247 120.265  -8.763  1.00  0.00    -0.550 OA
ATOM     17  O   UNL     1     -52.932 118.073  -9.342  1.00  0.00    -0.550 OA
ENDBRANCH  14  15
ENDBRANCH  13  14
ENDBRANCH  12  13
ENDBRANCH  11  12
ENDBRANCH  10  11
ENDBRANCH   9  10
ENDBRANCH   8   9
ENDBRANCH   7   8
ENDBRANCH   6   7
ENDBRANCH   5   6
ENDBRANCH   4   5
ENDBRANCH   3   4
ENDBRANCH   2   3
ENDBRANCH   1   2
BRANCH   1  18
ATOM     18  C   UNL     1     -56.149 119.457 -10.826  1.00  0.00     0.000 C 
BRANCH  18  19
ATOM     19  C   UNL     1     -56.648 120.070  -9.503  1.00  0.00     0.000 C 
BRANCH  19  20
ATOM     20  C   UNL     1     -58.003 119.504  -9.019  1.00  0.00     0.000 C 
BRANCH  20  21
ATOM     21  C   UNL     1     -58.003 119.060  -7.540  1.00  0.00     0.000 C 
BRANCH  21  22
ATOM     22  C   UNL     1     -59.291 118.339  -7.093  1.00  0.00     0.000 C 
BRANCH  22  23
ATOM     23  C   UNL     1     -59.098 117.398  -5.888  1.00  0.00     0.000 C 
BRANCH  23  24
ATOM     24  C   UNL     1     -59.825 117.900  -4.626  1.00  0.00    -0.000 C 
BRANCH  24  25
ATOM     25  C   UNL     1     -59.718 119.425  -4.440  1.00  0.00    -0.000 C 
BRANCH  25  26
ATOM     26  C   UNL     1     -59.344 119.878  -3.017  1.00  0.00    -0.000 C 
BRANCH  26  27
ATOM     27  C   UNL     1     -58.577 121.208  -2.995  1.00  0.00    -0.000 C 
BRANCH  27  28
ATOM     28  C   UNL     1     -59.427 122.335  -3.599  1.00  0.00    -0.000 C 
BRANCH  28  29
ATOM     29  C   UNL     1     -59.854 123.389  -2.562  1.00  0.00    -0.000 C 
BRANCH  29  30
ATOM     30  C   UNL     1     -60.363 122.818  -1.226  1.00  0.00    -0.000 C 
BRANCH  30  31
ATOM     31  C   UNL     1     -60.595 123.899  -0.162  1.00  0.00    -0.003 C 
ATOM     32  C   UNL     1     -61.990 123.781   0.446  1.00  0.00     0.004 C 
ENDBRANCH  30  31
ENDBRANCH  29  30
ENDBRANCH  28  29
ENDBRANCH  27  28
ENDBRANCH  26  27
ENDBRANCH  25  26
ENDBRANCH  24  25
ENDBRANCH  23  24
ENDBRANCH  22  23
ENDBRANCH  21  22
ENDBRANCH  20  21
ENDBRANCH  19  20
ENDBRANCH  18  19
ENDBRANCH   1  18
TORSDOF 28
ENDMDL
MODEL 5
REMARK VINA RESULT:     8.907      3.262     10.139
REMARK INTER + INTRA:          21.767
REMARK INTER:                  22.478
REMARK INTRA:                  -0.711
REMARK UNBOUND:                -1.719
REMARK SMILES CCCCCCCCCCCCCCCCCCCCCCCCCCCCCC(=O)[O-]
REMARK SMILES IDX 16 1 17 2 18 3 19 4 20 5 21 6 22 7 23 8 24 9 25 10 26 11
REMARK SMILES IDX 27 12 28 13 29 14 30 15 31 16 32 17 15 18 14 19 13 20 12 21
REMARK SMILES IDX 11 22 10 23 9 24 8 25 7 26 6 27 5 28 4 29 3 30 2 31 1 32
REMARK H PARENT
REMARK Flexibility Score: inf
ROOT
ATOM      1  C   UNL     1     -55.784 121.772  -9.367  1.00  0.00     0.000 C 
ENDROOT
BRANCH   1   2
ATOM      2  C   UNL     1     -54.920 122.196  -8.168  1.00  0.00     0.000 C 
BRANCH   2   3
ATOM      3  C   UNL     1     -53.412 122.068  -8.447  1.00  0.00     0.000 C 
BRANCH   3   4
ATOM      4  C   UNL     1     -52.606 123.341  -8.109  1.00  0.00     0.000 C 
BRANCH   4   5
ATOM      5  C   UNL     1     -51.110 123.200  -8.442  1.00  0.00     0.000 C 
BRANCH   5   6
ATOM      6  C   UNL     1     -50.469 124.519  -8.917  1.00  0.00     0.000 C 
BRANCH   6   7
ATOM      7  C   UNL     1     -49.034 124.397  -9.462  1.00  0.00     0.000 C 
BRANCH   7   8
ATOM      8  C   UNL     1     -48.876 124.974 -10.880  1.00  0.00     0.000 C 
BRANCH   8   9
ATOM      9  C   UNL     1     -48.961 123.895 -11.971  1.00  0.00     0.000 C 
BRANCH   9  10
ATOM     10  C   UNL     1     -48.989 122.469 -11.402  1.00  0.00     0.000 C 
BRANCH  10  11
ATOM     11  C   UNL     1     -50.036 121.611 -12.123  1.00  0.00     0.000 C 
BRANCH  11  12
ATOM     12  C   UNL     1     -51.455 121.975 -11.665  1.00  0.00     0.000 C 
BRANCH  12  13
ATOM     13  C   UNL     1     -52.316 120.743 -11.336  1.00  0.00     0.006 C 
BRANCH  13  14
ATOM     14  C   UNL     1     -51.991 120.097  -9.977  1.00  0.00     0.053 C 
BRANCH  14  15
ATOM     15  C   UNL     1     -52.930 118.981  -9.632  1.00  0.00     0.041 C 
ATOM     16  O   UNL     1     -54.174 119.139  -9.749  1.00  0.00    -0.550 OA
ATOM     17  O   UNL     1     -52.431 117.755  -9.210  1.00  0.00    -0.550 OA
ENDBRANCH  14  15
ENDBRANCH  13  14
ENDBRANCH  12  13
ENDBRANCH  11  12
ENDBRANCH  10  11
ENDBRANCH   9  10
ENDBRANCH   8   9
ENDBRANCH   7   8
ENDBRANCH   6   7
ENDBRANCH   5   6
ENDBRANCH   4   5
ENDBRANCH   3   4
ENDBRANCH   2   3
ENDBRANCH   1   2
BRANCH   1  18
ATOM     18  C   UNL     1     -55.579 122.667 -10.601  1.00  0.00     0.000 C 
BRANCH  18  19
ATOM     19  C   UNL     1     -56.001 122.034 -11.941  1.00  0.00     0.000 C 
BRANCH  19  20
ATOM     20  C   UNL     1     -55.625 120.541 -12.080  1.00  0.00     0.000 C 
BRANCH  20  21
ATOM     21  C   UNL     1     -56.560 119.585 -11.310  1.00  0.00     0.000 C 
BRANCH  21  22
ATOM     22  C   UNL     1     -57.982 120.136 -11.078  1.00  0.00     0.000 C 
BRANCH  22  23
ATOM     23  C   UNL     1     -58.502 119.949  -9.639  1.00  0.00     0.000 C 
BRANCH  23  24
ATOM     24  C   UNL     1     -57.532 119.132  -8.765  1.00  0.00    -0.000 C 
BRANCH  24  25
ATOM     25  C   UNL     1     -58.209 117.929  -8.082  1.00  0.00    -0.000 C 
BRANCH  25  26
ATOM     26  C   UNL     1     -59.075 118.281  -6.860  1.00  0.00    -0.000 C 
BRANCH  26  27
ATOM     27  C   UNL     1     -58.348 119.182  -5.852  1.00  0.00    -0.000 C 
BRANCH  27  28
ATOM     28  C   UNL     1     -59.048 119.142  -4.485  1.00  0.00    -0.000 C 
BRANCH  28  29
ATOM     29  C   UNL     1     -58.658 120.320  -3.574  1.00  0.00    -0.000 C 
BRANCH  29  30
ATOM     30  C   UNL     1     -59.767 120.802  -2.623  1.00  0.00    -0.000 C 
BRANCH  30  31
ATOM     31  C   UNL     1     -59.886 122.331  -2.567  1.00  0.00    -0.003 C 
ATOM     32  C   UNL     1     -59.193 122.980  -3.762  1.00  0.00     0.004 C 
ENDBRANCH  30  31
ENDBRANCH  29  30
ENDBRANCH  28  29
ENDBRANCH  27  28
ENDBRANCH  26  27
ENDBRANCH  25  26
ENDBRANCH  24  25
ENDBRANCH  23  24
ENDBRANCH  22  23
ENDBRANCH  21  22
ENDBRANCH  20  21
ENDBRANCH  19  20
ENDBRANCH  18  19
ENDBRANCH   1  18
TORSDOF 28
ENDMDL
MODEL 6
REMARK VINA RESULT:     9.011      1.941      3.405
REMARK INTER + INTRA:          22.041
REMARK INTER:                  22.603
REMARK INTRA:                  -0.562
REMARK UNBOUND:                -1.719
REMARK SMILES CCCCCCCCCCCCCCCCCCCCCCCCCCCCCC(=O)[O-]
REMARK SMILES IDX 16 1 17 2 18 3 19 4 20 5 21 6 22 7 23 8 24 9 25 10 26 11
REMARK SMILES IDX 27 12 28 13 29 14 30 15 31 16 32 17 15 18 14 19 13 20 12 21
REMARK SMILES IDX 11 22 10 23 9 24 8 25 7 26 6 27 5 28 4 29 3 30 2 31 1 32
REMARK H PARENT
REMARK Flexibility Score: inf
ROOT
ATOM      1  C   UNL     1     -53.954 122.402  -9.247  1.00  0.00     0.000 C 
ENDROOT
BRANCH   1   2
ATOM      2  C   UNL     1     -53.867 122.882 -10.705  1.00  0.00     0.000 C 
BRANCH   2   3
ATOM      3  C   UNL     1     -55.093 122.472 -11.540  1.00  0.00     0.000 C 
BRANCH   3   4
ATOM      4  C   UNL     1     -55.099 120.981 -11.945  1.00  0.00     0.000 C 
BRANCH   4   5
ATOM      5  C   UNL     1     -56.496 120.345 -11.835  1.00  0.00     0.000 C 
BRANCH   5   6
ATOM      6  C   UNL     1     -57.371 120.994 -10.745  1.00  0.00     0.000 C 
BRANCH   6   7
ATOM      7  C   UNL     1     -56.859 120.830  -9.302  1.00  0.00     0.000 C 
BRANCH   7   8
ATOM      8  C   UNL     1     -56.902 122.138  -8.494  1.00  0.00     0.000 C 
BRANCH   8   9
ATOM      9  C   UNL     1     -56.772 121.905  -6.981  1.00  0.00     0.000 C 
BRANCH   9  10
ATOM     10  C   UNL     1     -58.040 122.287  -6.205  1.00  0.00     0.000 C 
BRANCH  10  11
ATOM     11  C   UNL     1     -57.733 123.351  -5.143  1.00  0.00     0.000 C 
BRANCH  11  12
ATOM     12  C   UNL     1     -59.025 123.904  -4.528  1.00  0.00     0.000 C 
BRANCH  12  13
ATOM     13  C   UNL     1     -59.810 122.851  -3.727  1.00  0.00     0.006 C 
BRANCH  13  14
ATOM     14  C   UNL     1     -59.083 122.358  -2.463  1.00  0.00     0.053 C 
BRANCH  14  15
ATOM     15  C   UNL     1     -58.839 120.879  -2.481  1.00  0.00     0.041 C 
ATOM     16  O   UNL     1     -58.157 120.337  -1.571  1.00  0.00    -0.550 OA
ATOM     17  O   UNL     1     -59.391 120.093  -3.484  1.00  0.00    -0.550 OA
ENDBRANCH  14  15
ENDBRANCH  13  14
ENDBRANCH  12  13
ENDBRANCH  11  12
ENDBRANCH  10  11
ENDBRANCH   9  10
ENDBRANCH   8   9
ENDBRANCH   7   8
ENDBRANCH   6   7
ENDBRANCH   5   6
ENDBRANCH   4   5
ENDBRANCH   3   4
ENDBRANCH   2   3
ENDBRANCH   1   2
BRANCH   1  18
ATOM     18  C   UNL     1     -53.045 123.200  -8.296  1.00  0.00     0.000 C 
BRANCH  18  19
ATOM     19  C   UNL     1     -51.751 123.741  -8.934  1.00  0.00     0.000 C 
BRANCH  19  20
ATOM     20  C   UNL     1     -50.840 124.512  -7.953  1.00  0.00     0.000 C 
BRANCH  20  21
ATOM     21  C   UNL     1     -49.365 124.593  -8.401  1.00  0.00     0.000 C 
BRANCH  21  22
ATOM     22  C   UNL     1     -49.005 123.666  -9.579  1.00  0.00     0.000 C 
BRANCH  22  23
ATOM     23  C   UNL     1     -48.875 124.392 -10.933  1.00  0.00     0.000 C 
BRANCH  23  24
ATOM     24  C   UNL     1     -49.223 123.481 -12.125  1.00  0.00    -0.000 C 
BRANCH  24  25
ATOM     25  C   UNL     1     -48.933 121.994 -11.847  1.00  0.00    -0.000 C 
BRANCH  25  26
ATOM     26  C   UNL     1     -50.151 121.062 -11.976  1.00  0.00    -0.000 C 
BRANCH  26  27
ATOM     27  C   UNL     1     -51.266 121.393 -10.974  1.00  0.00    -0.000 C 
BRANCH  27  28
ATOM     28  C   UNL     1     -52.278 120.242 -10.889  1.00  0.00    -0.000 C 
BRANCH  28  29
ATOM     29  C   UNL     1     -52.350 119.605  -9.489  1.00  0.00    -0.000 C 
BRANCH  29  30
ATOM     30  C   UNL     1     -52.748 118.119  -9.470  1.00  0.00    -0.000 C 
BRANCH  30  31
ATOM     31  C   UNL     1     -51.821 117.261  -8.599  1.00  0.00    -0.003 C 
ATOM     32  C   UNL     1     -50.816 118.129  -7.846  1.00  0.00     0.004 C 
ENDBRANCH  30  31
ENDBRANCH  29  30
ENDBRANCH  28  29
ENDBRANCH  27  28
ENDBRANCH  26  27
ENDBRANCH  25  26
ENDBRANCH  24  25
ENDBRANCH  23  24
ENDBRANCH  22  23
ENDBRANCH  21  22
ENDBRANCH  20  21
ENDBRANCH  19  20
ENDBRANCH  18  19
ENDBRANCH   1  18
TORSDOF 28
ENDMDL
MODEL 7
REMARK VINA RESULT:     9.015      1.955      2.614
REMARK INTER + INTRA:          22.052
REMARK INTER:                  23.539
REMARK INTRA:                  -1.488
REMARK UNBOUND:                -1.719
REMARK SMILES CCCCCCCCCCCCCCCCCCCCCCCCCCCCCC(=O)[O-]
REMARK SMILES IDX 16 1 17 2 18 3 19 4 20 5 21 6 22 7 23 8 24 9 25 10 26 11
REMARK SMILES IDX 27 12 28 13 29 14 30 15 31 16 32 17 15 18 14 19 13 20 12 21
REMARK SMILES IDX 11 22 10 23 9 24 8 25 7 26 6 27 5 28 4 29 3 30 2 31 1 32
REMARK H PARENT
REMARK Flexibility Score: inf
ROOT
ATOM      1  C   UNL     1     -54.586 120.978 -11.427  1.00  0.00     0.000 C 
ENDROOT
BRANCH   1   2
ATOM      2  C   UNL     1     -55.428 119.896 -12.124  1.00  0.00     0.000 C 
BRANCH   2   3
ATOM      3  C   UNL     1     -56.463 119.252 -11.186  1.00  0.00     0.000 C 
BRANCH   3   4
ATOM      4  C   UNL     1     -57.827 119.976 -11.173  1.00  0.00     0.000 C 
BRANCH   4   5
ATOM      5  C   UNL     1     -57.917 121.048 -10.072  1.00  0.00     0.000 C 
BRANCH   5   6
ATOM      6  C   UNL     1     -56.553 121.370  -9.430  1.00  0.00     0.000 C 
BRANCH   6   7
ATOM      7  C   UNL     1     -56.538 121.398  -7.890  1.00  0.00     0.000 C 
BRANCH   7   8
ATOM      8  C   UNL     1     -57.576 122.366  -7.294  1.00  0.00     0.000 C 
BRANCH   8   9
ATOM      9  C   UNL     1     -57.154 122.914  -5.922  1.00  0.00     0.000 C 
BRANCH   9  10
ATOM     10  C   UNL     1     -57.986 124.127  -5.481  1.00  0.00     0.000 C 
BRANCH  10  11
ATOM     11  C   UNL     1     -59.315 123.681  -4.856  1.00  0.00     0.000 C 
BRANCH  11  12
ATOM     12  C   UNL     1     -59.152 123.408  -3.355  1.00  0.00     0.000 C 
BRANCH  12  13
ATOM     13  C   UNL     1     -60.446 122.906  -2.691  1.00  0.00     0.006 C 
BRANCH  13  14
ATOM     14  C   UNL     1     -60.244 121.691  -1.768  1.00  0.00     0.053 C 
BRANCH  14  15
ATOM     15  C   UNL     1     -59.175 120.764  -2.264  1.00  0.00     0.041 C 
ATOM     16  O   UNL     1     -59.425 119.939  -3.181  1.00  0.00    -0.550 OA
ATOM     17  O   UNL     1     -57.893 120.832  -1.734  1.00  0.00    -0.550 OA
ENDBRANCH  14  15
ENDBRANCH  13  14
ENDBRANCH  12  13
ENDBRANCH  11  12
ENDBRANCH  10  11
ENDBRANCH   9  10
ENDBRANCH   8   9
ENDBRANCH   7   8
ENDBRANCH   6   7
ENDBRANCH   5   6
ENDBRANCH   4   5
ENDBRANCH   3   4
ENDBRANCH   2   3
ENDBRANCH   1   2
BRANCH   1  18
ATOM     18  C   UNL     1     -54.689 122.352 -12.110  1.00  0.00     0.000 C 
BRANCH  18  19
ATOM     19  C   UNL     1     -53.917 123.487 -11.409  1.00  0.00     0.000 C 
BRANCH  19  20
ATOM     20  C   UNL     1     -53.598 123.208  -9.923  1.00  0.00     0.000 C 
BRANCH  20  21
ATOM     21  C   UNL     1     -53.146 124.455  -9.134  1.00  0.00     0.000 C 
BRANCH  21  22
ATOM     22  C   UNL     1     -52.164 124.158  -7.983  1.00  0.00     0.000 C 
BRANCH  22  23
ATOM     23  C   UNL     1     -50.860 123.467  -8.431  1.00  0.00     0.000 C 
BRANCH  23  24
ATOM     24  C   UNL     1     -49.653 124.423  -8.414  1.00  0.00    -0.000 C 
BRANCH  24  25
ATOM     25  C   UNL     1     -49.134 124.758  -9.826  1.00  0.00    -0.000 C 
BRANCH  25  26
ATOM     26  C   UNL     1     -48.886 123.537 -10.729  1.00  0.00    -0.000 C 
BRANCH  26  27
ATOM     27  C   UNL     1     -49.979 123.347 -11.791  1.00  0.00    -0.000 C 
BRANCH  27  28
ATOM     28  C   UNL     1     -50.174 121.857 -12.108  1.00  0.00    -0.000 C 
BRANCH  28  29
ATOM     29  C   UNL     1     -50.433 121.004 -10.854  1.00  0.00    -0.000 C 
BRANCH  29  30
ATOM     30  C   UNL     1     -51.914 120.688 -10.576  1.00  0.00    -0.000 C 
BRANCH  30  31
ATOM     31  C   UNL     1     -52.109 119.675  -9.441  1.00  0.00    -0.003 C 
ATOM     32  C   UNL     1     -53.049 120.222  -8.370  1.00  0.00     0.004 C 
ENDBRANCH  30  31
ENDBRANCH  29  30
ENDBRANCH  28  29
ENDBRANCH  27  28
ENDBRANCH  26  27
ENDBRANCH  25  26
ENDBRANCH  24  25
ENDBRANCH  23  24
ENDBRANCH  22  23
ENDBRANCH  21  22
ENDBRANCH  20  21
ENDBRANCH  19  20
ENDBRANCH  18  19
ENDBRANCH   1  18
TORSDOF 28
ENDMDL
MODEL 8
REMARK VINA RESULT:     9.122      3.294      9.974
REMARK INTER + INTRA:          22.333
REMARK INTER:                  23.226
REMARK INTRA:                  -0.893
REMARK UNBOUND:                -1.719
REMARK SMILES CCCCCCCCCCCCCCCCCCCCCCCCCCCCCC(=O)[O-]
REMARK SMILES IDX 16 1 17 2 18 3 19 4 20 5 21 6 22 7 23 8 24 9 25 10 26 11
REMARK SMILES IDX 27 12 28 13 29 14 30 15 31 16 32 17 15 18 14 19 13 20 12 21
REMARK SMILES IDX 11 22 10 23 9 24 8 25 7 26 6 27 5 28 4 29 3 30 2 31 1 32
REMARK H PARENT
REMARK Flexibility Score: inf
ROOT
ATOM      1  C   UNL     1     -54.321 122.281 -11.791  1.00  0.00     0.000 C 
ENDROOT
BRANCH   1   2
ATOM      2  C   UNL     1     -53.491 121.030 -12.125  1.00  0.00     0.000 C 
BRANCH   2   3
ATOM      3  C   UNL     1     -52.069 121.087 -11.540  1.00  0.00     0.000 C 
BRANCH   3   4
ATOM      4  C   UNL     1     -51.284 122.359 -11.933  1.00  0.00     0.000 C 
BRANCH   4   5
ATOM      5  C   UNL     1     -49.761 122.160 -11.854  1.00  0.00     0.000 C 
BRANCH   5   6
ATOM      6  C   UNL     1     -49.327 121.269 -10.674  1.00  0.00     0.000 C 
BRANCH   6   7
ATOM      7  C   UNL     1     -48.940 122.021  -9.386  1.00  0.00     0.000 C 
BRANCH   7   8
ATOM      8  C   UNL     1     -48.992 123.550  -9.542  1.00  0.00     0.000 C 
BRANCH   8   9
ATOM      9  C   UNL     1     -50.205 124.177  -8.836  1.00  0.00     0.000 C 
BRANCH   9  10
ATOM     10  C   UNL     1     -51.318 123.160  -8.545  1.00  0.00     0.000 C 
BRANCH  10  11
ATOM     11  C   UNL     1     -52.701 123.811  -8.674  1.00  0.00     0.000 C 
BRANCH  11  12
ATOM     12  C   UNL     1     -53.814 122.756  -8.607  1.00  0.00     0.000 C 
BRANCH  12  13
ATOM     13  C   UNL     1     -53.332 121.408  -8.044  1.00  0.00     0.006 C 
BRANCH  13  14
ATOM     14  C   UNL     1     -52.376 120.645  -8.978  1.00  0.00     0.053 C 
BRANCH  14  15
ATOM     15  C   UNL     1     -52.672 119.176  -9.029  1.00  0.00     0.041 C 
ATOM     16  O   UNL     1     -53.763 118.765  -9.505  1.00  0.00    -0.550 OA
ATOM     17  O   UNL     1     -51.731 118.259  -8.580  1.00  0.00    -0.550 OA
ENDBRANCH  14  15
ENDBRANCH  13  14
ENDBRANCH  12  13
ENDBRANCH  11  12
ENDBRANCH  10  11
ENDBRANCH   9  10
ENDBRANCH   8   9
ENDBRANCH   7   8
ENDBRANCH   6   7
ENDBRANCH   5   6
ENDBRANCH   4   5
ENDBRANCH   3   4
ENDBRANCH   2   3
ENDBRANCH   1   2
BRANCH   1  18
ATOM     18  C   UNL     1     -55.825 122.093 -12.056  1.00  0.00     0.000 C 
BRANCH  18  19
ATOM     19  C   UNL     1     -56.362 120.676 -11.778  1.00  0.00     0.000 C 
BRANCH  19  20
ATOM     20  C   UNL     1     -57.540 120.634 -10.778  1.00  0.00     0.000 C 
BRANCH  20  21
ATOM     21  C   UNL     1     -57.173 121.110  -9.357  1.00  0.00     0.000 C 
BRANCH  21  22
ATOM     22  C   UNL     1     -56.541 120.021  -8.465  1.00  0.00     0.000 C 
BRANCH  22  23
ATOM     23  C   UNL     1     -57.533 119.351  -7.493  1.00  0.00     0.000 C 
BRANCH  23  24
ATOM     24  C   UNL     1     -57.777 120.194  -6.228  1.00  0.00    -0.000 C 
BRANCH  24  25
ATOM     25  C   UNL     1     -58.486 119.407  -5.110  1.00  0.00    -0.000 C 
BRANCH  25  26
ATOM     26  C   UNL     1     -58.438 120.069  -3.722  1.00  0.00    -0.000 C 
BRANCH  26  27
ATOM     27  C   UNL     1     -59.398 119.419  -2.716  1.00  0.00    -0.000 C 
BRANCH  27  28
ATOM     28  C   UNL     1     -60.104 120.488  -1.869  1.00  0.00    -0.000 C 
BRANCH  28  29
ATOM     29  C   UNL     1     -59.278 121.779  -1.719  1.00  0.00    -0.000 C 
BRANCH  29  30
ATOM     30  C   UNL     1     -59.842 123.002  -2.462  1.00  0.00    -0.000 C 
BRANCH  30  31
ATOM     31  C   UNL     1     -60.274 124.131  -1.517  1.00  0.00    -0.003 C 
ATOM     32  C   UNL     1     -60.953 123.573  -0.269  1.00  0.00     0.004 C 
ENDBRANCH  30  31
ENDBRANCH  29  30
ENDBRANCH  28  29
ENDBRANCH  27  28
ENDBRANCH  26  27
ENDBRANCH  25  26
ENDBRANCH  24  25
ENDBRANCH  23  24
ENDBRANCH  22  23
ENDBRANCH  21  22
ENDBRANCH  20  21
ENDBRANCH  19  20
ENDBRANCH  18  19
ENDBRANCH   1  18
TORSDOF 28
ENDMDL
