MODEL 1
REMARK VINA RESULT:    -5.195      0.000      0.000
REMARK INTER + INTRA:          -6.423
REMARK INTER:                  -6.106
REMARK INTRA:                  -0.318
REMARK UNBOUND:                -0.318
REMARK SMILES O=c1cc(-c2ccc(O)c(O)c2)oc2cc(O)cc(O)c12
REMARK SMILES IDX 4 1 3 2 2 3 1 4 21 5 19 6 18 7 16 8 15 9 14 10 13 11 5 12
REMARK SMILES IDX 6 13 7 14 8 15 12 16 10 17 9 18 11 20 20 22 17 24
REMARK H PARENT 9 19 11 21 20 23 17 25
REMARK Flexibility Score: inf
ROOT
ATOM      1  C   UNL     1      41.028 -31.761  12.576  1.00  0.00     0.138 A 
ATOM      2  C   UNL     1      41.731 -30.582  12.295  1.00  0.00     0.100 A 
ATOM      3  C   UNL     1      43.122 -30.614  12.196  1.00  0.00     0.197 A 
ATOM      4  O   UNL     1      43.721 -29.553  11.880  1.00  0.00    -0.289 OA
ATOM      5  C   UNL     1      43.814 -31.831  12.410  1.00  0.00     0.107 A 
ATOM      6  C   UNL     1      45.234 -31.974  12.374  1.00  0.00     0.134 A 
ATOM      7  C   UNL     1      45.801 -33.249  12.486  1.00  0.00     0.093 A 
ATOM      8  C   UNL     1      45.003 -34.378  12.693  1.00  0.00     0.123 A 
ATOM      9  C   UNL     1      43.620 -34.240  12.783  1.00  0.00     0.094 A 
ATOM     10  C   UNL     1      43.022 -32.986  12.641  1.00  0.00     0.146 A 
ATOM     11  O   UNL     1      41.698 -32.901  12.719  1.00  0.00    -0.456 OA
ENDROOT
BRANCH   1  12
ATOM     12  C   UNL     1      39.548 -31.784  12.694  1.00  0.00     0.021 A 
ATOM     13  C   UNL     1      38.787 -30.599  12.682  1.00  0.00     0.016 A 
ATOM     14  C   UNL     1      37.396 -30.648  12.805  1.00  0.00     0.051 A 
ATOM     15  C   UNL     1      36.742 -31.878  12.951  1.00  0.00     0.157 A 
ATOM     16  C   UNL     1      38.884 -33.013  12.855  1.00  0.00     0.062 A 
ATOM     17  C   UNL     1      37.491 -33.066  12.978  1.00  0.00     0.158 A 
BRANCH  15  18
ATOM     18  O   UNL     1      35.354 -31.924  13.072  1.00  0.00    -0.504 OA
ATOM     19  H   UNL     1      34.867 -32.790  13.273  1.00  0.00     0.293 HD
ENDBRANCH  15  18
BRANCH  17  20
ATOM     20  O   UNL     1      36.870 -34.305  13.125  1.00  0.00    -0.504 OA
ATOM     21  H   UNL     1      36.000 -34.531  12.658  1.00  0.00     0.293 HD
ENDBRANCH  17  20
ENDBRANCH   1  12
BRANCH   6  22
ATOM     22  O   UNL     1      46.125 -30.903  12.256  1.00  0.00    -0.507 OA
ATOM     23  H   UNL     1      46.451 -30.518  11.384  1.00  0.00     0.293 HD
ENDBRANCH   6  22
BRANCH   8  24
ATOM     24  O   UNL     1      45.577 -35.641  12.819  1.00  0.00    -0.508 OA
ATOM     25  H   UNL     1      46.120 -35.898  13.635  1.00  0.00     0.293 HD
ENDBRANCH   8  24
TORSDOF 5
ENDMDL
MODEL 2
REMARK VINA RESULT:    -5.053      3.227      7.618
REMARK INTER + INTRA:          -6.257
REMARK INTER:                  -5.949
REMARK INTRA:                  -0.308
REMARK UNBOUND:                -0.318
REMARK SMILES O=c1cc(-c2ccc(O)c(O)c2)oc2cc(O)cc(O)c12
REMARK SMILES IDX 4 1 3 2 2 3 1 4 21 5 19 6 18 7 16 8 15 9 14 10 13 11 5 12
REMARK SMILES IDX 6 13 7 14 8 15 12 16 10 17 9 18 11 20 20 22 17 24
REMARK H PARENT 9 19 11 21 20 23 17 25
REMARK Flexibility Score: inf
ROOT
ATOM      1  C   UNL     1      39.913 -30.671  10.842  1.00  0.00     0.138 A 
ATOM      2  C   UNL     1      39.194 -29.998  11.839  1.00  0.00     0.100 A 
ATOM      3  C   UNL     1      37.856 -29.670  11.622  1.00  0.00     0.197 A 
ATOM      4  O   UNL     1      37.219 -29.122  12.559  1.00  0.00    -0.289 OA
ATOM      5  C   UNL     1      37.244 -29.990  10.387  1.00  0.00     0.107 A 
ATOM      6  C   UNL     1      35.898 -29.669  10.039  1.00  0.00     0.134 A 
ATOM      7  C   UNL     1      35.365 -30.139   8.833  1.00  0.00     0.093 A 
ATOM      8  C   UNL     1      36.149 -30.868   7.935  1.00  0.00     0.123 A 
ATOM      9  C   UNL     1      37.481 -31.140   8.241  1.00  0.00     0.094 A 
ATOM     10  C   UNL     1      38.030 -30.714   9.452  1.00  0.00     0.146 A 
ATOM     11  O   UNL     1      39.300 -31.009   9.712  1.00  0.00    -0.456 OA
ENDROOT
BRANCH   1  12
ATOM     12  C   UNL     1      41.340 -31.042  11.019  1.00  0.00     0.021 A 
ATOM     13  C   UNL     1      42.202 -30.295  11.843  1.00  0.00     0.016 A 
ATOM     14  C   UNL     1      43.544 -30.661  11.984  1.00  0.00     0.051 A 
ATOM     15  C   UNL     1      44.049 -31.774  11.300  1.00  0.00     0.157 A 
ATOM     16  C   UNL     1      41.859 -32.150  10.325  1.00  0.00     0.062 A 
ATOM     17  C   UNL     1      43.201 -32.520  10.465  1.00  0.00     0.158 A 
BRANCH  15  18
ATOM     18  O   UNL     1      45.387 -32.138  11.444  1.00  0.00    -0.504 OA
ATOM     19  H   UNL     1      45.882 -32.639  10.714  1.00  0.00     0.293 HD
ENDBRANCH  15  18
BRANCH  17  20
ATOM     20  O   UNL     1      43.674 -33.631   9.767  1.00  0.00    -0.504 OA
ATOM     21  H   UNL     1      43.381 -34.575   9.994  1.00  0.00     0.293 HD
ENDBRANCH  17  20
ENDBRANCH   1  12
BRANCH   6  22
ATOM     22  O   UNL     1      35.056 -28.876  10.825  1.00  0.00    -0.507 OA
ATOM     23  H   UNL     1      34.455 -28.148  10.472  1.00  0.00     0.293 HD
ENDBRANCH   6  22
BRANCH   8  24
ATOM     24  O   UNL     1      35.616 -31.319   6.728  1.00  0.00    -0.508 OA
ATOM     25  H   UNL     1      35.989 -32.134   6.256  1.00  0.00     0.293 HD
ENDBRANCH   8  24
TORSDOF 5
ENDMDL
MODEL 3
REMARK VINA RESULT:    -4.775      1.909      2.175
REMARK INTER + INTRA:          -5.930
REMARK INTER:                  -5.665
REMARK INTRA:                  -0.265
REMARK UNBOUND:                -0.318
REMARK SMILES O=c1cc(-c2ccc(O)c(O)c2)oc2cc(O)cc(O)c12
REMARK SMILES IDX 4 1 3 2 2 3 1 4 21 5 19 6 18 7 16 8 15 9 14 10 13 11 5 12
REMARK SMILES IDX 6 13 7 14 8 15 12 16 10 17 9 18 11 20 20 22 17 24
REMARK H PARENT 9 19 11 21 20 23 17 25
REMARK Flexibility Score: inf
ROOT
ATOM      1  C   UNL     1      41.103 -30.914  11.542  1.00  0.00     0.138 A 
ATOM      2  C   UNL     1      42.027 -29.861  11.569  1.00  0.00     0.100 A 
ATOM      3  C   UNL     1      43.361 -30.121  11.886  1.00  0.00     0.197 A 
ATOM      4  O   UNL     1      44.180 -29.167  11.840  1.00  0.00    -0.289 OA
ATOM      5  C   UNL     1      43.763 -31.440  12.208  1.00  0.00     0.107 A 
ATOM      6  C   UNL     1      45.087 -31.816  12.586  1.00  0.00     0.134 A 
ATOM      7  C   UNL     1      45.394 -33.170  12.769  1.00  0.00     0.093 A 
ATOM      8  C   UNL     1      44.411 -34.155  12.647  1.00  0.00     0.123 A 
ATOM      9  C   UNL     1      43.103 -33.792  12.332  1.00  0.00     0.094 A 
ATOM     10  C   UNL     1      42.773 -32.454  12.109  1.00  0.00     0.146 A 
ATOM     11  O   UNL     1      41.517 -32.152  11.795  1.00  0.00    -0.456 OA
ENDROOT
BRANCH   1  12
ATOM     12  C   UNL     1      39.672 -30.694  11.213  1.00  0.00     0.021 A 
ATOM     13  C   UNL     1      38.740 -30.301  12.193  1.00  0.00     0.016 A 
ATOM     14  C   UNL     1      37.397 -30.110  11.858  1.00  0.00     0.051 A 
ATOM     15  C   UNL     1      36.960 -30.315  10.543  1.00  0.00     0.157 A 
ATOM     16  C   UNL     1      39.222 -30.910   9.899  1.00  0.00     0.062 A 
ATOM     17  C   UNL     1      37.878 -30.719   9.560  1.00  0.00     0.158 A 
BRANCH  15  18
ATOM     18  O   UNL     1      35.619 -30.122  10.212  1.00  0.00    -0.504 OA
ATOM     19  H   UNL     1      35.345 -29.553   9.418  1.00  0.00     0.293 HD
ENDBRANCH  15  18
BRANCH  17  20
ATOM     20  O   UNL     1      37.474 -30.934   8.243  1.00  0.00    -0.504 OA
ATOM     21  H   UNL     1      37.503 -31.852   7.813  1.00  0.00     0.293 HD
ENDBRANCH  17  20
ENDBRANCH   1  12
BRANCH   6  22
ATOM     22  O   UNL     1      46.123 -30.905  12.816  1.00  0.00    -0.507 OA
ATOM     23  H   UNL     1      46.866 -31.034  13.485  1.00  0.00     0.293 HD
ENDBRANCH   6  22
BRANCH   8  24
ATOM     24  O   UNL     1      44.722 -35.499  12.846  1.00  0.00    -0.508 OA
ATOM     25  H   UNL     1      44.014 -36.172  13.112  1.00  0.00     0.293 HD
ENDBRANCH   8  24
TORSDOF 5
ENDMDL
MODEL 4
REMARK VINA RESULT:    -4.573      3.209      4.424
REMARK INTER + INTRA:          -5.693
REMARK INTER:                  -5.413
REMARK INTRA:                  -0.280
REMARK UNBOUND:                -0.318
REMARK SMILES O=c1cc(-c2ccc(O)c(O)c2)oc2cc(O)cc(O)c12
REMARK SMILES IDX 4 1 3 2 2 3 1 4 21 5 19 6 18 7 16 8 15 9 14 10 13 11 5 12
REMARK SMILES IDX 6 13 7 14 8 15 12 16 10 17 9 18 11 20 20 22 17 24
REMARK H PARENT 9 19 11 21 20 23 17 25
REMARK Flexibility Score: inf
ROOT
ATOM      1  C   UNL     1      39.270 -30.863  10.383  1.00  0.00     0.138 A 
ATOM      2  C   UNL     1      39.588 -31.725  11.441  1.00  0.00     0.100 A 
ATOM      3  C   UNL     1      40.921 -31.895  11.815  1.00  0.00     0.197 A 
ATOM      4  O   UNL     1      41.171 -32.625  12.809  1.00  0.00    -0.289 OA
ATOM      5  C   UNL     1      41.943 -31.221  11.104  1.00  0.00     0.107 A 
ATOM      6  C   UNL     1      43.339 -31.351  11.370  1.00  0.00     0.134 A 
ATOM      7  C   UNL     1      44.251 -30.546  10.677  1.00  0.00     0.093 A 
ATOM      8  C   UNL     1      43.822 -29.661   9.684  1.00  0.00     0.123 A 
ATOM      9  C   UNL     1      42.467 -29.567   9.379  1.00  0.00     0.094 A 
ATOM     10  C   UNL     1      41.529 -30.332  10.077  1.00  0.00     0.146 A 
ATOM     11  O   UNL     1      40.244 -30.200   9.766  1.00  0.00    -0.456 OA
ENDROOT
BRANCH   1  12
ATOM     12  C   UNL     1      37.869 -30.646   9.942  1.00  0.00     0.021 A 
ATOM     13  C   UNL     1      36.877 -30.185  10.828  1.00  0.00     0.016 A 
ATOM     14  C   UNL     1      35.563 -29.999  10.389  1.00  0.00     0.051 A 
ATOM     15  C   UNL     1      35.215 -30.278   9.061  1.00  0.00     0.157 A 
ATOM     16  C   UNL     1      37.508 -30.936   8.614  1.00  0.00     0.062 A 
ATOM     17  C   UNL     1      36.193 -30.750   8.170  1.00  0.00     0.158 A 
BRANCH  15  18
ATOM     18  O   UNL     1      33.904 -30.089   8.625  1.00  0.00    -0.504 OA
ATOM     19  H   UNL     1      33.304 -30.874   8.394  1.00  0.00     0.293 HD
ENDBRANCH  15  18
BRANCH  17  20
ATOM     20  O   UNL     1      35.878 -31.039   6.843  1.00  0.00    -0.504 OA
ATOM     21  H   UNL     1      36.537 -31.489   6.218  1.00  0.00     0.293 HD
ENDBRANCH  17  20
ENDBRANCH   1  12
BRANCH   6  22
ATOM     22  O   UNL     1      43.880 -32.264  12.281  1.00  0.00    -0.507 OA
ATOM     23  H   UNL     1      44.865 -32.434  12.410  1.00  0.00     0.293 HD
ENDBRANCH   6  22
BRANCH   8  24
ATOM     24  O   UNL     1      44.739 -28.875   8.988  1.00  0.00    -0.508 OA
ATOM     25  H   UNL     1      45.047 -27.979   9.345  1.00  0.00     0.293 HD
ENDBRANCH   8  24
TORSDOF 5
ENDMDL
MODEL 5
REMARK VINA RESULT:    -4.267      2.683      3.949
REMARK INTER + INTRA:          -5.333
REMARK INTER:                  -5.067
REMARK INTRA:                  -0.266
REMARK UNBOUND:                -0.318
REMARK SMILES O=c1cc(-c2ccc(O)c(O)c2)oc2cc(O)cc(O)c12
REMARK SMILES IDX 4 1 3 2 2 3 1 4 21 5 19 6 18 7 16 8 15 9 14 10 13 11 5 12
REMARK SMILES IDX 6 13 7 14 8 15 12 16 10 17 9 18 11 20 20 22 17 24
REMARK H PARENT 9 19 11 21 20 23 17 25
REMARK Flexibility Score: inf
ROOT
ATOM      1  C   UNL     1      40.451 -30.891  10.586  1.00  0.00     0.138 A 
ATOM      2  C   UNL     1      40.892 -31.983  11.346  1.00  0.00     0.100 A 
ATOM      3  C   UNL     1      42.250 -32.302  11.373  1.00  0.00     0.197 A 
ATOM      4  O   UNL     1      42.624 -33.248  12.114  1.00  0.00    -0.289 OA
ATOM      5  C   UNL     1      43.166 -31.539  10.610  1.00  0.00     0.107 A 
ATOM      6  C   UNL     1      44.568 -31.797  10.529  1.00  0.00     0.134 A 
ATOM      7  C   UNL     1      45.394 -30.906   9.834  1.00  0.00     0.093 A 
ATOM      8  C   UNL     1      44.861 -29.800   9.166  1.00  0.00     0.123 A 
ATOM      9  C   UNL     1      43.488 -29.570   9.194  1.00  0.00     0.094 A 
ATOM     10  C   UNL     1      42.641 -30.422   9.907  1.00  0.00     0.146 A 
ATOM     11  O   UNL     1      41.339 -30.159   9.921  1.00  0.00    -0.456 OA
ENDROOT
BRANCH   1  12
ATOM     12  C   UNL     1      39.018 -30.510  10.520  1.00  0.00     0.021 A 
ATOM     13  C   UNL     1      38.246 -30.731   9.364  1.00  0.00     0.016 A 
ATOM     14  C   UNL     1      36.901 -30.352   9.325  1.00  0.00     0.051 A 
ATOM     15  C   UNL     1      36.306 -29.741  10.436  1.00  0.00     0.157 A 
ATOM     16  C   UNL     1      38.416 -29.883  11.626  1.00  0.00     0.062 A 
ATOM     17  C   UNL     1      37.069 -29.504  11.591  1.00  0.00     0.158 A 
BRANCH  15  18
ATOM     18  O   UNL     1      34.963 -29.366  10.395  1.00  0.00    -0.504 OA
ATOM     19  H   UNL     1      34.339 -29.543  11.174  1.00  0.00     0.293 HD
ENDBRANCH  15  18
BRANCH  17  20
ATOM     20  O   UNL     1      36.507 -28.894  12.712  1.00  0.00    -0.504 OA
ATOM     21  H   UNL     1      36.825 -29.097  13.652  1.00  0.00     0.293 HD
ENDBRANCH  17  20
ENDBRANCH   1  12
BRANCH   6  22
ATOM     22  O   UNL     1      45.190 -32.917  11.088  1.00  0.00    -0.507 OA
ATOM     23  H   UNL     1      45.725 -32.913  11.943  1.00  0.00     0.293 HD
ENDBRANCH   6  22
BRANCH   8  24
ATOM     24  O   UNL     1      45.689 -28.926   8.464  1.00  0.00    -0.508 OA
ATOM     25  H   UNL     1      46.685 -28.882   8.643  1.00  0.00     0.293 HD
ENDBRANCH   8  24
TORSDOF 5
ENDMDL
MODEL 6
REMARK VINA RESULT:    -4.222      2.773      7.507
REMARK INTER + INTRA:          -5.281
REMARK INTER:                  -4.989
REMARK INTRA:                  -0.292
REMARK UNBOUND:                -0.318
REMARK SMILES O=c1cc(-c2ccc(O)c(O)c2)oc2cc(O)cc(O)c12
REMARK SMILES IDX 4 1 3 2 2 3 1 4 21 5 19 6 18 7 16 8 15 9 14 10 13 11 5 12
REMARK SMILES IDX 6 13 7 14 8 15 12 16 10 17 9 18 11 20 20 22 17 24
REMARK H PARENT 9 19 11 21 20 23 17 25
REMARK Flexibility Score: inf
ROOT
ATOM      1  C   UNL     1      39.695 -31.105  11.014  1.00  0.00     0.138 A 
ATOM      2  C   UNL     1      39.546 -30.257   9.907  1.00  0.00     0.100 A 
ATOM      3  C   UNL     1      38.292 -29.723   9.611  1.00  0.00     0.197 A 
ATOM      4  O   UNL     1      38.202 -28.916   8.650  1.00  0.00    -0.289 OA
ATOM      5  C   UNL     1      37.175 -30.066  10.410  1.00  0.00     0.107 A 
ATOM      6  C   UNL     1      35.841 -29.615  10.177  1.00  0.00     0.134 A 
ATOM      7  C   UNL     1      34.836 -29.926  11.102  1.00  0.00     0.093 A 
ATOM      8  C   UNL     1      35.106 -30.723  12.218  1.00  0.00     0.123 A 
ATOM      9  C   UNL     1      36.393 -31.213  12.424  1.00  0.00     0.094 A 
ATOM     10  C   UNL     1      37.424 -30.892  11.538  1.00  0.00     0.146 A 
ATOM     11  O   UNL     1      38.641 -31.368  11.780  1.00  0.00    -0.456 OA
ENDROOT
BRANCH   1  12
ATOM     12  C   UNL     1      41.006 -31.701  11.374  1.00  0.00     0.021 A 
ATOM     13  C   UNL     1      41.256 -32.217  12.659  1.00  0.00     0.016 A 
ATOM     14  C   UNL     1      42.503 -32.765  12.975  1.00  0.00     0.051 A 
ATOM     15  C   UNL     1      43.523 -32.800  12.015  1.00  0.00     0.157 A 
ATOM     16  C   UNL     1      42.040 -31.728  10.421  1.00  0.00     0.062 A 
ATOM     17  C   UNL     1      43.290 -32.276  10.733  1.00  0.00     0.158 A 
BRANCH  15  18
ATOM     18  O   UNL     1      44.765 -33.348  12.332  1.00  0.00    -0.504 OA
ATOM     19  H   UNL     1      45.201 -34.049  11.743  1.00  0.00     0.293 HD
ENDBRANCH  15  18
BRANCH  17  20
ATOM     20  O   UNL     1      44.285 -32.293   9.757  1.00  0.00    -0.504 OA
ATOM     21  H   UNL     1      44.456 -33.104   9.174  1.00  0.00     0.293 HD
ENDBRANCH  17  20
ENDBRANCH   1  12
BRANCH   6  22
ATOM     22  O   UNL     1      35.448 -28.885   9.052  1.00  0.00    -0.507 OA
ATOM     23  H   UNL     1      35.612 -27.899   8.917  1.00  0.00     0.293 HD
ENDBRANCH   6  22
BRANCH   8  24
ATOM     24  O   UNL     1      34.096 -31.041  13.125  1.00  0.00    -0.508 OA
ATOM     25  H   UNL     1      34.289 -31.566  13.969  1.00  0.00     0.293 HD
ENDBRANCH   8  24
TORSDOF 5
ENDMDL
MODEL 7
REMARK VINA RESULT:    -3.694      1.689      2.533
REMARK INTER + INTRA:          -4.660
REMARK INTER:                  -4.371
REMARK INTRA:                  -0.288
REMARK UNBOUND:                -0.318
REMARK SMILES O=c1cc(-c2ccc(O)c(O)c2)oc2cc(O)cc(O)c12
REMARK SMILES IDX 4 1 3 2 2 3 1 4 21 5 19 6 18 7 16 8 15 9 14 10 13 11 5 12
REMARK SMILES IDX 6 13 7 14 8 15 12 16 10 17 9 18 11 20 20 22 17 24
REMARK H PARENT 9 19 11 21 20 23 17 25
REMARK Flexibility Score: inf
ROOT
ATOM      1  C   UNL     1      40.126 -30.831  11.604  1.00  0.00     0.138 A 
ATOM      2  C   UNL     1      40.479 -29.972  10.555  1.00  0.00     0.100 A 
ATOM      3  C   UNL     1      41.822 -29.821  10.208  1.00  0.00     0.197 A 
ATOM      4  O   UNL     1      42.103 -29.093   9.221  1.00  0.00    -0.289 OA
ATOM      5  C   UNL     1      42.819 -30.512  10.938  1.00  0.00     0.107 A 
ATOM      6  C   UNL     1      44.222 -30.403  10.700  1.00  0.00     0.134 A 
ATOM      7  C   UNL     1      45.108 -31.223  11.410  1.00  0.00     0.093 A 
ATOM      8  C   UNL     1      44.645 -32.103  12.392  1.00  0.00     0.123 A 
ATOM      9  C   UNL     1      43.282 -32.177  12.669  1.00  0.00     0.094 A 
ATOM     10  C   UNL     1      42.371 -31.397  11.954  1.00  0.00     0.146 A 
ATOM     11  O   UNL     1      41.077 -31.509  12.239  1.00  0.00    -0.456 OA
ENDROOT
BRANCH   1  12
ATOM     12  C   UNL     1      38.714 -31.027  12.016  1.00  0.00     0.021 A 
ATOM     13  C   UNL     1      38.280 -32.219  12.627  1.00  0.00     0.016 A 
ATOM     14  C   UNL     1      36.942 -32.381  12.996  1.00  0.00     0.051 A 
ATOM     15  C   UNL     1      36.012 -31.361  12.754  1.00  0.00     0.157 A 
ATOM     16  C   UNL     1      37.772 -30.013  11.765  1.00  0.00     0.062 A 
ATOM     17  C   UNL     1      36.431 -30.172  12.134  1.00  0.00     0.158 A 
BRANCH  15  18
ATOM     18  O   UNL     1      34.679 -31.525  13.125  1.00  0.00    -0.504 OA
ATOM     19  H   UNL     1      34.239 -30.917  13.807  1.00  0.00     0.293 HD
ENDBRANCH  15  18
BRANCH  17  20
ATOM     20  O   UNL     1      35.530 -29.139  11.876  1.00  0.00    -0.504 OA
ATOM     21  H   UNL     1      34.792 -28.894  12.525  1.00  0.00     0.293 HD
ENDBRANCH  17  20
ENDBRANCH   1  12
BRANCH   6  22
ATOM     22  O   UNL     1      44.795 -29.496   9.803  1.00  0.00    -0.507 OA
ATOM     23  H   UNL     1      44.957 -28.520   9.996  1.00  0.00     0.293 HD
ENDBRANCH   6  22
BRANCH   8  24
ATOM     24  O   UNL     1      45.536 -32.905  13.105  1.00  0.00    -0.508 OA
ATOM     25  H   UNL     1      46.424 -33.189  12.710  1.00  0.00     0.293 HD
ENDBRANCH   8  24
TORSDOF 5
ENDMDL
MODEL 8
REMARK VINA RESULT:    -3.420      2.173      3.460
REMARK INTER + INTRA:          -4.338
REMARK INTER:                  -4.072
REMARK INTRA:                  -0.265
REMARK UNBOUND:                -0.318
REMARK SMILES O=c1cc(-c2ccc(O)c(O)c2)oc2cc(O)cc(O)c12
REMARK SMILES IDX 4 1 3 2 2 3 1 4 21 5 19 6 18 7 16 8 15 9 14 10 13 11 5 12
REMARK SMILES IDX 6 13 7 14 8 15 12 16 10 17 9 18 11 20 20 22 17 24
REMARK H PARENT 9 19 11 21 20 23 17 25
REMARK Flexibility Score: inf
ROOT
ATOM      1  C   UNL     1      40.627 -31.212  11.743  1.00  0.00     0.138 A 
ATOM      2  C   UNL     1      40.874 -32.504  12.228  1.00  0.00     0.100 A 
ATOM      3  C   UNL     1      42.169 -32.865  12.601  1.00  0.00     0.197 A 
ATOM      4  O   UNL     1      42.348 -34.009  13.092  1.00  0.00    -0.289 OA
ATOM      5  C   UNL     1      43.227 -31.935  12.458  1.00  0.00     0.107 A 
ATOM      6  C   UNL     1      44.594 -32.207  12.768  1.00  0.00     0.134 A 
ATOM      7  C   UNL     1      45.535 -31.173  12.697  1.00  0.00     0.093 A 
ATOM      8  C   UNL     1      45.171 -29.894  12.268  1.00  0.00     0.123 A 
ATOM      9  C   UNL     1      43.850 -29.634  11.911  1.00  0.00     0.094 A 
ATOM     10  C   UNL     1      42.880 -30.635  12.005  1.00  0.00     0.146 A 
ATOM     11  O   UNL     1      41.628 -30.341  11.669  1.00  0.00    -0.456 OA
ENDROOT
BRANCH   1  12
ATOM     12  C   UNL     1      39.269 -30.776  11.330  1.00  0.00     0.021 A 
ATOM     13  C   UNL     1      38.311 -30.350  12.270  1.00  0.00     0.016 A 
ATOM     14  C   UNL     1      37.037 -29.954  11.854  1.00  0.00     0.051 A 
ATOM     15  C   UNL     1      36.695 -29.983  10.496  1.00  0.00     0.157 A 
ATOM     16  C   UNL     1      38.913 -30.814   9.970  1.00  0.00     0.062 A 
ATOM     17  C   UNL     1      37.638 -30.418   9.551  1.00  0.00     0.158 A 
BRANCH  15  18
ATOM     18  O   UNL     1      35.423 -29.585  10.085  1.00  0.00    -0.504 OA
ATOM     19  H   UNL     1      34.936 -28.817  10.534  1.00  0.00     0.293 HD
ENDBRANCH  15  18
BRANCH  17  20
ATOM     20  O   UNL     1      37.327 -30.461   8.192  1.00  0.00    -0.504 OA
ATOM     21  H   UNL     1      36.386 -30.636   7.860  1.00  0.00     0.293 HD
ENDBRANCH  17  20
ENDBRANCH   1  12
BRANCH   6  22
ATOM     22  O   UNL     1      45.078 -33.468  13.125  1.00  0.00    -0.507 OA
ATOM     23  H   UNL     1      44.839 -33.960  13.972  1.00  0.00     0.293 HD
ENDBRANCH   6  22
BRANCH   8  24
ATOM     24  O   UNL     1      46.118 -28.875  12.184  1.00  0.00    -0.508 OA
ATOM     25  H   UNL     1      46.176 -28.147  12.886  1.00  0.00     0.293 HD
ENDBRANCH   8  24
TORSDOF 5
ENDMDL
