MODEL 1
REMARK VINA RESULT:    -3.318      0.000      0.000
REMARK INTER + INTRA:          -8.258
REMARK INTER:                  -6.034
REMARK INTRA:                  -2.224
REMARK UNBOUND:                -2.224
REMARK SMILES CCCCCCCCCCCCCCCC(=O)[O-]
REMARK SMILES IDX 9 1 10 2 11 3 12 4 13 5 14 6 15 7 16 8 17 9 18 10 8 11 7 12
REMARK SMILES IDX 6 13 5 14 4 15 3 16 2 17 1 18
REMARK H PARENT
REMARK Flexibility Score: inf
ROOT
ATOM      1  C   UNL     1      61.115  31.548  58.243  1.00  0.00     0.000 C 
ENDROOT
BRANCH   1   2
ATOM      2  C   UNL     1      60.507  30.962  59.531  1.00  0.00     0.000 C 
BRANCH   2   3
ATOM      3  C   UNL     1      61.041  31.564  60.844  1.00  0.00     0.000 C 
BRANCH   3   4
ATOM      4  C   UNL     1      61.343  30.499  61.912  1.00  0.00     0.000 C 
BRANCH   4   5
ATOM      5  C   UNL     1      62.246  29.366  61.394  1.00  0.00     0.000 C 
BRANCH   5   6
ATOM      6  C   UNL     1      63.761  29.649  61.446  1.00  0.00     0.006 C 
BRANCH   6   7
ATOM      7  C   UNL     1      64.618  28.622  60.682  1.00  0.00     0.053 C 
BRANCH   7   8
ATOM      8  C   UNL     1      66.067  29.006  60.628  1.00  0.00     0.041 C 
ATOM      9  O   UNL     1      66.877  28.548  61.477  1.00  0.00    -0.550 OA
ATOM     10  O   UNL     1      66.530  29.835  59.615  1.00  0.00    -0.550 OA
ENDBRANCH   7   8
ENDBRANCH   6   7
ENDBRANCH   5   6
ENDBRANCH   4   5
ENDBRANCH   3   4
ENDBRANCH   2   3
ENDBRANCH   1   2
BRANCH   1  11
ATOM     11  C   UNL     1      62.292  30.718  57.704  1.00  0.00     0.000 C 
BRANCH  11  12
ATOM     12  C   UNL     1      63.653  31.226  58.207  1.00  0.00    -0.000 C 
BRANCH  12  13
ATOM     13  C   UNL     1      63.674  32.746  58.431  1.00  0.00    -0.000 C 
BRANCH  13  14
ATOM     14  C   UNL     1      64.593  33.114  59.605  1.00  0.00    -0.000 C 
BRANCH  14  15
ATOM     15  C   UNL     1      63.815  33.605  60.835  1.00  0.00    -0.000 C 
BRANCH  15  16
ATOM     16  C   UNL     1      63.987  35.114  61.082  1.00  0.00    -0.000 C 
BRANCH  16  17
ATOM     17  C   UNL     1      62.645  35.858  61.139  1.00  0.00    -0.003 C 
ATOM     18  C   UNL     1      61.524  35.110  60.416  1.00  0.00     0.004 C 
ENDBRANCH  16  17
ENDBRANCH  15  16
ENDBRANCH  14  15
ENDBRANCH  13  14
ENDBRANCH  12  13
ENDBRANCH  11  12
ENDBRANCH   1  11
TORSDOF 14
ENDMDL
MODEL 2
REMARK VINA RESULT:    -3.266      1.453      2.546
REMARK INTER + INTRA:          -8.164
REMARK INTER:                  -6.408
REMARK INTRA:                  -1.756
REMARK UNBOUND:                -2.224
REMARK SMILES CCCCCCCCCCCCCCCC(=O)[O-]
REMARK SMILES IDX 9 1 10 2 11 3 12 4 13 5 14 6 15 7 16 8 17 9 18 10 8 11 7 12
REMARK SMILES IDX 6 13 5 14 4 15 3 16 2 17 1 18
REMARK H PARENT
REMARK Flexibility Score: inf
ROOT
ATOM      1  C   UNL     1      60.909  31.569  59.746  1.00  0.00     0.000 C 
ENDROOT
BRANCH   1   2
ATOM      2  C   UNL     1      60.873  31.332  61.268  1.00  0.00     0.000 C 
BRANCH   2   3
ATOM      3  C   UNL     1      61.699  30.132  61.767  1.00  0.00     0.000 C 
BRANCH   3   4
ATOM      4  C   UNL     1      62.863  29.775  60.828  1.00  0.00     0.000 C 
BRANCH   4   5
ATOM      5  C   UNL     1      64.170  30.505  61.185  1.00  0.00     0.000 C 
BRANCH   5   6
ATOM      6  C   UNL     1      65.140  30.740  60.010  1.00  0.00     0.006 C 
BRANCH   6   7
ATOM      7  C   UNL     1      65.785  29.454  59.460  1.00  0.00     0.053 C 
BRANCH   7   8
ATOM      8  C   UNL     1      66.274  28.543  60.546  1.00  0.00     0.041 C 
ATOM      9  O   UNL     1      65.699  27.444  60.760  1.00  0.00    -0.550 OA
ATOM     10  O   UNL     1      67.392  28.890  61.294  1.00  0.00    -0.550 OA
ENDBRANCH   7   8
ENDBRANCH   6   7
ENDBRANCH   5   6
ENDBRANCH   4   5
ENDBRANCH   3   4
ENDBRANCH   2   3
ENDBRANCH   1   2
BRANCH   1  11
ATOM     11  C   UNL     1      61.539  32.919  59.363  1.00  0.00     0.000 C 
BRANCH  11  12
ATOM     12  C   UNL     1      62.188  33.630  60.563  1.00  0.00    -0.000 C 
BRANCH  12  13
ATOM     13  C   UNL     1      61.844  35.126  60.624  1.00  0.00    -0.000 C 
BRANCH  13  14
ATOM     14  C   UNL     1      63.004  35.929  61.230  1.00  0.00    -0.000 C 
BRANCH  14  15
ATOM     15  C   UNL     1      64.254  35.070  61.477  1.00  0.00    -0.000 C 
BRANCH  15  16
ATOM     16  C   UNL     1      65.536  35.716  60.923  1.00  0.00    -0.000 C 
BRANCH  16  17
ATOM     17  C   UNL     1      65.479  35.926  59.403  1.00  0.00    -0.003 C 
ATOM     18  C   UNL     1      65.217  34.630  58.636  1.00  0.00     0.004 C 
ENDBRANCH  16  17
ENDBRANCH  15  16
ENDBRANCH  14  15
ENDBRANCH  13  14
ENDBRANCH  12  13
ENDBRANCH  11  12
ENDBRANCH   1  11
TORSDOF 14
ENDMDL
MODEL 3
REMARK VINA RESULT:    -3.213      1.898      3.609
REMARK INTER + INTRA:          -8.067
REMARK INTER:                  -5.993
REMARK INTRA:                  -2.074
REMARK UNBOUND:                -2.224
REMARK SMILES CCCCCCCCCCCCCCCC(=O)[O-]
REMARK SMILES IDX 9 1 10 2 11 3 12 4 13 5 14 6 15 7 16 8 17 9 18 10 8 11 7 12
REMARK SMILES IDX 6 13 5 14 4 15 3 16 2 17 1 18
REMARK H PARENT
REMARK Flexibility Score: inf
ROOT
ATOM      1  C   UNL     1      64.146  33.121  58.441  1.00  0.00     0.000 C 
ENDROOT
BRANCH   1   2
ATOM      2  C   UNL     1      62.921  32.321  57.961  1.00  0.00     0.000 C 
BRANCH   2   3
ATOM      3  C   UNL     1      61.622  33.133  57.810  1.00  0.00     0.000 C 
BRANCH   3   4
ATOM      4  C   UNL     1      60.424  32.483  58.523  1.00  0.00     0.000 C 
BRANCH   4   5
ATOM      5  C   UNL     1      60.827  31.304  59.424  1.00  0.00     0.000 C 
BRANCH   5   6
ATOM      6  C   UNL     1      61.000  31.640  60.919  1.00  0.00     0.006 C 
BRANCH   6   7
ATOM      7  C   UNL     1      60.963  30.412  61.849  1.00  0.00     0.053 C 
BRANCH   7   8
ATOM      8  C   UNL     1      62.199  29.570  61.744  1.00  0.00     0.041 C 
ATOM      9  O   UNL     1      63.337  30.109  61.751  1.00  0.00    -0.550 OA
ATOM     10  O   UNL     1      62.096  28.186  61.680  1.00  0.00    -0.550 OA
ENDBRANCH   7   8
ENDBRANCH   6   7
ENDBRANCH   5   6
ENDBRANCH   4   5
ENDBRANCH   3   4
ENDBRANCH   2   3
ENDBRANCH   1   2
BRANCH   1  11
ATOM     11  C   UNL     1      64.648  32.677  59.826  1.00  0.00     0.000 C 
BRANCH  11  12
ATOM     12  C   UNL     1      63.945  33.418  60.975  1.00  0.00    -0.000 C 
BRANCH  12  13
ATOM     13  C   UNL     1      64.448  34.860  61.147  1.00  0.00    -0.000 C 
BRANCH  13  14
ATOM     14  C   UNL     1      63.279  35.855  61.113  1.00  0.00    -0.000 C 
BRANCH  14  15
ATOM     15  C   UNL     1      61.955  35.198  60.691  1.00  0.00    -0.000 C 
BRANCH  15  16
ATOM     16  C   UNL     1      60.812  36.217  60.537  1.00  0.00    -0.000 C 
BRANCH  16  17
ATOM     17  C   UNL     1      60.548  36.588  59.070  1.00  0.00    -0.003 C 
ATOM     18  C   UNL     1      59.254  35.980  58.530  1.00  0.00     0.004 C 
ENDBRANCH  16  17
ENDBRANCH  15  16
ENDBRANCH  14  15
ENDBRANCH  13  14
ENDBRANCH  12  13
ENDBRANCH  11  12
ENDBRANCH   1  11
TORSDOF 14
ENDMDL
MODEL 4
REMARK VINA RESULT:    -3.208      1.529      3.458
REMARK INTER + INTRA:          -8.058
REMARK INTER:                  -6.387
REMARK INTRA:                  -1.670
REMARK UNBOUND:                -2.224
REMARK SMILES CCCCCCCCCCCCCCCC(=O)[O-]
REMARK SMILES IDX 9 1 10 2 11 3 12 4 13 5 14 6 15 7 16 8 17 9 18 10 8 11 7 12
REMARK SMILES IDX 6 13 5 14 4 15 3 16 2 17 1 18
REMARK H PARENT
REMARK Flexibility Score: inf
ROOT
ATOM      1  C   UNL     1      64.109  32.944  60.697  1.00  0.00     0.000 C 
ENDROOT
BRANCH   1   2
ATOM      2  C   UNL     1      62.888  32.872  59.761  1.00  0.00     0.000 C 
BRANCH   2   3
ATOM      3  C   UNL     1      61.547  32.562  60.451  1.00  0.00     0.000 C 
BRANCH   3   4
ATOM      4  C   UNL     1      61.201  31.064  60.442  1.00  0.00     0.000 C 
BRANCH   4   5
ATOM      5  C   UNL     1      61.453  30.380  61.797  1.00  0.00     0.000 C 
BRANCH   5   6
ATOM      6  C   UNL     1      62.366  29.138  61.754  1.00  0.00     0.006 C 
BRANCH   6   7
ATOM      7  C   UNL     1      63.141  28.973  60.434  1.00  0.00     0.053 C 
BRANCH   7   8
ATOM      8  C   UNL     1      64.605  28.726  60.650  1.00  0.00     0.041 C 
ATOM      9  O   UNL     1      65.400  29.693  60.774  1.00  0.00    -0.550 OA
ATOM     10  O   UNL     1      65.083  27.426  60.755  1.00  0.00    -0.550 OA
ENDBRANCH   7   8
ENDBRANCH   6   7
ENDBRANCH   5   6
ENDBRANCH   4   5
ENDBRANCH   3   4
ENDBRANCH   2   3
ENDBRANCH   1   2
BRANCH   1  11
ATOM     11  C   UNL     1      64.316  34.341  61.306  1.00  0.00     0.000 C 
BRANCH  11  12
ATOM     12  C   UNL     1      63.651  35.452  60.476  1.00  0.00    -0.000 C 
BRANCH  12  13
ATOM     13  C   UNL     1      63.266  36.676  61.322  1.00  0.00    -0.000 C 
BRANCH  13  14
ATOM     14  C   UNL     1      61.830  37.123  61.015  1.00  0.00    -0.000 C 
BRANCH  14  15
ATOM     15  C   UNL     1      60.965  35.988  60.446  1.00  0.00    -0.000 C 
BRANCH  15  16
ATOM     16  C   UNL     1      59.856  36.500  59.510  1.00  0.00    -0.000 C 
BRANCH  16  17
ATOM     17  C   UNL     1      59.769  35.695  58.205  1.00  0.00    -0.003 C 
ATOM     18  C   UNL     1      61.143  35.328  57.645  1.00  0.00     0.004 C 
ENDBRANCH  16  17
ENDBRANCH  15  16
ENDBRANCH  14  15
ENDBRANCH  13  14
ENDBRANCH  12  13
ENDBRANCH  11  12
ENDBRANCH   1  11
TORSDOF 14
ENDMDL
MODEL 5
REMARK VINA RESULT:    -3.161      3.268      6.294
REMARK INTER + INTRA:          -7.972
REMARK INTER:                  -5.694
REMARK INTRA:                  -2.279
REMARK UNBOUND:                -2.224
REMARK SMILES CCCCCCCCCCCCCCCC(=O)[O-]
REMARK SMILES IDX 9 1 10 2 11 3 12 4 13 5 14 6 15 7 16 8 17 9 18 10 8 11 7 12
REMARK SMILES IDX 6 13 5 14 4 15 3 16 2 17 1 18
REMARK H PARENT
REMARK Flexibility Score: inf
ROOT
ATOM      1  C   UNL     1      62.434  32.392  59.377  1.00  0.00     0.000 C 
ENDROOT
BRANCH   1   2
ATOM      2  C   UNL     1      63.784  33.114  59.545  1.00  0.00     0.000 C 
BRANCH   2   3
ATOM      3  C   UNL     1      64.058  33.679  60.951  1.00  0.00     0.000 C 
BRANCH   3   4
ATOM      4  C   UNL     1      64.322  35.195  60.945  1.00  0.00     0.000 C 
BRANCH   4   5
ATOM      5  C   UNL     1      63.096  36.021  61.372  1.00  0.00     0.000 C 
BRANCH   5   6
ATOM      6  C   UNL     1      62.236  36.578  60.219  1.00  0.00     0.006 C 
BRANCH   6   7
ATOM      7  C   UNL     1      60.821  35.976  60.142  1.00  0.00     0.053 C 
BRANCH   7   8
ATOM      8  C   UNL     1      60.370  35.736  58.732  1.00  0.00     0.041 C 
ATOM      9  O   UNL     1      59.748  34.683  58.434  1.00  0.00    -0.550 OA
ATOM     10  O   UNL     1      60.603  36.696  57.755  1.00  0.00    -0.550 OA
ENDBRANCH   7   8
ENDBRANCH   6   7
ENDBRANCH   5   6
ENDBRANCH   4   5
ENDBRANCH   3   4
ENDBRANCH   2   3
ENDBRANCH   1   2
BRANCH   1  11
ATOM     11  C   UNL     1      61.551  32.472  60.634  1.00  0.00     0.000 C 
BRANCH  11  12
ATOM     12  C   UNL     1      60.878  31.130  60.970  1.00  0.00    -0.000 C 
BRANCH  12  13
ATOM     13  C   UNL     1      61.777  30.208  61.807  1.00  0.00    -0.000 C 
BRANCH  13  14
ATOM     14  C   UNL     1      62.125  28.930  61.031  1.00  0.00    -0.000 C 
BRANCH  14  15
ATOM     15  C   UNL     1      63.621  28.585  61.097  1.00  0.00    -0.000 C 
BRANCH  15  16
ATOM     16  C   UNL     1      64.513  29.835  61.201  1.00  0.00    -0.000 C 
BRANCH  16  17
ATOM     17  C   UNL     1      65.592  29.880  60.110  1.00  0.00    -0.003 C 
ATOM     18  C   UNL     1      65.020  29.694  58.705  1.00  0.00     0.004 C 
ENDBRANCH  16  17
ENDBRANCH  15  16
ENDBRANCH  14  15
ENDBRANCH  13  14
ENDBRANCH  12  13
ENDBRANCH  11  12
ENDBRANCH   1  11
TORSDOF 14
ENDMDL
MODEL 6
REMARK VINA RESULT:    -3.125     11.110     12.644
REMARK INTER + INTRA:          -7.907
REMARK INTER:                  -5.799
REMARK INTRA:                  -2.108
REMARK UNBOUND:                -2.224
REMARK SMILES CCCCCCCCCCCCCCCC(=O)[O-]
REMARK SMILES IDX 9 1 10 2 11 3 12 4 13 5 14 6 15 7 16 8 17 9 18 10 8 11 7 12
REMARK SMILES IDX 6 13 5 14 4 15 3 16 2 17 1 18
REMARK H PARENT
REMARK Flexibility Score: inf
ROOT
ATOM      1  C   UNL     1      57.692  28.072  51.436  1.00  0.00     0.000 C 
ENDROOT
BRANCH   1   2
ATOM      2  C   UNL     1      57.598  28.906  50.145  1.00  0.00     0.000 C 
BRANCH   2   3
ATOM      3  C   UNL     1      58.943  29.223  49.466  1.00  0.00     0.000 C 
BRANCH   3   4
ATOM      4  C   UNL     1      59.693  27.962  49.005  1.00  0.00     0.000 C 
BRANCH   4   5
ATOM      5  C   UNL     1      61.005  27.727  49.774  1.00  0.00     0.000 C 
BRANCH   5   6
ATOM      6  C   UNL     1      61.398  26.250  49.980  1.00  0.00     0.006 C 
BRANCH   6   7
ATOM      7  C   UNL     1      60.202  25.280  50.015  1.00  0.00     0.053 C 
BRANCH   7   8
ATOM      8  C   UNL     1      59.898  24.788  51.398  1.00  0.00     0.041 C 
ATOM      9  O   UNL     1      58.890  24.062  51.607  1.00  0.00    -0.550 OA
ATOM     10  O   UNL     1      60.751  25.097  52.450  1.00  0.00    -0.550 OA
ENDBRANCH   7   8
ENDBRANCH   6   7
ENDBRANCH   5   6
ENDBRANCH   4   5
ENDBRANCH   3   4
ENDBRANCH   2   3
ENDBRANCH   1   2
BRANCH   1  11
ATOM     11  C   UNL     1      56.743  26.862  51.441  1.00  0.00     0.000 C 
BRANCH  11  12
ATOM     12  C   UNL     1      56.543  26.264  50.039  1.00  0.00    -0.000 C 
BRANCH  12  13
ATOM     13  C   UNL     1      55.066  25.984  49.717  1.00  0.00    -0.000 C 
BRANCH  13  14
ATOM     14  C   UNL     1      54.255  27.287  49.692  1.00  0.00    -0.000 C 
BRANCH  14  15
ATOM     15  C   UNL     1      53.112  27.293  50.719  1.00  0.00    -0.000 C 
BRANCH  15  16
ATOM     16  C   UNL     1      53.297  28.368  51.805  1.00  0.00    -0.000 C 
BRANCH  16  17
ATOM     17  C   UNL     1      54.155  29.547  51.325  1.00  0.00    -0.003 C 
ATOM     18  C   UNL     1      53.558  30.903  51.701  1.00  0.00     0.004 C 
ENDBRANCH  16  17
ENDBRANCH  15  16
ENDBRANCH  14  15
ENDBRANCH  13  14
ENDBRANCH  12  13
ENDBRANCH  11  12
ENDBRANCH   1  11
TORSDOF 14
ENDMDL
MODEL 7
REMARK VINA RESULT:    -3.125     11.530     13.443
REMARK INTER + INTRA:          -7.906
REMARK INTER:                  -5.918
REMARK INTRA:                  -1.988
REMARK UNBOUND:                -2.224
REMARK SMILES CCCCCCCCCCCCCCCC(=O)[O-]
REMARK SMILES IDX 9 1 10 2 11 3 12 4 13 5 14 6 15 7 16 8 17 9 18 10 8 11 7 12
REMARK SMILES IDX 6 13 5 14 4 15 3 16 2 17 1 18
REMARK H PARENT
REMARK Flexibility Score: inf
ROOT
ATOM      1  C   UNL     1      57.119  28.836  50.645  1.00  0.00     0.000 C 
ENDROOT
BRANCH   1   2
ATOM      2  C   UNL     1      56.938  27.917  51.868  1.00  0.00     0.000 C 
BRANCH   2   3
ATOM      3  C   UNL     1      56.378  26.516  51.561  1.00  0.00     0.000 C 
BRANCH   3   4
ATOM      4  C   UNL     1      56.487  26.140  50.074  1.00  0.00     0.000 C 
BRANCH   4   5
ATOM      5  C   UNL     1      55.121  25.863  49.422  1.00  0.00     0.000 C 
BRANCH   5   6
ATOM      6  C   UNL     1      53.905  26.487  50.136  1.00  0.00     0.006 C 
BRANCH   6   7
ATOM      7  C   UNL     1      53.555  27.908  49.657  1.00  0.00     0.053 C 
BRANCH   7   8
ATOM      8  C   UNL     1      53.487  28.897  50.783  1.00  0.00     0.041 C 
ATOM      9  O   UNL     1      53.627  30.128  50.556  1.00  0.00    -0.550 OA
ATOM     10  O   UNL     1      53.226  28.463  52.076  1.00  0.00    -0.550 OA
ENDBRANCH   7   8
ENDBRANCH   6   7
ENDBRANCH   5   6
ENDBRANCH   4   5
ENDBRANCH   3   4
ENDBRANCH   2   3
ENDBRANCH   1   2
BRANCH   1  11
ATOM     11  C   UNL     1      58.576  29.287  50.444  1.00  0.00     0.000 C 
BRANCH  11  12
ATOM     12  C   UNL     1      59.153  28.834  49.093  1.00  0.00    -0.000 C 
BRANCH  12  13
ATOM     13  C   UNL     1      59.932  27.513  49.192  1.00  0.00    -0.000 C 
BRANCH  13  14
ATOM     14  C   UNL     1      60.506  27.321  50.603  1.00  0.00    -0.000 C 
BRANCH  14  15
ATOM     15  C   UNL     1      60.342  25.882  51.117  1.00  0.00    -0.000 C 
BRANCH  15  16
ATOM     16  C   UNL     1      61.690  25.205  51.422  1.00  0.00    -0.000 C 
BRANCH  16  17
ATOM     17  C   UNL     1      61.962  23.999  50.511  1.00  0.00    -0.003 C 
ATOM     18  C   UNL     1      60.686  23.425  49.895  1.00  0.00     0.004 C 
ENDBRANCH  16  17
ENDBRANCH  15  16
ENDBRANCH  14  15
ENDBRANCH  13  14
ENDBRANCH  12  13
ENDBRANCH  11  12
ENDBRANCH   1  11
TORSDOF 14
ENDMDL
MODEL 8
REMARK VINA RESULT:    -3.109      1.442      2.295
REMARK INTER + INTRA:          -7.877
REMARK INTER:                  -6.005
REMARK INTRA:                  -1.873
REMARK UNBOUND:                -2.224
REMARK SMILES CCCCCCCCCCCCCCCC(=O)[O-]
REMARK SMILES IDX 9 1 10 2 11 3 12 4 13 5 14 6 15 7 16 8 17 9 18 10 8 11 7 12
REMARK SMILES IDX 6 13 5 14 4 15 3 16 2 17 1 18
REMARK H PARENT
REMARK Flexibility Score: inf
ROOT
ATOM      1  C   UNL     1      61.290  31.927  60.887  1.00  0.00     0.000 C 
ENDROOT
BRANCH   1   2
ATOM      2  C   UNL     1      60.945  30.446  61.133  1.00  0.00     0.000 C 
BRANCH   2   3
ATOM      3  C   UNL     1      62.024  29.632  61.870  1.00  0.00     0.000 C 
BRANCH   3   4
ATOM      4  C   UNL     1      62.348  28.299  61.174  1.00  0.00     0.000 C 
BRANCH   4   5
ATOM      5  C   UNL     1      63.686  28.325  60.415  1.00  0.00     0.000 C 
BRANCH   5   6
ATOM      6  C   UNL     1      64.797  29.180  61.058  1.00  0.00     0.006 C 
BRANCH   6   7
ATOM      7  C   UNL     1      65.991  29.463  60.128  1.00  0.00     0.053 C 
BRANCH   7   8
ATOM      8  C   UNL     1      67.200  28.647  60.475  1.00  0.00     0.041 C 
ATOM      9  O   UNL     1      67.550  28.511  61.677  1.00  0.00    -0.550 OA
ATOM     10  O   UNL     1      67.917  28.004  59.474  1.00  0.00    -0.550 OA
ENDBRANCH   7   8
ENDBRANCH   6   7
ENDBRANCH   5   6
ENDBRANCH   4   5
ENDBRANCH   3   4
ENDBRANCH   2   3
ENDBRANCH   1   2
BRANCH   1  11
ATOM     11  C   UNL     1      62.509  32.114  59.967  1.00  0.00     0.000 C 
BRANCH  11  12
ATOM     12  C   UNL     1      63.763  32.567  60.733  1.00  0.00    -0.000 C 
BRANCH  12  13
ATOM     13  C   UNL     1      64.214  33.985  60.349  1.00  0.00    -0.000 C 
BRANCH  13  14
ATOM     14  C   UNL     1      63.587  35.030  61.283  1.00  0.00    -0.000 C 
BRANCH  14  15
ATOM     15  C   UNL     1      62.723  36.054  60.531  1.00  0.00    -0.000 C 
BRANCH  15  16
ATOM     16  C   UNL     1      61.216  35.774  60.671  1.00  0.00    -0.000 C 
BRANCH  16  17
ATOM     17  C   UNL     1      60.575  35.326  59.350  1.00  0.00    -0.003 C 
ATOM     18  C   UNL     1      61.546  35.389  58.171  1.00  0.00     0.004 C 
ENDBRANCH  16  17
ENDBRANCH  15  16
ENDBRANCH  14  15
ENDBRANCH  13  14
ENDBRANCH  12  13
ENDBRANCH  11  12
ENDBRANCH   1  11
TORSDOF 14
ENDMDL
MODEL 9
REMARK VINA RESULT:    -3.050      1.135      2.575
REMARK INTER + INTRA:          -7.770
REMARK INTER:                  -5.486
REMARK INTRA:                  -2.285
REMARK UNBOUND:                -2.224
REMARK SMILES CCCCCCCCCCCCCCCC(=O)[O-]
REMARK SMILES IDX 9 1 10 2 11 3 12 4 13 5 14 6 15 7 16 8 17 9 18 10 8 11 7 12
REMARK SMILES IDX 6 13 5 14 4 15 3 16 2 17 1 18
REMARK H PARENT
REMARK Flexibility Score: inf
ROOT
ATOM      1  C   UNL     1      61.133  32.294  57.809  1.00  0.00     0.000 C 
ENDROOT
BRANCH   1   2
ATOM      2  C   UNL     1      61.488  31.200  58.833  1.00  0.00     0.000 C 
BRANCH   2   3
ATOM      3  C   UNL     1      60.516  31.067  60.020  1.00  0.00     0.000 C 
BRANCH   3   4
ATOM      4  C   UNL     1      61.218  31.180  61.384  1.00  0.00     0.000 C 
BRANCH   4   5
ATOM      5  C   UNL     1      61.945  29.888  61.795  1.00  0.00     0.000 C 
BRANCH   5   6
ATOM      6  C   UNL     1      63.447  29.833  61.450  1.00  0.00     0.006 C 
BRANCH   6   7
ATOM      7  C   UNL     1      63.836  28.672  60.516  1.00  0.00     0.053 C 
BRANCH   7   8
ATOM      8  C   UNL     1      65.284  28.299  60.629  1.00  0.00     0.041 C 
ATOM      9  O   UNL     1      66.131  29.150  61.007  1.00  0.00    -0.550 OA
ATOM     10  O   UNL     1      65.691  27.000  60.355  1.00  0.00    -0.550 OA
ENDBRANCH   7   8
ENDBRANCH   6   7
ENDBRANCH   5   6
ENDBRANCH   4   5
ENDBRANCH   3   4
ENDBRANCH   2   3
ENDBRANCH   1   2
BRANCH   1  11
ATOM     11  C   UNL     1      60.319  33.447  58.421  1.00  0.00     0.000 C 
BRANCH  11  12
ATOM     12  C   UNL     1      61.185  34.676  58.741  1.00  0.00    -0.000 C 
BRANCH  12  13
ATOM     13  C   UNL     1      61.110  35.087  60.220  1.00  0.00    -0.000 C 
BRANCH  13  14
ATOM     14  C   UNL     1      62.514  35.195  60.830  1.00  0.00    -0.000 C 
BRANCH  14  15
ATOM     15  C   UNL     1      63.312  33.886  60.715  1.00  0.00    -0.000 C 
BRANCH  15  16
ATOM     16  C   UNL     1      64.624  34.060  59.929  1.00  0.00    -0.000 C 
BRANCH  16  17
ATOM     17  C   UNL     1      64.639  33.249  58.625  1.00  0.00    -0.003 C 
ATOM     18  C   UNL     1      65.143  31.819  58.824  1.00  0.00     0.004 C 
ENDBRANCH  16  17
ENDBRANCH  15  16
ENDBRANCH  14  15
ENDBRANCH  13  14
ENDBRANCH  12  13
ENDBRANCH  11  12
ENDBRANCH   1  11
TORSDOF 14
ENDMDL
