MODEL 1
REMARK VINA RESULT:    28.189      0.000      0.000
REMARK INTER + INTRA:          33.613
REMARK INTER:                  33.957
REMARK INTRA:                  -0.344
REMARK UNBOUND:                -0.344
REMARK SMILES Oc1cc(O)c2cc(O)c(-c3ccc(O)c(O)c3)[o+]c2c1.[Cl-]
REMARK SMILES IDX 10 1 19 2 20 3 21 4 2 5 3 6 4 7 6 8 7 9 8 10 11 11 12 12
REMARK SMILES IDX 13 13 14 14 18 15 16 16 15 17 17 19 9 21 1 23 5 25
REMARK H PARENT 15 18 17 20 9 22 1 24 5 26
REMARK Flexibility Score: inf
ROOT
ATOM      1  C   UNL     1      10.430  11.214  30.798  1.00  0.00     0.402 A 
ATOM      2  O   UNL     1      11.655  10.745  30.581  1.00  0.00    -0.202 OA
ATOM      3  C   UNL     1      12.602  11.437  29.957  1.00  0.00     0.368 A 
ATOM      4  C   UNL     1      13.862  10.859  29.778  1.00  0.00     0.162 A 
ATOM      5  C   UNL     1      14.876  11.564  29.129  1.00  0.00     0.128 A 
ATOM      6  C   UNL     1      14.631  12.857  28.653  1.00  0.00     0.093 A 
ATOM      7  C   UNL     1      13.377  13.458  28.819  1.00  0.00     0.136 A 
ATOM      8  C   UNL     1      12.343  12.744  29.476  1.00  0.00     0.125 A 
ATOM      9  C   UNL     1      11.052  13.261  29.675  1.00  0.00     0.078 A 
ATOM     10  C   UNL     1      10.082  12.495  30.328  1.00  0.00     0.223 A 
ENDROOT
BRANCH   1  11
ATOM     11  C   UNL     1       9.465  10.350  31.515  1.00  0.00     0.087 A 
ATOM     12  C   UNL     1       9.392  10.412  32.916  1.00  0.00     0.022 A 
ATOM     13  C   UNL     1       8.475   9.620  33.612  1.00  0.00     0.051 A 
ATOM     14  C   UNL     1       7.608   8.768  32.921  1.00  0.00     0.157 A 
ATOM     15  C   UNL     1       8.578   9.507  30.820  1.00  0.00     0.068 A 
ATOM     16  C   UNL     1       7.655   8.714  31.519  1.00  0.00     0.158 A 
BRANCH  14  17
ATOM     17  O   UNL     1       6.705   7.989  33.644  1.00  0.00    -0.504 OA
ATOM     18  H   UNL     1       6.606   6.993  33.483  1.00  0.00     0.293 HD
ENDBRANCH  14  17
BRANCH  16  19
ATOM     19  O   UNL     1       6.784   7.877  30.823  1.00  0.00    -0.504 OA
ATOM     20  H   UNL     1       6.808   7.808  29.812  1.00  0.00     0.293 HD
ENDBRANCH  16  19
ENDBRANCH   1  11
BRANCH  10  21
ATOM     21  O   UNL     1       8.787  12.988  30.482  1.00  0.00    -0.500 OA
ATOM     22  H   UNL     1       8.509  13.508  31.306  1.00  0.00     0.294 HD
ENDBRANCH  10  21
BRANCH   5  23
ATOM     23  O   UNL     1      16.125  10.970  28.962  1.00  0.00    -0.507 OA
ATOM     24  H   UNL     1      16.583  10.946  28.057  1.00  0.00     0.293 HD
ENDBRANCH   5  23
BRANCH   7  25
ATOM     25  O   UNL     1      13.213  14.753  28.317  1.00  0.00    -0.507 OA
ATOM     26  H   UNL     1      13.831  15.187  27.647  1.00  0.00     0.293 HD
ENDBRANCH   7  25
TORSDOF 6
ENDMDL
MODEL 2
REMARK VINA RESULT:    28.285      1.657      2.780
REMARK INTER + INTRA:          33.728
REMARK INTER:                  33.507
REMARK INTRA:                   0.221
REMARK UNBOUND:                -0.344
REMARK SMILES Oc1cc(O)c2cc(O)c(-c3ccc(O)c(O)c3)[o+]c2c1.[Cl-]
REMARK SMILES IDX 10 1 19 2 20 3 21 4 2 5 3 6 4 7 6 8 7 9 8 10 11 11 12 12
REMARK SMILES IDX 13 13 14 14 18 15 16 16 15 17 17 19 9 21 1 23 5 25
REMARK H PARENT 15 18 17 20 9 22 1 24 5 26
REMARK Flexibility Score: inf
ROOT
ATOM      1  C   UNL     1      10.472  11.233  30.625  1.00  0.00     0.402 A 
ATOM      2  O   UNL     1      10.293  11.800  29.435  1.00  0.00    -0.202 OA
ATOM      3  C   UNL     1      11.176  12.621  28.877  1.00  0.00     0.368 A 
ATOM      4  C   UNL     1      10.900  13.165  27.620  1.00  0.00     0.162 A 
ATOM      5  C   UNL     1      11.811  14.028  27.009  1.00  0.00     0.128 A 
ATOM      6  C   UNL     1      13.007  14.352  27.658  1.00  0.00     0.093 A 
ATOM      7  C   UNL     1      13.307  13.820  28.919  1.00  0.00     0.136 A 
ATOM      8  C   UNL     1      12.383  12.944  29.544  1.00  0.00     0.125 A 
ATOM      9  C   UNL     1      12.593  12.375  30.811  1.00  0.00     0.078 A 
ATOM     10  C   UNL     1      11.632  11.523  31.366  1.00  0.00     0.223 A 
ENDROOT
BRANCH   1  11
ATOM     11  C   UNL     1       9.418  10.326  31.135  1.00  0.00     0.087 A 
ATOM     12  C   UNL     1       8.100  10.470  30.672  1.00  0.00     0.022 A 
ATOM     13  C   UNL     1       7.094   9.613  31.125  1.00  0.00     0.051 A 
ATOM     14  C   UNL     1       7.390   8.591  32.031  1.00  0.00     0.157 A 
ATOM     15  C   UNL     1       9.718   9.285  32.032  1.00  0.00     0.068 A 
ATOM     16  C   UNL     1       8.708   8.423  32.485  1.00  0.00     0.158 A 
BRANCH  14  17
ATOM     17  O   UNL     1       6.364   7.753  32.467  1.00  0.00    -0.504 OA
ATOM     18  H   UNL     1       6.381   6.753  32.304  1.00  0.00     0.293 HD
ENDBRANCH  14  17
BRANCH  16  19
ATOM     19  O   UNL     1       9.013   7.397  33.379  1.00  0.00    -0.504 OA
ATOM     20  H   UNL     1       8.405   7.174  34.159  1.00  0.00     0.293 HD
ENDBRANCH  16  19
ENDBRANCH   1  11
BRANCH  10  21
ATOM     21  O   UNL     1      11.818  10.998  32.644  1.00  0.00    -0.500 OA
ATOM     22  H   UNL     1      11.738  11.574  33.474  1.00  0.00     0.294 HD
ENDBRANCH  10  21
BRANCH   5  23
ATOM     23  O   UNL     1      11.517  14.559  25.755  1.00  0.00    -0.507 OA
ATOM     24  H   UNL     1      12.058  15.321  25.362  1.00  0.00     0.293 HD
ENDBRANCH   5  23
BRANCH   7  25
ATOM     25  O   UNL     1      14.523  14.190  29.500  1.00  0.00    -0.507 OA
ATOM     26  H   UNL     1      14.894  15.129  29.499  1.00  0.00     0.293 HD
ENDBRANCH   7  25
TORSDOF 6
ENDMDL
MODEL 3
REMARK VINA RESULT:    28.575      1.613      2.513
REMARK INTER + INTRA:          34.078
REMARK INTER:                  33.856
REMARK INTRA:                   0.222
REMARK UNBOUND:                -0.344
REMARK SMILES Oc1cc(O)c2cc(O)c(-c3ccc(O)c(O)c3)[o+]c2c1.[Cl-]
REMARK SMILES IDX 10 1 19 2 20 3 21 4 2 5 3 6 4 7 6 8 7 9 8 10 11 11 12 12
REMARK SMILES IDX 13 13 14 14 18 15 16 16 15 17 17 19 9 21 1 23 5 25
REMARK H PARENT 15 18 17 20 9 22 1 24 5 26
REMARK Flexibility Score: inf
ROOT
ATOM      1  C   UNL     1      10.796  11.502  30.853  1.00  0.00     0.402 A 
ATOM      2  O   UNL     1      11.199  12.625  31.440  1.00  0.00    -0.202 OA
ATOM      3  C   UNL     1      12.079  13.458  30.896  1.00  0.00     0.368 A 
ATOM      4  C   UNL     1      12.438  14.617  31.590  1.00  0.00     0.162 A 
ATOM      5  C   UNL     1      13.358  15.512  31.041  1.00  0.00     0.128 A 
ATOM      6  C   UNL     1      13.925  15.248  29.789  1.00  0.00     0.093 A 
ATOM      7  C   UNL     1      13.582  14.093  29.074  1.00  0.00     0.136 A 
ATOM      8  C   UNL     1      12.649  13.180  29.630  1.00  0.00     0.125 A 
ATOM      9  C   UNL     1      12.256  11.992  28.992  1.00  0.00     0.078 A 
ATOM     10  C   UNL     1      11.334  11.138  29.605  1.00  0.00     0.223 A 
ENDROOT
BRANCH   1  11
ATOM     11  C   UNL     1       9.801  10.660  31.557  1.00  0.00     0.087 A 
ATOM     12  C   UNL     1       9.703  10.732  32.956  1.00  0.00     0.022 A 
ATOM     13  C   UNL     1       8.759   9.963  33.639  1.00  0.00     0.051 A 
ATOM     14  C   UNL     1       7.888   9.124  32.937  1.00  0.00     0.157 A 
ATOM     15  C   UNL     1       8.912   9.831  30.850  1.00  0.00     0.068 A 
ATOM     16  C   UNL     1       7.961   9.060  31.536  1.00  0.00     0.158 A 
BRANCH  14  17
ATOM     17  O   UNL     1       6.957   8.366  33.647  1.00  0.00    -0.504 OA
ATOM     18  H   UNL     1       6.200   8.793  34.166  1.00  0.00     0.293 HD
ENDBRANCH  14  17
BRANCH  16  19
ATOM     19  O   UNL     1       7.087   8.235  30.828  1.00  0.00    -0.504 OA
ATOM     20  H   UNL     1       6.628   8.550  29.981  1.00  0.00     0.293 HD
ENDBRANCH  16  19
ENDBRANCH   1  11
BRANCH  10  21
ATOM     21  O   UNL     1      10.982   9.935  28.994  1.00  0.00    -0.500 OA
ATOM     22  H   UNL     1      10.239   9.350  29.357  1.00  0.00     0.294 HD
ENDBRANCH  10  21
BRANCH   5  23
ATOM     23  O   UNL     1      13.702  16.661  31.748  1.00  0.00    -0.507 OA
ATOM     24  H   UNL     1      14.590  17.128  31.601  1.00  0.00     0.293 HD
ENDBRANCH   5  23
BRANCH   7  25
ATOM     25  O   UNL     1      14.189  13.903  27.830  1.00  0.00    -0.507 OA
ATOM     26  H   UNL     1      14.300  13.006  27.380  1.00  0.00     0.293 HD
ENDBRANCH   7  25
TORSDOF 6
ENDMDL
MODEL 4
REMARK VINA RESULT:    29.857      2.696      7.030
REMARK INTER + INTRA:          35.622
REMARK INTER:                  35.136
REMARK INTRA:                   0.486
REMARK UNBOUND:                -0.344
REMARK SMILES Oc1cc(O)c2cc(O)c(-c3ccc(O)c(O)c3)[o+]c2c1.[Cl-]
REMARK SMILES IDX 10 1 19 2 20 3 21 4 2 5 3 6 4 7 6 8 7 9 8 10 11 11 12 12
REMARK SMILES IDX 13 13 14 14 18 15 16 16 15 17 17 19 9 21 1 23 5 25
REMARK H PARENT 15 18 17 20 9 22 1 24 5 26
REMARK Flexibility Score: inf
ROOT
ATOM      1  C   UNL     1      11.560  13.067  28.762  1.00  0.00     0.402 A 
ATOM      2  O   UNL     1      10.493  12.310  29.004  1.00  0.00    -0.202 OA
ATOM      3  C   UNL     1      10.345  11.593  30.113  1.00  0.00     0.368 A 
ATOM      4  C   UNL     1       9.186  10.829  30.279  1.00  0.00     0.162 A 
ATOM      5  C   UNL     1       9.001  10.069  31.434  1.00  0.00     0.128 A 
ATOM      6  C   UNL     1       9.982  10.069  32.432  1.00  0.00     0.093 A 
ATOM      7  C   UNL     1      11.152  10.826  32.290  1.00  0.00     0.136 A 
ATOM      8  C   UNL     1      11.344  11.598  31.116  1.00  0.00     0.125 A 
ATOM      9  C   UNL     1      12.490  12.375  30.881  1.00  0.00     0.078 A 
ATOM     10  C   UNL     1      12.611  13.108  29.696  1.00  0.00     0.223 A 
ENDROOT
BRANCH   1  11
ATOM     11  C   UNL     1      11.604  13.830  27.493  1.00  0.00     0.087 A 
ATOM     12  C   UNL     1      12.768  14.538  27.154  1.00  0.00     0.022 A 
ATOM     13  C   UNL     1      12.839  15.248  25.953  1.00  0.00     0.051 A 
ATOM     14  C   UNL     1      11.759  15.247  25.065  1.00  0.00     0.157 A 
ATOM     15  C   UNL     1      10.526  13.814  26.590  1.00  0.00     0.068 A 
ATOM     16  C   UNL     1      10.598  14.524  25.382  1.00  0.00     0.158 A 
BRANCH  14  17
ATOM     17  O   UNL     1      11.859  15.967  23.875  1.00  0.00    -0.504 OA
ATOM     18  H   UNL     1      12.583  15.777  23.191  1.00  0.00     0.293 HD
ENDBRANCH  14  17
BRANCH  16  19
ATOM     19  O   UNL     1       9.522  14.508  24.496  1.00  0.00    -0.504 OA
ATOM     20  H   UNL     1       9.052  13.645  24.245  1.00  0.00     0.293 HD
ENDBRANCH  16  19
ENDBRANCH   1  11
BRANCH  10  21
ATOM     21  O   UNL     1      13.771  13.839  29.441  1.00  0.00    -0.500 OA
ATOM     22  H   UNL     1      14.668  13.388  29.309  1.00  0.00     0.294 HD
ENDBRANCH  10  21
BRANCH   5  23
ATOM     23  O   UNL     1       7.839   9.315  31.580  1.00  0.00    -0.507 OA
ATOM     24  H   UNL     1       6.921   9.730  31.474  1.00  0.00     0.293 HD
ENDBRANCH   5  23
BRANCH   7  25
ATOM     25  O   UNL     1      12.081  10.775  33.332  1.00  0.00    -0.507 OA
ATOM     26  H   UNL     1      12.852  11.419  33.442  1.00  0.00     0.293 HD
ENDBRANCH   7  25
TORSDOF 6
ENDMDL
