MODEL 1
REMARK VINA RESULT:    58.002      0.000      0.000
REMARK INTER + INTRA:          80.597
REMARK INTER:                  80.043
REMARK INTRA:                   0.554
REMARK UNBOUND:                 0.554
REMARK SMILES CC[C@@H](CC[C@@H](C)[C@H]1CC[C@H]2[C@H]3CC=C4C[C@@H](O)CC[C@@]4(C)[C@H]3CC[C@@]12C)C(C)C
REMARK SMILES IDX 5 1 4 2 3 3 2 4 1 5 28 6 29 7 30 8 6 9 7 10 8 11 9 12 26 13
REMARK SMILES IDX 10 14 11 15 25 16 27 17 12 18 24 19 23 20 13 21 21 22 14 23
REMARK SMILES IDX 15 24 20 25 22 26 16 27 19 28 17 29 18 30
REMARK H PARENT 18 31
REMARK Flexibility Score: inf
ROOT
ATOM      1  C   UNL     1     -31.197  31.504  -3.142  1.00  0.00     0.004 C 
ENDROOT
BRANCH   1   2
ATOM      2  C   UNL     1     -31.931  30.686  -2.059  1.00  0.00     0.004 C 
BRANCH   2   3
ATOM      3  C   UNL     1     -33.044  29.751  -2.605  1.00  0.00    -0.009 C 
BRANCH   3   4
ATOM      4  C   UNL     1     -33.322  30.033  -4.112  1.00  0.00     0.000 C 
ATOM      5  C   UNL     1     -34.766  30.461  -4.388  1.00  0.00     0.004 C 
ENDBRANCH   3   4
BRANCH   3   6
ATOM      6  C   UNL     1     -34.305  29.710  -1.666  1.00  0.00    -0.014 C 
ATOM      7  C   UNL     1     -34.958  28.318  -1.663  1.00  0.00     0.007 C 
ATOM      8  C   UNL     1     -35.371  30.789  -1.950  1.00  0.00     0.007 C 
ENDBRANCH   3   6
ENDBRANCH   2   3
ENDBRANCH   1   2
BRANCH   1   9
ATOM      9  C   UNL     1     -29.880  32.176  -2.649  1.00  0.00    -0.011 C 
ATOM     10  C   UNL     1     -30.046  32.637  -1.185  1.00  0.00     0.008 C 
BRANCH   9  11
ATOM     11  C   UNL     1     -28.647  31.200  -2.787  1.00  0.00    -0.002 C 
ATOM     12  C   UNL     1     -29.047  29.774  -3.175  1.00  0.00     0.005 C 
ATOM     13  C   UNL     1     -27.504  31.573  -3.807  1.00  0.00    -0.026 C 
ATOM     14  C   UNL     1     -27.767  29.095  -3.602  1.00  0.00     0.005 C 
ATOM     15  C   UNL     1     -26.892  30.188  -4.228  1.00  0.00    -0.001 C 
ATOM     16  C   UNL     1     -28.051  32.323  -5.054  1.00  0.00     0.007 C 
ATOM     17  C   UNL     1     -26.408  32.441  -3.121  1.00  0.00     0.012 C 
ATOM     18  C   UNL     1     -26.617  29.995  -5.761  1.00  0.00     0.000 C 
ATOM     19  C   UNL     1     -27.023  32.490  -6.186  1.00  0.00     0.005 C 
ATOM     20  C   UNL     1     -26.040  31.294  -6.371  1.00  0.00     0.003 C 
ATOM     21  C   UNL     1     -27.798  29.434  -6.606  1.00  0.00     0.031 C 
ATOM     22  C   UNL     1     -25.618  31.062  -7.868  1.00  0.00    -0.008 C 
ATOM     23  C   UNL     1     -27.786  29.820  -8.070  1.00  0.00    -0.027 C 
ATOM     24  C   UNL     1     -26.827  30.570  -8.656  1.00  0.00    -0.065 C 
ATOM     25  C   UNL     1     -25.083  32.384  -8.500  1.00  0.00     0.014 C 
ATOM     26  C   UNL     1     -24.488  29.996  -7.935  1.00  0.00     0.016 C 
ATOM     27  C   UNL     1     -27.021  31.017 -10.092  1.00  0.00     0.063 C 
ATOM     28  C   UNL     1     -24.811  32.310 -10.022  1.00  0.00     0.033 C 
ATOM     29  C   UNL     1     -25.673  31.278 -10.783  1.00  0.00     0.118 C 
BRANCH  29  30
ATOM     30  O   UNL     1     -25.897  31.736 -12.093  1.00  0.00    -0.393 OA
ATOM     31  H   UNL     1     -26.057  32.717 -12.035  1.00  0.00     0.210 HD
ENDBRANCH  29  30
ENDBRANCH   9  11
ENDBRANCH   1   9
TORSDOF 7
ENDMDL
