MODEL 1
REMARK VINA RESULT:    -4.219      0.000      0.000
REMARK INTER + INTRA:         -11.888
REMARK INTER:                  -9.151
REMARK INTRA:                  -2.737
REMARK UNBOUND:                -2.737
REMARK SMILES CCCCCCCCCCCCCCCCCCCCCC(=O)[O-]
REMARK SMILES IDX 12 1 11 2 10 3 9 4 8 5 7 6 6 7 5 8 4 9 3 10 2 11 1 12 13 13
REMARK SMILES IDX 14 14 15 15 16 16 17 17 18 18 19 19 20 20 21 21 22 22 23 23
REMARK SMILES IDX 24 24
REMARK H PARENT
REMARK Flexibility Score: inf
ROOT
ATOM      1  C   UNL     1     -29.484  14.678  14.774  1.00  0.00     0.000 C 
ENDROOT
BRANCH   1   2
ATOM      2  C   UNL     1     -29.399  14.229  16.242  1.00  0.00     0.000 C 
BRANCH   2   3
ATOM      3  C   UNL     1     -30.016  15.252  17.210  1.00  0.00     0.000 C 
BRANCH   3   4
ATOM      4  C   UNL     1     -28.966  16.187  17.833  1.00  0.00    -0.000 C 
BRANCH   4   5
ATOM      5  C   UNL     1     -27.518  15.671  17.687  1.00  0.00    -0.000 C 
BRANCH   5   6
ATOM      6  C   UNL     1     -26.928  15.198  19.029  1.00  0.00    -0.000 C 
BRANCH   6   7
ATOM      7  C   UNL     1     -25.511  15.760  19.273  1.00  0.00    -0.000 C 
BRANCH   7   8
ATOM      8  C   UNL     1     -25.453  16.831  20.375  1.00  0.00    -0.000 C 
BRANCH   8   9
ATOM      9  C   UNL     1     -26.659  16.774  21.326  1.00  0.00    -0.000 C 
BRANCH   9  10
ATOM     10  C   UNL     1     -27.489  18.068  21.296  1.00  0.00    -0.000 C 
BRANCH  10  11
ATOM     11  C   UNL     1     -29.001  17.794  21.250  1.00  0.00    -0.003 C 
ATOM     12  C   UNL     1     -29.712  18.450  22.430  1.00  0.00     0.004 C 
ENDBRANCH  10  11
ENDBRANCH   9  10
ENDBRANCH   8   9
ENDBRANCH   7   8
ENDBRANCH   6   7
ENDBRANCH   5   6
ENDBRANCH   4   5
ENDBRANCH   3   4
ENDBRANCH   2   3
ENDBRANCH   1   2
BRANCH   1  13
ATOM     13  C   UNL     1     -30.928  14.953  14.327  1.00  0.00     0.000 C 
BRANCH  13  14
ATOM     14  C   UNL     1     -31.259  14.195  13.032  1.00  0.00     0.000 C 
BRANCH  14  15
ATOM     15  C   UNL     1     -32.622  13.484  13.099  1.00  0.00     0.000 C 
BRANCH  15  16
ATOM     16  C   UNL     1     -33.301  13.635  14.471  1.00  0.00     0.000 C 
BRANCH  16  17
ATOM     17  C   UNL     1     -33.406  12.295  15.230  1.00  0.00     0.000 C 
BRANCH  17  18
ATOM     18  C   UNL     1     -32.276  12.064  16.250  1.00  0.00     0.000 C 
BRANCH  18  19
ATOM     19  C   UNL     1     -31.373  10.849  15.965  1.00  0.00     0.000 C 
BRANCH  19  20
ATOM     20  C   UNL     1     -30.363  11.042  14.817  1.00  0.00     0.006 C 
BRANCH  20  21
ATOM     21  C   UNL     1     -30.672  10.171  13.593  1.00  0.00     0.053 C 
BRANCH  21  22
ATOM     22  C   UNL     1     -29.537  10.205  12.617  1.00  0.00     0.041 C 
ATOM     23  O   UNL     1     -29.768  10.219  11.378  1.00  0.00    -0.550 OA
ATOM     24  O   UNL     1     -28.222  10.221  13.074  1.00  0.00    -0.550 OA
ENDBRANCH  21  22
ENDBRANCH  20  21
ENDBRANCH  19  20
ENDBRANCH  18  19
ENDBRANCH  17  18
ENDBRANCH  16  17
ENDBRANCH  15  16
ENDBRANCH  14  15
ENDBRANCH  13  14
ENDBRANCH   1  13
TORSDOF 20
ENDMDL
MODEL 2
REMARK VINA RESULT:    -4.203      4.084      9.476
REMARK INTER + INTRA:         -11.854
REMARK INTER:                  -9.386
REMARK INTRA:                  -2.468
REMARK UNBOUND:                -2.737
REMARK SMILES CCCCCCCCCCCCCCCCCCCCCC(=O)[O-]
REMARK SMILES IDX 12 1 11 2 10 3 9 4 8 5 7 6 6 7 5 8 4 9 3 10 2 11 1 12 13 13
REMARK SMILES IDX 14 14 15 15 16 16 17 17 18 18 19 19 20 20 21 21 22 22 23 23
REMARK SMILES IDX 24 24
REMARK H PARENT
REMARK Flexibility Score: inf
ROOT
ATOM      1  C   UNL     1     -29.580  13.751  17.401  1.00  0.00     0.000 C 
ENDROOT
BRANCH   1   2
ATOM      2  C   UNL     1     -29.840  13.020  16.074  1.00  0.00     0.000 C 
BRANCH   2   3
ATOM      3  C   UNL     1     -29.249  13.762  14.865  1.00  0.00     0.000 C 
BRANCH   3   4
ATOM      4  C   UNL     1     -30.237  13.864  13.690  1.00  0.00    -0.000 C 
BRANCH   4   5
ATOM      5  C   UNL     1     -31.426  14.809  13.966  1.00  0.00    -0.000 C 
BRANCH   5   6
ATOM      6  C   UNL     1     -32.750  14.045  14.150  1.00  0.00    -0.000 C 
BRANCH   6   7
ATOM      7  C   UNL     1     -33.021  13.063  12.990  1.00  0.00    -0.000 C 
BRANCH   7   8
ATOM      8  C   UNL     1     -33.528  11.687  13.450  1.00  0.00    -0.000 C 
BRANCH   8   9
ATOM      9  C   UNL     1     -32.590  10.539  13.043  1.00  0.00    -0.000 C 
BRANCH   9  10
ATOM     10  C   UNL     1     -31.446  10.335  14.050  1.00  0.00    -0.000 C 
BRANCH  10  11
ATOM     11  C   UNL     1     -30.089  10.118  13.361  1.00  0.00    -0.003 C 
ATOM     12  C   UNL     1     -30.123  10.610  11.917  1.00  0.00     0.004 C 
ENDBRANCH  10  11
ENDBRANCH   9  10
ENDBRANCH   8   9
ENDBRANCH   7   8
ENDBRANCH   6   7
ENDBRANCH   5   6
ENDBRANCH   4   5
ENDBRANCH   3   4
ENDBRANCH   2   3
ENDBRANCH   1   2
BRANCH   1  13
ATOM     13  C   UNL     1     -30.280  15.117  17.466  1.00  0.00     0.000 C 
BRANCH  13  14
ATOM     14  C   UNL     1     -29.257  16.260  17.542  1.00  0.00     0.000 C 
BRANCH  14  15
ATOM     15  C   UNL     1     -27.941  15.828  18.213  1.00  0.00     0.000 C 
BRANCH  15  16
ATOM     16  C   UNL     1     -27.596  16.682  19.444  1.00  0.00     0.000 C 
BRANCH  16  17
ATOM     17  C   UNL     1     -28.669  17.752  19.742  1.00  0.00     0.000 C 
BRANCH  17  18
ATOM     18  C   UNL     1     -28.943  17.960  21.243  1.00  0.00     0.000 C 
BRANCH  18  19
ATOM     19  C   UNL     1     -30.205  17.260  21.781  1.00  0.00     0.000 C 
BRANCH  19  20
ATOM     20  C   UNL     1     -30.760  17.836  23.098  1.00  0.00     0.006 C 
BRANCH  20  21
ATOM     21  C   UNL     1     -31.731  16.884  23.808  1.00  0.00     0.053 C 
BRANCH  21  22
ATOM     22  C   UNL     1     -30.985  15.892  24.646  1.00  0.00     0.041 C 
ATOM     23  O   UNL     1     -30.490  16.242  25.750  1.00  0.00    -0.550 OA
ATOM     24  O   UNL     1     -30.835  14.580  24.208  1.00  0.00    -0.550 OA
ENDBRANCH  21  22
ENDBRANCH  20  21
ENDBRANCH  19  20
ENDBRANCH  18  19
ENDBRANCH  17  18
ENDBRANCH  16  17
ENDBRANCH  15  16
ENDBRANCH  14  15
ENDBRANCH  13  14
ENDBRANCH   1  13
TORSDOF 20
ENDMDL
MODEL 3
REMARK VINA RESULT:    -4.203      2.148      3.646
REMARK INTER + INTRA:         -11.854
REMARK INTER:                  -8.398
REMARK INTRA:                  -3.456
REMARK UNBOUND:                -2.737
REMARK SMILES CCCCCCCCCCCCCCCCCCCCCC(=O)[O-]
REMARK SMILES IDX 12 1 11 2 10 3 9 4 8 5 7 6 6 7 5 8 4 9 3 10 2 11 1 12 13 13
REMARK SMILES IDX 14 14 15 15 16 16 17 17 18 18 19 19 20 20 21 21 22 22 23 23
REMARK SMILES IDX 24 24
REMARK H PARENT
REMARK Flexibility Score: inf
ROOT
ATOM      1  C   UNL     1     -30.751  15.090  16.749  1.00  0.00     0.000 C 
ENDROOT
BRANCH   1   2
ATOM      2  C   UNL     1     -29.342  14.545  17.036  1.00  0.00     0.000 C 
BRANCH   2   3
ATOM      3  C   UNL     1     -28.303  15.663  17.226  1.00  0.00     0.000 C 
BRANCH   3   4
ATOM      4  C   UNL     1     -28.163  16.100  18.694  1.00  0.00    -0.000 C 
BRANCH   4   5
ATOM      5  C   UNL     1     -28.781  17.485  18.985  1.00  0.00    -0.000 C 
BRANCH   5   6
ATOM      6  C   UNL     1     -29.247  17.622  20.446  1.00  0.00    -0.000 C 
BRANCH   6   7
ATOM      7  C   UNL     1     -29.334  16.256  21.160  1.00  0.00    -0.000 C 
BRANCH   7   8
ATOM      8  C   UNL     1     -30.750  15.898  21.641  1.00  0.00    -0.000 C 
BRANCH   8   9
ATOM      9  C   UNL     1     -31.417  14.814  20.779  1.00  0.00    -0.000 C 
BRANCH   9  10
ATOM     10  C   UNL     1     -30.437  13.697  20.384  1.00  0.00    -0.000 C 
BRANCH  10  11
ATOM     11  C   UNL     1     -30.537  12.474  21.310  1.00  0.00    -0.003 C 
ATOM     12  C   UNL     1     -30.928  11.224  20.527  1.00  0.00     0.004 C 
ENDBRANCH  10  11
ENDBRANCH   9  10
ENDBRANCH   8   9
ENDBRANCH   7   8
ENDBRANCH   6   7
ENDBRANCH   5   6
ENDBRANCH   4   5
ENDBRANCH   3   4
ENDBRANCH   2   3
ENDBRANCH   1   2
BRANCH   1  13
ATOM     13  C   UNL     1     -31.855  14.099  17.146  1.00  0.00     0.000 C 
BRANCH  13  14
ATOM     14  C   UNL     1     -31.435  12.653  16.844  1.00  0.00     0.000 C 
BRANCH  14  15
ATOM     15  C   UNL     1     -32.437  11.927  15.930  1.00  0.00     0.000 C 
BRANCH  15  16
ATOM     16  C   UNL     1     -33.466  12.884  15.303  1.00  0.00     0.000 C 
BRANCH  16  17
ATOM     17  C   UNL     1     -33.284  13.031  13.778  1.00  0.00     0.000 C 
BRANCH  17  18
ATOM     18  C   UNL     1     -32.615  14.352  13.353  1.00  0.00     0.000 C 
BRANCH  18  19
ATOM     19  C   UNL     1     -31.077  14.313  13.281  1.00  0.00     0.000 C 
BRANCH  19  20
ATOM     20  C   UNL     1     -30.474  12.939  12.933  1.00  0.00     0.006 C 
BRANCH  20  21
ATOM     21  C   UNL     1     -29.264  12.576  13.802  1.00  0.00     0.053 C 
BRANCH  21  22
ATOM     22  C   UNL     1     -28.753  11.211  13.461  1.00  0.00     0.041 C 
ATOM     23  O   UNL     1     -28.549  10.894  12.259  1.00  0.00    -0.550 OA
ATOM     24  O   UNL     1     -28.503  10.285  14.470  1.00  0.00    -0.550 OA
ENDBRANCH  21  22
ENDBRANCH  20  21
ENDBRANCH  19  20
ENDBRANCH  18  19
ENDBRANCH  17  18
ENDBRANCH  16  17
ENDBRANCH  15  16
ENDBRANCH  14  15
ENDBRANCH  13  14
ENDBRANCH   1  13
TORSDOF 20
ENDMDL
MODEL 4
REMARK VINA RESULT:    -4.198      1.746      2.599
REMARK INTER + INTRA:         -11.845
REMARK INTER:                  -8.385
REMARK INTRA:                  -3.459
REMARK UNBOUND:                -2.737
REMARK SMILES CCCCCCCCCCCCCCCCCCCCCC(=O)[O-]
REMARK SMILES IDX 12 1 11 2 10 3 9 4 8 5 7 6 6 7 5 8 4 9 3 10 2 11 1 12 13 13
REMARK SMILES IDX 14 14 15 15 16 16 17 17 18 18 19 19 20 20 21 21 22 22 23 23
REMARK SMILES IDX 24 24
REMARK H PARENT
REMARK Flexibility Score: inf
ROOT
ATOM      1  C   UNL     1     -31.070  15.073  14.179  1.00  0.00     0.000 C 
ENDROOT
BRANCH   1   2
ATOM      2  C   UNL     1     -29.837  14.859  15.072  1.00  0.00     0.000 C 
BRANCH   2   3
ATOM      3  C   UNL     1     -30.128  15.128  16.557  1.00  0.00     0.000 C 
BRANCH   3   4
ATOM      4  C   UNL     1     -28.913  14.853  17.460  1.00  0.00    -0.000 C 
BRANCH   4   5
ATOM      5  C   UNL     1     -28.139  16.129  17.856  1.00  0.00    -0.000 C 
BRANCH   5   6
ATOM      6  C   UNL     1     -29.032  17.154  18.580  1.00  0.00    -0.000 C 
BRANCH   6   7
ATOM      7  C   UNL     1     -28.348  17.738  19.834  1.00  0.00    -0.000 C 
BRANCH   7   8
ATOM      8  C   UNL     1     -28.884  17.164  21.156  1.00  0.00    -0.000 C 
BRANCH   8   9
ATOM      9  C   UNL     1     -30.176  16.351  20.971  1.00  0.00    -0.000 C 
BRANCH   9  10
ATOM     10  C   UNL     1     -29.950  14.842  21.165  1.00  0.00    -0.000 C 
BRANCH  10  11
ATOM     11  C   UNL     1     -30.932  13.991  20.345  1.00  0.00    -0.003 C 
ATOM     12  C   UNL     1     -31.981  13.344  21.245  1.00  0.00     0.004 C 
ENDBRANCH  10  11
ENDBRANCH   9  10
ENDBRANCH   8   9
ENDBRANCH   7   8
ENDBRANCH   6   7
ENDBRANCH   5   6
ENDBRANCH   4   5
ENDBRANCH   3   4
ENDBRANCH   2   3
ENDBRANCH   1   2
BRANCH   1  13
ATOM     13  C   UNL     1     -31.135  14.069  13.017  1.00  0.00     0.000 C 
BRANCH  13  14
ATOM     14  C   UNL     1     -32.428  13.243  13.072  1.00  0.00     0.000 C 
BRANCH  14  15
ATOM     15  C   UNL     1     -33.377  13.708  14.191  1.00  0.00     0.000 C 
BRANCH  15  16
ATOM     16  C   UNL     1     -33.583  12.637  15.275  1.00  0.00     0.000 C 
BRANCH  16  17
ATOM     17  C   UNL     1     -33.067  13.088  16.658  1.00  0.00     0.000 C 
BRANCH  17  18
ATOM     18  C   UNL     1     -32.111  12.082  17.327  1.00  0.00     0.000 C 
BRANCH  18  19
ATOM     19  C   UNL     1     -31.442  11.079  16.369  1.00  0.00     0.000 C 
BRANCH  19  20
ATOM     20  C   UNL     1     -29.978  11.396  16.009  1.00  0.00     0.006 C 
BRANCH  20  21
ATOM     21  C   UNL     1     -29.643  11.104  14.541  1.00  0.00     0.053 C 
BRANCH  21  22
ATOM     22  C   UNL     1     -28.580  10.054  14.437  1.00  0.00     0.041 C 
ATOM     23  O   UNL     1     -28.465   9.180  15.336  1.00  0.00    -0.550 OA
ATOM     24  O   UNL     1     -27.715  10.041  13.347  1.00  0.00    -0.550 OA
ENDBRANCH  21  22
ENDBRANCH  20  21
ENDBRANCH  19  20
ENDBRANCH  18  19
ENDBRANCH  17  18
ENDBRANCH  16  17
ENDBRANCH  15  16
ENDBRANCH  14  15
ENDBRANCH  13  14
ENDBRANCH   1  13
TORSDOF 20
ENDMDL
MODEL 5
REMARK VINA RESULT:    -4.171      4.716      9.058
REMARK INTER + INTRA:         -11.784
REMARK INTER:                  -8.775
REMARK INTRA:                  -3.009
REMARK UNBOUND:                -2.737
REMARK SMILES CCCCCCCCCCCCCCCCCCCCCC(=O)[O-]
REMARK SMILES IDX 12 1 11 2 10 3 9 4 8 5 7 6 6 7 5 8 4 9 3 10 2 11 1 12 13 13
REMARK SMILES IDX 14 14 15 15 16 16 17 17 18 18 19 19 20 20 21 21 22 22 23 23
REMARK SMILES IDX 24 24
REMARK H PARENT
REMARK Flexibility Score: inf
ROOT
ATOM      1  C   UNL     1     -26.165  15.347  21.053  1.00  0.00     0.000 C 
ENDROOT
BRANCH   1   2
ATOM      2  C   UNL     1     -26.977  14.074  20.763  1.00  0.00     0.000 C 
BRANCH   2   3
ATOM      3  C   UNL     1     -27.935  14.242  19.573  1.00  0.00     0.000 C 
BRANCH   3   4
ATOM      4  C   UNL     1     -27.356  15.141  18.467  1.00  0.00    -0.000 C 
BRANCH   4   5
ATOM      5  C   UNL     1     -28.431  15.938  17.697  1.00  0.00    -0.000 C 
BRANCH   5   6
ATOM      6  C   UNL     1     -29.834  15.320  17.841  1.00  0.00    -0.000 C 
BRANCH   6   7
ATOM      7  C   UNL     1     -30.467  14.986  16.473  1.00  0.00    -0.000 C 
BRANCH   7   8
ATOM      8  C   UNL     1     -29.583  14.097  15.583  1.00  0.00    -0.000 C 
BRANCH   8   9
ATOM      9  C   UNL     1     -30.004  14.127  14.104  1.00  0.00    -0.000 C 
BRANCH   9  10
ATOM     10  C   UNL     1     -31.233  15.019  13.865  1.00  0.00    -0.000 C 
BRANCH  10  11
ATOM     11  C   UNL     1     -32.423  14.237  13.285  1.00  0.00    -0.003 C 
ATOM     12  C   UNL     1     -33.244  13.586  14.394  1.00  0.00     0.004 C 
ENDBRANCH  10  11
ENDBRANCH   9  10
ENDBRANCH   8   9
ENDBRANCH   7   8
ENDBRANCH   6   7
ENDBRANCH   5   6
ENDBRANCH   4   5
ENDBRANCH   3   4
ENDBRANCH   2   3
ENDBRANCH   1   2
BRANCH   1  13
ATOM     13  C   UNL     1     -26.373  15.862  22.485  1.00  0.00     0.000 C 
BRANCH  13  14
ATOM     14  C   UNL     1     -27.522  16.880  22.545  1.00  0.00     0.000 C 
BRANCH  14  15
ATOM     15  C   UNL     1     -27.705  17.639  21.219  1.00  0.00     0.000 C 
BRANCH  15  16
ATOM     16  C   UNL     1     -29.181  17.760  20.806  1.00  0.00     0.000 C 
BRANCH  16  17
ATOM     17  C   UNL     1     -30.142  17.167  21.859  1.00  0.00     0.000 C 
BRANCH  17  18
ATOM     18  C   UNL     1     -30.739  15.804  21.462  1.00  0.00     0.000 C 
BRANCH  18  19
ATOM     19  C   UNL     1     -30.421  14.645  22.425  1.00  0.00     0.000 C 
BRANCH  19  20
ATOM     20  C   UNL     1     -31.566  14.257  23.381  1.00  0.00     0.006 C 
BRANCH  20  21
ATOM     21  C   UNL     1     -31.103  14.083  24.833  1.00  0.00     0.053 C 
BRANCH  21  22
ATOM     22  C   UNL     1     -31.349  15.331  25.623  1.00  0.00     0.041 C 
ATOM     23  O   UNL     1     -30.491  16.254  25.629  1.00  0.00    -0.550 OA
ATOM     24  O   UNL     1     -32.524  15.476  26.353  1.00  0.00    -0.550 OA
ENDBRANCH  21  22
ENDBRANCH  20  21
ENDBRANCH  19  20
ENDBRANCH  18  19
ENDBRANCH  17  18
ENDBRANCH  16  17
ENDBRANCH  15  16
ENDBRANCH  14  15
ENDBRANCH  13  14
ENDBRANCH   1  13
TORSDOF 20
ENDMDL
MODEL 6
REMARK VINA RESULT:    -4.156      1.264      2.410
REMARK INTER + INTRA:         -11.752
REMARK INTER:                  -8.926
REMARK INTRA:                  -2.826
REMARK UNBOUND:                -2.737
REMARK SMILES CCCCCCCCCCCCCCCCCCCCCC(=O)[O-]
REMARK SMILES IDX 12 1 11 2 10 3 9 4 8 5 7 6 6 7 5 8 4 9 3 10 2 11 1 12 13 13
REMARK SMILES IDX 14 14 15 15 16 16 17 17 18 18 19 19 20 20 21 21 22 22 23 23
REMARK SMILES IDX 24 24
REMARK H PARENT
REMARK Flexibility Score: inf
ROOT
ATOM      1  C   UNL     1     -30.600  14.799  16.541  1.00  0.00     0.000 C 
ENDROOT
BRANCH   1   2
ATOM      2  C   UNL     1     -29.840  15.290  17.785  1.00  0.00     0.000 C 
BRANCH   2   3
ATOM      3  C   UNL     1     -28.473  15.902  17.439  1.00  0.00     0.000 C 
BRANCH   3   4
ATOM      4  C   UNL     1     -27.342  15.375  18.338  1.00  0.00    -0.000 C 
BRANCH   4   5
ATOM      5  C   UNL     1     -27.702  15.371  19.840  1.00  0.00    -0.000 C 
BRANCH   5   6
ATOM      6  C   UNL     1     -27.024  16.522  20.607  1.00  0.00    -0.000 C 
BRANCH   6   7
ATOM      7  C   UNL     1     -27.780  17.857  20.440  1.00  0.00    -0.000 C 
BRANCH   7   8
ATOM      8  C   UNL     1     -29.263  17.782  20.840  1.00  0.00    -0.000 C 
BRANCH   8   9
ATOM      9  C   UNL     1     -29.520  18.276  22.273  1.00  0.00    -0.000 C 
BRANCH   9  10
ATOM     10  C   UNL     1     -30.360  17.283  23.091  1.00  0.00    -0.000 C 
BRANCH  10  11
ATOM     11  C   UNL     1     -29.494  16.254  23.835  1.00  0.00    -0.003 C 
ATOM     12  C   UNL     1     -29.542  14.894  23.145  1.00  0.00     0.004 C 
ENDBRANCH  10  11
ENDBRANCH   9  10
ENDBRANCH   8   9
ENDBRANCH   7   8
ENDBRANCH   6   7
ENDBRANCH   5   6
ENDBRANCH   4   5
ENDBRANCH   3   4
ENDBRANCH   2   3
ENDBRANCH   1   2
BRANCH   1  13
ATOM     13  C   UNL     1     -29.736  13.901  15.643  1.00  0.00     0.000 C 
BRANCH  13  14
ATOM     14  C   UNL     1     -29.894  14.283  14.164  1.00  0.00     0.000 C 
BRANCH  14  15
ATOM     15  C   UNL     1     -31.208  15.035  13.888  1.00  0.00     0.000 C 
BRANCH  15  16
ATOM     16  C   UNL     1     -32.208  14.198  13.074  1.00  0.00     0.000 C 
BRANCH  16  17
ATOM     17  C   UNL     1     -33.463  13.818  13.889  1.00  0.00     0.000 C 
BRANCH  17  18
ATOM     18  C   UNL     1     -33.216  12.718  14.939  1.00  0.00     0.000 C 
BRANCH  18  19
ATOM     19  C   UNL     1     -32.928  11.318  14.365  1.00  0.00     0.000 C 
BRANCH  19  20
ATOM     20  C   UNL     1     -31.479  10.825  14.541  1.00  0.00     0.006 C 
BRANCH  20  21
ATOM     21  C   UNL     1     -30.691  10.794  13.226  1.00  0.00     0.053 C 
BRANCH  21  22
ATOM     22  C   UNL     1     -29.224  10.643  13.489  1.00  0.00     0.041 C 
ATOM     23  O   UNL     1     -28.819  10.286  14.627  1.00  0.00    -0.550 OA
ATOM     24  O   UNL     1     -28.303  10.896  12.477  1.00  0.00    -0.550 OA
ENDBRANCH  21  22
ENDBRANCH  20  21
ENDBRANCH  19  20
ENDBRANCH  18  19
ENDBRANCH  17  18
ENDBRANCH  16  17
ENDBRANCH  15  16
ENDBRANCH  14  15
ENDBRANCH  13  14
ENDBRANCH   1  13
TORSDOF 20
ENDMDL
MODEL 7
REMARK VINA RESULT:    -4.099      1.758      3.676
REMARK INTER + INTRA:         -11.628
REMARK INTER:                  -9.368
REMARK INTRA:                  -2.261
REMARK UNBOUND:                -2.737
REMARK SMILES CCCCCCCCCCCCCCCCCCCCCC(=O)[O-]
REMARK SMILES IDX 12 1 11 2 10 3 9 4 8 5 7 6 6 7 5 8 4 9 3 10 2 11 1 12 13 13
REMARK SMILES IDX 14 14 15 15 16 16 17 17 18 18 19 19 20 20 21 21 22 22 23 23
REMARK SMILES IDX 24 24
REMARK H PARENT
REMARK Flexibility Score: inf
ROOT
ATOM      1  C   UNL     1     -28.171  15.156  18.099  1.00  0.00     0.000 C 
ENDROOT
BRANCH   1   2
ATOM      2  C   UNL     1     -27.570  16.243  19.005  1.00  0.00     0.000 C 
BRANCH   2   3
ATOM      3  C   UNL     1     -28.600  17.309  19.413  1.00  0.00     0.000 C 
BRANCH   3   4
ATOM      4  C   UNL     1     -28.176  18.096  20.665  1.00  0.00    -0.000 C 
BRANCH   4   5
ATOM      5  C   UNL     1     -29.292  18.215  21.725  1.00  0.00    -0.000 C 
BRANCH   5   6
ATOM      6  C   UNL     1     -30.245  17.005  21.709  1.00  0.00    -0.000 C 
BRANCH   6   7
ATOM      7  C   UNL     1     -30.875  16.742  23.094  1.00  0.00    -0.000 C 
BRANCH   7   8
ATOM      8  C   UNL     1     -29.876  16.217  24.138  1.00  0.00    -0.000 C 
BRANCH   8   9
ATOM      9  C   UNL     1     -29.010  15.064  23.608  1.00  0.00    -0.000 C 
BRANCH   9  10
ATOM     10  C   UNL     1     -27.591  15.079  24.198  1.00  0.00    -0.000 C 
BRANCH  10  11
ATOM     11  C   UNL     1     -26.690  16.134  23.537  1.00  0.00    -0.003 C 
ATOM     12  C   UNL     1     -25.988  15.563  22.308  1.00  0.00     0.004 C 
ENDBRANCH  10  11
ENDBRANCH   9  10
ENDBRANCH   8   9
ENDBRANCH   7   8
ENDBRANCH   6   7
ENDBRANCH   5   6
ENDBRANCH   4   5
ENDBRANCH   3   4
ENDBRANCH   2   3
ENDBRANCH   1   2
BRANCH   1  13
ATOM     13  C   UNL     1     -29.399  15.653  17.321  1.00  0.00     0.000 C 
BRANCH  13  14
ATOM     14  C   UNL     1     -29.407  15.099  15.889  1.00  0.00     0.000 C 
BRANCH  14  15
ATOM     15  C   UNL     1     -30.822  14.735  15.407  1.00  0.00     0.000 C 
BRANCH  15  16
ATOM     16  C   UNL     1     -31.047  15.075  13.924  1.00  0.00     0.000 C 
BRANCH  16  17
ATOM     17  C   UNL     1     -32.274  14.351  13.331  1.00  0.00     0.000 C 
BRANCH  17  18
ATOM     18  C   UNL     1     -32.975  13.398  14.317  1.00  0.00     0.000 C 
BRANCH  18  19
ATOM     19  C   UNL     1     -32.856  11.900  13.977  1.00  0.00     0.000 C 
BRANCH  19  20
ATOM     20  C   UNL     1     -31.625  11.518  13.133  1.00  0.00     0.006 C 
BRANCH  20  21
ATOM     21  C   UNL     1     -30.409  11.133  13.985  1.00  0.00     0.053 C 
BRANCH  21  22
ATOM     22  C   UNL     1     -29.134  11.429  13.258  1.00  0.00     0.041 C 
ATOM     23  O   UNL     1     -28.665  10.594  12.439  1.00  0.00    -0.550 OA
ATOM     24  O   UNL     1     -28.462  12.626  13.483  1.00  0.00    -0.550 OA
ENDBRANCH  21  22
ENDBRANCH  20  21
ENDBRANCH  19  20
ENDBRANCH  18  19
ENDBRANCH  17  18
ENDBRANCH  16  17
ENDBRANCH  15  16
ENDBRANCH  14  15
ENDBRANCH  13  14
ENDBRANCH   1  13
TORSDOF 20
ENDMDL
MODEL 8
REMARK VINA RESULT:    -4.079      1.203      2.444
REMARK INTER + INTRA:         -11.585
REMARK INTER:                  -8.916
REMARK INTRA:                  -2.669
REMARK UNBOUND:                -2.737
REMARK SMILES CCCCCCCCCCCCCCCCCCCCCC(=O)[O-]
REMARK SMILES IDX 12 1 11 2 10 3 9 4 8 5 7 6 6 7 5 8 4 9 3 10 2 11 1 12 13 13
REMARK SMILES IDX 14 14 15 15 16 16 17 17 18 18 19 19 20 20 21 21 22 22 23 23
REMARK SMILES IDX 24 24
REMARK H PARENT
REMARK Flexibility Score: inf
ROOT
ATOM      1  C   UNL     1     -30.411  15.118  16.437  1.00  0.00     0.000 C 
ENDROOT
BRANCH   1   2
ATOM      2  C   UNL     1     -29.028  14.497  16.177  1.00  0.00     0.000 C 
BRANCH   2   3
ATOM      3  C   UNL     1     -27.877  15.397  16.656  1.00  0.00     0.000 C 
BRANCH   3   4
ATOM      4  C   UNL     1     -28.059  15.872  18.107  1.00  0.00    -0.000 C 
BRANCH   4   5
ATOM      5  C   UNL     1     -27.193  15.094  19.122  1.00  0.00    -0.000 C 
BRANCH   5   6
ATOM      6  C   UNL     1     -26.230  16.014  19.895  1.00  0.00    -0.000 C 
BRANCH   6   7
ATOM      7  C   UNL     1     -26.861  16.556  21.196  1.00  0.00    -0.000 C 
BRANCH   7   8
ATOM      8  C   UNL     1     -27.359  18.007  21.083  1.00  0.00    -0.000 C 
BRANCH   8   9
ATOM      9  C   UNL     1     -28.887  18.103  20.942  1.00  0.00    -0.000 C 
BRANCH   9  10
ATOM     10  C   UNL     1     -29.617  16.996  21.720  1.00  0.00    -0.000 C 
BRANCH  10  11
ATOM     11  C   UNL     1     -30.694  17.554  22.664  1.00  0.00    -0.003 C 
ATOM     12  C   UNL     1     -32.056  16.932  22.371  1.00  0.00     0.004 C 
ENDBRANCH  10  11
ENDBRANCH   9  10
ENDBRANCH   8   9
ENDBRANCH   7   8
ENDBRANCH   6   7
ENDBRANCH   5   6
ENDBRANCH   4   5
ENDBRANCH   3   4
ENDBRANCH   2   3
ENDBRANCH   1   2
BRANCH   1  13
ATOM     13  C   UNL     1     -31.395  14.117  17.061  1.00  0.00     0.000 C 
BRANCH  13  14
ATOM     14  C   UNL     1     -31.075  12.680  16.623  1.00  0.00     0.000 C 
BRANCH  14  15
ATOM     15  C   UNL     1     -32.252  12.011  15.894  1.00  0.00     0.000 C 
BRANCH  15  16
ATOM     16  C   UNL     1     -33.302  13.025  15.410  1.00  0.00     0.000 C 
BRANCH  16  17
ATOM     17  C   UNL     1     -33.394  13.093  13.871  1.00  0.00     0.000 C 
BRANCH  17  18
ATOM     18  C   UNL     1     -32.728  14.341  13.261  1.00  0.00     0.000 C 
BRANCH  18  19
ATOM     19  C   UNL     1     -31.208  14.228  13.035  1.00  0.00     0.000 C 
BRANCH  19  20
ATOM     20  C   UNL     1     -30.717  12.838  12.587  1.00  0.00     0.006 C 
BRANCH  20  21
ATOM     21  C   UNL     1     -29.505  12.343  13.387  1.00  0.00     0.053 C 
BRANCH  21  22
ATOM     22  C   UNL     1     -29.369  10.856  13.281  1.00  0.00     0.041 C 
ATOM     23  O   UNL     1     -29.086  10.324  12.174  1.00  0.00    -0.550 OA
ATOM     24  O   UNL     1     -29.555  10.055  14.404  1.00  0.00    -0.550 OA
ENDBRANCH  21  22
ENDBRANCH  20  21
ENDBRANCH  19  20
ENDBRANCH  18  19
ENDBRANCH  17  18
ENDBRANCH  16  17
ENDBRANCH  15  16
ENDBRANCH  14  15
ENDBRANCH  13  14
ENDBRANCH   1  13
TORSDOF 20
ENDMDL
MODEL 9
REMARK VINA RESULT:    -4.076      6.031      8.233
REMARK INTER + INTRA:         -11.579
REMARK INTER:                  -7.557
REMARK INTRA:                  -4.022
REMARK UNBOUND:                -2.737
REMARK SMILES CCCCCCCCCCCCCCCCCCCCCC(=O)[O-]
REMARK SMILES IDX 12 1 11 2 10 3 9 4 8 5 7 6 6 7 5 8 4 9 3 10 2 11 1 12 13 13
REMARK SMILES IDX 14 14 15 15 16 16 17 17 18 18 19 19 20 20 21 21 22 22 23 23
REMARK SMILES IDX 24 24
REMARK H PARENT
REMARK Flexibility Score: inf
ROOT
ATOM      1  C   UNL     1     -27.827  18.248  21.698  1.00  0.00     0.000 C 
ENDROOT
BRANCH   1   2
ATOM      2  C   UNL     1     -29.087  17.847  20.913  1.00  0.00     0.000 C 
BRANCH   2   3
ATOM      3  C   UNL     1     -28.858  17.839  19.393  1.00  0.00     0.000 C 
BRANCH   3   4
ATOM      4  C   UNL     1     -29.058  16.447  18.769  1.00  0.00    -0.000 C 
BRANCH   4   5
ATOM      5  C   UNL     1     -27.801  15.909  18.052  1.00  0.00    -0.000 C 
BRANCH   5   6
ATOM      6  C   UNL     1     -26.887  15.106  18.996  1.00  0.00    -0.000 C 
BRANCH   6   7
ATOM      7  C   UNL     1     -25.576  15.856  19.314  1.00  0.00    -0.000 C 
BRANCH   7   8
ATOM      8  C   UNL     1     -24.776  15.239  20.473  1.00  0.00    -0.000 C 
BRANCH   8   9
ATOM      9  C   UNL     1     -23.960  16.281  21.255  1.00  0.00    -0.000 C 
BRANCH   9  10
ATOM     10  C   UNL     1     -23.953  17.656  20.566  1.00  0.00    -0.000 C 
BRANCH  10  11
ATOM     11  C   UNL     1     -24.104  18.814  21.565  1.00  0.00    -0.003 C 
ATOM     12  C   UNL     1     -23.772  18.362  22.984  1.00  0.00     0.004 C 
ENDBRANCH  10  11
ENDBRANCH   9  10
ENDBRANCH   8   9
ENDBRANCH   7   8
ENDBRANCH   6   7
ENDBRANCH   5   6
ENDBRANCH   4   5
ENDBRANCH   3   4
ENDBRANCH   2   3
ENDBRANCH   1   2
BRANCH   1  13
ATOM     13  C   UNL     1     -27.265  17.090  22.537  1.00  0.00     0.000 C 
BRANCH  13  14
ATOM     14  C   UNL     1     -28.393  16.295  23.210  1.00  0.00     0.000 C 
BRANCH  14  15
ATOM     15  C   UNL     1     -28.205  14.774  23.073  1.00  0.00     0.000 C 
BRANCH  15  16
ATOM     16  C   UNL     1     -28.809  14.218  21.773  1.00  0.00     0.000 C 
BRANCH  16  17
ATOM     17  C   UNL     1     -30.280  13.783  21.942  1.00  0.00     0.000 C 
BRANCH  17  18
ATOM     18  C   UNL     1     -31.281  14.643  21.147  1.00  0.00     0.000 C 
BRANCH  18  19
ATOM     19  C   UNL     1     -31.902  15.815  21.929  1.00  0.00     0.000 C 
BRANCH  19  20
ATOM     20  C   UNL     1     -32.431  15.457  23.332  1.00  0.00     0.006 C 
BRANCH  20  21
ATOM     21  C   UNL     1     -31.831  16.330  24.441  1.00  0.00     0.053 C 
BRANCH  21  22
ATOM     22  C   UNL     1     -31.142  15.485  25.468  1.00  0.00     0.041 C 
ATOM     23  O   UNL     1     -30.516  16.028  26.417  1.00  0.00    -0.550 OA
ATOM     24  O   UNL     1     -31.191  14.097  25.378  1.00  0.00    -0.550 OA
ENDBRANCH  21  22
ENDBRANCH  20  21
ENDBRANCH  19  20
ENDBRANCH  18  19
ENDBRANCH  17  18
ENDBRANCH  16  17
ENDBRANCH  15  16
ENDBRANCH  14  15
ENDBRANCH  13  14
ENDBRANCH   1  13
TORSDOF 20
ENDMDL
