MODEL 1
REMARK VINA RESULT:    -4.942      0.000      0.000
REMARK INTER + INTRA:          -6.299
REMARK INTER:                  -6.098
REMARK INTRA:                  -0.201
REMARK UNBOUND:                -0.201
REMARK SMILES Oc1cc(O)c2cc(O)c(-c3cc(O)c(O)c(O)c3)[o+]c2c1
REMARK SMILES IDX 10 1 20 2 21 3 22 4 2 5 3 6 4 7 6 8 7 9 8 10 11 11 12 12
REMARK SMILES IDX 13 13 19 14 15 15 17 16 14 17 16 19 18 21 9 23 1 25 5 27
REMARK H PARENT 14 18 16 20 18 22 9 24 1 26 5 28
REMARK Flexibility Score: inf
ROOT
ATOM      1  C   UNL     1      -7.962  32.352  36.303  1.00  0.00     0.402 A 
ATOM      2  O   UNL     1      -7.637  32.598  35.037  1.00  0.00    -0.202 OA
ATOM      3  C   UNL     1      -7.820  33.778  34.453  1.00  0.00     0.368 A 
ATOM      4  C   UNL     1      -7.448  33.939  33.115  1.00  0.00     0.162 A 
ATOM      5  C   UNL     1      -7.632  35.169  32.475  1.00  0.00     0.128 A 
ATOM      6  C   UNL     1      -8.190  36.240  33.175  1.00  0.00     0.093 A 
ATOM      7  C   UNL     1      -8.571  36.104  34.516  1.00  0.00     0.136 A 
ATOM      8  C   UNL     1      -8.384  34.859  35.172  1.00  0.00     0.125 A 
ATOM      9  C   UNL     1      -8.723  34.635  36.515  1.00  0.00     0.078 A 
ATOM     10  C   UNL     1      -8.504  33.381  37.094  1.00  0.00     0.223 A 
ENDROOT
BRANCH   1  11
ATOM     11  C   UNL     1      -7.718  30.992  36.837  1.00  0.00     0.091 A 
ATOM     12  C   UNL     1      -8.370  29.870  36.305  1.00  0.00     0.068 A 
ATOM     13  C   UNL     1      -8.108  28.590  36.810  1.00  0.00     0.162 A 
ATOM     14  C   UNL     1      -6.774  30.812  37.858  1.00  0.00     0.068 A 
ATOM     15  C   UNL     1      -7.182  28.414  37.847  1.00  0.00     0.200 A 
ATOM     16  C   UNL     1      -6.504  29.538  38.373  1.00  0.00     0.162 A 
BRANCH  13  17
ATOM     17  O   UNL     1      -8.766  27.481  36.280  1.00  0.00    -0.504 OA
ATOM     18  H   UNL     1      -9.776  27.446  36.207  1.00  0.00     0.293 HD
ENDBRANCH  13  17
BRANCH  15  19
ATOM     19  O   UNL     1      -6.963  27.116  38.318  1.00  0.00    -0.502 OA
ATOM     20  H   UNL     1      -6.089  26.796  38.708  1.00  0.00     0.293 HD
ENDBRANCH  15  19
BRANCH  16  21
ATOM     21  O   UNL     1      -5.559  29.439  39.398  1.00  0.00    -0.504 OA
ATOM     22  H   UNL     1      -5.197  28.565  39.750  1.00  0.00     0.293 HD
ENDBRANCH  16  21
ENDBRANCH   1  11
BRANCH  10  23
ATOM     23  O   UNL     1      -8.795  33.172  38.443  1.00  0.00    -0.500 OA
ATOM     24  H   UNL     1      -9.748  33.066  38.772  1.00  0.00     0.294 HD
ENDBRANCH  10  23
BRANCH   5  25
ATOM     25  O   UNL     1      -7.265  35.337  31.142  1.00  0.00    -0.507 OA
ATOM     26  H   UNL     1      -7.651  34.754  30.408  1.00  0.00     0.293 HD
ENDBRANCH   5  25
BRANCH   7  27
ATOM     27  O   UNL     1      -9.125  37.223  35.145  1.00  0.00    -0.507 OA
ATOM     28  H   UNL     1     -10.108  37.457  35.132  1.00  0.00     0.293 HD
ENDBRANCH   7  27
TORSDOF 7
ENDMDL
MODEL 2
REMARK VINA RESULT:    -4.814      2.103      7.817
REMARK INTER + INTRA:          -6.140
REMARK INTER:                  -5.920
REMARK INTRA:                  -0.220
REMARK UNBOUND:                -0.201
REMARK SMILES Oc1cc(O)c2cc(O)c(-c3cc(O)c(O)c(O)c3)[o+]c2c1
REMARK SMILES IDX 10 1 20 2 21 3 22 4 2 5 3 6 4 7 6 8 7 9 8 10 11 11 12 12
REMARK SMILES IDX 13 13 19 14 15 15 17 16 14 17 16 19 18 21 9 23 1 25 5 27
REMARK H PARENT 14 18 16 20 18 22 9 24 1 26 5 28
REMARK Flexibility Score: inf
ROOT
ATOM      1  C   UNL     1      -7.393  29.267  37.337  1.00  0.00     0.402 A 
ATOM      2  O   UNL     1      -8.037  28.274  36.730  1.00  0.00    -0.202 OA
ATOM      3  C   UNL     1      -7.859  26.993  37.037  1.00  0.00     0.368 A 
ATOM      4  C   UNL     1      -8.580  26.020  36.341  1.00  0.00     0.162 A 
ATOM      5  C   UNL     1      -8.410  24.665  36.642  1.00  0.00     0.128 A 
ATOM      6  C   UNL     1      -7.514  24.283  37.643  1.00  0.00     0.093 A 
ATOM      7  C   UNL     1      -6.779  25.239  38.355  1.00  0.00     0.136 A 
ATOM      8  C   UNL     1      -6.950  26.616  38.056  1.00  0.00     0.125 A 
ATOM      9  C   UNL     1      -6.267  27.643  38.725  1.00  0.00     0.078 A 
ATOM     10  C   UNL     1      -6.491  28.978  38.378  1.00  0.00     0.223 A 
ENDROOT
BRANCH   1  11
ATOM     11  C   UNL     1      -7.671  30.654  36.897  1.00  0.00     0.091 A 
ATOM     12  C   UNL     1      -8.278  31.584  37.754  1.00  0.00     0.068 A 
ATOM     13  C   UNL     1      -8.511  32.898  37.327  1.00  0.00     0.162 A 
ATOM     14  C   UNL     1      -7.268  31.066  35.619  1.00  0.00     0.068 A 
ATOM     15  C   UNL     1      -8.130  33.301  36.040  1.00  0.00     0.200 A 
ATOM     16  C   UNL     1      -7.497  32.375  35.178  1.00  0.00     0.162 A 
BRANCH  13  17
ATOM     17  O   UNL     1      -9.121  33.814  38.182  1.00  0.00    -0.504 OA
ATOM     18  H   UNL     1      -9.833  33.530  38.845  1.00  0.00     0.293 HD
ENDBRANCH  13  17
BRANCH  15  19
ATOM     19  O   UNL     1      -8.392  34.621  35.661  1.00  0.00    -0.502 OA
ATOM     20  H   UNL     1      -8.718  35.337  36.293  1.00  0.00     0.293 HD
ENDBRANCH  15  19
BRANCH  16  21
ATOM     21  O   UNL     1      -7.079  32.708  33.887  1.00  0.00    -0.504 OA
ATOM     22  H   UNL     1      -6.422  32.164  33.348  1.00  0.00     0.293 HD
ENDBRANCH  16  21
ENDBRANCH   1  11
BRANCH  10  23
ATOM     23  O   UNL     1      -5.850  30.001  39.077  1.00  0.00    -0.500 OA
ATOM     24  H   UNL     1      -4.901  30.282  38.857  1.00  0.00     0.294 HD
ENDBRANCH  10  23
BRANCH   5  25
ATOM     25  O   UNL     1      -9.125  23.690  35.952  1.00  0.00    -0.507 OA
ATOM     26  H   UNL     1     -10.133  23.613  36.035  1.00  0.00     0.293 HD
ENDBRANCH   5  25
BRANCH   7  27
ATOM     27  O   UNL     1      -5.901  24.774  39.338  1.00  0.00    -0.507 OA
ATOM     28  H   UNL     1      -5.021  24.317  39.148  1.00  0.00     0.293 HD
ENDBRANCH   7  27
TORSDOF 7
ENDMDL
MODEL 3
REMARK VINA RESULT:    -4.791      2.089      7.723
REMARK INTER + INTRA:          -6.112
REMARK INTER:                  -5.893
REMARK INTRA:                  -0.220
REMARK UNBOUND:                -0.201
REMARK SMILES Oc1cc(O)c2cc(O)c(-c3cc(O)c(O)c(O)c3)[o+]c2c1
REMARK SMILES IDX 10 1 20 2 21 3 22 4 2 5 3 6 4 7 6 8 7 9 8 10 11 11 12 12
REMARK SMILES IDX 13 13 19 14 15 15 17 16 14 17 16 19 18 21 9 23 1 25 5 27
REMARK H PARENT 14 18 16 20 18 22 9 24 1 26 5 28
REMARK Flexibility Score: inf
ROOT
ATOM      1  C   UNL     1      -7.322  29.294  37.293  1.00  0.00     0.402 A 
ATOM      2  O   UNL     1      -7.979  28.305  36.692  1.00  0.00    -0.202 OA
ATOM      3  C   UNL     1      -7.811  27.023  37.002  1.00  0.00     0.368 A 
ATOM      4  C   UNL     1      -8.545  26.055  36.312  1.00  0.00     0.162 A 
ATOM      5  C   UNL     1      -8.386  24.699  36.616  1.00  0.00     0.128 A 
ATOM      6  C   UNL     1      -7.489  24.312  37.614  1.00  0.00     0.093 A 
ATOM      7  C   UNL     1      -6.742  25.263  38.320  1.00  0.00     0.136 A 
ATOM      8  C   UNL     1      -6.901  26.640  38.017  1.00  0.00     0.125 A 
ATOM      9  C   UNL     1      -6.205  27.662  38.681  1.00  0.00     0.078 A 
ATOM     10  C   UNL     1      -6.418  28.999  38.330  1.00  0.00     0.223 A 
ENDROOT
BRANCH   1  11
ATOM     11  C   UNL     1      -7.589  30.682  36.851  1.00  0.00     0.091 A 
ATOM     12  C   UNL     1      -7.275  31.108  35.551  1.00  0.00     0.068 A 
ATOM     13  C   UNL     1      -7.556  32.419  35.146  1.00  0.00     0.162 A 
ATOM     14  C   UNL     1      -8.221  31.575  37.727  1.00  0.00     0.068 A 
ATOM     15  C   UNL     1      -8.166  33.318  36.032  1.00  0.00     0.200 A 
ATOM     16  C   UNL     1      -8.506  32.889  37.336  1.00  0.00     0.162 A 
BRANCH  13  17
ATOM     17  O   UNL     1      -7.234  32.837  33.856  1.00  0.00    -0.504 OA
ATOM     18  H   UNL     1      -6.312  32.689  33.463  1.00  0.00     0.293 HD
ENDBRANCH  13  17
BRANCH  15  19
ATOM     19  O   UNL     1      -8.418  34.617  35.579  1.00  0.00    -0.502 OA
ATOM     20  H   UNL     1      -8.125  34.969  34.680  1.00  0.00     0.293 HD
ENDBRANCH  15  19
BRANCH  16  21
ATOM     21  O   UNL     1      -9.125  33.725  38.269  1.00  0.00    -0.504 OA
ATOM     22  H   UNL     1     -10.062  34.087  38.169  1.00  0.00     0.293 HD
ENDBRANCH  16  21
ENDBRANCH   1  11
BRANCH  10  23
ATOM     23  O   UNL     1      -5.764  30.018  39.023  1.00  0.00    -0.500 OA
ATOM     24  H   UNL     1      -5.655  30.945  38.628  1.00  0.00     0.294 HD
ENDBRANCH  10  23
BRANCH   5  25
ATOM     25  O   UNL     1      -9.114  23.729  35.933  1.00  0.00    -0.507 OA
ATOM     26  H   UNL     1     -10.118  23.804  35.815  1.00  0.00     0.293 HD
ENDBRANCH   5  25
BRANCH   7  27
ATOM     27  O   UNL     1      -5.864  24.792  39.300  1.00  0.00    -0.507 OA
ATOM     28  H   UNL     1      -5.564  23.831  39.386  1.00  0.00     0.293 HD
ENDBRANCH   7  27
TORSDOF 7
ENDMDL
MODEL 4
REMARK VINA RESULT:    -4.306      2.611      4.598
REMARK INTER + INTRA:          -5.514
REMARK INTER:                  -5.171
REMARK INTRA:                  -0.343
REMARK UNBOUND:                -0.201
REMARK SMILES Oc1cc(O)c2cc(O)c(-c3cc(O)c(O)c(O)c3)[o+]c2c1
REMARK SMILES IDX 10 1 20 2 21 3 22 4 2 5 3 6 4 7 6 8 7 9 8 10 11 11 12 12
REMARK SMILES IDX 13 13 19 14 15 15 17 16 14 17 16 19 18 21 9 23 1 25 5 27
REMARK H PARENT 14 18 16 20 18 22 9 24 1 26 5 28
REMARK Flexibility Score: inf
ROOT
ATOM      1  C   UNL     1      -7.855  28.033  37.408  1.00  0.00     0.402 A 
ATOM      2  O   UNL     1      -7.514  28.806  36.380  1.00  0.00    -0.202 OA
ATOM      3  C   UNL     1      -7.711  30.120  36.359  1.00  0.00     0.368 A 
ATOM      4  C   UNL     1      -7.321  30.848  35.232  1.00  0.00     0.162 A 
ATOM      5  C   UNL     1      -7.520  32.231  35.181  1.00  0.00     0.128 A 
ATOM      6  C   UNL     1      -8.112  32.888  36.262  1.00  0.00     0.093 A 
ATOM      7  C   UNL     1      -8.512  32.181  37.403  1.00  0.00     0.136 A 
ATOM      8  C   UNL     1      -8.310  30.778  37.461  1.00  0.00     0.125 A 
ATOM      9  C   UNL     1      -8.667  29.991  38.567  1.00  0.00     0.078 A 
ATOM     10  C   UNL     1      -8.432  28.613  38.553  1.00  0.00     0.223 A 
ENDROOT
BRANCH   1  11
ATOM     11  C   UNL     1      -7.592  26.579  37.308  1.00  0.00     0.091 A 
ATOM     12  C   UNL     1      -8.421  25.736  36.554  1.00  0.00     0.068 A 
ATOM     13  C   UNL     1      -8.141  24.367  36.453  1.00  0.00     0.162 A 
ATOM     14  C   UNL     1      -6.458  26.039  37.932  1.00  0.00     0.068 A 
ATOM     15  C   UNL     1      -7.022  23.825  37.098  1.00  0.00     0.200 A 
ATOM     16  C   UNL     1      -6.167  24.673  37.842  1.00  0.00     0.162 A 
BRANCH  13  17
ATOM     17  O   UNL     1      -8.975  23.535  35.708  1.00  0.00    -0.504 OA
ATOM     18  H   UNL     1      -9.284  22.637  36.061  1.00  0.00     0.293 HD
ENDBRANCH  13  17
BRANCH  15  19
ATOM     19  O   UNL     1      -6.792  22.451  36.972  1.00  0.00    -0.502 OA
ATOM     20  H   UNL     1      -6.280  22.031  36.211  1.00  0.00     0.293 HD
ENDBRANCH  15  19
BRANCH  16  21
ATOM     21  O   UNL     1      -5.027  24.206  38.501  1.00  0.00    -0.504 OA
ATOM     22  H   UNL     1      -4.168  24.729  38.584  1.00  0.00     0.293 HD
ENDBRANCH  16  21
ENDBRANCH   1  11
BRANCH  10  23
ATOM     23  O   UNL     1      -8.740  27.838  39.671  1.00  0.00    -0.500 OA
ATOM     24  H   UNL     1      -9.587  27.990  40.207  1.00  0.00     0.294 HD
ENDBRANCH  10  23
BRANCH   5  25
ATOM     25  O   UNL     1      -7.134  32.963  34.061  1.00  0.00    -0.507 OA
ATOM     26  H   UNL     1      -7.568  33.850  33.832  1.00  0.00     0.293 HD
ENDBRANCH   5  25
BRANCH   7  27
ATOM     27  O   UNL     1      -9.100  32.912  38.440  1.00  0.00    -0.507 OA
ATOM     28  H   UNL     1      -9.868  32.582  39.007  1.00  0.00     0.293 HD
ENDBRANCH   7  27
TORSDOF 7
ENDMDL
MODEL 5
REMARK VINA RESULT:    -4.285      1.735      3.668
REMARK INTER + INTRA:          -5.488
REMARK INTER:                  -5.413
REMARK INTRA:                  -0.075
REMARK UNBOUND:                -0.201
REMARK SMILES Oc1cc(O)c2cc(O)c(-c3cc(O)c(O)c(O)c3)[o+]c2c1
REMARK SMILES IDX 10 1 20 2 21 3 22 4 2 5 3 6 4 7 6 8 7 9 8 10 11 11 12 12
REMARK SMILES IDX 13 13 19 14 15 15 17 16 14 17 16 19 18 21 9 23 1 25 5 27
REMARK H PARENT 14 18 16 20 18 22 9 24 1 26 5 28
REMARK Flexibility Score: inf
ROOT
ATOM      1  C   UNL     1      -7.576  31.100  36.894  1.00  0.00     0.402 A 
ATOM      2  O   UNL     1      -7.902  32.062  37.754  1.00  0.00    -0.202 OA
ATOM      3  C   UNL     1      -8.176  33.309  37.384  1.00  0.00     0.368 A 
ATOM      4  C   UNL     1      -8.506  34.250  38.362  1.00  0.00     0.162 A 
ATOM      5  C   UNL     1      -8.795  35.570  38.002  1.00  0.00     0.128 A 
ATOM      6  C   UNL     1      -8.754  35.948  36.658  1.00  0.00     0.093 A 
ATOM      7  C   UNL     1      -8.425  35.024  35.659  1.00  0.00     0.136 A 
ATOM      8  C   UNL     1      -8.133  33.682  36.019  1.00  0.00     0.125 A 
ATOM      9  C   UNL     1      -7.808  32.685  35.086  1.00  0.00     0.078 A 
ATOM     10  C   UNL     1      -7.537  31.383  35.516  1.00  0.00     0.223 A 
ENDROOT
BRANCH   1  11
ATOM     11  C   UNL     1      -7.283  29.751  37.430  1.00  0.00     0.091 A 
ATOM     12  C   UNL     1      -6.348  29.560  38.459  1.00  0.00     0.068 A 
ATOM     13  C   UNL     1      -6.103  28.278  38.968  1.00  0.00     0.162 A 
ATOM     14  C   UNL     1      -7.994  28.646  36.941  1.00  0.00     0.068 A 
ATOM     15  C   UNL     1      -6.797  27.171  38.461  1.00  0.00     0.200 A 
ATOM     16  C   UNL     1      -7.757  27.359  37.439  1.00  0.00     0.162 A 
BRANCH  13  17
ATOM     17  O   UNL     1      -5.167  28.096  39.985  1.00  0.00    -0.504 OA
ATOM     18  H   UNL     1      -5.334  28.431  40.927  1.00  0.00     0.293 HD
ENDBRANCH  13  17
BRANCH  15  19
ATOM     19  O   UNL     1      -6.508  25.913  38.999  1.00  0.00    -0.502 OA
ATOM     20  H   UNL     1      -6.854  25.585  39.888  1.00  0.00     0.293 HD
ENDBRANCH  15  19
BRANCH  16  21
ATOM     21  O   UNL     1      -8.495  26.305  36.894  1.00  0.00    -0.504 OA
ATOM     22  H   UNL     1      -9.092  26.392  36.084  1.00  0.00     0.293 HD
ENDBRANCH  16  21
ENDBRANCH   1  11
BRANCH  10  23
ATOM     23  O   UNL     1      -7.262  30.381  34.585  1.00  0.00    -0.500 OA
ATOM     24  H   UNL     1      -6.380  30.344  34.088  1.00  0.00     0.294 HD
ENDBRANCH  10  23
BRANCH   5  25
ATOM     25  O   UNL     1      -9.125  36.514  38.971  1.00  0.00    -0.507 OA
ATOM     26  H   UNL     1     -10.088  36.780  39.146  1.00  0.00     0.293 HD
ENDBRANCH   5  25
BRANCH   7  27
ATOM     27  O   UNL     1      -8.403  35.483  34.339  1.00  0.00    -0.507 OA
ATOM     28  H   UNL     1      -7.570  35.788  33.855  1.00  0.00     0.293 HD
ENDBRANCH   7  27
TORSDOF 7
ENDMDL
MODEL 6
REMARK VINA RESULT:    -4.199     20.058     22.280
REMARK INTER + INTRA:          -5.382
REMARK INTER:                  -5.186
REMARK INTRA:                  -0.196
REMARK UNBOUND:                -0.201
REMARK SMILES Oc1cc(O)c2cc(O)c(-c3cc(O)c(O)c(O)c3)[o+]c2c1
REMARK SMILES IDX 10 1 20 2 21 3 22 4 2 5 3 6 4 7 6 8 7 9 8 10 11 11 12 12
REMARK SMILES IDX 13 13 19 14 15 15 17 16 14 17 16 19 18 21 9 23 1 25 5 27
REMARK H PARENT 14 18 16 20 18 22 9 24 1 26 5 28
REMARK Flexibility Score: inf
ROOT
ATOM      1  C   UNL     1       8.070  20.973  26.802  1.00  0.00     0.402 A 
ATOM      2  O   UNL     1       7.300  20.804  27.874  1.00  0.00    -0.202 OA
ATOM      3  C   UNL     1       7.780  20.511  29.078  1.00  0.00     0.368 A 
ATOM      4  C   UNL     1       6.891  20.350  30.143  1.00  0.00     0.162 A 
ATOM      5  C   UNL     1       7.368  20.039  31.421  1.00  0.00     0.128 A 
ATOM      6  C   UNL     1       8.740  19.889  31.632  1.00  0.00     0.093 A 
ATOM      7  C   UNL     1       9.652  20.046  30.581  1.00  0.00     0.136 A 
ATOM      8  C   UNL     1       9.173  20.365  29.283  1.00  0.00     0.125 A 
ATOM      9  C   UNL     1      10.013  20.553  28.175  1.00  0.00     0.078 A 
ATOM     10  C   UNL     1       9.468  20.870  26.927  1.00  0.00     0.223 A 
ENDROOT
BRANCH   1  11
ATOM     11  C   UNL     1       7.415  21.287  25.511  1.00  0.00     0.091 A 
ATOM     12  C   UNL     1       7.586  20.465  24.387  1.00  0.00     0.068 A 
ATOM     13  C   UNL     1       6.938  20.767  23.181  1.00  0.00     0.162 A 
ATOM     14  C   UNL     1       6.561  22.395  25.423  1.00  0.00     0.068 A 
ATOM     15  C   UNL     1       6.104  21.889  23.088  1.00  0.00     0.200 A 
ATOM     16  C   UNL     1       5.909  22.709  24.224  1.00  0.00     0.162 A 
BRANCH  13  17
ATOM     17  O   UNL     1       7.119  19.949  22.067  1.00  0.00    -0.504 OA
ATOM     18  H   UNL     1       6.728  19.015  22.024  1.00  0.00     0.293 HD
ENDBRANCH  13  17
BRANCH  15  19
ATOM     19  O   UNL     1       5.488  22.149  21.860  1.00  0.00    -0.502 OA
ATOM     20  H   UNL     1       4.489  22.151  21.717  1.00  0.00     0.293 HD
ENDBRANCH  15  19
BRANCH  16  21
ATOM     21  O   UNL     1       5.083  23.836  24.209  1.00  0.00    -0.504 OA
ATOM     22  H   UNL     1       4.273  23.950  24.800  1.00  0.00     0.293 HD
ENDBRANCH  16  21
ENDBRANCH   1  11
BRANCH  10  23
ATOM     23  O   UNL     1      10.305  21.106  25.836  1.00  0.00    -0.500 OA
ATOM     24  H   UNL     1      10.488  20.392  25.140  1.00  0.00     0.294 HD
ENDBRANCH  10  23
BRANCH   5  25
ATOM     25  O   UNL     1       6.488  19.875  32.487  1.00  0.00    -0.507 OA
ATOM     26  H   UNL     1       6.682  20.269  33.401  1.00  0.00     0.293 HD
ENDBRANCH   5  25
BRANCH   7  27
ATOM     27  O   UNL     1      11.008  19.877  30.875  1.00  0.00    -0.507 OA
ATOM     28  H   UNL     1      11.726  20.558  30.671  1.00  0.00     0.293 HD
ENDBRANCH   7  27
TORSDOF 7
ENDMDL
MODEL 7
REMARK VINA RESULT:    -4.198     20.101     21.632
REMARK INTER + INTRA:          -5.381
REMARK INTER:                  -5.488
REMARK INTRA:                   0.107
REMARK UNBOUND:                -0.201
REMARK SMILES Oc1cc(O)c2cc(O)c(-c3cc(O)c(O)c(O)c3)[o+]c2c1
REMARK SMILES IDX 10 1 20 2 21 3 22 4 2 5 3 6 4 7 6 8 7 9 8 10 11 11 12 12
REMARK SMILES IDX 13 13 19 14 15 15 17 16 14 17 16 19 18 21 9 23 1 25 5 27
REMARK H PARENT 14 18 16 20 18 22 9 24 1 26 5 28
REMARK Flexibility Score: inf
ROOT
ATOM      1  C   UNL     1       8.232  21.095  27.301  1.00  0.00     0.402 A 
ATOM      2  O   UNL     1       7.239  20.632  26.546  1.00  0.00    -0.202 OA
ATOM      3  C   UNL     1       7.137  20.879  25.244  1.00  0.00     0.368 A 
ATOM      4  C   UNL     1       6.055  20.350  24.535  1.00  0.00     0.162 A 
ATOM      5  C   UNL     1       5.921  20.596  23.165  1.00  0.00     0.128 A 
ATOM      6  C   UNL     1       6.872  21.374  22.503  1.00  0.00     0.093 A 
ATOM      7  C   UNL     1       7.965  21.916  23.190  1.00  0.00     0.136 A 
ATOM      8  C   UNL     1       8.108  21.667  24.580  1.00  0.00     0.125 A 
ATOM      9  C   UNL     1       9.177  22.157  25.347  1.00  0.00     0.078 A 
ATOM     10  C   UNL     1       9.252  21.866  26.712  1.00  0.00     0.223 A 
ENDROOT
BRANCH   1  11
ATOM     11  C   UNL     1       8.231  20.760  28.743  1.00  0.00     0.091 A 
ATOM     12  C   UNL     1       9.420  20.466  29.427  1.00  0.00     0.068 A 
ATOM     13  C   UNL     1       9.400  20.174  30.797  1.00  0.00     0.162 A 
ATOM     14  C   UNL     1       7.025  20.792  29.458  1.00  0.00     0.068 A 
ATOM     15  C   UNL     1       8.190  20.182  31.504  1.00  0.00     0.200 A 
ATOM     16  C   UNL     1       6.989  20.500  30.826  1.00  0.00     0.162 A 
BRANCH  13  17
ATOM     17  O   UNL     1      10.585  19.875  31.466  1.00  0.00    -0.504 OA
ATOM     18  H   UNL     1      11.360  19.419  30.998  1.00  0.00     0.293 HD
ENDBRANCH  13  17
BRANCH  15  19
ATOM     19  O   UNL     1       8.224  19.876  32.868  1.00  0.00    -0.502 OA
ATOM     20  H   UNL     1       7.646  20.324  33.562  1.00  0.00     0.293 HD
ENDBRANCH  15  19
BRANCH  16  21
ATOM     21  O   UNL     1       5.748  20.540  31.467  1.00  0.00    -0.504 OA
ATOM     22  H   UNL     1       4.865  20.622  30.985  1.00  0.00     0.293 HD
ENDBRANCH  16  21
ENDBRANCH   1  11
BRANCH  10  23
ATOM     23  O   UNL     1      10.340  22.311  27.464  1.00  0.00    -0.500 OA
ATOM     24  H   UNL     1      10.599  23.290  27.497  1.00  0.00     0.294 HD
ENDBRANCH  10  23
BRANCH   5  25
ATOM     25  O   UNL     1       4.845  20.072  22.453  1.00  0.00    -0.507 OA
ATOM     26  H   UNL     1       4.907  19.889  21.457  1.00  0.00     0.293 HD
ENDBRANCH   5  25
BRANCH   7  27
ATOM     27  O   UNL     1       8.870  22.686  22.455  1.00  0.00    -0.507 OA
ATOM     28  H   UNL     1       9.560  23.301  22.863  1.00  0.00     0.293 HD
ENDBRANCH   7  27
TORSDOF 7
ENDMDL
MODEL 8
REMARK VINA RESULT:    -4.138      4.789      9.761
REMARK INTER + INTRA:          -5.306
REMARK INTER:                  -4.935
REMARK INTRA:                  -0.372
REMARK UNBOUND:                -0.201
REMARK SMILES Oc1cc(O)c2cc(O)c(-c3cc(O)c(O)c(O)c3)[o+]c2c1
REMARK SMILES IDX 10 1 20 2 21 3 22 4 2 5 3 6 4 7 6 8 7 9 8 10 11 11 12 12
REMARK SMILES IDX 13 13 19 14 15 15 17 16 14 17 16 19 18 21 9 23 1 25 5 27
REMARK H PARENT 14 18 16 20 18 22 9 24 1 26 5 28
REMARK Flexibility Score: inf
ROOT
ATOM      1  C   UNL     1      -7.258  25.441  38.007  1.00  0.00     0.402 A 
ATOM      2  O   UNL     1      -6.490  24.701  37.212  1.00  0.00    -0.202 OA
ATOM      3  C   UNL     1      -6.589  23.378  37.127  1.00  0.00     0.368 A 
ATOM      4  C   UNL     1      -5.734  22.687  36.265  1.00  0.00     0.162 A 
ATOM      5  C   UNL     1      -5.815  21.294  36.158  1.00  0.00     0.128 A 
ATOM      6  C   UNL     1      -6.754  20.593  36.917  1.00  0.00     0.093 A 
ATOM      7  C   UNL     1      -7.621  21.262  37.788  1.00  0.00     0.136 A 
ATOM      8  C   UNL     1      -7.546  22.675  37.899  1.00  0.00     0.125 A 
ATOM      9  C   UNL     1      -8.383  23.431  38.735  1.00  0.00     0.078 A 
ATOM     10  C   UNL     1      -8.252  24.822  38.788  1.00  0.00     0.223 A 
ENDROOT
BRANCH   1  11
ATOM     11  C   UNL     1      -7.044  26.907  38.021  1.00  0.00     0.091 A 
ATOM     12  C   UNL     1      -7.804  27.764  37.210  1.00  0.00     0.068 A 
ATOM     13  C   UNL     1      -7.602  29.149  37.256  1.00  0.00     0.162 A 
ATOM     14  C   UNL     1      -6.105  27.458  38.904  1.00  0.00     0.068 A 
ATOM     15  C   UNL     1      -6.645  29.696  38.121  1.00  0.00     0.200 A 
ATOM     16  C   UNL     1      -5.891  28.840  38.958  1.00  0.00     0.162 A 
BRANCH  13  17
ATOM     17  O   UNL     1      -8.355  29.994  36.442  1.00  0.00    -0.504 OA
ATOM     18  H   UNL     1      -8.057  30.231  35.502  1.00  0.00     0.293 HD
ENDBRANCH  13  17
BRANCH  15  19
ATOM     19  O   UNL     1      -6.478  31.085  38.122  1.00  0.00    -0.502 OA
ATOM     20  H   UNL     1      -7.102  31.729  38.583  1.00  0.00     0.293 HD
ENDBRANCH  15  19
BRANCH  16  21
ATOM     21  O   UNL     1      -4.929  29.314  39.854  1.00  0.00    -0.504 OA
ATOM     22  H   UNL     1      -4.628  28.814  40.677  1.00  0.00     0.293 HD
ENDBRANCH  16  21
ENDBRANCH   1  11
BRANCH  10  23
ATOM     23  O   UNL     1      -9.116  25.577  39.581  1.00  0.00    -0.500 OA
ATOM     24  H   UNL     1     -10.027  25.870  39.246  1.00  0.00     0.294 HD
ENDBRANCH  10  23
BRANCH   5  25
ATOM     25  O   UNL     1      -4.966  20.598  35.301  1.00  0.00    -0.507 OA
ATOM     26  H   UNL     1      -5.297  20.216  34.422  1.00  0.00     0.293 HD
ENDBRANCH   5  25
BRANCH   7  27
ATOM     27  O   UNL     1      -8.530  20.487  38.515  1.00  0.00    -0.507 OA
ATOM     28  H   UNL     1      -9.514  20.694  38.604  1.00  0.00     0.293 HD
ENDBRANCH   7  27
TORSDOF 7
ENDMDL
MODEL 9
REMARK VINA RESULT:    -4.062      4.999     10.230
REMARK INTER + INTRA:          -5.213
REMARK INTER:                  -4.904
REMARK INTRA:                  -0.309
REMARK UNBOUND:                -0.201
REMARK SMILES Oc1cc(O)c2cc(O)c(-c3cc(O)c(O)c(O)c3)[o+]c2c1
REMARK SMILES IDX 10 1 20 2 21 3 22 4 2 5 3 6 4 7 6 8 7 9 8 10 11 11 12 12
REMARK SMILES IDX 13 13 19 14 15 15 17 16 14 17 16 19 18 21 9 23 1 25 5 27
REMARK H PARENT 14 18 16 20 18 22 9 24 1 26 5 28
REMARK Flexibility Score: inf
ROOT
ATOM      1  C   UNL     1      -7.239  25.045  36.929  1.00  0.00     0.402 A 
ATOM      2  O   UNL     1      -7.727  24.192  37.826  1.00  0.00    -0.202 OA
ATOM      3  C   UNL     1      -7.893  22.895  37.585  1.00  0.00     0.368 A 
ATOM      4  C   UNL     1      -8.416  22.079  38.591  1.00  0.00     0.162 A 
ATOM      5  C   UNL     1      -8.604  20.712  38.363  1.00  0.00     0.128 A 
ATOM      6  C   UNL     1      -8.269  20.161  37.124  1.00  0.00     0.093 A 
ATOM      7  C   UNL     1      -7.745  20.958  36.100  1.00  0.00     0.136 A 
ATOM      8  C   UNL     1      -7.548  22.346  36.326  1.00  0.00     0.125 A 
ATOM      9  C   UNL     1      -7.016  23.218  35.364  1.00  0.00     0.078 A 
ATOM     10  C   UNL     1      -6.848  24.573  35.662  1.00  0.00     0.223 A 
ENDROOT
BRANCH   1  11
ATOM     11  C   UNL     1      -7.110  26.469  37.314  1.00  0.00     0.091 A 
ATOM     12  C   UNL     1      -7.941  27.454  36.760  1.00  0.00     0.068 A 
ATOM     13  C   UNL     1      -7.818  28.793  37.155  1.00  0.00     0.162 A 
ATOM     14  C   UNL     1      -6.178  26.836  38.295  1.00  0.00     0.068 A 
ATOM     15  C   UNL     1      -6.869  29.161  38.118  1.00  0.00     0.200 A 
ATOM     16  C   UNL     1      -6.043  28.170  38.698  1.00  0.00     0.162 A 
BRANCH  13  17
ATOM     17  O   UNL     1      -8.643  29.767  36.594  1.00  0.00    -0.504 OA
ATOM     18  H   UNL     1      -9.381  30.211  37.129  1.00  0.00     0.293 HD
ENDBRANCH  13  17
BRANCH  15  19
ATOM     19  O   UNL     1      -6.783  30.512  38.471  1.00  0.00    -0.502 OA
ATOM     20  H   UNL     1      -7.497  31.010  38.980  1.00  0.00     0.293 HD
ENDBRANCH  15  19
BRANCH  16  21
ATOM     21  O   UNL     1      -5.084  28.461  39.671  1.00  0.00    -0.504 OA
ATOM     22  H   UNL     1      -4.092  28.521  39.487  1.00  0.00     0.293 HD
ENDBRANCH  16  21
ENDBRANCH   1  11
BRANCH  10  23
ATOM     23  O   UNL     1      -6.273  25.431  34.723  1.00  0.00    -0.500 OA
ATOM     24  H   UNL     1      -6.049  26.393  34.949  1.00  0.00     0.294 HD
ENDBRANCH  10  23
BRANCH   5  25
ATOM     25  O   UNL     1      -9.125  19.892  39.361  1.00  0.00    -0.507 OA
ATOM     26  H   UNL     1     -10.111  19.656  39.393  1.00  0.00     0.293 HD
ENDBRANCH   5  25
BRANCH   7  27
ATOM     27  O   UNL     1      -7.438  20.331  34.889  1.00  0.00    -0.507 OA
ATOM     28  H   UNL     1      -7.644  19.365  34.678  1.00  0.00     0.293 HD
ENDBRANCH   7  27
TORSDOF 7
ENDMDL
