MODEL 1
REMARK VINA RESULT:    -2.946      0.000      0.000
REMARK INTER + INTRA:          -3.032
REMARK INTER:                  -3.032
REMARK INTRA:                   0.000
REMARK UNBOUND:                 0.000
REMARK SMILES O=c1ccc2ccc(O)cc2o1
REMARK SMILES IDX 6 1 7 2 8 3 10 4 11 5 5 6 4 7 3 8 2 9 1 10 12 11 9 12
REMARK H PARENT 9 13
REMARK Flexibility Score: inf
ROOT
ATOM      1  C   UNL     1       0.389  -1.639   2.082  1.00  0.00     0.016 A 
ATOM      2  C   UNL     1       1.568  -0.958   2.403  1.00  0.00     0.047 A 
ATOM      3  C   UNL     1       2.477  -0.606   1.398  1.00  0.00     0.119 A 
ATOM      4  C   UNL     1       2.206  -0.935   0.062  1.00  0.00     0.094 A 
ATOM      5  C   UNL     1       1.029  -1.617  -0.268  1.00  0.00     0.142 A 
ATOM      6  C   UNL     1       0.114  -1.971   0.748  1.00  0.00     0.018 A 
ATOM      7  C   UNL     1      -1.053  -2.652   0.387  1.00  0.00     0.019 A 
ATOM      8  C   UNL     1      -1.279  -2.957  -0.954  1.00  0.00     0.094 A 
ATOM      9  C   UNL     1      -0.328  -2.575  -1.907  1.00  0.00     0.336 A 
ATOM     10  O   UNL     1      -0.514  -2.843  -3.123  1.00  0.00    -0.246 OA
ATOM     11  O   UNL     1       0.775  -1.929  -1.537  1.00  0.00    -0.423 OA
ENDROOT
BRANCH   3  12
ATOM     12  O   UNL     1       3.645   0.072   1.738  1.00  0.00    -0.508 OA
ATOM     13  H   UNL     1       4.151  -0.138   2.590  1.00  0.00     0.293 HD
ENDBRANCH   3  12
TORSDOF 1
ENDMDL
MODEL 2
REMARK VINA RESULT:    -1.952      0.756      4.224
REMARK INTER + INTRA:          -2.009
REMARK INTER:                  -2.009
REMARK INTRA:                   0.000
REMARK UNBOUND:                 0.000
REMARK SMILES O=c1ccc2ccc(O)cc2o1
REMARK SMILES IDX 6 1 7 2 8 3 10 4 11 5 5 6 4 7 3 8 2 9 1 10 12 11 9 12
REMARK H PARENT 9 13
REMARK Flexibility Score: inf
ROOT
ATOM      1  C   UNL     1      -1.034  -2.760   0.553  1.00  0.00     0.016 A 
ATOM      2  C   UNL     1      -1.402  -3.123  -0.747  1.00  0.00     0.047 A 
ATOM      3  C   UNL     1      -0.604  -2.754  -1.836  1.00  0.00     0.119 A 
ATOM      4  C   UNL     1       0.572  -2.019  -1.626  1.00  0.00     0.094 A 
ATOM      5  C   UNL     1       0.948  -1.651  -0.328  1.00  0.00     0.142 A 
ATOM      6  C   UNL     1       0.140  -2.024   0.768  1.00  0.00     0.018 A 
ATOM      7  C   UNL     1       0.541  -1.643   2.052  1.00  0.00     0.019 A 
ATOM      8  C   UNL     1       1.717  -0.912   2.212  1.00  0.00     0.094 A 
ATOM      9  C   UNL     1       2.468  -0.578   1.079  1.00  0.00     0.336 A 
ATOM     10  O   UNL     1       3.533   0.082   1.203  1.00  0.00    -0.246 OA
ATOM     11  O   UNL     1       2.064  -0.953  -0.132  1.00  0.00    -0.423 OA
ENDROOT
BRANCH   3  12
ATOM     12  O   UNL     1      -0.986  -3.125  -3.123  1.00  0.00    -0.508 OA
ATOM     13  H   UNL     1      -1.962  -3.174  -3.392  1.00  0.00     0.293 HD
ENDBRANCH   3  12
TORSDOF 1
ENDMDL
