MODEL 1
REMARK VINA RESULT:    -2.886      0.000      0.000
REMARK INTER + INTRA:          -3.268
REMARK INTER:                  -3.476
REMARK INTRA:                   0.208
REMARK UNBOUND:                 0.208
REMARK SMILES O=c1c(O)c(-c2ccc(O)c(O)c2)oc2cc(O)cc(O)c12
REMARK SMILES IDX 5 1 3 2 2 3 1 4 22 5 20 6 19 7 17 8 16 9 15 10 14 11 6 12
REMARK SMILES IDX 7 13 8 14 9 15 13 16 11 17 10 18 12 20 4 22 21 24 18 26
REMARK H PARENT 10 19 12 21 4 23 21 25 18 27
REMARK Flexibility Score: inf
ROOT
ATOM      1  C   UNL     1       8.815  12.069 -16.486  1.00  0.00     0.180 A 
ATOM      2  C   UNL     1       7.603  12.761 -16.322  1.00  0.00     0.208 A 
ATOM      3  C   UNL     1       7.283  13.796 -17.214  1.00  0.00     0.238 A 
ATOM      4  O   UNL     1       6.171  14.374 -17.095  1.00  0.00    -0.285 OA
ATOM      5  C   UNL     1       8.186  14.139 -18.249  1.00  0.00     0.111 A 
ATOM      6  C   UNL     1       7.982  15.197 -19.185  1.00  0.00     0.134 A 
ATOM      7  C   UNL     1       8.880  15.362 -20.247  1.00  0.00     0.093 A 
ATOM      8  C   UNL     1      10.009  14.548 -20.369  1.00  0.00     0.123 A 
ATOM      9  C   UNL     1      10.248  13.551 -19.427  1.00  0.00     0.094 A 
ATOM     10  C   UNL     1       9.351  13.339 -18.376  1.00  0.00     0.146 A 
ATOM     11  O   UNL     1       9.611  12.370 -17.506  1.00  0.00    -0.452 OA
ENDROOT
BRANCH   1  12
ATOM     12  C   UNL     1       9.234  10.983 -15.571  1.00  0.00     0.025 A 
ATOM     13  C   UNL     1       8.280  10.066 -15.104  1.00  0.00     0.016 A 
ATOM     14  C   UNL     1       8.658   9.021 -14.257  1.00  0.00     0.051 A 
ATOM     15  C   UNL     1       9.998   8.869 -13.876  1.00  0.00     0.157 A 
ATOM     16  C   UNL     1      10.582  10.815 -15.204  1.00  0.00     0.062 A 
ATOM     17  C   UNL     1      10.964   9.768 -14.357  1.00  0.00     0.158 A 
BRANCH  15  18
ATOM     18  O   UNL     1      10.371   7.827 -13.029  1.00  0.00    -0.504 OA
ATOM     19  H   UNL     1      10.263   6.857 -13.300  1.00  0.00     0.293 HD
ENDBRANCH  15  18
BRANCH  17  20
ATOM     20  O   UNL     1      12.307   9.635 -14.008  1.00  0.00    -0.504 OA
ATOM     21  H   UNL     1      12.941  10.426 -13.994  1.00  0.00     0.293 HD
ENDBRANCH  17  20
ENDBRANCH   1  12
BRANCH   2  22
ATOM     22  O   UNL     1       6.715  12.392 -15.307  1.00  0.00    -0.502 OA
ATOM     23  H   UNL     1       6.711  12.839 -14.399  1.00  0.00     0.293 HD
ENDBRANCH   2  22
BRANCH   6  24
ATOM     24  O   UNL     1       6.937  16.123 -19.101  1.00  0.00    -0.507 OA
ATOM     25  H   UNL     1       6.792  16.757 -18.329  1.00  0.00     0.293 HD
ENDBRANCH   6  24
BRANCH   8  26
ATOM     26  O   UNL     1      10.905  14.730 -21.420  1.00  0.00    -0.508 OA
ATOM     27  H   UNL     1      10.906  15.577 -21.975  1.00  0.00     0.293 HD
ENDBRANCH   8  26
TORSDOF 6
ENDMDL
