MODEL 1
REMARK VINA RESULT:    -7.865      0.000      0.000
REMARK INTER + INTRA:          -9.684
REMARK INTER:                  -9.474
REMARK INTRA:                  -0.211
REMARK UNBOUND:                -0.211
REMARK SMILES O=c1c(O)c(-c2ccc(O)c(O)c2)oc2cc(O)cc(O)c12
REMARK SMILES IDX 5 1 3 2 2 3 1 4 22 5 20 6 19 7 17 8 16 9 15 10 14 11 6 12
REMARK SMILES IDX 7 13 8 14 9 15 13 16 11 17 10 18 12 20 4 22 21 24 18 26
REMARK H PARENT 10 19 12 21 4 23 21 25 18 27
REMARK Flexibility Score: inf
ROOT
ATOM      1  C   UNL     1      15.669  21.218 -12.441  1.00  0.00     0.180 A 
ATOM      2  C   UNL     1      16.918  21.297 -11.796  1.00  0.00     0.208 A 
ATOM      3  C   UNL     1      18.062  21.558 -12.565  1.00  0.00     0.238 A 
ATOM      4  O   UNL     1      19.186  21.642 -11.998  1.00  0.00    -0.285 OA
ATOM      5  C   UNL     1      17.943  21.715 -13.962  1.00  0.00     0.111 A 
ATOM      6  C   UNL     1      19.047  21.975 -14.808  1.00  0.00     0.134 A 
ATOM      7  C   UNL     1      18.847  22.109 -16.191  1.00  0.00     0.093 A 
ATOM      8  C   UNL     1      17.569  21.987 -16.741  1.00  0.00     0.123 A 
ATOM      9  C   UNL     1      16.474  21.729 -15.909  1.00  0.00     0.094 A 
ATOM     10  C   UNL     1      16.653  21.595 -14.529  1.00  0.00     0.146 A 
ATOM     11  O   UNL     1      15.596  21.356 -13.761  1.00  0.00    -0.452 OA
ENDROOT
BRANCH   1  12
ATOM     12  C   UNL     1      14.414  20.965 -11.696  1.00  0.00     0.025 A 
ATOM     13  C   UNL     1      13.915  21.950 -10.828  1.00  0.00     0.016 A 
ATOM     14  C   UNL     1      12.744  21.725 -10.100  1.00  0.00     0.051 A 
ATOM     15  C   UNL     1      12.064  20.506 -10.215  1.00  0.00     0.157 A 
ATOM     16  C   UNL     1      13.739  19.735 -11.793  1.00  0.00     0.062 A 
ATOM     17  C   UNL     1      12.567  19.505 -11.063  1.00  0.00     0.158 A 
BRANCH  15  18
ATOM     18  O   UNL     1      10.895  20.284  -9.488  1.00  0.00    -0.504 OA
ATOM     19  H   UNL     1      10.920  19.941  -8.536  1.00  0.00     0.293 HD
ENDBRANCH  15  18
BRANCH  17  20
ATOM     20  O   UNL     1      11.921  18.276 -11.190  1.00  0.00    -0.504 OA
ATOM     21  H   UNL     1      11.569  17.942 -12.080  1.00  0.00     0.293 HD
ENDBRANCH  17  20
ENDBRANCH   1  12
BRANCH   2  22
ATOM     22  O   UNL     1      17.016  21.090 -10.418  1.00  0.00    -0.502 OA
ATOM     23  H   UNL     1      17.088  21.854  -9.758  1.00  0.00     0.293 HD
ENDBRANCH   2  22
BRANCH   6  24
ATOM     24  O   UNL     1      20.337  22.102 -14.290  1.00  0.00    -0.507 OA
ATOM     25  H   UNL     1      20.557  22.778 -13.567  1.00  0.00     0.293 HD
ENDBRANCH   6  24
BRANCH   8  26
ATOM     26  O   UNL     1      17.399  22.123 -18.117  1.00  0.00    -0.508 OA
ATOM     27  H   UNL     1      17.099  21.344 -18.693  1.00  0.00     0.293 HD
ENDBRANCH   8  26
TORSDOF 6
ENDMDL
MODEL 2
REMARK VINA RESULT:    -7.408      1.734      3.685
REMARK INTER + INTRA:          -9.134
REMARK INTER:                  -8.868
REMARK INTRA:                  -0.267
REMARK UNBOUND:                -0.211
REMARK SMILES O=c1c(O)c(-c2ccc(O)c(O)c2)oc2cc(O)cc(O)c12
REMARK SMILES IDX 5 1 3 2 2 3 1 4 22 5 20 6 19 7 17 8 16 9 15 10 14 11 6 12
REMARK SMILES IDX 7 13 8 14 9 15 13 16 11 17 10 18 12 20 4 22 21 24 18 26
REMARK H PARENT 10 19 12 21 4 23 21 25 18 27
REMARK Flexibility Score: inf
ROOT
ATOM      1  C   UNL     1      15.871  21.042 -11.621  1.00  0.00     0.180 A 
ATOM      2  C   UNL     1      16.286  21.396 -12.919  1.00  0.00     0.208 A 
ATOM      3  C   UNL     1      17.647  21.643 -13.151  1.00  0.00     0.238 A 
ATOM      4  O   UNL     1      18.033  21.949 -14.313  1.00  0.00    -0.285 OA
ATOM      5  C   UNL     1      18.565  21.553 -12.084  1.00  0.00     0.111 A 
ATOM      6  C   UNL     1      19.952  21.792 -12.234  1.00  0.00     0.134 A 
ATOM      7  C   UNL     1      20.799  21.693 -11.120  1.00  0.00     0.093 A 
ATOM      8  C   UNL     1      20.287  21.362  -9.863  1.00  0.00     0.123 A 
ATOM      9  C   UNL     1      18.917  21.126  -9.709  1.00  0.00     0.094 A 
ATOM     10  C   UNL     1      18.057  21.218 -10.807  1.00  0.00     0.146 A 
ATOM     11  O   UNL     1      16.761  20.983 -10.635  1.00  0.00    -0.452 OA
ENDROOT
BRANCH   1  12
ATOM     12  C   UNL     1      14.455  20.748 -11.300  1.00  0.00     0.025 A 
ATOM     13  C   UNL     1      13.723  21.651 -10.513  1.00  0.00     0.016 A 
ATOM     14  C   UNL     1      12.393  21.384 -10.181  1.00  0.00     0.051 A 
ATOM     15  C   UNL     1      11.779  20.202 -10.617  1.00  0.00     0.157 A 
ATOM     16  C   UNL     1      13.842  19.553 -11.720  1.00  0.00     0.062 A 
ATOM     17  C   UNL     1      12.509  19.282 -11.386  1.00  0.00     0.158 A 
BRANCH  15  18
ATOM     18  O   UNL     1      10.451  19.938 -10.286  1.00  0.00    -0.504 OA
ATOM     19  H   UNL     1       9.830  20.670  -9.959  1.00  0.00     0.293 HD
ENDBRANCH  15  18
BRANCH  17  20
ATOM     20  O   UNL     1      11.932  18.090 -11.825  1.00  0.00    -0.504 OA
ATOM     21  H   UNL     1      12.362  17.517 -12.542  1.00  0.00     0.293 HD
ENDBRANCH  17  20
ENDBRANCH   1  12
BRANCH   2  22
ATOM     22  O   UNL     1      15.351  21.525 -13.949  1.00  0.00    -0.502 OA
ATOM     23  H   UNL     1      14.660  22.265 -13.965  1.00  0.00     0.293 HD
ENDBRANCH   2  22
BRANCH   6  24
ATOM     24  O   UNL     1      20.494  22.125 -13.476  1.00  0.00    -0.507 OA
ATOM     25  H   UNL     1      21.139  22.899 -13.586  1.00  0.00     0.293 HD
ENDBRANCH   6  24
BRANCH   8  26
ATOM     26  O   UNL     1      21.150  21.271  -8.773  1.00  0.00    -0.508 OA
ATOM     27  H   UNL     1      21.498  20.377  -8.445  1.00  0.00     0.293 HD
ENDBRANCH   8  26
TORSDOF 6
ENDMDL
MODEL 3
REMARK VINA RESULT:    -6.900      1.882      2.632
REMARK INTER + INTRA:          -8.522
REMARK INTER:                  -8.378
REMARK INTRA:                  -0.144
REMARK UNBOUND:                -0.211
REMARK SMILES O=c1c(O)c(-c2ccc(O)c(O)c2)oc2cc(O)cc(O)c12
REMARK SMILES IDX 5 1 3 2 2 3 1 4 22 5 20 6 19 7 17 8 16 9 15 10 14 11 6 12
REMARK SMILES IDX 7 13 8 14 9 15 13 16 11 17 10 18 12 20 4 22 21 24 18 26
REMARK H PARENT 10 19 12 21 4 23 21 25 18 27
REMARK Flexibility Score: inf
ROOT
ATOM      1  C   UNL     1      15.989  20.863 -10.702  1.00  0.00     0.180 A 
ATOM      2  C   UNL     1      16.809  20.778  -9.561  1.00  0.00     0.208 A 
ATOM      3  C   UNL     1      18.186  21.009  -9.697  1.00  0.00     0.238 A 
ATOM      4  O   UNL     1      18.929  20.947  -8.679  1.00  0.00    -0.285 OA
ATOM      5  C   UNL     1      18.723  21.301 -10.968  1.00  0.00     0.111 A 
ATOM      6  C   UNL     1      20.099  21.541 -11.190  1.00  0.00     0.134 A 
ATOM      7  C   UNL     1      20.557  21.816 -12.488  1.00  0.00     0.093 A 
ATOM      8  C   UNL     1      19.666  21.852 -13.565  1.00  0.00     0.123 A 
ATOM      9  C   UNL     1      18.305  21.614 -13.351  1.00  0.00     0.094 A 
ATOM     10  C   UNL     1      17.830  21.341 -12.064  1.00  0.00     0.146 A 
ATOM     11  O   UNL     1      16.531  21.124 -11.888  1.00  0.00    -0.452 OA
ENDROOT
BRANCH   1  12
ATOM     12  C   UNL     1      14.525  20.651 -10.637  1.00  0.00     0.025 A 
ATOM     13  C   UNL     1      13.736  21.517  -9.863  1.00  0.00     0.016 A 
ATOM     14  C   UNL     1      12.355  21.323  -9.770  1.00  0.00     0.051 A 
ATOM     15  C   UNL     1      11.745  20.252 -10.436  1.00  0.00     0.157 A 
ATOM     16  C   UNL     1      13.911  19.565 -11.288  1.00  0.00     0.062 A 
ATOM     17  C   UNL     1      12.528  19.367 -11.194  1.00  0.00     0.158 A 
BRANCH  15  18
ATOM     18  O   UNL     1      10.367  20.062 -10.342  1.00  0.00    -0.504 OA
ATOM     19  H   UNL     1       9.729  20.468 -11.016  1.00  0.00     0.293 HD
ENDBRANCH  15  18
BRANCH  17  20
ATOM     20  O   UNL     1      11.954  18.283 -11.858  1.00  0.00    -0.504 OA
ATOM     21  H   UNL     1      12.407  17.834 -12.645  1.00  0.00     0.293 HD
ENDBRANCH  17  20
ENDBRANCH   1  12
BRANCH   2  22
ATOM     22  O   UNL     1      16.261  20.440  -8.321  1.00  0.00    -0.502 OA
ATOM     23  H   UNL     1      15.310  20.677  -8.065  1.00  0.00     0.293 HD
ENDBRANCH   2  22
BRANCH   6  24
ATOM     24  O   UNL     1      21.014  21.512 -10.137  1.00  0.00    -0.507 OA
ATOM     25  H   UNL     1      21.854  22.079 -10.144  1.00  0.00     0.293 HD
ENDBRANCH   6  24
BRANCH   8  26
ATOM     26  O   UNL     1      20.147  22.125 -14.843  1.00  0.00    -0.508 OA
ATOM     27  H   UNL     1      21.087  21.864 -15.123  1.00  0.00     0.293 HD
ENDBRANCH   8  26
TORSDOF 6
ENDMDL
MODEL 4
REMARK VINA RESULT:    -6.741      1.610      2.431
REMARK INTER + INTRA:          -8.331
REMARK INTER:                  -8.785
REMARK INTRA:                   0.454
REMARK UNBOUND:                -0.211
REMARK SMILES O=c1c(O)c(-c2ccc(O)c(O)c2)oc2cc(O)cc(O)c12
REMARK SMILES IDX 5 1 3 2 2 3 1 4 22 5 20 6 19 7 17 8 16 9 15 10 14 11 6 12
REMARK SMILES IDX 7 13 8 14 9 15 13 16 11 17 10 18 12 20 4 22 21 24 18 26
REMARK H PARENT 10 19 12 21 4 23 21 25 18 27
REMARK Flexibility Score: inf
ROOT
ATOM      1  C   UNL     1      14.664  21.145 -10.320  1.00  0.00     0.180 A 
ATOM      2  C   UNL     1      15.912  21.084  -9.671  1.00  0.00     0.208 A 
ATOM      3  C   UNL     1      17.079  21.272 -10.427  1.00  0.00     0.238 A 
ATOM      4  O   UNL     1      18.203  21.231  -9.855  1.00  0.00    -0.285 OA
ATOM      5  C   UNL     1      16.982  21.497 -11.816  1.00  0.00     0.111 A 
ATOM      6  C   UNL     1      18.109  21.691 -12.649  1.00  0.00     0.134 A 
ATOM      7  C   UNL     1      17.929  21.900 -14.025  1.00  0.00     0.093 A 
ATOM      8  C   UNL     1      16.648  21.917 -14.582  1.00  0.00     0.123 A 
ATOM      9  C   UNL     1      15.530  21.725 -13.763  1.00  0.00     0.094 A 
ATOM     10  C   UNL     1      15.689  21.518 -12.390  1.00  0.00     0.146 A 
ATOM     11  O   UNL     1      14.611  21.343 -11.634  1.00  0.00    -0.452 OA
ENDROOT
BRANCH   1  12
ATOM     12  C   UNL     1      13.388  20.976  -9.588  1.00  0.00     0.025 A 
ATOM     13  C   UNL     1      13.372  21.101  -8.190  1.00  0.00     0.016 A 
ATOM     14  C   UNL     1      12.183  20.925  -7.477  1.00  0.00     0.051 A 
ATOM     15  C   UNL     1      10.996  20.605  -8.149  1.00  0.00     0.157 A 
ATOM     16  C   UNL     1      12.198  20.635 -10.258  1.00  0.00     0.062 A 
ATOM     17  C   UNL     1      11.006  20.455  -9.545  1.00  0.00     0.158 A 
BRANCH  15  18
ATOM     18  O   UNL     1       9.812  20.431  -7.435  1.00  0.00    -0.504 OA
ATOM     19  H   UNL     1       8.939  20.841  -7.748  1.00  0.00     0.293 HD
ENDBRANCH  15  18
BRANCH  17  20
ATOM     20  O   UNL     1       9.845  20.124 -10.244  1.00  0.00    -0.504 OA
ATOM     21  H   UNL     1       9.207  19.408  -9.917  1.00  0.00     0.293 HD
ENDBRANCH  17  20
ENDBRANCH   1  12
BRANCH   2  22
ATOM     22  O   UNL     1      15.984  20.812  -8.302  1.00  0.00    -0.502 OA
ATOM     23  H   UNL     1      16.802  21.034  -7.747  1.00  0.00     0.293 HD
ENDBRANCH   2  22
BRANCH   6  24
ATOM     24  O   UNL     1      19.402  21.680 -12.124  1.00  0.00    -0.507 OA
ATOM     25  H   UNL     1      19.588  21.386 -11.172  1.00  0.00     0.293 HD
ENDBRANCH   6  24
BRANCH   8  26
ATOM     26  O   UNL     1      16.498  22.124 -15.951  1.00  0.00    -0.508 OA
ATOM     27  H   UNL     1      15.665  22.559 -16.333  1.00  0.00     0.293 HD
ENDBRANCH   8  26
TORSDOF 6
ENDMDL
MODEL 5
REMARK VINA RESULT:    -5.820      1.815      2.415
REMARK INTER + INTRA:          -7.222
REMARK INTER:                  -7.686
REMARK INTRA:                   0.464
REMARK UNBOUND:                -0.211
REMARK SMILES O=c1c(O)c(-c2ccc(O)c(O)c2)oc2cc(O)cc(O)c12
REMARK SMILES IDX 5 1 3 2 2 3 1 4 22 5 20 6 19 7 17 8 16 9 15 10 14 11 6 12
REMARK SMILES IDX 7 13 8 14 9 15 13 16 11 17 10 18 12 20 4 22 21 24 18 26
REMARK H PARENT 10 19 12 21 4 23 21 25 18 27
REMARK Flexibility Score: inf
ROOT
ATOM      1  C   UNL     1      17.329  21.785 -12.754  1.00  0.00     0.180 A 
ATOM      2  C   UNL     1      18.696  21.657 -12.438  1.00  0.00     0.208 A 
ATOM      3  C   UNL     1      19.636  21.671 -13.478  1.00  0.00     0.238 A 
ATOM      4  O   UNL     1      20.864  21.570 -13.206  1.00  0.00    -0.285 OA
ATOM      5  C   UNL     1      19.199  21.791 -14.813  1.00  0.00     0.111 A 
ATOM      6  C   UNL     1      20.082  21.808 -15.919  1.00  0.00     0.134 A 
ATOM      7  C   UNL     1      19.567  21.921 -17.219  1.00  0.00     0.093 A 
ATOM      8  C   UNL     1      18.190  22.015 -17.434  1.00  0.00     0.123 A 
ATOM      9  C   UNL     1      17.312  21.997 -16.346  1.00  0.00     0.094 A 
ATOM     10  C   UNL     1      17.806  21.888 -15.043  1.00  0.00     0.146 A 
ATOM     11  O   UNL     1      16.951  21.880 -14.026  1.00  0.00    -0.452 OA
ENDROOT
BRANCH   1  12
ATOM     12  C   UNL     1      16.278  21.798 -11.712  1.00  0.00     0.025 A 
ATOM     13  C   UNL     1      14.939  21.997 -12.083  1.00  0.00     0.016 A 
ATOM     14  C   UNL     1      13.933  22.034 -11.115  1.00  0.00     0.051 A 
ATOM     15  C   UNL     1      14.252  21.888  -9.758  1.00  0.00     0.157 A 
ATOM     16  C   UNL     1      16.597  21.672 -10.347  1.00  0.00     0.062 A 
ATOM     17  C   UNL     1      15.591  21.711  -9.374  1.00  0.00     0.158 A 
BRANCH  15  18
ATOM     18  O   UNL     1      13.247  21.924  -8.794  1.00  0.00    -0.504 OA
ATOM     19  H   UNL     1      13.390  22.366  -7.894  1.00  0.00     0.293 HD
ENDBRANCH  15  18
BRANCH  17  20
ATOM     20  O   UNL     1      15.944  21.577  -8.031  1.00  0.00    -0.504 OA
ATOM     21  H   UNL     1      16.755  21.043  -7.739  1.00  0.00     0.293 HD
ENDBRANCH  17  20
ENDBRANCH   1  12
BRANCH   2  22
ATOM     22  O   UNL     1      19.100  21.491 -11.111  1.00  0.00    -0.502 OA
ATOM     23  H   UNL     1      19.701  22.156 -10.639  1.00  0.00     0.293 HD
ENDBRANCH   2  22
BRANCH   6  24
ATOM     24  O   UNL     1      21.463  21.716 -15.738  1.00  0.00    -0.507 OA
ATOM     25  H   UNL     1      21.888  20.921 -15.273  1.00  0.00     0.293 HD
ENDBRANCH   6  24
BRANCH   8  26
ATOM     26  O   UNL     1      17.705  22.124 -18.736  1.00  0.00    -0.508 OA
ATOM     27  H   UNL     1      16.710  22.175 -18.928  1.00  0.00     0.293 HD
ENDBRANCH   8  26
TORSDOF 6
ENDMDL
MODEL 6
REMARK VINA RESULT:    -5.609      2.349      4.112
REMARK INTER + INTRA:          -6.968
REMARK INTER:                  -7.378
REMARK INTRA:                   0.410
REMARK UNBOUND:                -0.211
REMARK SMILES O=c1c(O)c(-c2ccc(O)c(O)c2)oc2cc(O)cc(O)c12
REMARK SMILES IDX 5 1 3 2 2 3 1 4 22 5 20 6 19 7 17 8 16 9 15 10 14 11 6 12
REMARK SMILES IDX 7 13 8 14 9 15 13 16 11 17 10 18 12 20 4 22 21 24 18 26
REMARK H PARENT 10 19 12 21 4 23 21 25 18 27
REMARK Flexibility Score: inf
ROOT
ATOM      1  C   UNL     1      18.526  21.612 -14.882  1.00  0.00     0.180 A 
ATOM      2  C   UNL     1      19.857  21.356 -14.499  1.00  0.00     0.208 A 
ATOM      3  C   UNL     1      20.845  21.280 -15.491  1.00  0.00     0.238 A 
ATOM      4  O   UNL     1      22.043  21.062 -15.159  1.00  0.00    -0.285 OA
ATOM      5  C   UNL     1      20.488  21.439 -16.846  1.00  0.00     0.111 A 
ATOM      6  C   UNL     1      21.423  21.372 -17.906  1.00  0.00     0.134 A 
ATOM      7  C   UNL     1      20.985  21.531 -19.230  1.00  0.00     0.093 A 
ATOM      8  C   UNL     1      19.636  21.755 -19.513  1.00  0.00     0.123 A 
ATOM      9  C   UNL     1      18.707  21.822 -18.469  1.00  0.00     0.094 A 
ATOM     10  C   UNL     1      19.124  21.668 -17.144  1.00  0.00     0.146 A 
ATOM     11  O   UNL     1      18.222  21.741 -16.170  1.00  0.00    -0.452 OA
ENDROOT
BRANCH   1  12
ATOM     12  C   UNL     1      17.430  21.726 -13.893  1.00  0.00     0.025 A 
ATOM     13  C   UNL     1      16.098  21.754 -14.337  1.00  0.00     0.016 A 
ATOM     14  C   UNL     1      15.049  21.881 -13.423  1.00  0.00     0.051 A 
ATOM     15  C   UNL     1      15.317  21.999 -12.053  1.00  0.00     0.157 A 
ATOM     16  C   UNL     1      17.695  21.865 -12.518  1.00  0.00     0.062 A 
ATOM     17  C   UNL     1      16.646  21.996 -11.600  1.00  0.00     0.158 A 
BRANCH  15  18
ATOM     18  O   UNL     1      14.268  22.125 -11.143  1.00  0.00    -0.504 OA
ATOM     19  H   UNL     1      14.274  22.836 -10.422  1.00  0.00     0.293 HD
ENDBRANCH  15  18
BRANCH  17  20
ATOM     20  O   UNL     1      16.946  22.125 -10.244  1.00  0.00    -0.504 OA
ATOM     21  H   UNL     1      17.850  21.866  -9.867  1.00  0.00     0.293 HD
ENDBRANCH  17  20
ENDBRANCH   1  12
BRANCH   2  22
ATOM     22  O   UNL     1      20.177  21.154 -13.154  1.00  0.00    -0.502 OA
ATOM     23  H   UNL     1      21.052  21.468 -12.751  1.00  0.00     0.293 HD
ENDBRANCH   2  22
BRANCH   6  24
ATOM     24  O   UNL     1      22.778  21.149 -17.657  1.00  0.00    -0.507 OA
ATOM     25  H   UNL     1      23.411  20.848 -18.389  1.00  0.00     0.293 HD
ENDBRANCH   6  24
BRANCH   8  26
ATOM     26  O   UNL     1      19.228  21.908 -20.836  1.00  0.00    -0.508 OA
ATOM     27  H   UNL     1      19.893  21.880 -21.602  1.00  0.00     0.293 HD
ENDBRANCH   8  26
TORSDOF 6
ENDMDL
MODEL 7
REMARK VINA RESULT:    -5.485      2.603      6.998
REMARK INTER + INTRA:          -6.818
REMARK INTER:                  -7.310
REMARK INTRA:                   0.492
REMARK UNBOUND:                -0.211
REMARK SMILES O=c1c(O)c(-c2ccc(O)c(O)c2)oc2cc(O)cc(O)c12
REMARK SMILES IDX 5 1 3 2 2 3 1 4 22 5 20 6 19 7 17 8 16 9 15 10 14 11 6 12
REMARK SMILES IDX 7 13 8 14 9 15 13 16 11 17 10 18 12 20 4 22 21 24 18 26
REMARK H PARENT 10 19 12 21 4 23 21 25 18 27
REMARK Flexibility Score: inf
ROOT
ATOM      1  C   UNL     1      17.779  21.750 -13.821  1.00  0.00     0.180 A 
ATOM      2  C   UNL     1      16.474  21.825 -13.298  1.00  0.00     0.208 A 
ATOM      3  C   UNL     1      16.301  21.821 -11.906  1.00  0.00     0.238 A 
ATOM      4  O   UNL     1      15.138  21.900 -11.424  1.00  0.00    -0.285 OA
ATOM      5  C   UNL     1      17.427  21.723 -11.063  1.00  0.00     0.111 A 
ATOM      6  C   UNL     1      17.338  21.708  -9.650  1.00  0.00     0.134 A 
ATOM      7  C   UNL     1      18.506  21.597  -8.881  1.00  0.00     0.093 A 
ATOM      8  C   UNL     1      19.758  21.501  -9.495  1.00  0.00     0.123 A 
ATOM      9  C   UNL     1      19.852  21.514 -10.891  1.00  0.00     0.094 A 
ATOM     10  C   UNL     1      18.699  21.626 -11.674  1.00  0.00     0.146 A 
ATOM     11  O   UNL     1      18.817  21.642 -12.997  1.00  0.00    -0.452 OA
ENDROOT
BRANCH   1  12
ATOM     12  C   UNL     1      18.044  21.768 -15.278  1.00  0.00     0.025 A 
ATOM     13  C   UNL     1      17.014  22.120 -16.164  1.00  0.00     0.016 A 
ATOM     14  C   UNL     1      17.235  22.124 -17.543  1.00  0.00     0.051 A 
ATOM     15  C   UNL     1      18.486  21.759 -18.059  1.00  0.00     0.157 A 
ATOM     16  C   UNL     1      19.293  21.383 -15.801  1.00  0.00     0.062 A 
ATOM     17  C   UNL     1      19.517  21.383 -17.183  1.00  0.00     0.158 A 
BRANCH  15  18
ATOM     18  O   UNL     1      18.705  21.765 -19.435  1.00  0.00    -0.504 OA
ATOM     19  H   UNL     1      19.388  21.154 -19.867  1.00  0.00     0.293 HD
ENDBRANCH  15  18
BRANCH  17  20
ATOM     20  O   UNL     1      20.770  21.002 -17.664  1.00  0.00    -0.504 OA
ATOM     21  H   UNL     1      21.394  20.410 -17.129  1.00  0.00     0.293 HD
ENDBRANCH  17  20
ENDBRANCH   1  12
BRANCH   2  22
ATOM     22  O   UNL     1      15.371  21.873 -14.154  1.00  0.00    -0.502 OA
ATOM     23  H   UNL     1      14.450  21.563 -13.871  1.00  0.00     0.293 HD
ENDBRANCH   2  22
BRANCH   6  24
ATOM     24  O   UNL     1      16.104  21.802  -9.007  1.00  0.00    -0.507 OA
ATOM     25  H   UNL     1      16.031  21.851  -7.997  1.00  0.00     0.293 HD
ENDBRANCH   6  24
BRANCH   8  26
ATOM     26  O   UNL     1      20.901  21.390  -8.707  1.00  0.00    -0.508 OA
ATOM     27  H   UNL     1      21.370  22.209  -8.336  1.00  0.00     0.293 HD
ENDBRANCH   8  26
TORSDOF 6
ENDMDL
MODEL 8
REMARK VINA RESULT:    -5.217     12.994     16.438
REMARK INTER + INTRA:          -6.495
REMARK INTER:                  -6.282
REMARK INTRA:                  -0.213
REMARK UNBOUND:                -0.211
REMARK SMILES O=c1c(O)c(-c2ccc(O)c(O)c2)oc2cc(O)cc(O)c12
REMARK SMILES IDX 5 1 3 2 2 3 1 4 22 5 20 6 19 7 17 8 16 9 15 10 14 11 6 12
REMARK SMILES IDX 7 13 8 14 9 15 13 16 11 17 10 18 12 20 4 22 21 24 18 26
REMARK H PARENT 10 19 12 21 4 23 21 25 18 27
REMARK Flexibility Score: inf
ROOT
ATOM      1  C   UNL     1      13.416   7.438  -7.774  1.00  0.00     0.180 A 
ATOM      2  C   UNL     1      14.322   6.381  -7.560  1.00  0.00     0.208 A 
ATOM      3  C   UNL     1      13.818   5.092  -7.333  1.00  0.00     0.238 A 
ATOM      4  O   UNL     1      14.620   4.135  -7.151  1.00  0.00    -0.285 OA
ATOM      5  C   UNL     1      12.424   4.882  -7.303  1.00  0.00     0.111 A 
ATOM      6  C   UNL     1      11.836   3.615  -7.076  1.00  0.00     0.134 A 
ATOM      7  C   UNL     1      10.439   3.491  -7.051  1.00  0.00     0.093 A 
ATOM      8  C   UNL     1       9.621   4.606  -7.248  1.00  0.00     0.123 A 
ATOM      9  C   UNL     1      10.196   5.861  -7.472  1.00  0.00     0.094 A 
ATOM     10  C   UNL     1      11.586   6.005  -7.502  1.00  0.00     0.146 A 
ATOM     11  O   UNL     1      12.107   7.207  -7.723  1.00  0.00    -0.452 OA
ENDROOT
BRANCH   1  12
ATOM     12  C   UNL     1      13.869   8.822  -8.039  1.00  0.00     0.025 A 
ATOM     13  C   UNL     1      13.559   9.838  -7.121  1.00  0.00     0.016 A 
ATOM     14  C   UNL     1      13.959  11.155  -7.361  1.00  0.00     0.051 A 
ATOM     15  C   UNL     1      14.661  11.479  -8.529  1.00  0.00     0.157 A 
ATOM     16  C   UNL     1      14.557   9.155  -9.220  1.00  0.00     0.062 A 
ATOM     17  C   UNL     1      14.957  10.474  -9.464  1.00  0.00     0.158 A 
BRANCH  15  18
ATOM     18  O   UNL     1      15.060  12.794  -8.765  1.00  0.00    -0.504 OA
ATOM     19  H   UNL     1      15.889  13.183  -8.330  1.00  0.00     0.293 HD
ENDBRANCH  15  18
BRANCH  17  20
ATOM     20  O   UNL     1      15.642  10.766 -10.644  1.00  0.00    -0.504 OA
ATOM     21  H   UNL     1      15.803  11.718 -10.951  1.00  0.00     0.293 HD
ENDBRANCH  17  20
ENDBRANCH   1  12
BRANCH   2  22
ATOM     22  O   UNL     1      15.698   6.623  -7.546  1.00  0.00    -0.502 OA
ATOM     23  H   UNL     1      16.120   7.324  -6.949  1.00  0.00     0.293 HD
ENDBRANCH   2  22
BRANCH   6  24
ATOM     24  O   UNL     1      12.626   2.482  -6.875  1.00  0.00    -0.507 OA
ATOM     25  H   UNL     1      13.488   2.336  -7.387  1.00  0.00     0.293 HD
ENDBRANCH   6  24
BRANCH   8  26
ATOM     26  O   UNL     1       8.236   4.455  -7.217  1.00  0.00    -0.508 OA
ATOM     27  H   UNL     1       7.805   3.551  -7.059  1.00  0.00     0.293 HD
ENDBRANCH   8  26
TORSDOF 6
ENDMDL
MODEL 9
REMARK VINA RESULT:    -4.982      3.740      6.573
REMARK INTER + INTRA:          -6.212
REMARK INTER:                  -6.018
REMARK INTRA:                  -0.194
REMARK UNBOUND:                -0.211
REMARK SMILES O=c1c(O)c(-c2ccc(O)c(O)c2)oc2cc(O)cc(O)c12
REMARK SMILES IDX 5 1 3 2 2 3 1 4 22 5 20 6 19 7 17 8 16 9 15 10 14 11 6 12
REMARK SMILES IDX 7 13 8 14 9 15 13 16 11 17 10 18 12 20 4 22 21 24 18 26
REMARK H PARENT 10 19 12 21 4 23 21 25 18 27
REMARK Flexibility Score: inf
ROOT
ATOM      1  C   UNL     1      18.903  21.332  -9.941  1.00  0.00     0.180 A 
ATOM      2  C   UNL     1      17.702  21.490  -9.222  1.00  0.00     0.208 A 
ATOM      3  C   UNL     1      16.510  21.699  -9.931  1.00  0.00     0.238 A 
ATOM      4  O   UNL     1      15.426  21.831  -9.299  1.00  0.00    -0.285 OA
ATOM      5  C   UNL     1      16.539  21.766 -11.339  1.00  0.00     0.111 A 
ATOM      6  C   UNL     1      15.383  21.979 -12.128  1.00  0.00     0.134 A 
ATOM      7  C   UNL     1      15.496  22.043 -13.525  1.00  0.00     0.093 A 
ATOM      8  C   UNL     1      16.739  21.901 -14.146  1.00  0.00     0.123 A 
ATOM      9  C   UNL     1      17.885  21.692 -13.372  1.00  0.00     0.094 A 
ATOM     10  C   UNL     1      17.792  21.622 -11.979  1.00  0.00     0.146 A 
ATOM     11  O   UNL     1      18.895  21.417 -11.267  1.00  0.00    -0.452 OA
ENDROOT
BRANCH   1  12
ATOM     12  C   UNL     1      20.198  21.089  -9.265  1.00  0.00     0.025 A 
ATOM     13  C   UNL     1      21.235  22.025  -9.404  1.00  0.00     0.016 A 
ATOM     14  C   UNL     1      22.472  21.807  -8.792  1.00  0.00     0.051 A 
ATOM     15  C   UNL     1      22.696  20.642  -8.047  1.00  0.00     0.157 A 
ATOM     16  C   UNL     1      20.433  19.912  -8.532  1.00  0.00     0.062 A 
ATOM     17  C   UNL     1      21.673  19.689  -7.921  1.00  0.00     0.158 A 
BRANCH  15  18
ATOM     18  O   UNL     1      23.931  20.428  -7.437  1.00  0.00    -0.504 OA
ATOM     19  H   UNL     1      24.563  19.704  -7.758  1.00  0.00     0.293 HD
ENDBRANCH  15  18
BRANCH  17  20
ATOM     20  O   UNL     1      21.868  18.513  -7.197  1.00  0.00    -0.504 OA
ATOM     21  H   UNL     1      22.489  17.779  -7.520  1.00  0.00     0.293 HD
ENDBRANCH  17  20
ENDBRANCH   1  12
BRANCH   2  22
ATOM     22  O   UNL     1      17.707  21.468  -7.825  1.00  0.00    -0.502 OA
ATOM     23  H   UNL     1      16.869  21.299  -7.281  1.00  0.00     0.293 HD
ENDBRANCH   2  22
BRANCH   6  24
ATOM     24  O   UNL     1      14.127  22.125 -11.538  1.00  0.00    -0.507 OA
ATOM     25  H   UNL     1      13.278  22.161 -12.092  1.00  0.00     0.293 HD
ENDBRANCH   6  24
BRANCH   8  26
ATOM     26  O   UNL     1      16.824  21.970 -15.535  1.00  0.00    -0.508 OA
ATOM     27  H   UNL     1      17.222  22.778 -16.002  1.00  0.00     0.293 HD
ENDBRANCH   8  26
TORSDOF 6
ENDMDL
