MODEL 1
REMARK VINA RESULT:    -4.342      0.000      0.000
REMARK INTER + INTRA:          -9.210
REMARK INTER:                  -7.895
REMARK INTRA:                  -1.315
REMARK UNBOUND:                -1.315
REMARK SMILES CCCCCCCCCCCCCCCC(=O)[O-]
REMARK SMILES IDX 9 1 10 2 11 3 12 4 13 5 14 6 15 7 16 8 17 9 18 10 8 11 7 12
REMARK SMILES IDX 6 13 5 14 4 15 3 16 2 17 1 18
REMARK H PARENT
REMARK Flexibility Score: inf
ROOT
ATOM      1  C   UNL     1     -11.984   3.644 -40.633  1.00  0.00     0.000 C 
ENDROOT
BRANCH   1   2
ATOM      2  C   UNL     1     -13.447   4.103 -40.551  1.00  0.00     0.000 C 
BRANCH   2   3
ATOM      3  C   UNL     1     -13.690   5.462 -41.230  1.00  0.00     0.000 C 
BRANCH   3   4
ATOM      4  C   UNL     1     -13.590   5.449 -42.767  1.00  0.00     0.000 C 
BRANCH   4   5
ATOM      5  C   UNL     1     -14.937   5.183 -43.454  1.00  0.00     0.000 C 
BRANCH   5   6
ATOM      6  C   UNL     1     -16.089   5.838 -42.678  1.00  0.00     0.006 C 
BRANCH   6   7
ATOM      7  C   UNL     1     -17.240   4.859 -42.411  1.00  0.00     0.053 C 
BRANCH   7   8
ATOM      8  C   UNL     1     -17.304   4.453 -40.970  1.00  0.00     0.041 C 
ATOM      9  O   UNL     1     -17.054   5.292 -40.065  1.00  0.00    -0.550 OA
ATOM     10  O   UNL     1     -17.676   3.160 -40.627  1.00  0.00    -0.550 OA
ENDBRANCH   7   8
ENDBRANCH   6   7
ENDBRANCH   5   6
ENDBRANCH   4   5
ENDBRANCH   3   4
ENDBRANCH   2   3
ENDBRANCH   1   2
BRANCH   1  11
ATOM     11  C   UNL     1     -11.855   2.361 -41.463  1.00  0.00     0.000 C 
BRANCH  11  12
ATOM     12  C   UNL     1     -11.562   1.152 -40.567  1.00  0.00    -0.000 C 
BRANCH  12  13
ATOM     13  C   UNL     1     -11.047  -0.032 -41.392  1.00  0.00    -0.000 C 
BRANCH  13  14
ATOM     14  C   UNL     1     -11.113  -1.336 -40.586  1.00  0.00    -0.000 C 
BRANCH  14  15
ATOM     15  C   UNL     1     -11.672  -1.086 -39.177  1.00  0.00    -0.000 C 
BRANCH  15  16
ATOM     16  C   UNL     1     -12.948  -1.907 -38.900  1.00  0.00    -0.000 C 
BRANCH  16  17
ATOM     17  C   UNL     1     -13.793  -2.176 -40.157  1.00  0.00    -0.003 C 
ATOM     18  C   UNL     1     -14.830  -1.087 -40.426  1.00  0.00     0.004 C 
ENDBRANCH  16  17
ENDBRANCH  15  16
ENDBRANCH  14  15
ENDBRANCH  13  14
ENDBRANCH  12  13
ENDBRANCH  11  12
ENDBRANCH   1  11
TORSDOF 14
ENDMDL
MODEL 2
REMARK VINA RESULT:    -4.262      4.985      6.992
REMARK INTER + INTRA:          -9.065
REMARK INTER:                  -7.104
REMARK INTRA:                  -1.961
REMARK UNBOUND:                -1.315
REMARK SMILES CCCCCCCCCCCCCCCC(=O)[O-]
REMARK SMILES IDX 9 1 10 2 11 3 12 4 13 5 14 6 15 7 16 8 17 9 18 10 8 11 7 12
REMARK SMILES IDX 6 13 5 14 4 15 3 16 2 17 1 18
REMARK H PARENT
REMARK Flexibility Score: inf
ROOT
ATOM      1  C   UNL     1      -7.286   0.300 -41.115  1.00  0.00     0.000 C 
ENDROOT
BRANCH   1   2
ATOM      2  C   UNL     1      -8.299  -0.845 -40.958  1.00  0.00     0.000 C 
BRANCH   2   3
ATOM      3  C   UNL     1      -7.920  -1.834 -39.841  1.00  0.00     0.000 C 
BRANCH   3   4
ATOM      4  C   UNL     1      -8.848  -1.815 -38.613  1.00  0.00     0.000 C 
BRANCH   4   5
ATOM      5  C   UNL     1     -10.237  -2.404 -38.901  1.00  0.00     0.000 C 
BRANCH   5   6
ATOM      6  C   UNL     1     -11.316  -1.311 -38.863  1.00  0.00     0.006 C 
BRANCH   6   7
ATOM      7  C   UNL     1     -12.155  -1.279 -40.146  1.00  0.00     0.053 C 
BRANCH   7   8
ATOM      8  C   UNL     1     -13.508  -1.892 -39.944  1.00  0.00     0.041 C 
ATOM      9  O   UNL     1     -13.624  -2.974 -39.310  1.00  0.00    -0.550 OA
ATOM     10  O   UNL     1     -14.642  -1.249 -40.422  1.00  0.00    -0.550 OA
ENDBRANCH   7   8
ENDBRANCH   6   7
ENDBRANCH   5   6
ENDBRANCH   4   5
ENDBRANCH   3   4
ENDBRANCH   2   3
ENDBRANCH   1   2
BRANCH   1  11
ATOM     11  C   UNL     1      -7.982   1.664 -41.039  1.00  0.00     0.000 C 
BRANCH  11  12
ATOM     12  C   UNL     1      -9.336   1.553 -40.329  1.00  0.00    -0.000 C 
BRANCH  12  13
ATOM     13  C   UNL     1      -9.404   2.495 -39.122  1.00  0.00    -0.000 C 
BRANCH  13  14
ATOM     14  C   UNL     1     -10.215   1.870 -37.980  1.00  0.00    -0.000 C 
BRANCH  14  15
ATOM     15  C   UNL     1      -9.625   2.247 -36.613  1.00  0.00    -0.000 C 
BRANCH  15  16
ATOM     16  C   UNL     1     -10.478   1.718 -35.442  1.00  0.00    -0.000 C 
BRANCH  16  17
ATOM     17  C   UNL     1     -10.970   0.275 -35.641  1.00  0.00    -0.003 C 
ATOM     18  C   UNL     1      -9.956  -0.773 -35.185  1.00  0.00     0.004 C 
ENDBRANCH  16  17
ENDBRANCH  15  16
ENDBRANCH  14  15
ENDBRANCH  13  14
ENDBRANCH  12  13
ENDBRANCH  11  12
ENDBRANCH   1  11
TORSDOF 14
ENDMDL
MODEL 3
REMARK VINA RESULT:    -4.248      4.239      7.014
REMARK INTER + INTRA:          -9.039
REMARK INTER:                  -6.542
REMARK INTRA:                  -2.497
REMARK UNBOUND:                -1.315
REMARK SMILES CCCCCCCCCCCCCCCC(=O)[O-]
REMARK SMILES IDX 9 1 10 2 11 3 12 4 13 5 14 6 15 7 16 8 17 9 18 10 8 11 7 12
REMARK SMILES IDX 6 13 5 14 4 15 3 16 2 17 1 18
REMARK H PARENT
REMARK Flexibility Score: inf
ROOT
ATOM      1  C   UNL     1     -14.082   9.053 -41.655  1.00  0.00     0.000 C 
ENDROOT
BRANCH   1   2
ATOM      2  C   UNL     1     -13.563   8.248 -42.855  1.00  0.00     0.000 C 
BRANCH   2   3
ATOM      3  C   UNL     1     -13.447   6.741 -42.563  1.00  0.00     0.000 C 
BRANCH   3   4
ATOM      4  C   UNL     1     -13.247   6.379 -41.080  1.00  0.00     0.000 C 
BRANCH   4   5
ATOM      5  C   UNL     1     -13.939   5.067 -40.684  1.00  0.00     0.000 C 
BRANCH   5   6
ATOM      6  C   UNL     1     -15.292   4.923 -41.396  1.00  0.00     0.006 C 
BRANCH   6   7
ATOM      7  C   UNL     1     -16.459   4.813 -40.406  1.00  0.00     0.053 C 
BRANCH   7   8
ATOM      8  C   UNL     1     -17.495   3.834 -40.871  1.00  0.00     0.041 C 
ATOM      9  O   UNL     1     -18.286   4.144 -41.800  1.00  0.00    -0.550 OA
ATOM     10  O   UNL     1     -17.561   2.568 -40.304  1.00  0.00    -0.550 OA
ENDBRANCH   7   8
ENDBRANCH   6   7
ENDBRANCH   5   6
ENDBRANCH   4   5
ENDBRANCH   3   4
ENDBRANCH   2   3
ENDBRANCH   1   2
BRANCH   1  11
ATOM     11  C   UNL     1     -15.507   9.560 -41.907  1.00  0.00     0.000 C 
BRANCH  11  12
ATOM     12  C   UNL     1     -16.538   8.695 -41.174  1.00  0.00    -0.000 C 
BRANCH  12  13
ATOM     13  C   UNL     1     -17.370   7.872 -42.164  1.00  0.00    -0.000 C 
BRANCH  13  14
ATOM     14  C   UNL     1     -17.184   8.382 -43.599  1.00  0.00    -0.000 C 
BRANCH  14  15
ATOM     15  C   UNL     1     -17.347   7.241 -44.615  1.00  0.00    -0.000 C 
BRANCH  15  16
ATOM     16  C   UNL     1     -16.071   7.018 -45.452  1.00  0.00    -0.000 C 
BRANCH  16  17
ATOM     17  C   UNL     1     -15.448   5.625 -45.267  1.00  0.00    -0.003 C 
ATOM     18  C   UNL     1     -16.452   4.579 -44.786  1.00  0.00     0.004 C 
ENDBRANCH  16  17
ENDBRANCH  15  16
ENDBRANCH  14  15
ENDBRANCH  13  14
ENDBRANCH  12  13
ENDBRANCH  11  12
ENDBRANCH   1  11
TORSDOF 14
ENDMDL
MODEL 4
REMARK VINA RESULT:    -4.208      3.837      6.990
REMARK INTER + INTRA:          -8.967
REMARK INTER:                  -6.565
REMARK INTRA:                  -2.402
REMARK UNBOUND:                -1.315
REMARK SMILES CCCCCCCCCCCCCCCC(=O)[O-]
REMARK SMILES IDX 9 1 10 2 11 3 12 4 13 5 14 6 15 7 16 8 17 9 18 10 8 11 7 12
REMARK SMILES IDX 6 13 5 14 4 15 3 16 2 17 1 18
REMARK H PARENT
REMARK Flexibility Score: inf
ROOT
ATOM      1  C   UNL     1     -16.634   5.436 -44.397  1.00  0.00     0.000 C 
ENDROOT
BRANCH   1   2
ATOM      2  C   UNL     1     -15.194   5.488 -44.929  1.00  0.00     0.000 C 
BRANCH   2   3
ATOM      3  C   UNL     1     -14.142   5.209 -43.841  1.00  0.00     0.000 C 
BRANCH   3   4
ATOM      4  C   UNL     1     -14.006   6.306 -42.769  1.00  0.00     0.000 C 
BRANCH   4   5
ATOM      5  C   UNL     1     -13.497   5.770 -41.423  1.00  0.00     0.000 C 
BRANCH   5   6
ATOM      6  C   UNL     1     -12.802   4.412 -41.600  1.00  0.00     0.006 C 
BRANCH   6   7
ATOM      7  C   UNL     1     -12.633   3.669 -40.269  1.00  0.00     0.053 C 
BRANCH   7   8
ATOM      8  C   UNL     1     -11.460   4.180 -39.489  1.00  0.00     0.041 C 
ATOM      9  O   UNL     1     -11.593   4.490 -38.276  1.00  0.00    -0.550 OA
ATOM     10  O   UNL     1     -10.213   4.280 -40.092  1.00  0.00    -0.550 OA
ENDBRANCH   7   8
ENDBRANCH   6   7
ENDBRANCH   5   6
ENDBRANCH   4   5
ENDBRANCH   3   4
ENDBRANCH   2   3
ENDBRANCH   1   2
BRANCH   1  11
ATOM     11  C   UNL     1     -17.375   6.747 -44.686  1.00  0.00     0.000 C 
BRANCH  11  12
ATOM     12  C   UNL     1     -18.072   7.275 -43.428  1.00  0.00    -0.000 C 
BRANCH  12  13
ATOM     13  C   UNL     1     -17.147   8.205 -42.635  1.00  0.00    -0.000 C 
BRANCH  13  14
ATOM     14  C   UNL     1     -17.190   7.879 -41.136  1.00  0.00    -0.000 C 
BRANCH  14  15
ATOM     15  C   UNL     1     -17.836   6.508 -40.888  1.00  0.00    -0.000 C 
BRANCH  15  16
ATOM     16  C   UNL     1     -16.870   5.523 -40.198  1.00  0.00    -0.000 C 
BRANCH  16  17
ATOM     17  C   UNL     1     -16.863   4.121 -40.829  1.00  0.00    -0.003 C 
ATOM     18  C   UNL     1     -18.185   3.763 -41.506  1.00  0.00     0.004 C 
ENDBRANCH  16  17
ENDBRANCH  15  16
ENDBRANCH  14  15
ENDBRANCH  13  14
ENDBRANCH  12  13
ENDBRANCH  11  12
ENDBRANCH   1  11
TORSDOF 14
ENDMDL
MODEL 5
REMARK VINA RESULT:    -4.206      4.124      5.716
REMARK INTER + INTRA:          -8.964
REMARK INTER:                  -7.128
REMARK INTRA:                  -1.836
REMARK UNBOUND:                -1.315
REMARK SMILES CCCCCCCCCCCCCCCC(=O)[O-]
REMARK SMILES IDX 9 1 10 2 11 3 12 4 13 5 14 6 15 7 16 8 17 9 18 10 8 11 7 12
REMARK SMILES IDX 6 13 5 14 4 15 3 16 2 17 1 18
REMARK H PARENT
REMARK Flexibility Score: inf
ROOT
ATOM      1  C   UNL     1      -7.277   1.286 -41.120  1.00  0.00     0.000 C 
ENDROOT
BRANCH   1   2
ATOM      2  C   UNL     1      -8.294   1.985 -40.205  1.00  0.00     0.000 C 
BRANCH   2   3
ATOM      3  C   UNL     1      -9.305   2.848 -40.981  1.00  0.00     0.000 C 
BRANCH   3   4
ATOM      4  C   UNL     1     -10.745   2.304 -41.001  1.00  0.00     0.000 C 
BRANCH   4   5
ATOM      5  C   UNL     1     -10.808   0.777 -41.146  1.00  0.00     0.000 C 
BRANCH   5   6
ATOM      6  C   UNL     1     -12.216   0.251 -40.827  1.00  0.00     0.006 C 
BRANCH   6   7
ATOM      7  C   UNL     1     -12.194  -1.198 -40.325  1.00  0.00     0.053 C 
BRANCH   7   8
ATOM      8  C   UNL     1     -13.572  -1.704 -40.023  1.00  0.00     0.041 C 
ATOM      9  O   UNL     1     -14.581  -1.042 -40.378  1.00  0.00    -0.550 OA
ATOM     10  O   UNL     1     -13.740  -2.925 -39.383  1.00  0.00    -0.550 OA
ENDBRANCH   7   8
ENDBRANCH   6   7
ENDBRANCH   5   6
ENDBRANCH   4   5
ENDBRANCH   3   4
ENDBRANCH   2   3
ENDBRANCH   1   2
BRANCH   1  11
ATOM     11  C   UNL     1      -7.006  -0.147 -40.647  1.00  0.00     0.000 C 
BRANCH  11  12
ATOM     12  C   UNL     1      -7.943  -1.142 -41.338  1.00  0.00    -0.000 C 
BRANCH  12  13
ATOM     13  C   UNL     1      -8.651  -2.036 -40.314  1.00  0.00    -0.000 C 
BRANCH  13  14
ATOM     14  C   UNL     1      -8.326  -1.597 -38.881  1.00  0.00    -0.000 C 
BRANCH  14  15
ATOM     15  C   UNL     1      -9.569  -1.682 -37.982  1.00  0.00    -0.000 C 
BRANCH  15  16
ATOM     16  C   UNL     1     -10.030  -0.294 -37.490  1.00  0.00    -0.000 C 
BRANCH  16  17
ATOM     17  C   UNL     1     -10.252  -0.222 -35.970  1.00  0.00    -0.003 C 
ATOM     18  C   UNL     1     -10.708   1.157 -35.497  1.00  0.00     0.004 C 
ENDBRANCH  16  17
ENDBRANCH  15  16
ENDBRANCH  14  15
ENDBRANCH  13  14
ENDBRANCH  12  13
ENDBRANCH  11  12
ENDBRANCH   1  11
TORSDOF 14
ENDMDL
MODEL 6
REMARK VINA RESULT:    -4.197      3.732      7.904
REMARK INTER + INTRA:          -8.948
REMARK INTER:                  -7.778
REMARK INTRA:                  -1.170
REMARK UNBOUND:                -1.315
REMARK SMILES CCCCCCCCCCCCCCCC(=O)[O-]
REMARK SMILES IDX 9 1 10 2 11 3 12 4 13 5 14 6 15 7 16 8 17 9 18 10 8 11 7 12
REMARK SMILES IDX 6 13 5 14 4 15 3 16 2 17 1 18
REMARK H PARENT
REMARK Flexibility Score: inf
ROOT
ATOM      1  C   UNL     1     -11.665   2.181 -41.389  1.00  0.00     0.000 C 
ENDROOT
BRANCH   1   2
ATOM      2  C   UNL     1     -11.339   0.839 -40.715  1.00  0.00     0.000 C 
BRANCH   2   3
ATOM      3  C   UNL     1     -12.514  -0.154 -40.754  1.00  0.00     0.000 C 
BRANCH   3   4
ATOM      4  C   UNL     1     -12.278  -1.471 -39.992  1.00  0.00     0.000 C 
BRANCH   4   5
ATOM      5  C   UNL     1     -11.022  -1.438 -39.110  1.00  0.00     0.000 C 
BRANCH   5   6
ATOM      6  C   UNL     1     -10.009  -2.504 -39.555  1.00  0.00     0.006 C 
BRANCH   6   7
ATOM      7  C   UNL     1      -8.602  -1.924 -39.746  1.00  0.00     0.053 C 
BRANCH   7   8
ATOM      8  C   UNL     1      -8.370  -1.477 -41.158  1.00  0.00     0.041 C 
ATOM      9  O   UNL     1      -7.485  -0.618 -41.412  1.00  0.00    -0.550 OA
ATOM     10  O   UNL     1      -9.104  -2.037 -42.195  1.00  0.00    -0.550 OA
ENDBRANCH   7   8
ENDBRANCH   6   7
ENDBRANCH   5   6
ENDBRANCH   4   5
ENDBRANCH   3   4
ENDBRANCH   2   3
ENDBRANCH   1   2
BRANCH   1  11
ATOM     11  C   UNL     1     -11.965   3.262 -40.344  1.00  0.00     0.000 C 
BRANCH  11  12
ATOM     12  C   UNL     1     -13.289   3.972 -40.648  1.00  0.00    -0.000 C 
BRANCH  12  13
ATOM     13  C   UNL     1     -13.266   4.605 -42.043  1.00  0.00    -0.000 C 
BRANCH  13  14
ATOM     14  C   UNL     1     -14.306   5.727 -42.156  1.00  0.00    -0.000 C 
BRANCH  14  15
ATOM     15  C   UNL     1     -15.601   5.216 -42.805  1.00  0.00    -0.000 C 
BRANCH  15  16
ATOM     16  C   UNL     1     -16.861   5.741 -42.086  1.00  0.00    -0.000 C 
BRANCH  16  17
ATOM     17  C   UNL     1     -17.043   5.173 -40.669  1.00  0.00    -0.003 C 
ATOM     18  C   UNL     1     -17.211   3.655 -40.648  1.00  0.00     0.004 C 
ENDBRANCH  16  17
ENDBRANCH  15  16
ENDBRANCH  14  15
ENDBRANCH  13  14
ENDBRANCH  12  13
ENDBRANCH  11  12
ENDBRANCH   1  11
TORSDOF 14
ENDMDL
MODEL 7
REMARK VINA RESULT:    -4.197      1.506      2.407
REMARK INTER + INTRA:          -8.947
REMARK INTER:                  -7.325
REMARK INTRA:                  -1.621
REMARK UNBOUND:                -1.315
REMARK SMILES CCCCCCCCCCCCCCCC(=O)[O-]
REMARK SMILES IDX 9 1 10 2 11 3 12 4 13 5 14 6 15 7 16 8 17 9 18 10 8 11 7 12
REMARK SMILES IDX 6 13 5 14 4 15 3 16 2 17 1 18
REMARK H PARENT
REMARK Flexibility Score: inf
ROOT
ATOM      1  C   UNL     1     -12.134   2.308 -40.992  1.00  0.00     0.000 C 
ENDROOT
BRANCH   1   2
ATOM      2  C   UNL     1     -11.900   3.596 -40.190  1.00  0.00     0.000 C 
BRANCH   2   3
ATOM      3  C   UNL     1     -12.678   4.801 -40.748  1.00  0.00     0.000 C 
BRANCH   3   4
ATOM      4  C   UNL     1     -13.318   4.579 -42.131  1.00  0.00     0.000 C 
BRANCH   4   5
ATOM      5  C   UNL     1     -14.708   5.220 -42.260  1.00  0.00     0.000 C 
BRANCH   5   6
ATOM      6  C   UNL     1     -15.312   5.505 -40.876  1.00  0.00     0.006 C 
BRANCH   6   7
ATOM      7  C   UNL     1     -16.414   4.505 -40.507  1.00  0.00     0.053 C 
BRANCH   7   8
ATOM      8  C   UNL     1     -17.593   4.609 -41.427  1.00  0.00     0.041 C 
ATOM      9  O   UNL     1     -18.201   5.704 -41.554  1.00  0.00    -0.550 OA
ATOM     10  O   UNL     1     -17.995   3.508 -42.171  1.00  0.00    -0.550 OA
ENDBRANCH   7   8
ENDBRANCH   6   7
ENDBRANCH   5   6
ENDBRANCH   4   5
ENDBRANCH   3   4
ENDBRANCH   2   3
ENDBRANCH   1   2
BRANCH   1  11
ATOM     11  C   UNL     1     -10.803   1.683 -41.430  1.00  0.00     0.000 C 
BRANCH  11  12
ATOM     12  C   UNL     1     -10.881   0.153 -41.414  1.00  0.00    -0.000 C 
BRANCH  12  13
ATOM     13  C   UNL     1     -12.188  -0.326 -40.772  1.00  0.00    -0.000 C 
BRANCH  13  14
ATOM     14  C   UNL     1     -11.914  -1.326 -39.642  1.00  0.00    -0.000 C 
BRANCH  14  15
ATOM     15  C   UNL     1     -10.407  -1.578 -39.481  1.00  0.00    -0.000 C 
BRANCH  15  16
ATOM     16  C   UNL     1      -9.935  -1.391 -38.025  1.00  0.00    -0.000 C 
BRANCH  16  17
ATOM     17  C   UNL     1     -10.408  -0.073 -37.388  1.00  0.00    -0.003 C 
ATOM     18  C   UNL     1      -9.696   1.154 -37.954  1.00  0.00     0.004 C 
ENDBRANCH  16  17
ENDBRANCH  15  16
ENDBRANCH  14  15
ENDBRANCH  13  14
ENDBRANCH  12  13
ENDBRANCH  11  12
ENDBRANCH   1  11
TORSDOF 14
ENDMDL
MODEL 8
REMARK VINA RESULT:    -4.151      3.249      6.972
REMARK INTER + INTRA:          -8.864
REMARK INTER:                  -6.445
REMARK INTRA:                  -2.419
REMARK UNBOUND:                -1.315
REMARK SMILES CCCCCCCCCCCCCCCC(=O)[O-]
REMARK SMILES IDX 9 1 10 2 11 3 12 4 13 5 14 6 15 7 16 8 17 9 18 10 8 11 7 12
REMARK SMILES IDX 6 13 5 14 4 15 3 16 2 17 1 18
REMARK H PARENT
REMARK Flexibility Score: inf
ROOT
ATOM      1  C   UNL     1     -15.501   8.801 -42.202  1.00  0.00     0.000 C 
ENDROOT
BRANCH   1   2
ATOM      2  C   UNL     1     -14.269   8.094 -41.617  1.00  0.00     0.000 C 
BRANCH   2   3
ATOM      3  C   UNL     1     -13.449   7.339 -42.679  1.00  0.00     0.000 C 
BRANCH   3   4
ATOM      4  C   UNL     1     -12.995   5.927 -42.267  1.00  0.00     0.000 C 
BRANCH   4   5
ATOM      5  C   UNL     1     -13.635   5.449 -40.955  1.00  0.00     0.000 C 
BRANCH   5   6
ATOM      6  C   UNL     1     -13.421   3.941 -40.756  1.00  0.00     0.006 C 
BRANCH   6   7
ATOM      7  C   UNL     1     -12.410   3.362 -41.754  1.00  0.00     0.053 C 
BRANCH   7   8
ATOM      8  C   UNL     1     -11.651   2.207 -41.173  1.00  0.00     0.041 C 
ATOM      9  O   UNL     1     -12.206   1.084 -41.048  1.00  0.00    -0.550 OA
ATOM     10  O   UNL     1     -10.321   2.363 -40.804  1.00  0.00    -0.550 OA
ENDBRANCH   7   8
ENDBRANCH   6   7
ENDBRANCH   5   6
ENDBRANCH   4   5
ENDBRANCH   3   4
ENDBRANCH   2   3
ENDBRANCH   1   2
BRANCH   1  11
ATOM     11  C   UNL     1     -16.603   8.949 -41.145  1.00  0.00     0.000 C 
BRANCH  11  12
ATOM     12  C   UNL     1     -17.633   7.821 -41.261  1.00  0.00    -0.000 C 
BRANCH  12  13
ATOM     13  C   UNL     1     -17.445   6.787 -40.146  1.00  0.00    -0.000 C 
BRANCH  13  14
ATOM     14  C   UNL     1     -17.254   5.379 -40.725  1.00  0.00    -0.000 C 
BRANCH  14  15
ATOM     15  C   UNL     1     -17.705   5.321 -42.192  1.00  0.00    -0.000 C 
BRANCH  15  16
ATOM     16  C   UNL     1     -16.615   4.737 -43.115  1.00  0.00    -0.000 C 
BRANCH  16  17
ATOM     17  C   UNL     1     -16.244   5.657 -44.290  1.00  0.00    -0.003 C 
ATOM     18  C   UNL     1     -15.224   5.034 -45.240  1.00  0.00     0.004 C 
ENDBRANCH  16  17
ENDBRANCH  15  16
ENDBRANCH  14  15
ENDBRANCH  13  14
ENDBRANCH  12  13
ENDBRANCH  11  12
ENDBRANCH   1  11
TORSDOF 14
ENDMDL
MODEL 9
REMARK VINA RESULT:    -4.138      1.520      2.221
REMARK INTER + INTRA:          -8.840
REMARK INTER:                  -7.142
REMARK INTRA:                  -1.697
REMARK UNBOUND:                -1.315
REMARK SMILES CCCCCCCCCCCCCCCC(=O)[O-]
REMARK SMILES IDX 9 1 10 2 11 3 12 4 13 5 14 6 15 7 16 8 17 9 18 10 8 11 7 12
REMARK SMILES IDX 6 13 5 14 4 15 3 16 2 17 1 18
REMARK H PARENT
REMARK Flexibility Score: inf
ROOT
ATOM      1  C   UNL     1     -10.626   2.064 -41.553  1.00  0.00     0.000 C 
ENDROOT
BRANCH   1   2
ATOM      2  C   UNL     1     -12.009   2.581 -41.130  1.00  0.00     0.000 C 
BRANCH   2   3
ATOM      3  C   UNL     1     -11.936   3.697 -40.073  1.00  0.00     0.000 C 
BRANCH   3   4
ATOM      4  C   UNL     1     -12.934   4.853 -40.276  1.00  0.00     0.000 C 
BRANCH   4   5
ATOM      5  C   UNL     1     -13.305   5.073 -41.750  1.00  0.00     0.000 C 
BRANCH   5   6
ATOM      6  C   UNL     1     -14.829   5.147 -41.928  1.00  0.00     0.006 C 
BRANCH   6   7
ATOM      7  C   UNL     1     -15.583   4.565 -40.726  1.00  0.00     0.053 C 
BRANCH   7   8
ATOM      8  C   UNL     1     -16.986   5.084 -40.643  1.00  0.00     0.041 C 
ATOM      9  O   UNL     1     -17.224   6.173 -40.058  1.00  0.00    -0.550 OA
ATOM     10  O   UNL     1     -18.024   4.384 -41.242  1.00  0.00    -0.550 OA
ENDBRANCH   7   8
ENDBRANCH   6   7
ENDBRANCH   5   6
ENDBRANCH   4   5
ENDBRANCH   3   4
ENDBRANCH   2   3
ENDBRANCH   1   2
BRANCH   1  11
ATOM     11  C   UNL     1      -9.555   2.459 -40.528  1.00  0.00     0.000 C 
BRANCH  11  12
ATOM     12  C   UNL     1      -8.921   1.220 -39.888  1.00  0.00    -0.000 C 
BRANCH  12  13
ATOM     13  C   UNL     1      -9.449   1.002 -38.466  1.00  0.00    -0.000 C 
BRANCH  13  14
ATOM     14  C   UNL     1     -10.523  -0.092 -38.438  1.00  0.00    -0.000 C 
BRANCH  14  15
ATOM     15  C   UNL     1     -10.083  -1.319 -39.250  1.00  0.00    -0.000 C 
BRANCH  15  16
ATOM     16  C   UNL     1     -11.082  -1.664 -40.374  1.00  0.00    -0.000 C 
BRANCH  16  17
ATOM     17  C   UNL     1     -12.496  -1.108 -40.135  1.00  0.00    -0.003 C 
ATOM     18  C   UNL     1     -13.475  -2.161 -39.619  1.00  0.00     0.004 C 
ENDBRANCH  16  17
ENDBRANCH  15  16
ENDBRANCH  14  15
ENDBRANCH  13  14
ENDBRANCH  12  13
ENDBRANCH  11  12
ENDBRANCH   1  11
TORSDOF 14
ENDMDL
