MODEL 1
REMARK VINA RESULT:    -5.489      0.000      0.000
REMARK INTER + INTRA:          -6.716
REMARK INTER:                  -6.452
REMARK INTRA:                  -0.264
REMARK UNBOUND:                -0.264
REMARK SMILES O=c1cc(-c2ccc(O)c(O)c2)oc2cc(O)cc(O)c12
REMARK SMILES IDX 4 1 3 2 2 3 1 4 21 5 19 6 18 7 16 8 15 9 14 10 13 11 5 12
REMARK SMILES IDX 6 13 7 14 8 15 12 16 10 17 9 18 11 20 20 22 17 24
REMARK H PARENT 9 19 11 21 20 23 17 25
REMARK Flexibility Score: inf
ROOT
ATOM      1  C   UNL     1      26.430  49.700  61.141  1.00  0.00     0.138 A 
ATOM      2  C   UNL     1      27.641  49.239  60.601  1.00  0.00     0.100 A 
ATOM      3  C   UNL     1      28.473  48.427  61.374  1.00  0.00     0.197 A 
ATOM      4  O   UNL     1      29.558  48.016  60.879  1.00  0.00    -0.289 OA
ATOM      5  C   UNL     1      28.084  48.078  62.682  1.00  0.00     0.107 A 
ATOM      6  C   UNL     1      28.867  47.261  63.532  1.00  0.00     0.134 A 
ATOM      7  C   UNL     1      28.406  46.956  64.821  1.00  0.00     0.093 A 
ATOM      8  C   UNL     1      27.181  47.449  65.276  1.00  0.00     0.123 A 
ATOM      9  C   UNL     1      26.402  48.257  64.439  1.00  0.00     0.094 A 
ATOM     10  C   UNL     1      26.844  48.574  63.152  1.00  0.00     0.146 A 
ATOM     11  O   UNL     1      26.087  49.346  62.378  1.00  0.00    -0.456 OA
ENDROOT
BRANCH   1  12
ATOM     12  C   UNL     1      25.506  50.566  60.366  1.00  0.00     0.021 A 
ATOM     13  C   UNL     1      25.593  51.962  60.497  1.00  0.00     0.016 A 
ATOM     14  C   UNL     1      24.741  52.799  59.773  1.00  0.00     0.051 A 
ATOM     15  C   UNL     1      23.792  52.255  58.898  1.00  0.00     0.157 A 
ATOM     16  C   UNL     1      24.559  50.026  59.474  1.00  0.00     0.062 A 
ATOM     17  C   UNL     1      23.704  50.862  58.746  1.00  0.00     0.158 A 
BRANCH  15  18
ATOM     18  O   UNL     1      22.941  53.092  58.178  1.00  0.00    -0.504 OA
ATOM     19  H   UNL     1      22.092  52.744  57.746  1.00  0.00     0.293 HD
ENDBRANCH  15  18
BRANCH  17  20
ATOM     20  O   UNL     1      22.778  50.290  57.875  1.00  0.00    -0.504 OA
ATOM     21  H   UNL     1      21.874  49.959  58.192  1.00  0.00     0.293 HD
ENDBRANCH  17  20
ENDBRANCH   1  12
BRANCH   6  22
ATOM     22  O   UNL     1      30.095  46.753  63.106  1.00  0.00    -0.507 OA
ATOM     23  H   UNL     1      30.244  46.450  62.151  1.00  0.00     0.293 HD
ENDBRANCH   6  22
BRANCH   8  24
ATOM     24  O   UNL     1      26.746  47.130  66.560  1.00  0.00    -0.508 OA
ATOM     25  H   UNL     1      26.344  46.224  66.773  1.00  0.00     0.293 HD
ENDBRANCH   8  24
TORSDOF 5
ENDMDL
MODEL 2
REMARK VINA RESULT:    -5.459      3.261      4.731
REMARK INTER + INTRA:          -6.681
REMARK INTER:                  -6.416
REMARK INTRA:                  -0.264
REMARK UNBOUND:                -0.264
REMARK SMILES O=c1cc(-c2ccc(O)c(O)c2)oc2cc(O)cc(O)c12
REMARK SMILES IDX 4 1 3 2 2 3 1 4 21 5 19 6 18 7 16 8 15 9 14 10 13 11 5 12
REMARK SMILES IDX 6 13 7 14 8 15 12 16 10 17 9 18 11 20 20 22 17 24
REMARK H PARENT 9 19 11 21 20 23 17 25
REMARK Flexibility Score: inf
ROOT
ATOM      1  C   UNL     1      25.535  49.189  64.022  1.00  0.00     0.138 A 
ATOM      2  C   UNL     1      25.966  48.317  65.034  1.00  0.00     0.100 A 
ATOM      3  C   UNL     1      27.117  47.551  64.836  1.00  0.00     0.197 A 
ATOM      4  O   UNL     1      27.498  46.772  65.752  1.00  0.00    -0.289 OA
ATOM      5  C   UNL     1      27.830  47.667  63.627  1.00  0.00     0.107 A 
ATOM      6  C   UNL     1      29.004  46.929  63.345  1.00  0.00     0.134 A 
ATOM      7  C   UNL     1      29.658  47.105  62.117  1.00  0.00     0.093 A 
ATOM      8  C   UNL     1      29.165  48.004  61.169  1.00  0.00     0.123 A 
ATOM      9  C   UNL     1      28.005  48.738  61.442  1.00  0.00     0.094 A 
ATOM     10  C   UNL     1      27.337  48.575  62.659  1.00  0.00     0.146 A 
ATOM     11  O   UNL     1      26.236  49.282  62.893  1.00  0.00    -0.456 OA
ENDROOT
BRANCH   1  12
ATOM     12  C   UNL     1      24.319  50.028  64.176  1.00  0.00     0.021 A 
ATOM     13  C   UNL     1      23.132  49.651  63.526  1.00  0.00     0.016 A 
ATOM     14  C   UNL     1      21.973  50.419  63.662  1.00  0.00     0.051 A 
ATOM     15  C   UNL     1      21.978  51.572  64.457  1.00  0.00     0.157 A 
ATOM     16  C   UNL     1      24.314  51.181  64.986  1.00  0.00     0.062 A 
ATOM     17  C   UNL     1      23.153  51.951  65.124  1.00  0.00     0.158 A 
BRANCH  15  18
ATOM     18  O   UNL     1      20.820  52.337  64.589  1.00  0.00    -0.504 OA
ATOM     19  H   UNL     1      20.605  53.091  63.945  1.00  0.00     0.293 HD
ENDBRANCH  15  18
BRANCH  17  20
ATOM     20  O   UNL     1      23.187  53.087  65.932  1.00  0.00    -0.504 OA
ATOM     21  H   UNL     1      22.999  54.014  65.567  1.00  0.00     0.293 HD
ENDBRANCH  17  20
ENDBRANCH   1  12
BRANCH   6  22
ATOM     22  O   UNL     1      29.522  46.023  64.273  1.00  0.00    -0.507 OA
ATOM     23  H   UNL     1      28.930  45.352  64.749  1.00  0.00     0.293 HD
ENDBRANCH   6  22
BRANCH   8  24
ATOM     24  O   UNL     1      29.836  48.161  59.958  1.00  0.00    -0.508 OA
ATOM     25  H   UNL     1      29.840  49.047  59.466  1.00  0.00     0.293 HD
ENDBRANCH   8  24
TORSDOF 5
ENDMDL
MODEL 3
REMARK VINA RESULT:    -5.442      1.799      6.909
REMARK INTER + INTRA:          -6.661
REMARK INTER:                  -6.396
REMARK INTRA:                  -0.264
REMARK UNBOUND:                -0.264
REMARK SMILES O=c1cc(-c2ccc(O)c(O)c2)oc2cc(O)cc(O)c12
REMARK SMILES IDX 4 1 3 2 2 3 1 4 21 5 19 6 18 7 16 8 15 9 14 10 13 11 5 12
REMARK SMILES IDX 6 13 7 14 8 15 12 16 10 17 9 18 11 20 20 22 17 24
REMARK H PARENT 9 19 11 21 20 23 17 25
REMARK Flexibility Score: inf
ROOT
ATOM      1  C   UNL     1      27.446  47.818  62.664  1.00  0.00     0.138 A 
ATOM      2  C   UNL     1      28.747  48.228  62.333  1.00  0.00     0.100 A 
ATOM      3  C   UNL     1      28.952  49.014  61.197  1.00  0.00     0.197 A 
ATOM      4  O   UNL     1      30.124  49.378  60.909  1.00  0.00    -0.289 OA
ATOM      5  C   UNL     1      27.850  49.388  60.403  1.00  0.00     0.107 A 
ATOM      6  C   UNL     1      27.969  50.181  59.237  1.00  0.00     0.134 A 
ATOM      7  C   UNL     1      26.822  50.514  58.503  1.00  0.00     0.093 A 
ATOM      8  C   UNL     1      25.561  50.072  58.910  1.00  0.00     0.123 A 
ATOM      9  C   UNL     1      25.437  49.288  60.064  1.00  0.00     0.094 A 
ATOM     10  C   UNL     1      26.569  48.944  60.808  1.00  0.00     0.146 A 
ATOM     11  O   UNL     1      26.425  48.196  61.898  1.00  0.00    -0.456 OA
ENDROOT
BRANCH   1  12
ATOM     12  C   UNL     1      27.168  46.982  63.860  1.00  0.00     0.021 A 
ATOM     13  C   UNL     1      26.876  45.618  63.697  1.00  0.00     0.016 A 
ATOM     14  C   UNL     1      26.619  44.809  64.806  1.00  0.00     0.051 A 
ATOM     15  C   UNL     1      26.658  45.347  66.098  1.00  0.00     0.157 A 
ATOM     16  C   UNL     1      27.220  47.515  65.163  1.00  0.00     0.062 A 
ATOM     17  C   UNL     1      26.964  46.705  66.277  1.00  0.00     0.158 A 
BRANCH  15  18
ATOM     18  O   UNL     1      26.399  44.537  67.203  1.00  0.00    -0.504 OA
ATOM     19  H   UNL     1      26.622  44.836  68.145  1.00  0.00     0.293 HD
ENDBRANCH  15  18
BRANCH  17  20
ATOM     20  O   UNL     1      27.021  47.269  67.550  1.00  0.00    -0.504 OA
ATOM     21  H   UNL     1      27.901  47.469  68.011  1.00  0.00     0.293 HD
ENDBRANCH  17  20
ENDBRANCH   1  12
BRANCH   6  22
ATOM     22  O   UNL     1      29.215  50.638  58.804  1.00  0.00    -0.507 OA
ATOM     23  H   UNL     1      30.004  50.712  59.435  1.00  0.00     0.293 HD
ENDBRANCH   6  22
BRANCH   8  24
ATOM     24  O   UNL     1      24.437  50.419  58.164  1.00  0.00    -0.508 OA
ATOM     25  H   UNL     1      23.968  51.307  58.295  1.00  0.00     0.293 HD
ENDBRANCH   8  24
TORSDOF 5
ENDMDL
MODEL 4
REMARK VINA RESULT:    -5.325      2.040      6.786
REMARK INTER + INTRA:          -6.523
REMARK INTER:                  -6.247
REMARK INTRA:                  -0.276
REMARK UNBOUND:                -0.264
REMARK SMILES O=c1cc(-c2ccc(O)c(O)c2)oc2cc(O)cc(O)c12
REMARK SMILES IDX 4 1 3 2 2 3 1 4 21 5 19 6 18 7 16 8 15 9 14 10 13 11 5 12
REMARK SMILES IDX 6 13 7 14 8 15 12 16 10 17 9 18 11 20 20 22 17 24
REMARK H PARENT 9 19 11 21 20 23 17 25
REMARK Flexibility Score: inf
ROOT
ATOM      1  C   UNL     1      27.562  48.158  63.021  1.00  0.00     0.138 A 
ATOM      2  C   UNL     1      28.788  48.840  62.961  1.00  0.00     0.100 A 
ATOM      3  C   UNL     1      29.021  49.743  61.922  1.00  0.00     0.197 A 
ATOM      4  O   UNL     1      30.124  50.352  61.878  1.00  0.00    -0.289 OA
ATOM      5  C   UNL     1      28.022  49.960  60.953  1.00  0.00     0.107 A 
ATOM      6  C   UNL     1      28.177  50.856  59.868  1.00  0.00     0.134 A 
ATOM      7  C   UNL     1      27.132  51.019  58.947  1.00  0.00     0.093 A 
ATOM      8  C   UNL     1      25.939  50.308  59.088  1.00  0.00     0.123 A 
ATOM      9  C   UNL     1      25.780  49.421  60.160  1.00  0.00     0.094 A 
ATOM     10  C   UNL     1      26.810  49.243  61.087  1.00  0.00     0.146 A 
ATOM     11  O   UNL     1      26.635  48.392  62.094  1.00  0.00    -0.456 OA
ENDROOT
BRANCH   1  12
ATOM     12  C   UNL     1      27.257  47.187  64.104  1.00  0.00     0.021 A 
ATOM     13  C   UNL     1      27.202  47.632  65.435  1.00  0.00     0.016 A 
ATOM     14  C   UNL     1      26.910  46.740  66.470  1.00  0.00     0.051 A 
ATOM     15  C   UNL     1      26.660  45.391  66.191  1.00  0.00     0.157 A 
ATOM     16  C   UNL     1      26.992  45.832  63.828  1.00  0.00     0.062 A 
ATOM     17  C   UNL     1      26.697  44.936  64.864  1.00  0.00     0.158 A 
BRANCH  15  18
ATOM     18  O   UNL     1      26.371  44.503  67.227  1.00  0.00    -0.504 OA
ATOM     19  H   UNL     1      26.939  44.462  68.066  1.00  0.00     0.293 HD
ENDBRANCH  15  18
BRANCH  17  20
ATOM     20  O   UNL     1      26.442  43.602  64.552  1.00  0.00    -0.504 OA
ATOM     21  H   UNL     1      25.757  43.052  65.057  1.00  0.00     0.293 HD
ENDBRANCH  17  20
ENDBRANCH   1  12
BRANCH   6  22
ATOM     22  O   UNL     1      29.358  51.582  59.700  1.00  0.00    -0.507 OA
ATOM     23  H   UNL     1      30.179  51.401  60.265  1.00  0.00     0.293 HD
ENDBRANCH   6  22
BRANCH   8  24
ATOM     24  O   UNL     1      24.916  50.490  58.160  1.00  0.00    -0.508 OA
ATOM     25  H   UNL     1      25.113  50.637  57.177  1.00  0.00     0.293 HD
ENDBRANCH   8  24
TORSDOF 5
ENDMDL
MODEL 5
REMARK VINA RESULT:    -5.194      3.282      4.657
REMARK INTER + INTRA:          -6.369
REMARK INTER:                  -6.094
REMARK INTRA:                  -0.275
REMARK UNBOUND:                -0.264
REMARK SMILES O=c1cc(-c2ccc(O)c(O)c2)oc2cc(O)cc(O)c12
REMARK SMILES IDX 4 1 3 2 2 3 1 4 21 5 19 6 18 7 16 8 15 9 14 10 13 11 5 12
REMARK SMILES IDX 6 13 7 14 8 15 12 16 10 17 9 18 11 20 20 22 17 24
REMARK H PARENT 9 19 11 21 20 23 17 25
REMARK Flexibility Score: inf
ROOT
ATOM      1  C   UNL     1      28.426  48.240  62.817  1.00  0.00     0.138 A 
ATOM      2  C   UNL     1      28.549  48.909  64.045  1.00  0.00     0.100 A 
ATOM      3  C   UNL     1      28.122  48.280  65.216  1.00  0.00     0.197 A 
ATOM      4  O   UNL     1      28.239  48.888  66.315  1.00  0.00    -0.289 OA
ATOM      5  C   UNL     1      27.578  46.982  65.149  1.00  0.00     0.107 A 
ATOM      6  C   UNL     1      27.121  46.274  66.286  1.00  0.00     0.134 A 
ATOM      7  C   UNL     1      26.596  44.983  66.136  1.00  0.00     0.093 A 
ATOM      8  C   UNL     1      26.519  44.386  64.875  1.00  0.00     0.123 A 
ATOM      9  C   UNL     1      26.971  45.082  63.747  1.00  0.00     0.094 A 
ATOM     10  C   UNL     1      27.495  46.370  63.876  1.00  0.00     0.146 A 
ATOM     11  O   UNL     1      27.915  47.011  62.789  1.00  0.00    -0.456 OA
ENDROOT
BRANCH   1  12
ATOM     12  C   UNL     1      28.863  48.860  61.540  1.00  0.00     0.021 A 
ATOM     13  C   UNL     1      29.703  48.138  60.675  1.00  0.00     0.016 A 
ATOM     14  C   UNL     1      30.122  48.695  59.464  1.00  0.00     0.051 A 
ATOM     15  C   UNL     1      29.703  49.979  59.093  1.00  0.00     0.157 A 
ATOM     16  C   UNL     1      28.434  50.145  61.155  1.00  0.00     0.062 A 
ATOM     17  C   UNL     1      28.852  50.704  59.942  1.00  0.00     0.158 A 
BRANCH  15  18
ATOM     18  O   UNL     1      30.125  50.533  57.886  1.00  0.00    -0.504 OA
ATOM     19  H   UNL     1      29.465  50.796  57.163  1.00  0.00     0.293 HD
ENDBRANCH  15  18
BRANCH  17  20
ATOM     20  O   UNL     1      28.408  51.980  59.597  1.00  0.00    -0.504 OA
ATOM     21  H   UNL     1      28.892  52.553  58.915  1.00  0.00     0.293 HD
ENDBRANCH  17  20
ENDBRANCH   1  12
BRANCH   6  22
ATOM     22  O   UNL     1      27.185  46.843  67.560  1.00  0.00    -0.507 OA
ATOM     23  H   UNL     1      27.518  46.320  68.360  1.00  0.00     0.293 HD
ENDBRANCH   6  22
BRANCH   8  24
ATOM     24  O   UNL     1      25.995  43.101  64.754  1.00  0.00    -0.508 OA
ATOM     25  H   UNL     1      25.522  42.647  65.526  1.00  0.00     0.293 HD
ENDBRANCH   8  24
TORSDOF 5
ENDMDL
MODEL 6
REMARK VINA RESULT:    -5.164      1.813      2.093
REMARK INTER + INTRA:          -6.334
REMARK INTER:                  -6.042
REMARK INTRA:                  -0.292
REMARK UNBOUND:                -0.264
REMARK SMILES O=c1cc(-c2ccc(O)c(O)c2)oc2cc(O)cc(O)c12
REMARK SMILES IDX 4 1 3 2 2 3 1 4 21 5 19 6 18 7 16 8 15 9 14 10 13 11 5 12
REMARK SMILES IDX 6 13 7 14 8 15 12 16 10 17 9 18 11 20 20 22 17 24
REMARK H PARENT 9 19 11 21 20 23 17 25
REMARK Flexibility Score: inf
ROOT
ATOM      1  C   UNL     1      25.568  48.940  61.494  1.00  0.00     0.138 A 
ATOM      2  C   UNL     1      25.208  47.601  61.270  1.00  0.00     0.100 A 
ATOM      3  C   UNL     1      25.586  46.624  62.193  1.00  0.00     0.197 A 
ATOM      4  O   UNL     1      25.256  45.425  61.983  1.00  0.00    -0.289 OA
ATOM      5  C   UNL     1      26.320  46.995  63.336  1.00  0.00     0.107 A 
ATOM      6  C   UNL     1      26.745  46.070  64.319  1.00  0.00     0.134 A 
ATOM      7  C   UNL     1      27.469  46.520  65.432  1.00  0.00     0.093 A 
ATOM      8  C   UNL     1      27.776  47.874  65.582  1.00  0.00     0.123 A 
ATOM      9  C   UNL     1      27.358  48.795  64.614  1.00  0.00     0.094 A 
ATOM     10  C   UNL     1      26.637  48.365  63.497  1.00  0.00     0.146 A 
ATOM     11  O   UNL     1      26.254  49.259  62.590  1.00  0.00    -0.456 OA
ENDROOT
BRANCH   1  12
ATOM     12  C   UNL     1      25.191  50.021  60.548  1.00  0.00     0.021 A 
ATOM     13  C   UNL     1      25.936  51.212  60.530  1.00  0.00     0.016 A 
ATOM     14  C   UNL     1      25.608  52.242  59.644  1.00  0.00     0.051 A 
ATOM     15  C   UNL     1      24.535  52.095  58.756  1.00  0.00     0.157 A 
ATOM     16  C   UNL     1      24.122  49.874  59.644  1.00  0.00     0.062 A 
ATOM     17  C   UNL     1      23.792  50.904  58.754  1.00  0.00     0.158 A 
BRANCH  15  18
ATOM     18  O   UNL     1      24.208  53.125  57.875  1.00  0.00    -0.504 OA
ATOM     19  H   UNL     1      24.771  53.321  57.056  1.00  0.00     0.293 HD
ENDBRANCH  15  18
BRANCH  17  20
ATOM     20  O   UNL     1      22.725  50.723  57.875  1.00  0.00    -0.504 OA
ATOM     21  H   UNL     1      22.384  49.802  57.625  1.00  0.00     0.293 HD
ENDBRANCH  17  20
ENDBRANCH   1  12
BRANCH   6  22
ATOM     22  O   UNL     1      26.453  44.709  64.197  1.00  0.00    -0.507 OA
ATOM     23  H   UNL     1      25.914  44.348  63.419  1.00  0.00     0.293 HD
ENDBRANCH   6  22
BRANCH   8  24
ATOM     24  O   UNL     1      28.495  48.296  66.699  1.00  0.00    -0.508 OA
ATOM     25  H   UNL     1      28.176  48.098  67.640  1.00  0.00     0.293 HD
ENDBRANCH   8  24
TORSDOF 5
ENDMDL
MODEL 7
REMARK VINA RESULT:    -5.055      2.141      7.047
REMARK INTER + INTRA:          -6.206
REMARK INTER:                  -5.912
REMARK INTRA:                  -0.294
REMARK UNBOUND:                -0.264
REMARK SMILES O=c1cc(-c2ccc(O)c(O)c2)oc2cc(O)cc(O)c12
REMARK SMILES IDX 4 1 3 2 2 3 1 4 21 5 19 6 18 7 16 8 15 9 14 10 13 11 5 12
REMARK SMILES IDX 6 13 7 14 8 15 12 16 10 17 9 18 11 20 20 22 17 24
REMARK H PARENT 9 19 11 21 20 23 17 25
REMARK Flexibility Score: inf
ROOT
ATOM      1  C   UNL     1      26.667  48.687  62.702  1.00  0.00     0.138 A 
ATOM      2  C   UNL     1      25.422  48.247  62.223  1.00  0.00     0.100 A 
ATOM      3  C   UNL     1      25.017  48.603  60.935  1.00  0.00     0.197 A 
ATOM      4  O   UNL     1      23.898  48.201  60.513  1.00  0.00    -0.289 OA
ATOM      5  C   UNL     1      25.862  49.396  60.135  1.00  0.00     0.107 A 
ATOM      6  C   UNL     1      25.528  49.803  58.821  1.00  0.00     0.134 A 
ATOM      7  C   UNL     1      26.427  50.589  58.087  1.00  0.00     0.093 A 
ATOM      8  C   UNL     1      27.651  50.975  58.637  1.00  0.00     0.123 A 
ATOM      9  C   UNL     1      27.988  50.575  59.936  1.00  0.00     0.094 A 
ATOM     10  C   UNL     1      27.104  49.793  60.684  1.00  0.00     0.146 A 
ATOM     11  O   UNL     1      27.446  49.428  61.916  1.00  0.00    -0.456 OA
ENDROOT
BRANCH   1  12
ATOM     12  C   UNL     1      27.151  48.338  64.062  1.00  0.00     0.021 A 
ATOM     13  C   UNL     1      28.187  49.090  64.640  1.00  0.00     0.016 A 
ATOM     14  C   UNL     1      28.655  48.787  65.921  1.00  0.00     0.051 A 
ATOM     15  C   UNL     1      28.090  47.733  66.649  1.00  0.00     0.157 A 
ATOM     16  C   UNL     1      26.577  47.288  64.805  1.00  0.00     0.062 A 
ATOM     17  C   UNL     1      27.044  46.983  66.089  1.00  0.00     0.158 A 
BRANCH  15  18
ATOM     18  O   UNL     1      28.561  47.432  67.926  1.00  0.00    -0.504 OA
ATOM     19  H   UNL     1      28.087  46.763  68.523  1.00  0.00     0.293 HD
ENDBRANCH  15  18
BRANCH  17  20
ATOM     20  O   UNL     1      26.452  45.935  66.793  1.00  0.00    -0.504 OA
ATOM     21  H   UNL     1      26.682  44.966  66.609  1.00  0.00     0.293 HD
ENDBRANCH  17  20
ENDBRANCH   1  12
BRANCH   6  22
ATOM     22  O   UNL     1      24.312  49.434  58.243  1.00  0.00    -0.507 OA
ATOM     23  H   UNL     1      24.152  48.497  57.890  1.00  0.00     0.293 HD
ENDBRANCH   6  22
BRANCH   8  24
ATOM     24  O   UNL     1      28.528  51.754  57.885  1.00  0.00    -0.508 OA
ATOM     25  H   UNL     1      29.129  52.444  58.320  1.00  0.00     0.293 HD
ENDBRANCH   8  24
TORSDOF 5
ENDMDL
MODEL 8
REMARK VINA RESULT:    -5.017      1.980      2.635
REMARK INTER + INTRA:          -6.161
REMARK INTER:                  -5.862
REMARK INTRA:                  -0.299
REMARK UNBOUND:                -0.264
REMARK SMILES O=c1cc(-c2ccc(O)c(O)c2)oc2cc(O)cc(O)c12
REMARK SMILES IDX 4 1 3 2 2 3 1 4 21 5 19 6 18 7 16 8 15 9 14 10 13 11 5 12
REMARK SMILES IDX 6 13 7 14 8 15 12 16 10 17 9 18 11 20 20 22 17 24
REMARK H PARENT 9 19 11 21 20 23 17 25
REMARK Flexibility Score: inf
ROOT
ATOM      1  C   UNL     1      25.712  48.818  61.783  1.00  0.00     0.138 A 
ATOM      2  C   UNL     1      25.347  47.495  61.486  1.00  0.00     0.100 A 
ATOM      3  C   UNL     1      25.689  46.473  62.372  1.00  0.00     0.197 A 
ATOM      4  O   UNL     1      25.355  45.288  62.098  1.00  0.00    -0.289 OA
ATOM      5  C   UNL     1      26.393  46.783  63.553  1.00  0.00     0.107 A 
ATOM      6  C   UNL     1      26.779  45.808  64.503  1.00  0.00     0.134 A 
ATOM      7  C   UNL     1      27.474  46.199  65.657  1.00  0.00     0.093 A 
ATOM      8  C   UNL     1      27.789  47.541  65.879  1.00  0.00     0.123 A 
ATOM      9  C   UNL     1      27.408  48.510  64.943  1.00  0.00     0.094 A 
ATOM     10  C   UNL     1      26.717  48.140  63.786  1.00  0.00     0.146 A 
ATOM     11  O   UNL     1      26.369  49.079  62.911  1.00  0.00    -0.456 OA
ENDROOT
BRANCH   1  12
ATOM     12  C   UNL     1      25.374  49.946  60.878  1.00  0.00     0.021 A 
ATOM     13  C   UNL     1      24.127  49.962  60.230  1.00  0.00     0.016 A 
ATOM     14  C   UNL     1      23.782  51.016  59.381  1.00  0.00     0.051 A 
ATOM     15  C   UNL     1      24.673  52.076  59.170  1.00  0.00     0.157 A 
ATOM     16  C   UNL     1      26.260  51.021  60.673  1.00  0.00     0.062 A 
ATOM     17  C   UNL     1      25.916  52.079  59.822  1.00  0.00     0.158 A 
BRANCH  15  18
ATOM     18  O   UNL     1      24.326  53.125  58.319  1.00  0.00    -0.504 OA
ATOM     19  H   UNL     1      24.972  53.481  57.624  1.00  0.00     0.293 HD
ENDBRANCH  15  18
BRANCH  17  20
ATOM     20  O   UNL     1      26.820  53.125  59.642  1.00  0.00    -0.504 OA
ATOM     21  H   UNL     1      26.523  54.053  59.365  1.00  0.00     0.293 HD
ENDBRANCH  17  20
ENDBRANCH   1  12
BRANCH   6  22
ATOM     22  O   UNL     1      26.479  44.458  64.310  1.00  0.00    -0.507 OA
ATOM     23  H   UNL     1      26.544  44.024  63.397  1.00  0.00     0.293 HD
ENDBRANCH   6  22
BRANCH   8  24
ATOM     24  O   UNL     1      28.478  47.903  67.034  1.00  0.00    -0.508 OA
ATOM     25  H   UNL     1      27.995  48.260  67.850  1.00  0.00     0.293 HD
ENDBRANCH   8  24
TORSDOF 5
ENDMDL
MODEL 9
REMARK VINA RESULT:    -4.900      1.839      6.625
REMARK INTER + INTRA:          -6.023
REMARK INTER:                  -5.759
REMARK INTRA:                  -0.264
REMARK UNBOUND:                -0.264
REMARK SMILES O=c1cc(-c2ccc(O)c(O)c2)oc2cc(O)cc(O)c12
REMARK SMILES IDX 4 1 3 2 2 3 1 4 21 5 19 6 18 7 16 8 15 9 14 10 13 11 5 12
REMARK SMILES IDX 6 13 7 14 8 15 12 16 10 17 9 18 11 20 20 22 17 24
REMARK H PARENT 9 19 11 21 20 23 17 25
REMARK Flexibility Score: inf
ROOT
ATOM      1  C   UNL     1      27.511  48.550  62.430  1.00  0.00     0.138 A 
ATOM      2  C   UNL     1      28.734  48.580  61.742  1.00  0.00     0.100 A 
ATOM      3  C   UNL     1      28.890  49.442  60.654  1.00  0.00     0.197 A 
ATOM      4  O   UNL     1      29.993  49.463  60.044  1.00  0.00    -0.289 OA
ATOM      5  C   UNL     1      27.819  50.270  60.265  1.00  0.00     0.107 A 
ATOM      6  C   UNL     1      27.891  51.170  59.176  1.00  0.00     0.134 A 
ATOM      7  C   UNL     1      26.781  51.965  58.855  1.00  0.00     0.093 A 
ATOM      8  C   UNL     1      25.604  51.879  59.601  1.00  0.00     0.123 A 
ATOM      9  C   UNL     1      25.527  50.992  60.681  1.00  0.00     0.094 A 
ATOM     10  C   UNL     1      26.621  50.190  61.015  1.00  0.00     0.146 A 
ATOM     11  O   UNL     1      26.522  49.353  62.043  1.00  0.00    -0.456 OA
ENDROOT
BRANCH   1  12
ATOM     12  C   UNL     1      27.289  47.655  63.595  1.00  0.00     0.021 A 
ATOM     13  C   UNL     1      27.346  48.186  64.895  1.00  0.00     0.016 A 
ATOM     14  C   UNL     1      27.133  47.367  66.006  1.00  0.00     0.051 A 
ATOM     15  C   UNL     1      26.851  46.006  65.838  1.00  0.00     0.157 A 
ATOM     16  C   UNL     1      26.991  46.289  63.431  1.00  0.00     0.062 A 
ATOM     17  C   UNL     1      26.776  45.466  64.544  1.00  0.00     0.158 A 
BRANCH  15  18
ATOM     18  O   UNL     1      26.641  45.191  66.949  1.00  0.00    -0.504 OA
ATOM     19  H   UNL     1      27.348  45.078  67.666  1.00  0.00     0.293 HD
ENDBRANCH  15  18
BRANCH  17  20
ATOM     20  O   UNL     1      26.485  44.118  64.343  1.00  0.00    -0.504 OA
ATOM     21  H   UNL     1      26.733  43.636  63.486  1.00  0.00     0.293 HD
ENDBRANCH  17  20
ENDBRANCH   1  12
BRANCH   6  22
ATOM     22  O   UNL     1      29.055  51.279  58.411  1.00  0.00    -0.507 OA
ATOM     23  H   UNL     1      29.025  51.521  57.428  1.00  0.00     0.293 HD
ENDBRANCH   6  22
BRANCH   8  24
ATOM     24  O   UNL     1      24.516  52.681  59.263  1.00  0.00    -0.508 OA
ATOM     25  H   UNL     1      24.298  53.524  59.782  1.00  0.00     0.293 HD
ENDBRANCH   8  24
TORSDOF 5
ENDMDL
