MODEL 1
REMARK VINA RESULT:    -3.959      0.000      0.000
REMARK INTER + INTRA:          -4.690
REMARK INTER:                  -4.653
REMARK INTRA:                  -0.036
REMARK UNBOUND:                -0.036
REMARK SMILES O=c1c(O)c(-c2ccc(O)cc2)oc2cc(O)cc(O)c12
REMARK SMILES IDX 5 1 3 2 2 3 1 4 21 5 19 6 18 7 16 8 15 9 14 10 13 11 6 12
REMARK SMILES IDX 7 13 8 14 9 15 12 16 11 17 10 18 4 20 20 22 17 24
REMARK H PARENT 10 19 4 21 20 23 17 25
REMARK Flexibility Score: inf
ROOT
ATOM      1  C   UNL     1       7.908  10.979 -23.428  1.00  0.00     0.180 A 
ATOM      2  C   UNL     1       7.192  10.022 -24.167  1.00  0.00     0.208 A 
ATOM      3  C   UNL     1       7.901   9.088 -24.942  1.00  0.00     0.238 A 
ATOM      4  O   UNL     1       7.252   8.283 -25.659  1.00  0.00    -0.285 OA
ATOM      5  C   UNL     1       9.316   9.088 -24.922  1.00  0.00     0.111 A 
ATOM      6  C   UNL     1      10.138   8.159 -25.632  1.00  0.00     0.134 A 
ATOM      7  C   UNL     1      11.529   8.321 -25.623  1.00  0.00     0.093 A 
ATOM      8  C   UNL     1      12.132   9.335 -24.881  1.00  0.00     0.123 A 
ATOM      9  C   UNL     1      11.343  10.214 -24.138  1.00  0.00     0.094 A 
ATOM     10  C   UNL     1       9.950  10.103 -24.158  1.00  0.00     0.146 A 
ATOM     11  O   UNL     1       9.235  10.974 -23.456  1.00  0.00    -0.452 OA
ENDROOT
BRANCH   1  12
ATOM     12  C   UNL     1       7.232  12.003 -22.600  1.00  0.00     0.021 A 
ATOM     13  C   UNL     1       7.616  12.172 -21.260  1.00  0.00     0.016 A 
ATOM     14  C   UNL     1       7.007  13.149 -20.466  1.00  0.00     0.047 A 
ATOM     15  C   UNL     1       6.018  13.980 -21.008  1.00  0.00     0.115 A 
ATOM     16  C   UNL     1       6.252  12.856 -23.143  1.00  0.00     0.016 A 
ATOM     17  C   UNL     1       5.646  13.832 -22.347  1.00  0.00     0.047 A 
BRANCH  15  18
ATOM     18  O   UNL     1       5.404  14.956 -20.226  1.00  0.00    -0.508 OA
ATOM     19  H   UNL     1       4.963  14.727 -19.343  1.00  0.00     0.293 HD
ENDBRANCH  15  18
ENDBRANCH   1  12
BRANCH   2  20
ATOM     20  O   UNL     1       5.796   9.991 -24.113  1.00  0.00    -0.502 OA
ATOM     21  H   UNL     1       5.288   9.353 -23.510  1.00  0.00     0.293 HD
ENDBRANCH   2  20
BRANCH   6  22
ATOM     22  O   UNL     1       9.645   7.056 -26.335  1.00  0.00    -0.507 OA
ATOM     23  H   UNL     1       8.932   6.428 -25.999  1.00  0.00     0.293 HD
ENDBRANCH   6  22
BRANCH   8  24
ATOM     24  O   UNL     1      13.520   9.455 -24.882  1.00  0.00    -0.508 OA
ATOM     25  H   UNL     1      14.045   9.542 -24.019  1.00  0.00     0.293 HD
ENDBRANCH   8  24
TORSDOF 5
ENDMDL
MODEL 2
REMARK VINA RESULT:    -3.892      1.471      3.533
REMARK INTER + INTRA:          -4.611
REMARK INTER:                  -4.682
REMARK INTRA:                   0.071
REMARK UNBOUND:                -0.036
REMARK SMILES O=c1c(O)c(-c2ccc(O)cc2)oc2cc(O)cc(O)c12
REMARK SMILES IDX 5 1 3 2 2 3 1 4 21 5 19 6 18 7 16 8 15 9 14 10 13 11 6 12
REMARK SMILES IDX 7 13 8 14 9 15 12 16 11 17 10 18 4 20 20 22 17 24
REMARK H PARENT 10 19 4 21 20 23 17 25
REMARK Flexibility Score: inf
ROOT
ATOM      1  C   UNL     1       7.529  10.945 -23.442  1.00  0.00     0.180 A 
ATOM      2  C   UNL     1       8.893  10.638 -23.591  1.00  0.00     0.208 A 
ATOM      3  C   UNL     1       9.267   9.597 -24.456  1.00  0.00     0.238 A 
ATOM      4  O   UNL     1      10.482   9.279 -24.528  1.00  0.00    -0.285 OA
ATOM      5  C   UNL     1       8.278   8.913 -25.203  1.00  0.00     0.111 A 
ATOM      6  C   UNL     1       8.546   7.872 -26.144  1.00  0.00     0.134 A 
ATOM      7  C   UNL     1       7.479   7.195 -26.746  1.00  0.00     0.093 A 
ATOM      8  C   UNL     1       6.157   7.560 -26.493  1.00  0.00     0.123 A 
ATOM      9  C   UNL     1       5.885   8.613 -25.619  1.00  0.00     0.094 A 
ATOM     10  C   UNL     1       6.926   9.283 -24.972  1.00  0.00     0.146 A 
ATOM     11  O   UNL     1       6.622  10.264 -24.131  1.00  0.00    -0.452 OA
ENDROOT
BRANCH   1  12
ATOM     12  C   UNL     1       7.057  12.018 -22.538  1.00  0.00     0.021 A 
ATOM     13  C   UNL     1       6.048  12.892 -22.973  1.00  0.00     0.016 A 
ATOM     14  C   UNL     1       5.569  13.899 -22.128  1.00  0.00     0.047 A 
ATOM     15  C   UNL     1       6.084  14.034 -20.832  1.00  0.00     0.115 A 
ATOM     16  C   UNL     1       7.555  12.147 -21.228  1.00  0.00     0.016 A 
ATOM     17  C   UNL     1       7.074  13.154 -20.386  1.00  0.00     0.047 A 
BRANCH  15  18
ATOM     18  O   UNL     1       5.617  15.034 -19.982  1.00  0.00    -0.508 OA
ATOM     19  H   UNL     1       6.240  15.533 -19.359  1.00  0.00     0.293 HD
ENDBRANCH  15  18
ENDBRANCH   1  12
BRANCH   2  20
ATOM     20  O   UNL     1       9.860  11.376 -22.902  1.00  0.00    -0.502 OA
ATOM     21  H   UNL     1       9.960  11.335 -21.895  1.00  0.00     0.293 HD
ENDBRANCH   2  20
BRANCH   6  22
ATOM     22  O   UNL     1       9.830   7.484 -26.538  1.00  0.00    -0.507 OA
ATOM     23  H   UNL     1      10.079   6.566 -26.874  1.00  0.00     0.293 HD
ENDBRANCH   6  22
BRANCH   8  24
ATOM     24  O   UNL     1       5.121   6.875 -27.125  1.00  0.00    -0.508 OA
ATOM     25  H   UNL     1       5.213   5.900 -27.387  1.00  0.00     0.293 HD
ENDBRANCH   8  24
TORSDOF 5
ENDMDL
MODEL 3
REMARK VINA RESULT:    -3.721      2.298      7.240
REMARK INTER + INTRA:          -4.410
REMARK INTER:                  -4.546
REMARK INTRA:                   0.136
REMARK UNBOUND:                -0.036
REMARK SMILES O=c1c(O)c(-c2ccc(O)cc2)oc2cc(O)cc(O)c12
REMARK SMILES IDX 5 1 3 2 2 3 1 4 21 5 19 6 18 7 16 8 15 9 14 10 13 11 6 12
REMARK SMILES IDX 7 13 8 14 9 15 12 16 11 17 10 18 4 20 20 22 17 24
REMARK H PARENT 10 19 4 21 20 23 17 25
REMARK Flexibility Score: inf
ROOT
ATOM      1  C   UNL     1      11.966   8.613 -25.382  1.00  0.00     0.180 A 
ATOM      2  C   UNL     1      11.083   7.831 -26.147  1.00  0.00     0.208 A 
ATOM      3  C   UNL     1       9.701   7.952 -25.929  1.00  0.00     0.238 A 
ATOM      4  O   UNL     1       8.922   7.195 -26.564  1.00  0.00    -0.285 OA
ATOM      5  C   UNL     1       9.216   8.892 -24.989  1.00  0.00     0.111 A 
ATOM      6  C   UNL     1       7.834   9.132 -24.718  1.00  0.00     0.134 A 
ATOM      7  C   UNL     1       7.475  10.012 -23.690  1.00  0.00     0.093 A 
ATOM      8  C   UNL     1       8.441  10.709 -22.966  1.00  0.00     0.123 A 
ATOM      9  C   UNL     1       9.793  10.525 -23.259  1.00  0.00     0.094 A 
ATOM     10  C   UNL     1      10.186   9.625 -24.253  1.00  0.00     0.146 A 
ATOM     11  O   UNL     1      11.483   9.463 -24.485  1.00  0.00    -0.452 OA
ENDROOT
BRANCH   1  12
ATOM     12  C   UNL     1      13.435   8.531 -25.545  1.00  0.00     0.021 A 
ATOM     13  C   UNL     1      14.205   9.702 -25.461  1.00  0.00     0.016 A 
ATOM     14  C   UNL     1      15.597   9.646 -25.588  1.00  0.00     0.047 A 
ATOM     15  C   UNL     1      16.236   8.415 -25.786  1.00  0.00     0.115 A 
ATOM     16  C   UNL     1      14.086   7.295 -25.723  1.00  0.00     0.016 A 
ATOM     17  C   UNL     1      15.477   7.243 -25.850  1.00  0.00     0.047 A 
BRANCH  15  18
ATOM     18  O   UNL     1      17.621   8.346 -25.915  1.00  0.00    -0.508 OA
ATOM     19  H   UNL     1      18.168   9.153 -26.191  1.00  0.00     0.293 HD
ENDBRANCH  15  18
ENDBRANCH   1  12
BRANCH   2  20
ATOM     20  O   UNL     1      11.579   6.963 -27.125  1.00  0.00    -0.502 OA
ATOM     21  H   UNL     1      12.069   7.293 -27.948  1.00  0.00     0.293 HD
ENDBRANCH   2  20
BRANCH   6  22
ATOM     22  O   UNL     1       6.784   8.557 -25.439  1.00  0.00    -0.507 OA
ATOM     23  H   UNL     1       5.882   8.983 -25.587  1.00  0.00     0.293 HD
ENDBRANCH   6  22
BRANCH   8  24
ATOM     24  O   UNL     1       8.046  11.590 -21.962  1.00  0.00    -0.508 OA
ATOM     25  H   UNL     1       7.079  11.656 -21.664  1.00  0.00     0.293 HD
ENDBRANCH   8  24
TORSDOF 5
ENDMDL
MODEL 4
REMARK VINA RESULT:    -3.144      1.140      1.496
REMARK INTER + INTRA:          -3.731
REMARK INTER:                  -3.562
REMARK INTRA:                  -0.170
REMARK UNBOUND:                -0.036
REMARK SMILES O=c1c(O)c(-c2ccc(O)cc2)oc2cc(O)cc(O)c12
REMARK SMILES IDX 5 1 3 2 2 3 1 4 21 5 19 6 18 7 16 8 15 9 14 10 13 11 6 12
REMARK SMILES IDX 7 13 8 14 9 15 12 16 11 17 10 18 4 20 20 22 17 24
REMARK H PARENT 10 19 4 21 20 23 17 25
REMARK Flexibility Score: inf
ROOT
ATOM      1  C   UNL     1       8.993  10.622 -23.905  1.00  0.00     0.180 A 
ATOM      2  C   UNL     1       8.569   9.441 -24.539  1.00  0.00     0.208 A 
ATOM      3  C   UNL     1       9.526   8.607 -25.139  1.00  0.00     0.238 A 
ATOM      4  O   UNL     1       9.132   7.591 -25.768  1.00  0.00    -0.285 OA
ATOM      5  C   UNL     1      10.901   8.935 -25.050  1.00  0.00     0.111 A 
ATOM      6  C   UNL     1      11.962   8.141 -25.582  1.00  0.00     0.134 A 
ATOM      7  C   UNL     1      13.277   8.619 -25.526  1.00  0.00     0.093 A 
ATOM      8  C   UNL     1      13.578   9.829 -24.904  1.00  0.00     0.123 A 
ATOM      9  C   UNL     1      12.557  10.588 -24.331  1.00  0.00     0.094 A 
ATOM     10  C   UNL     1      11.230  10.157 -24.404  1.00  0.00     0.146 A 
ATOM     11  O   UNL     1      10.286  10.919 -23.866  1.00  0.00    -0.452 OA
ENDROOT
BRANCH   1  12
ATOM     12  C   UNL     1       8.042  11.557 -23.263  1.00  0.00     0.021 A 
ATOM     13  C   UNL     1       8.118  11.777 -21.878  1.00  0.00     0.016 A 
ATOM     14  C   UNL     1       7.246  12.674 -21.254  1.00  0.00     0.047 A 
ATOM     15  C   UNL     1       6.296  13.373 -22.010  1.00  0.00     0.115 A 
ATOM     16  C   UNL     1       7.099  12.279 -24.019  1.00  0.00     0.016 A 
ATOM     17  C   UNL     1       6.228  13.175 -23.391  1.00  0.00     0.047 A 
BRANCH  15  18
ATOM     18  O   UNL     1       5.421  14.268 -21.399  1.00  0.00    -0.508 OA
ATOM     19  H   UNL     1       5.629  14.681 -20.497  1.00  0.00     0.293 HD
ENDBRANCH  15  18
ENDBRANCH   1  12
BRANCH   2  20
ATOM     20  O   UNL     1       7.214   9.096 -24.550  1.00  0.00    -0.502 OA
ATOM     21  H   UNL     1       6.476   9.786 -24.476  1.00  0.00     0.293 HD
ENDBRANCH   2  20
BRANCH   6  22
ATOM     22  O   UNL     1      11.784   6.875 -26.147  1.00  0.00    -0.507 OA
ATOM     23  H   UNL     1      11.104   6.196 -25.843  1.00  0.00     0.293 HD
ENDBRANCH   6  22
BRANCH   8  24
ATOM     24  O   UNL     1      14.901  10.265 -24.852  1.00  0.00    -0.508 OA
ATOM     25  H   UNL     1      15.481  10.297 -25.682  1.00  0.00     0.293 HD
ENDBRANCH   8  24
TORSDOF 5
ENDMDL
MODEL 5
REMARK VINA RESULT:    -3.063      2.125      6.770
REMARK INTER + INTRA:          -3.636
REMARK INTER:                  -3.504
REMARK INTRA:                  -0.132
REMARK UNBOUND:                -0.036
REMARK SMILES O=c1c(O)c(-c2ccc(O)cc2)oc2cc(O)cc(O)c12
REMARK SMILES IDX 5 1 3 2 2 3 1 4 21 5 19 6 18 7 16 8 15 9 14 10 13 11 6 12
REMARK SMILES IDX 7 13 8 14 9 15 12 16 11 17 10 18 4 20 20 22 17 24
REMARK H PARENT 10 19 4 21 20 23 17 25
REMARK Flexibility Score: inf
ROOT
ATOM      1  C   UNL     1       9.653  10.627 -24.210  1.00  0.00     0.180 A 
ATOM      2  C   UNL     1       9.309  10.964 -22.889  1.00  0.00     0.208 A 
ATOM      3  C   UNL     1       8.092  11.623 -22.648  1.00  0.00     0.238 A 
ATOM      4  O   UNL     1       7.826  11.988 -21.473  1.00  0.00    -0.285 OA
ATOM      5  C   UNL     1       7.209  11.887 -23.723  1.00  0.00     0.111 A 
ATOM      6  C   UNL     1       5.930  12.509 -23.590  1.00  0.00     0.134 A 
ATOM      7  C   UNL     1       5.189  12.815 -24.737  1.00  0.00     0.093 A 
ATOM      8  C   UNL     1       5.648  12.467 -26.007  1.00  0.00     0.123 A 
ATOM      9  C   UNL     1       6.871  11.809 -26.145  1.00  0.00     0.094 A 
ATOM     10  C   UNL     1       7.652  11.524 -25.022  1.00  0.00     0.146 A 
ATOM     11  O   UNL     1       8.819  10.917 -25.201  1.00  0.00    -0.452 OA
ENDROOT
BRANCH   1  12
ATOM     12  C   UNL     1      10.923   9.946 -24.544  1.00  0.00     0.021 A 
ATOM     13  C   UNL     1      10.889   8.698 -25.186  1.00  0.00     0.016 A 
ATOM     14  C   UNL     1      12.077   8.046 -25.533  1.00  0.00     0.047 A 
ATOM     15  C   UNL     1      13.314   8.642 -25.254  1.00  0.00     0.115 A 
ATOM     16  C   UNL     1      12.170  10.548 -24.286  1.00  0.00     0.016 A 
ATOM     17  C   UNL     1      13.355   9.893 -24.634  1.00  0.00     0.047 A 
BRANCH  15  18
ATOM     18  O   UNL     1      14.504   8.002 -25.593  1.00  0.00    -0.508 OA
ATOM     19  H   UNL     1      14.805   7.159 -25.119  1.00  0.00     0.293 HD
ENDBRANCH  15  18
ENDBRANCH   1  12
BRANCH   2  20
ATOM     20  O   UNL     1      10.160  10.627 -21.832  1.00  0.00    -0.502 OA
ATOM     21  H   UNL     1       9.854  10.067 -21.045  1.00  0.00     0.293 HD
ENDBRANCH   2  20
BRANCH   6  22
ATOM     22  O   UNL     1       5.335  12.820 -22.364  1.00  0.00    -0.507 OA
ATOM     23  H   UNL     1       5.779  13.337 -21.620  1.00  0.00     0.293 HD
ENDBRANCH   6  22
BRANCH   8  24
ATOM     24  O   UNL     1       4.875  12.772 -27.125  1.00  0.00    -0.508 OA
ATOM     25  H   UNL     1       4.700  12.087 -27.851  1.00  0.00     0.293 HD
ENDBRANCH   8  24
TORSDOF 5
ENDMDL
MODEL 6
REMARK VINA RESULT:    -2.989      2.901      6.953
REMARK INTER + INTRA:          -3.549
REMARK INTER:                  -3.913
REMARK INTRA:                   0.364
REMARK UNBOUND:                -0.036
REMARK SMILES O=c1c(O)c(-c2ccc(O)cc2)oc2cc(O)cc(O)c12
REMARK SMILES IDX 5 1 3 2 2 3 1 4 21 5 19 6 18 7 16 8 15 9 14 10 13 11 6 12
REMARK SMILES IDX 7 13 8 14 9 15 12 16 11 17 10 18 4 20 20 22 17 24
REMARK H PARENT 10 19 4 21 20 23 17 25
REMARK Flexibility Score: inf
ROOT
ATOM      1  C   UNL     1      10.896   9.182 -24.968  1.00  0.00     0.180 A 
ATOM      2  C   UNL     1      10.378  10.185 -24.130  1.00  0.00     0.208 A 
ATOM      3  C   UNL     1       8.986  10.346 -24.038  1.00  0.00     0.238 A 
ATOM      4  O   UNL     1       8.533  11.293 -23.345  1.00  0.00    -0.285 OA
ATOM      5  C   UNL     1       8.128   9.466 -24.741  1.00  0.00     0.111 A 
ATOM      6  C   UNL     1       6.701   9.507 -24.687  1.00  0.00     0.134 A 
ATOM      7  C   UNL     1       5.954   8.654 -25.508  1.00  0.00     0.093 A 
ATOM      8  C   UNL     1       6.577   7.720 -26.334  1.00  0.00     0.123 A 
ATOM      9  C   UNL     1       7.970   7.632 -26.353  1.00  0.00     0.094 A 
ATOM     10  C   UNL     1       8.744   8.495 -25.574  1.00  0.00     0.146 A 
ATOM     11  O   UNL     1      10.066   8.394 -25.640  1.00  0.00    -0.452 OA
ENDROOT
BRANCH   1  12
ATOM     12  C   UNL     1      12.351   8.961 -25.128  1.00  0.00     0.021 A 
ATOM     13  C   UNL     1      12.813   7.725 -25.609  1.00  0.00     0.016 A 
ATOM     14  C   UNL     1      14.181   7.502 -25.790  1.00  0.00     0.047 A 
ATOM     15  C   UNL     1      15.103   8.518 -25.506  1.00  0.00     0.115 A 
ATOM     16  C   UNL     1      13.282   9.983 -24.864  1.00  0.00     0.016 A 
ATOM     17  C   UNL     1      14.649   9.757 -25.046  1.00  0.00     0.047 A 
BRANCH  15  18
ATOM     18  O   UNL     1      16.469   8.306 -25.681  1.00  0.00    -0.508 OA
ATOM     19  H   UNL     1      16.987   8.771 -26.417  1.00  0.00     0.293 HD
ENDBRANCH  15  18
ENDBRANCH   1  12
BRANCH   2  20
ATOM     20  O   UNL     1      11.241  10.993 -23.385  1.00  0.00    -0.502 OA
ATOM     21  H   UNL     1      12.093  11.383 -23.772  1.00  0.00     0.293 HD
ENDBRANCH   2  20
BRANCH   6  22
ATOM     22  O   UNL     1       5.974  10.342 -23.833  1.00  0.00    -0.507 OA
ATOM     23  H   UNL     1       5.001  10.221 -23.596  1.00  0.00     0.293 HD
ENDBRANCH   6  22
BRANCH   8  24
ATOM     24  O   UNL     1       5.801   6.875 -27.124  1.00  0.00    -0.508 OA
ATOM     25  H   UNL     1       5.583   5.928 -26.834  1.00  0.00     0.293 HD
ENDBRANCH   8  24
TORSDOF 5
ENDMDL
MODEL 7
REMARK VINA RESULT:    -2.868      1.674      6.651
REMARK INTER + INTRA:          -3.407
REMARK INTER:                  -3.475
REMARK INTRA:                   0.068
REMARK UNBOUND:                -0.036
REMARK SMILES O=c1c(O)c(-c2ccc(O)cc2)oc2cc(O)cc(O)c12
REMARK SMILES IDX 5 1 3 2 2 3 1 4 21 5 19 6 18 7 16 8 15 9 14 10 13 11 6 12
REMARK SMILES IDX 7 13 8 14 9 15 12 16 11 17 10 18 4 20 20 22 17 24
REMARK H PARENT 10 19 4 21 20 23 17 25
REMARK Flexibility Score: inf
ROOT
ATOM      1  C   UNL     1       8.689  10.570 -24.518  1.00  0.00     0.180 A 
ATOM      2  C   UNL     1       7.771  11.054 -25.467  1.00  0.00     0.208 A 
ATOM      3  C   UNL     1       6.772  11.951 -25.054  1.00  0.00     0.238 A 
ATOM      4  O   UNL     1       5.910  12.321 -25.893  1.00  0.00    -0.285 OA
ATOM      5  C   UNL     1       6.739  12.398 -23.712  1.00  0.00     0.111 A 
ATOM      6  C   UNL     1       5.800  13.341 -23.193  1.00  0.00     0.134 A 
ATOM      7  C   UNL     1       5.796  13.629 -21.822  1.00  0.00     0.093 A 
ATOM      8  C   UNL     1       6.733  13.058 -20.963  1.00  0.00     0.123 A 
ATOM      9  C   UNL     1       7.691  12.178 -21.468  1.00  0.00     0.094 A 
ATOM     10  C   UNL     1       7.697  11.841 -22.824  1.00  0.00     0.146 A 
ATOM     11  O   UNL     1       8.611  10.983 -23.259  1.00  0.00    -0.452 OA
ENDROOT
BRANCH   1  12
ATOM     12  C   UNL     1       9.759   9.611 -24.874  1.00  0.00     0.021 A 
ATOM     13  C   UNL     1       9.437   8.459 -25.609  1.00  0.00     0.016 A 
ATOM     14  C   UNL     1      10.435   7.551 -25.976  1.00  0.00     0.047 A 
ATOM     15  C   UNL     1      11.770   7.793 -25.626  1.00  0.00     0.115 A 
ATOM     16  C   UNL     1      11.105   9.858 -24.543  1.00  0.00     0.016 A 
ATOM     17  C   UNL     1      12.100   8.948 -24.912  1.00  0.00     0.047 A 
BRANCH  15  18
ATOM     18  O   UNL     1      12.772   6.894 -25.985  1.00  0.00    -0.508 OA
ATOM     19  H   UNL     1      12.777   6.440 -26.890  1.00  0.00     0.293 HD
ENDBRANCH  15  18
ENDBRANCH   1  12
BRANCH   2  20
ATOM     20  O   UNL     1       7.868  10.659 -26.805  1.00  0.00    -0.502 OA
ATOM     21  H   UNL     1       7.088  10.258 -27.312  1.00  0.00     0.293 HD
ENDBRANCH   2  20
BRANCH   6  22
ATOM     22  O   UNL     1       4.875  14.038 -23.976  1.00  0.00    -0.507 OA
ATOM     23  H   UNL     1       5.108  14.759 -24.642  1.00  0.00     0.293 HD
ENDBRANCH   6  22
BRANCH   8  24
ATOM     24  O   UNL     1       6.710  13.381 -19.608  1.00  0.00    -0.508 OA
ATOM     25  H   UNL     1       5.875  13.256 -19.047  1.00  0.00     0.293 HD
ENDBRANCH   8  24
TORSDOF 5
ENDMDL
MODEL 8
REMARK VINA RESULT:    -2.346      1.664      2.687
REMARK INTER + INTRA:          -2.794
REMARK INTER:                  -2.658
REMARK INTRA:                  -0.136
REMARK UNBOUND:                -0.036
REMARK SMILES O=c1c(O)c(-c2ccc(O)cc2)oc2cc(O)cc(O)c12
REMARK SMILES IDX 5 1 3 2 2 3 1 4 21 5 19 6 18 7 16 8 15 9 14 10 13 11 6 12
REMARK SMILES IDX 7 13 8 14 9 15 12 16 11 17 10 18 4 20 20 22 17 24
REMARK H PARENT 10 19 4 21 20 23 17 25
REMARK Flexibility Score: inf
ROOT
ATOM      1  C   UNL     1       9.949  10.167 -24.288  1.00  0.00     0.180 A 
ATOM      2  C   UNL     1       9.724   8.941 -24.939  1.00  0.00     0.208 A 
ATOM      3  C   UNL     1      10.815   8.259 -25.503  1.00  0.00     0.238 A 
ATOM      4  O   UNL     1      10.596   7.201 -26.148  1.00  0.00    -0.285 OA
ATOM      5  C   UNL     1      12.123   8.782 -25.360  1.00  0.00     0.111 A 
ATOM      6  C   UNL     1      13.307   8.153 -25.852  1.00  0.00     0.134 A 
ATOM      7  C   UNL     1      14.536   8.816 -25.745  1.00  0.00     0.093 A 
ATOM      8  C   UNL     1      14.635  10.053 -25.111  1.00  0.00     0.123 A 
ATOM      9  C   UNL     1      13.493  10.652 -24.577  1.00  0.00     0.094 A 
ATOM     10  C   UNL     1      12.246  10.034 -24.701  1.00  0.00     0.146 A 
ATOM     11  O   UNL     1      11.182  10.648 -24.199  1.00  0.00    -0.452 OA
ENDROOT
BRANCH   1  12
ATOM     12  C   UNL     1       8.849  10.951 -23.682  1.00  0.00     0.021 A 
ATOM     13  C   UNL     1       8.878  11.233 -22.307  1.00  0.00     0.016 A 
ATOM     14  C   UNL     1       7.862  11.992 -21.717  1.00  0.00     0.047 A 
ATOM     15  C   UNL     1       6.812  12.490 -22.500  1.00  0.00     0.115 A 
ATOM     16  C   UNL     1       7.801  11.472 -24.465  1.00  0.00     0.016 A 
ATOM     17  C   UNL     1       6.787  12.230 -23.872  1.00  0.00     0.047 A 
BRANCH  15  18
ATOM     18  O   UNL     1       5.793  13.246 -21.923  1.00  0.00    -0.508 OA
ATOM     19  H   UNL     1       5.910  13.690 -21.020  1.00  0.00     0.293 HD
ENDBRANCH  15  18
ENDBRANCH   1  12
BRANCH   2  20
ATOM     20  O   UNL     1       8.435   8.404 -25.002  1.00  0.00    -0.502 OA
ATOM     21  H   UNL     1       7.722   8.618 -24.315  1.00  0.00     0.293 HD
ENDBRANCH   2  20
BRANCH   6  22
ATOM     22  O   UNL     1      13.336   6.878 -26.425  1.00  0.00    -0.507 OA
ATOM     23  H   UNL     1      12.756   6.104 -26.143  1.00  0.00     0.293 HD
ENDBRANCH   6  22
BRANCH   8  24
ATOM     24  O   UNL     1      15.877  10.675 -25.007  1.00  0.00    -0.508 OA
ATOM     25  H   UNL     1      16.386  10.701 -24.131  1.00  0.00     0.293 HD
ENDBRANCH   8  24
TORSDOF 5
ENDMDL
MODEL 9
REMARK VINA RESULT:    -2.280      1.673      6.411
REMARK INTER + INTRA:          -2.716
REMARK INTER:                  -3.219
REMARK INTRA:                   0.503
REMARK UNBOUND:                -0.036
REMARK SMILES O=c1c(O)c(-c2ccc(O)cc2)oc2cc(O)cc(O)c12
REMARK SMILES IDX 5 1 3 2 2 3 1 4 21 5 19 6 18 7 16 8 15 9 14 10 13 11 6 12
REMARK SMILES IDX 7 13 8 14 9 15 12 16 11 17 10 18 4 20 20 22 17 24
REMARK H PARENT 10 19 4 21 20 23 17 25
REMARK Flexibility Score: inf
ROOT
ATOM      1  C   UNL     1      10.153   9.595 -24.810  1.00  0.00     0.180 A 
ATOM      2  C   UNL     1       9.318   8.509 -25.124  1.00  0.00     0.208 A 
ATOM      3  C   UNL     1       7.928   8.653 -24.979  1.00  0.00     0.238 A 
ATOM      4  O   UNL     1       7.193   7.654 -25.191  1.00  0.00    -0.285 OA
ATOM      5  C   UNL     1       7.388   9.898 -24.575  1.00  0.00     0.111 A 
ATOM      6  C   UNL     1       5.992  10.171 -24.437  1.00  0.00     0.134 A 
ATOM      7  C   UNL     1       5.578  11.408 -23.928  1.00  0.00     0.093 A 
ATOM      8  C   UNL     1       6.501  12.403 -23.611  1.00  0.00     0.123 A 
ATOM      9  C   UNL     1       7.865  12.167 -23.794  1.00  0.00     0.094 A 
ATOM     10  C   UNL     1       8.312  10.930 -24.264  1.00  0.00     0.146 A 
ATOM     11  O   UNL     1       9.618  10.739 -24.402  1.00  0.00    -0.452 OA
ENDROOT
BRANCH   1  12
ATOM     12  C   UNL     1      11.627   9.515 -24.924  1.00  0.00     0.021 A 
ATOM     13  C   UNL     1      12.411  10.609 -24.524  1.00  0.00     0.016 A 
ATOM     14  C   UNL     1      13.805  10.548 -24.601  1.00  0.00     0.047 A 
ATOM     15  C   UNL     1      14.434   9.385 -25.064  1.00  0.00     0.115 A 
ATOM     16  C   UNL     1      12.266   8.343 -25.369  1.00  0.00     0.016 A 
ATOM     17  C   UNL     1      13.661   8.285 -25.444  1.00  0.00     0.047 A 
BRANCH  15  18
ATOM     18  O   UNL     1      15.823   9.313 -25.147  1.00  0.00    -0.508 OA
ATOM     19  H   UNL     1      16.328   8.486 -24.850  1.00  0.00     0.293 HD
ENDBRANCH  15  18
ENDBRANCH   1  12
BRANCH   2  20
ATOM     20  O   UNL     1       9.867   7.313 -25.595  1.00  0.00    -0.502 OA
ATOM     21  H   UNL     1       9.295   6.553 -25.946  1.00  0.00     0.293 HD
ENDBRANCH   2  20
BRANCH   6  22
ATOM     22  O   UNL     1       4.980   9.281 -24.807  1.00  0.00    -0.507 OA
ATOM     23  H   UNL     1       5.127   8.398 -25.271  1.00  0.00     0.293 HD
ENDBRANCH   6  22
BRANCH   8  24
ATOM     24  O   UNL     1       6.052  13.628 -23.123  1.00  0.00    -0.508 OA
ATOM     25  H   UNL     1       5.079  13.777 -22.881  1.00  0.00     0.293 HD
ENDBRANCH   8  24
TORSDOF 5
ENDMDL
