MODEL 1
REMARK VINA RESULT:     1.762      0.000      0.000
REMARK INTER + INTRA:           3.077
REMARK INTER:                   4.029
REMARK INTRA:                  -0.952
REMARK UNBOUND:                -0.952
REMARK SMILES CCCCCCCCCCCCCCCCCCCCCCCC(=O)[O-]
REMARK SMILES IDX 13 1 14 2 15 3 16 4 17 5 18 6 19 7 20 8 21 9 22 10 23 11
REMARK SMILES IDX 24 12 25 13 26 14 12 15 11 16 10 17 9 18 8 19 7 20 6 21 5 22
REMARK SMILES IDX 4 23 3 24 2 25 1 26
REMARK H PARENT
REMARK Flexibility Score: inf
ROOT
ATOM      1  C   UNL     1      -0.603  -9.642   5.055  1.00  0.00     0.000 C 
ENDROOT
BRANCH   1   2
ATOM      2  C   UNL     1      -1.404 -10.766   4.382  1.00  0.00     0.000 C 
BRANCH   2   3
ATOM      3  C   UNL     1      -2.758 -10.975   5.077  1.00  0.00     0.000 C 
BRANCH   3   4
ATOM      4  C   UNL     1      -3.867 -10.075   4.491  1.00  0.00     0.000 C 
BRANCH   4   5
ATOM      5  C   UNL     1      -3.583  -9.588   3.057  1.00  0.00     0.000 C 
BRANCH   5   6
ATOM      6  C   UNL     1      -4.636  -9.993   2.010  1.00  0.00     0.000 C 
BRANCH   6   7
ATOM      7  C   UNL     1      -5.835  -9.031   1.874  1.00  0.00     0.000 C 
BRANCH   7   8
ATOM      8  C   UNL     1      -7.089  -9.428   2.675  1.00  0.00     0.000 C 
BRANCH   8   9
ATOM      9  C   UNL     1      -7.046  -8.942   4.134  1.00  0.00     0.000 C 
BRANCH   9  10
ATOM     10  C   UNL     1      -7.080  -7.409   4.245  1.00  0.00     0.006 C 
BRANCH  10  11
ATOM     11  C   UNL     1      -5.691  -6.769   4.099  1.00  0.00     0.053 C 
BRANCH  11  12
ATOM     12  C   UNL     1      -5.796  -5.284   3.929  1.00  0.00     0.041 C 
ATOM     13  O   UNL     1      -4.875  -4.643   3.356  1.00  0.00    -0.550 OA
ATOM     14  O   UNL     1      -6.898  -4.598   4.431  1.00  0.00    -0.550 OA
ENDBRANCH  11  12
ENDBRANCH  10  11
ENDBRANCH   9  10
ENDBRANCH   8   9
ENDBRANCH   7   8
ENDBRANCH   6   7
ENDBRANCH   5   6
ENDBRANCH   4   5
ENDBRANCH   3   4
ENDBRANCH   2   3
ENDBRANCH   1   2
BRANCH   1  15
ATOM     15  C   UNL     1      -0.688  -8.309   4.288  1.00  0.00     0.000 C 
BRANCH  15  16
ATOM     16  C   UNL     1      -1.249  -7.125   5.099  1.00  0.00     0.000 C 
BRANCH  16  17
ATOM     17  C   UNL     1      -0.407  -5.836   5.035  1.00  0.00     0.000 C 
BRANCH  17  18
ATOM     18  C   UNL     1       0.974  -6.027   4.369  1.00  0.00    -0.000 C 
BRANCH  18  19
ATOM     19  C   UNL     1       1.107  -5.365   2.982  1.00  0.00    -0.000 C 
BRANCH  19  20
ATOM     20  C   UNL     1       1.426  -6.332   1.824  1.00  0.00    -0.000 C 
BRANCH  20  21
ATOM     21  C   UNL     1       0.203  -6.951   1.116  1.00  0.00    -0.000 C 
BRANCH  21  22
ATOM     22  C   UNL     1      -0.004  -8.456   1.368  1.00  0.00    -0.000 C 
BRANCH  22  23
ATOM     23  C   UNL     1       1.153  -9.317   0.838  1.00  0.00    -0.000 C 
BRANCH  23  24
ATOM     24  C   UNL     1       0.883 -10.807   1.094  1.00  0.00    -0.000 C 
BRANCH  24  25
ATOM     25  C   UNL     1       0.696 -11.125   2.585  1.00  0.00    -0.003 C 
ATOM     26  C   UNL     1       2.016 -11.125   3.355  1.00  0.00     0.004 C 
ENDBRANCH  24  25
ENDBRANCH  23  24
ENDBRANCH  22  23
ENDBRANCH  21  22
ENDBRANCH  20  21
ENDBRANCH  19  20
ENDBRANCH  18  19
ENDBRANCH  17  18
ENDBRANCH  16  17
ENDBRANCH  15  16
ENDBRANCH   1  15
TORSDOF 22
ENDMDL
MODEL 2
REMARK VINA RESULT:     2.917      6.347      9.512
REMARK INTER + INTRA:           5.718
REMARK INTER:                   6.992
REMARK INTRA:                  -1.274
REMARK UNBOUND:                -0.952
REMARK SMILES CCCCCCCCCCCCCCCCCCCCCCCC(=O)[O-]
REMARK SMILES IDX 13 1 14 2 15 3 16 4 17 5 18 6 19 7 20 8 21 9 22 10 23 11
REMARK SMILES IDX 24 12 25 13 26 14 12 15 11 16 10 17 9 18 8 19 7 20 6 21 5 22
REMARK SMILES IDX 4 23 3 24 2 25 1 26
REMARK H PARENT
REMARK Flexibility Score: inf
ROOT
ATOM      1  C   UNL     1       0.795  -6.378   1.405  1.00  0.00     0.000 C 
ENDROOT
BRANCH   1   2
ATOM      2  C   UNL     1       0.829  -5.162   0.468  1.00  0.00     0.000 C 
BRANCH   2   3
ATOM      3  C   UNL     1       0.343  -5.534  -0.942  1.00  0.00     0.000 C 
BRANCH   3   4
ATOM      4  C   UNL     1      -0.426  -4.382  -1.624  1.00  0.00     0.000 C 
BRANCH   4   5
ATOM      5  C   UNL     1       0.466  -3.197  -2.040  1.00  0.00     0.000 C 
BRANCH   5   6
ATOM      6  C   UNL     1      -0.236  -2.117  -2.883  1.00  0.00     0.000 C 
BRANCH   6   7
ATOM      7  C   UNL     1       0.704  -1.188  -3.680  1.00  0.00     0.000 C 
BRANCH   7   8
ATOM      8  C   UNL     1       0.966  -1.613  -5.136  1.00  0.00     0.000 C 
BRANCH   8   9
ATOM      9  C   UNL     1       0.258  -0.709  -6.160  1.00  0.00     0.000 C 
BRANCH   9  10
ATOM     10  C   UNL     1       1.024   0.599  -6.421  1.00  0.00     0.006 C 
BRANCH  10  11
ATOM     11  C   UNL     1       0.093   1.793  -6.681  1.00  0.00     0.053 C 
BRANCH  11  12
ATOM     12  C   UNL     1       0.311   2.877  -5.669  1.00  0.00     0.041 C 
ATOM     13  O   UNL     1       1.433   3.007  -5.110  1.00  0.00    -0.550 OA
ATOM     14  O   UNL     1      -0.732   3.726  -5.317  1.00  0.00    -0.550 OA
ENDBRANCH  11  12
ENDBRANCH  10  11
ENDBRANCH   9  10
ENDBRANCH   8   9
ENDBRANCH   7   8
ENDBRANCH   6   7
ENDBRANCH   5   6
ENDBRANCH   4   5
ENDBRANCH   3   4
ENDBRANCH   2   3
ENDBRANCH   1   2
BRANCH   1  15
ATOM     15  C   UNL     1       1.224  -6.034   2.844  1.00  0.00     0.000 C 
BRANCH  15  16
ATOM     16  C   UNL     1       0.236  -6.473   3.941  1.00  0.00     0.000 C 
BRANCH  16  17
ATOM     17  C   UNL     1       0.792  -7.503   4.944  1.00  0.00     0.000 C 
BRANCH  17  18
ATOM     18  C   UNL     1       0.222  -8.927   4.753  1.00  0.00    -0.000 C 
BRANCH  18  19
ATOM     19  C   UNL     1      -0.485  -9.152   3.400  1.00  0.00    -0.000 C 
BRANCH  19  20
ATOM     20  C   UNL     1      -1.523 -10.292   3.387  1.00  0.00    -0.000 C 
BRANCH  20  21
ATOM     21  C   UNL     1      -2.958  -9.891   3.786  1.00  0.00    -0.000 C 
BRANCH  21  22
ATOM     22  C   UNL     1      -3.353  -8.445   3.437  1.00  0.00    -0.000 C 
BRANCH  22  23
ATOM     23  C   UNL     1      -4.231  -8.349   2.180  1.00  0.00    -0.000 C 
BRANCH  23  24
ATOM     24  C   UNL     1      -5.597  -7.731   2.516  1.00  0.00    -0.000 C 
BRANCH  24  25
ATOM     25  C   UNL     1      -5.597  -7.003   3.868  1.00  0.00    -0.003 C 
ATOM     26  C   UNL     1      -5.476  -5.487   3.719  1.00  0.00     0.004 C 
ENDBRANCH  24  25
ENDBRANCH  23  24
ENDBRANCH  22  23
ENDBRANCH  21  22
ENDBRANCH  20  21
ENDBRANCH  19  20
ENDBRANCH  18  19
ENDBRANCH  17  18
ENDBRANCH  16  17
ENDBRANCH  15  16
ENDBRANCH   1  15
TORSDOF 22
ENDMDL
MODEL 3
REMARK VINA RESULT:     3.089      6.179      9.355
REMARK INTER + INTRA:           6.110
REMARK INTER:                   7.210
REMARK INTRA:                  -1.100
REMARK UNBOUND:                -0.952
REMARK SMILES CCCCCCCCCCCCCCCCCCCCCCCC(=O)[O-]
REMARK SMILES IDX 13 1 14 2 15 3 16 4 17 5 18 6 19 7 20 8 21 9 22 10 23 11
REMARK SMILES IDX 24 12 25 13 26 14 12 15 11 16 10 17 9 18 8 19 7 20 6 21 5 22
REMARK SMILES IDX 4 23 3 24 2 25 1 26
REMARK H PARENT
REMARK Flexibility Score: inf
ROOT
ATOM      1  C   UNL     1       1.192  -6.165   2.583  1.00  0.00     0.000 C 
ENDROOT
BRANCH   1   2
ATOM      2  C   UNL     1       0.757  -6.277   1.115  1.00  0.00     0.000 C 
BRANCH   2   3
ATOM      3  C   UNL     1       0.750  -4.900   0.432  1.00  0.00     0.000 C 
BRANCH   3   4
ATOM      4  C   UNL     1       0.368  -4.984  -1.061  1.00  0.00     0.000 C 
BRANCH   4   5
ATOM      5  C   UNL     1      -0.112  -3.646  -1.658  1.00  0.00     0.000 C 
BRANCH   5   6
ATOM      6  C   UNL     1       0.957  -2.858  -2.436  1.00  0.00     0.000 C 
BRANCH   6   7
ATOM      7  C   UNL     1       0.414  -1.770  -3.385  1.00  0.00     0.000 C 
BRANCH   7   8
ATOM      8  C   UNL     1       1.064  -1.732  -4.780  1.00  0.00     0.000 C 
BRANCH   8   9
ATOM      9  C   UNL     1       0.320  -0.811  -5.763  1.00  0.00     0.000 C 
BRANCH   9  10
ATOM     10  C   UNL     1       1.067   0.509  -6.014  1.00  0.00     0.006 C 
BRANCH  10  11
ATOM     11  C   UNL     1       0.157   1.613  -6.573  1.00  0.00     0.053 C 
BRANCH  11  12
ATOM     12  C   UNL     1       0.171   2.822  -5.689  1.00  0.00     0.041 C 
ATOM     13  O   UNL     1       1.214   3.132  -5.052  1.00  0.00    -0.550 OA
ATOM     14  O   UNL     1      -0.977   3.594  -5.540  1.00  0.00    -0.550 OA
ENDBRANCH  11  12
ENDBRANCH  10  11
ENDBRANCH   9  10
ENDBRANCH   8   9
ENDBRANCH   7   8
ENDBRANCH   6   7
ENDBRANCH   5   6
ENDBRANCH   4   5
ENDBRANCH   3   4
ENDBRANCH   2   3
ENDBRANCH   1   2
BRANCH   1  15
ATOM     15  C   UNL     1       0.087  -6.597   3.566  1.00  0.00     0.000 C 
BRANCH  15  16
ATOM     16  C   UNL     1       0.584  -7.006   4.965  1.00  0.00     0.000 C 
BRANCH  16  17
ATOM     17  C   UNL     1       0.938  -8.498   5.120  1.00  0.00     0.000 C 
BRANCH  17  18
ATOM     18  C   UNL     1      -0.271  -9.445   4.944  1.00  0.00    -0.000 C 
BRANCH  18  19
ATOM     19  C   UNL     1      -0.185 -10.361   3.705  1.00  0.00    -0.000 C 
BRANCH  19  20
ATOM     20  C   UNL     1      -1.541 -10.736   3.075  1.00  0.00    -0.000 C 
BRANCH  20  21
ATOM     21  C   UNL     1      -2.586  -9.602   3.018  1.00  0.00    -0.000 C 
BRANCH  21  22
ATOM     22  C   UNL     1      -3.897  -9.959   2.293  1.00  0.00    -0.000 C 
BRANCH  22  23
ATOM     23  C   UNL     1      -5.135  -9.322   2.944  1.00  0.00    -0.000 C 
BRANCH  23  24
ATOM     24  C   UNL     1      -5.986  -8.594   1.893  1.00  0.00    -0.000 C 
BRANCH  24  25
ATOM     25  C   UNL     1      -5.597  -8.969   0.456  1.00  0.00    -0.003 C 
ATOM     26  C   UNL     1      -6.753  -8.799  -0.529  1.00  0.00     0.004 C 
ENDBRANCH  24  25
ENDBRANCH  23  24
ENDBRANCH  22  23
ENDBRANCH  21  22
ENDBRANCH  20  21
ENDBRANCH  19  20
ENDBRANCH  18  19
ENDBRANCH  17  18
ENDBRANCH  16  17
ENDBRANCH  15  16
ENDBRANCH   1  15
TORSDOF 22
ENDMDL
MODEL 4
REMARK VINA RESULT:     3.220      5.951      9.255
REMARK INTER + INTRA:           6.410
REMARK INTER:                   7.762
REMARK INTRA:                  -1.353
REMARK UNBOUND:                -0.952
REMARK SMILES CCCCCCCCCCCCCCCCCCCCCCCC(=O)[O-]
REMARK SMILES IDX 13 1 14 2 15 3 16 4 17 5 18 6 19 7 20 8 21 9 22 10 23 11
REMARK SMILES IDX 24 12 25 13 26 14 12 15 11 16 10 17 9 18 8 19 7 20 6 21 5 22
REMARK SMILES IDX 4 23 3 24 2 25 1 26
REMARK H PARENT
REMARK Flexibility Score: inf
ROOT
ATOM      1  C   UNL     1       1.095  -5.850   2.904  1.00  0.00     0.000 C 
ENDROOT
BRANCH   1   2
ATOM      2  C   UNL     1       0.974  -6.283   1.436  1.00  0.00     0.000 C 
BRANCH   2   3
ATOM      3  C   UNL     1       0.798  -5.067   0.513  1.00  0.00     0.000 C 
BRANCH   3   4
ATOM      4  C   UNL     1       0.295  -5.461  -0.892  1.00  0.00     0.000 C 
BRANCH   4   5
ATOM      5  C   UNL     1      -0.324  -4.292  -1.683  1.00  0.00     0.000 C 
BRANCH   5   6
ATOM      6  C   UNL     1       0.621  -3.104  -1.938  1.00  0.00     0.000 C 
BRANCH   6   7
ATOM      7  C   UNL     1       0.021  -1.950  -2.768  1.00  0.00     0.000 C 
BRANCH   7   8
ATOM      8  C   UNL     1       0.735  -1.661  -4.101  1.00  0.00     0.000 C 
BRANCH   8   9
ATOM      9  C   UNL     1       0.561  -0.206  -4.570  1.00  0.00     0.000 C 
BRANCH   9  10
ATOM     10  C   UNL     1       0.407  -0.093  -6.095  1.00  0.00     0.006 C 
BRANCH  10  11
ATOM     11  C   UNL     1       0.935   1.238  -6.651  1.00  0.00     0.053 C 
BRANCH  11  12
ATOM     12  C   UNL     1       0.528   2.387  -5.780  1.00  0.00     0.041 C 
ATOM     13  O   UNL     1       1.313   2.823  -4.895  1.00  0.00    -0.550 OA
ATOM     14  O   UNL     1      -0.733   2.958  -5.919  1.00  0.00    -0.550 OA
ENDBRANCH  11  12
ENDBRANCH  10  11
ENDBRANCH   9  10
ENDBRANCH   8   9
ENDBRANCH   7   8
ENDBRANCH   6   7
ENDBRANCH   5   6
ENDBRANCH   4   5
ENDBRANCH   3   4
ENDBRANCH   2   3
ENDBRANCH   1   2
BRANCH   1  15
ATOM     15  C   UNL     1       0.698  -6.966   3.889  1.00  0.00     0.000 C 
BRANCH  15  16
ATOM     16  C   UNL     1      -0.558  -6.676   4.732  1.00  0.00     0.000 C 
BRANCH  16  17
ATOM     17  C   UNL     1      -1.637  -7.776   4.693  1.00  0.00     0.000 C 
BRANCH  17  18
ATOM     18  C   UNL     1      -1.434  -8.806   3.559  1.00  0.00    -0.000 C 
BRANCH  18  19
ATOM     19  C   UNL     1      -1.885 -10.238   3.914  1.00  0.00    -0.000 C 
BRANCH  19  20
ATOM     20  C   UNL     1      -2.952 -10.838   2.976  1.00  0.00    -0.000 C 
BRANCH  20  21
ATOM     21  C   UNL     1      -4.363 -10.225   3.091  1.00  0.00    -0.000 C 
BRANCH  21  22
ATOM     22  C   UNL     1      -4.971  -9.733   1.765  1.00  0.00    -0.000 C 
BRANCH  22  23
ATOM     23  C   UNL     1      -5.170  -8.210   1.725  1.00  0.00    -0.000 C 
BRANCH  23  24
ATOM     24  C   UNL     1      -5.614  -7.683   3.098  1.00  0.00    -0.000 C 
BRANCH  24  25
ATOM     25  C   UNL     1      -4.743  -6.519   3.593  1.00  0.00    -0.003 C 
ATOM     26  C   UNL     1      -5.475  -5.179   3.551  1.00  0.00     0.004 C 
ENDBRANCH  24  25
ENDBRANCH  23  24
ENDBRANCH  22  23
ENDBRANCH  21  22
ENDBRANCH  20  21
ENDBRANCH  19  20
ENDBRANCH  18  19
ENDBRANCH  17  18
ENDBRANCH  16  17
ENDBRANCH  15  16
ENDBRANCH   1  15
TORSDOF 22
ENDMDL
MODEL 5
REMARK VINA RESULT:     3.224      6.274      8.601
REMARK INTER + INTRA:           6.419
REMARK INTER:                   7.491
REMARK INTRA:                  -1.072
REMARK UNBOUND:                -0.952
REMARK SMILES CCCCCCCCCCCCCCCCCCCCCCCC(=O)[O-]
REMARK SMILES IDX 13 1 14 2 15 3 16 4 17 5 18 6 19 7 20 8 21 9 22 10 23 11
REMARK SMILES IDX 24 12 25 13 26 14 12 15 11 16 10 17 9 18 8 19 7 20 6 21 5 22
REMARK SMILES IDX 4 23 3 24 2 25 1 26
REMARK H PARENT
REMARK Flexibility Score: inf
ROOT
ATOM      1  C   UNL     1       1.081  -5.280   1.188  1.00  0.00     0.000 C 
ENDROOT
BRANCH   1   2
ATOM      2  C   UNL     1       0.972  -6.343   2.290  1.00  0.00     0.000 C 
BRANCH   2   3
ATOM      3  C   UNL     1       0.756  -5.694   3.666  1.00  0.00     0.000 C 
BRANCH   3   4
ATOM      4  C   UNL     1      -0.042  -6.601   4.628  1.00  0.00     0.000 C 
BRANCH   4   5
ATOM      5  C   UNL     1       0.744  -7.831   5.122  1.00  0.00     0.000 C 
BRANCH   5   6
ATOM      6  C   UNL     1       0.223  -9.186   4.610  1.00  0.00     0.000 C 
BRANCH   6   7
ATOM      7  C   UNL     1      -0.939  -9.107   3.599  1.00  0.00     0.000 C 
BRANCH   7   8
ATOM      8  C   UNL     1      -1.492 -10.465   3.128  1.00  0.00     0.000 C 
BRANCH   8   9
ATOM      9  C   UNL     1      -2.898 -10.761   3.678  1.00  0.00     0.000 C 
BRANCH   9  10
ATOM     10  C   UNL     1      -3.928  -9.697   3.265  1.00  0.00     0.006 C 
BRANCH  10  11
ATOM     11  C   UNL     1      -4.570  -9.985   1.899  1.00  0.00     0.053 C 
BRANCH  11  12
ATOM     12  C   UNL     1      -5.351  -8.804   1.410  1.00  0.00     0.041 C 
ATOM     13  O   UNL     1      -5.953  -8.058   2.228  1.00  0.00    -0.550 OA
ATOM     14  O   UNL     1      -5.444  -8.541   0.047  1.00  0.00    -0.550 OA
ENDBRANCH  11  12
ENDBRANCH  10  11
ENDBRANCH   9  10
ENDBRANCH   8   9
ENDBRANCH   7   8
ENDBRANCH   6   7
ENDBRANCH   5   6
ENDBRANCH   4   5
ENDBRANCH   3   4
ENDBRANCH   2   3
ENDBRANCH   1   2
BRANCH   1  15
ATOM     15  C   UNL     1       0.633  -5.802  -0.190  1.00  0.00     0.000 C 
BRANCH  15  16
ATOM     16  C   UNL     1      -0.009  -4.745  -1.110  1.00  0.00     0.000 C 
BRANCH  16  17
ATOM     17  C   UNL     1       0.990  -3.885  -1.909  1.00  0.00     0.000 C 
BRANCH  17  18
ATOM     18  C   UNL     1       0.393  -2.556  -2.424  1.00  0.00    -0.000 C 
BRANCH  18  19
ATOM     19  C   UNL     1       1.103  -1.981  -3.667  1.00  0.00    -0.000 C 
BRANCH  19  20
ATOM     20  C   UNL     1       0.310  -0.901  -4.431  1.00  0.00    -0.000 C 
BRANCH  20  21
ATOM     21  C   UNL     1       0.773  -0.633  -5.878  1.00  0.00    -0.000 C 
BRANCH  21  22
ATOM     22  C   UNL     1       0.168   0.621  -6.535  1.00  0.00    -0.000 C 
BRANCH  22  23
ATOM     23  C   UNL     1       1.023   1.880  -6.326  1.00  0.00    -0.000 C 
BRANCH  23  24
ATOM     24  C   UNL     1       0.588   2.628  -5.057  1.00  0.00    -0.000 C 
BRANCH  24  25
ATOM     25  C   UNL     1      -0.151   3.938  -5.369  1.00  0.00    -0.003 C 
ATOM     26  C   UNL     1      -1.607   3.707  -5.774  1.00  0.00     0.004 C 
ENDBRANCH  24  25
ENDBRANCH  23  24
ENDBRANCH  22  23
ENDBRANCH  21  22
ENDBRANCH  20  21
ENDBRANCH  19  20
ENDBRANCH  18  19
ENDBRANCH  17  18
ENDBRANCH  16  17
ENDBRANCH  15  16
ENDBRANCH   1  15
TORSDOF 22
ENDMDL
MODEL 6
REMARK VINA RESULT:     3.347      5.426      7.515
REMARK INTER + INTRA:           6.700
REMARK INTER:                   8.156
REMARK INTRA:                  -1.456
REMARK UNBOUND:                -0.952
REMARK SMILES CCCCCCCCCCCCCCCCCCCCCCCC(=O)[O-]
REMARK SMILES IDX 13 1 14 2 15 3 16 4 17 5 18 6 19 7 20 8 21 9 22 10 23 11
REMARK SMILES IDX 24 12 25 13 26 14 12 15 11 16 10 17 9 18 8 19 7 20 6 21 5 22
REMARK SMILES IDX 4 23 3 24 2 25 1 26
REMARK H PARENT
REMARK Flexibility Score: inf
ROOT
ATOM      1  C   UNL     1       1.170  -5.879   2.946  1.00  0.00     0.000 C 
ENDROOT
BRANCH   1   2
ATOM      2  C   UNL     1       0.788  -6.945   3.984  1.00  0.00     0.000 C 
BRANCH   2   3
ATOM      3  C   UNL     1      -0.412  -6.491   4.829  1.00  0.00     0.000 C 
BRANCH   3   4
ATOM      4  C   UNL     1      -1.482  -7.593   4.975  1.00  0.00     0.000 C 
BRANCH   4   5
ATOM      5  C   UNL     1      -1.043  -8.965   4.428  1.00  0.00     0.000 C 
BRANCH   5   6
ATOM      6  C   UNL     1      -1.781  -9.428   3.159  1.00  0.00     0.000 C 
BRANCH   6   7
ATOM      7  C   UNL     1      -2.590 -10.734   3.305  1.00  0.00     0.000 C 
BRANCH   7   8
ATOM      8  C   UNL     1      -3.926 -10.597   4.059  1.00  0.00     0.000 C 
BRANCH   8   9
ATOM      9  C   UNL     1      -4.630  -9.256   3.790  1.00  0.00     0.000 C 
BRANCH   9  10
ATOM     10  C   UNL     1      -5.583  -9.322   2.585  1.00  0.00     0.006 C 
BRANCH  10  11
ATOM     11  C   UNL     1      -4.993  -8.679   1.321  1.00  0.00     0.053 C 
BRANCH  11  12
ATOM     12  C   UNL     1      -5.635  -9.233   0.085  1.00  0.00     0.041 C 
ATOM     13  O   UNL     1      -5.425 -10.427  -0.259  1.00  0.00    -0.550 OA
ATOM     14  O   UNL     1      -6.441  -8.423  -0.708  1.00  0.00    -0.550 OA
ENDBRANCH  11  12
ENDBRANCH  10  11
ENDBRANCH   9  10
ENDBRANCH   8   9
ENDBRANCH   7   8
ENDBRANCH   6   7
ENDBRANCH   5   6
ENDBRANCH   4   5
ENDBRANCH   3   4
ENDBRANCH   2   3
ENDBRANCH   1   2
BRANCH   1  15
ATOM     15  C   UNL     1       0.877  -6.322   1.501  1.00  0.00     0.000 C 
BRANCH  15  16
ATOM     16  C   UNL     1       0.832  -5.182   0.466  1.00  0.00     0.000 C 
BRANCH  16  17
ATOM     17  C   UNL     1       0.318  -5.588  -0.929  1.00  0.00     0.000 C 
BRANCH  17  18
ATOM     18  C   UNL     1      -0.474  -4.474  -1.649  1.00  0.00    -0.000 C 
BRANCH  18  19
ATOM     19  C   UNL     1       0.362  -3.224  -1.996  1.00  0.00    -0.000 C 
BRANCH  19  20
ATOM     20  C   UNL     1      -0.453  -2.004  -2.471  1.00  0.00    -0.000 C 
BRANCH  20  21
ATOM     21  C   UNL     1       0.299  -1.015  -3.386  1.00  0.00    -0.000 C 
BRANCH  21  22
ATOM     22  C   UNL     1       0.738   0.296  -2.709  1.00  0.00    -0.000 C 
BRANCH  22  23
ATOM     23  C   UNL     1      -0.087   1.511  -3.161  1.00  0.00    -0.000 C 
BRANCH  23  24
ATOM     24  C   UNL     1       0.802   2.532  -3.886  1.00  0.00    -0.000 C 
BRANCH  24  25
ATOM     25  C   UNL     1       0.324   2.819  -5.317  1.00  0.00    -0.003 C 
ATOM     26  C   UNL     1       0.842   1.794  -6.325  1.00  0.00     0.004 C 
ENDBRANCH  24  25
ENDBRANCH  23  24
ENDBRANCH  22  23
ENDBRANCH  21  22
ENDBRANCH  20  21
ENDBRANCH  19  20
ENDBRANCH  18  19
ENDBRANCH  17  18
ENDBRANCH  16  17
ENDBRANCH  15  16
ENDBRANCH   1  15
TORSDOF 22
ENDMDL
MODEL 7
REMARK VINA RESULT:     3.418      6.758      9.948
REMARK INTER + INTRA:           6.862
REMARK INTER:                   7.938
REMARK INTRA:                  -1.075
REMARK UNBOUND:                -0.952
REMARK SMILES CCCCCCCCCCCCCCCCCCCCCCCC(=O)[O-]
REMARK SMILES IDX 13 1 14 2 15 3 16 4 17 5 18 6 19 7 20 8 21 9 22 10 23 11
REMARK SMILES IDX 24 12 25 13 26 14 12 15 11 16 10 17 9 18 8 19 7 20 6 21 5 22
REMARK SMILES IDX 4 23 3 24 2 25 1 26
REMARK H PARENT
REMARK Flexibility Score: inf
ROOT
ATOM      1  C   UNL     1       0.887  -5.253   0.936  1.00  0.00     0.000 C 
ENDROOT
BRANCH   1   2
ATOM      2  C   UNL     1       0.420  -5.748  -0.440  1.00  0.00     0.000 C 
BRANCH   2   3
ATOM      3  C   UNL     1      -0.167  -4.598  -1.274  1.00  0.00     0.000 C 
BRANCH   3   4
ATOM      4  C   UNL     1       0.916  -3.827  -2.060  1.00  0.00     0.000 C 
BRANCH   4   5
ATOM      5  C   UNL     1       0.492  -2.404  -2.472  1.00  0.00     0.000 C 
BRANCH   5   6
ATOM      6  C   UNL     1       1.126  -1.888  -3.777  1.00  0.00     0.000 C 
BRANCH   6   7
ATOM      7  C   UNL     1       0.319  -0.801  -4.517  1.00  0.00     0.000 C 
BRANCH   7   8
ATOM      8  C   UNL     1       0.682  -0.612  -6.001  1.00  0.00     0.000 C 
BRANCH   8   9
ATOM      9  C   UNL     1       0.191   0.730  -6.571  1.00  0.00     0.000 C 
BRANCH   9  10
ATOM     10  C   UNL     1       1.104   1.905  -6.184  1.00  0.00     0.006 C 
BRANCH  10  11
ATOM     11  C   UNL     1       0.591   2.682  -4.963  1.00  0.00     0.053 C 
BRANCH  11  12
ATOM     12  C   UNL     1      -0.333   3.787  -5.376  1.00  0.00     0.041 C 
ATOM     13  O   UNL     1       0.044   4.988  -5.313  1.00  0.00    -0.550 OA
ATOM     14  O   UNL     1      -1.625   3.497  -5.802  1.00  0.00    -0.550 OA
ENDBRANCH  11  12
ENDBRANCH  10  11
ENDBRANCH   9  10
ENDBRANCH   8   9
ENDBRANCH   7   8
ENDBRANCH   6   7
ENDBRANCH   5   6
ENDBRANCH   4   5
ENDBRANCH   3   4
ENDBRANCH   2   3
ENDBRANCH   1   2
BRANCH   1  15
ATOM     15  C   UNL     1       1.103  -6.400   1.941  1.00  0.00     0.000 C 
BRANCH  15  16
ATOM     16  C   UNL     1       0.738  -6.066   3.399  1.00  0.00     0.000 C 
BRANCH  16  17
ATOM     17  C   UNL     1       0.622  -7.284   4.337  1.00  0.00     0.000 C 
BRANCH  17  18
ATOM     18  C   UNL     1      -0.827  -7.789   4.523  1.00  0.00    -0.000 C 
BRANCH  18  19
ATOM     19  C   UNL     1      -1.244  -8.898   3.534  1.00  0.00    -0.000 C 
BRANCH  19  20
ATOM     20  C   UNL     1      -2.763  -9.034   3.308  1.00  0.00    -0.000 C 
BRANCH  20  21
ATOM     21  C   UNL     1      -3.604  -7.789   3.660  1.00  0.00    -0.000 C 
BRANCH  21  22
ATOM     22  C   UNL     1      -5.122  -8.030   3.747  1.00  0.00    -0.000 C 
BRANCH  22  23
ATOM     23  C   UNL     1      -5.572  -9.298   3.005  1.00  0.00    -0.000 C 
BRANCH  23  24
ATOM     24  C   UNL     1      -6.882  -9.047   2.244  1.00  0.00    -0.000 C 
BRANCH  24  25
ATOM     25  C   UNL     1      -6.656  -8.812   0.743  1.00  0.00    -0.003 C 
ATOM     26  C   UNL     1      -5.560  -9.708   0.168  1.00  0.00     0.004 C 
ENDBRANCH  24  25
ENDBRANCH  23  24
ENDBRANCH  22  23
ENDBRANCH  21  22
ENDBRANCH  20  21
ENDBRANCH  19  20
ENDBRANCH  18  19
ENDBRANCH  17  18
ENDBRANCH  16  17
ENDBRANCH  15  16
ENDBRANCH   1  15
TORSDOF 22
ENDMDL
MODEL 8
REMARK VINA RESULT:     3.479      5.533      7.448
REMARK INTER + INTRA:           7.002
REMARK INTER:                   8.371
REMARK INTRA:                  -1.369
REMARK UNBOUND:                -0.952
REMARK SMILES CCCCCCCCCCCCCCCCCCCCCCCC(=O)[O-]
REMARK SMILES IDX 13 1 14 2 15 3 16 4 17 5 18 6 19 7 20 8 21 9 22 10 23 11
REMARK SMILES IDX 24 12 25 13 26 14 12 15 11 16 10 17 9 18 8 19 7 20 6 21 5 22
REMARK SMILES IDX 4 23 3 24 2 25 1 26
REMARK H PARENT
REMARK Flexibility Score: inf
ROOT
ATOM      1  C   UNL     1       1.144  -5.869   2.773  1.00  0.00     0.000 C 
ENDROOT
BRANCH   1   2
ATOM      2  C   UNL     1       0.703  -7.037   3.667  1.00  0.00     0.000 C 
BRANCH   2   3
ATOM      3  C   UNL     1      -0.281  -6.566   4.749  1.00  0.00     0.000 C 
BRANCH   3   4
ATOM      4  C   UNL     1      -1.573  -7.411   4.780  1.00  0.00     0.000 C 
BRANCH   4   5
ATOM      5  C   UNL     1      -1.473  -8.731   3.992  1.00  0.00     0.000 C 
BRANCH   5   6
ATOM      6  C   UNL     1      -2.539  -8.918   2.896  1.00  0.00     0.000 C 
BRANCH   6   7
ATOM      7  C   UNL     1      -3.221 -10.302   2.869  1.00  0.00     0.000 C 
BRANCH   7   8
ATOM      8  C   UNL     1      -4.759 -10.275   2.802  1.00  0.00     0.000 C 
BRANCH   8   9
ATOM      9  C   UNL     1      -5.296  -9.234   1.804  1.00  0.00     0.000 C 
BRANCH   9  10
ATOM     10  C   UNL     1      -6.475  -8.427   2.372  1.00  0.00     0.006 C 
BRANCH  10  11
ATOM     11  C   UNL     1      -6.230  -7.943   3.809  1.00  0.00     0.053 C 
BRANCH  11  12
ATOM     12  C   UNL     1      -5.900  -6.481   3.837  1.00  0.00     0.041 C 
ATOM     13  O   UNL     1      -6.806  -5.630   4.046  1.00  0.00    -0.550 OA
ATOM     14  O   UNL     1      -4.598  -6.052   3.600  1.00  0.00    -0.550 OA
ENDBRANCH  11  12
ENDBRANCH  10  11
ENDBRANCH   9  10
ENDBRANCH   8   9
ENDBRANCH   7   8
ENDBRANCH   6   7
ENDBRANCH   5   6
ENDBRANCH   4   5
ENDBRANCH   3   4
ENDBRANCH   2   3
ENDBRANCH   1   2
BRANCH   1  15
ATOM     15  C   UNL     1       0.779  -6.082   1.292  1.00  0.00     0.000 C 
BRANCH  15  16
ATOM     16  C   UNL     1       0.993  -4.856   0.385  1.00  0.00     0.000 C 
BRANCH  16  17
ATOM     17  C   UNL     1       0.171  -4.858  -0.919  1.00  0.00     0.000 C 
BRANCH  17  18
ATOM     18  C   UNL     1       0.892  -4.188  -2.110  1.00  0.00    -0.000 C 
BRANCH  18  19
ATOM     19  C   UNL     1       0.477  -2.723  -2.360  1.00  0.00    -0.000 C 
BRANCH  19  20
ATOM     20  C   UNL     1       1.156  -2.048  -3.569  1.00  0.00    -0.000 C 
BRANCH  20  21
ATOM     21  C   UNL     1       0.386  -0.866  -4.193  1.00  0.00    -0.000 C 
BRANCH  21  22
ATOM     22  C   UNL     1       0.515  -0.737  -5.722  1.00  0.00    -0.000 C 
BRANCH  22  23
ATOM     23  C   UNL     1       0.654   0.719  -6.192  1.00  0.00    -0.000 C 
BRANCH  23  24
ATOM     24  C   UNL     1       0.735   1.673  -4.990  1.00  0.00    -0.000 C 
BRANCH  24  25
ATOM     25  C   UNL     1       0.563   3.145  -5.394  1.00  0.00    -0.003 C 
ATOM     26  C   UNL     1      -0.884   3.494  -5.737  1.00  0.00     0.004 C 
ENDBRANCH  24  25
ENDBRANCH  23  24
ENDBRANCH  22  23
ENDBRANCH  21  22
ENDBRANCH  20  21
ENDBRANCH  19  20
ENDBRANCH  18  19
ENDBRANCH  17  18
ENDBRANCH  16  17
ENDBRANCH  15  16
ENDBRANCH   1  15
TORSDOF 22
ENDMDL
MODEL 9
REMARK VINA RESULT:     3.991      1.598      3.093
REMARK INTER + INTRA:           8.173
REMARK INTER:                   9.645
REMARK INTRA:                  -1.471
REMARK UNBOUND:                -0.952
REMARK SMILES CCCCCCCCCCCCCCCCCCCCCCCC(=O)[O-]
REMARK SMILES IDX 13 1 14 2 15 3 16 4 17 5 18 6 19 7 20 8 21 9 22 10 23 11
REMARK SMILES IDX 24 12 25 13 26 14 12 15 11 16 10 17 9 18 8 19 7 20 6 21 5 22
REMARK SMILES IDX 4 23 3 24 2 25 1 26
REMARK H PARENT
REMARK Flexibility Score: inf
ROOT
ATOM      1  C   UNL     1       0.135  -8.948   5.102  1.00  0.00     0.000 C 
ENDROOT
BRANCH   1   2
ATOM      2  C   UNL     1      -0.168 -10.257   4.357  1.00  0.00     0.000 C 
BRANCH   2   3
ATOM      3  C   UNL     1      -1.193 -11.106   5.125  1.00  0.00     0.000 C 
BRANCH   3   4
ATOM      4  C   UNL     1      -2.645 -10.819   4.686  1.00  0.00     0.000 C 
BRANCH   4   5
ATOM      5  C   UNL     1      -2.773 -10.349   3.223  1.00  0.00     0.000 C 
BRANCH   5   6
ATOM      6  C   UNL     1      -3.798 -11.125   2.376  1.00  0.00     0.000 C 
BRANCH   6   7
ATOM      7  C   UNL     1      -4.756 -10.253   1.538  1.00  0.00     0.000 C 
BRANCH   7   8
ATOM      8  C   UNL     1      -6.198 -10.167   2.069  1.00  0.00     0.000 C 
BRANCH   8   9
ATOM      9  C   UNL     1      -6.279 -10.273   3.602  1.00  0.00     0.000 C 
BRANCH   9  10
ATOM     10  C   UNL     1      -6.985  -9.065   4.240  1.00  0.00     0.006 C 
BRANCH  10  11
ATOM     11  C   UNL     1      -6.753  -7.760   3.464  1.00  0.00     0.053 C 
BRANCH  11  12
ATOM     12  C   UNL     1      -5.523  -7.054   3.950  1.00  0.00     0.041 C 
ATOM     13  O   UNL     1      -4.836  -7.547   4.885  1.00  0.00    -0.550 OA
ATOM     14  O   UNL     1      -5.150  -5.835   3.395  1.00  0.00    -0.550 OA
ENDBRANCH  11  12
ENDBRANCH  10  11
ENDBRANCH   9  10
ENDBRANCH   8   9
ENDBRANCH   7   8
ENDBRANCH   6   7
ENDBRANCH   5   6
ENDBRANCH   4   5
ENDBRANCH   3   4
ENDBRANCH   2   3
ENDBRANCH   1   2
BRANCH   1  15
ATOM     15  C   UNL     1      -0.327  -7.700   4.325  1.00  0.00     0.000 C 
BRANCH  15  16
ATOM     16  C   UNL     1      -1.661  -7.094   4.800  1.00  0.00     0.000 C 
BRANCH  16  17
ATOM     17  C   UNL     1      -1.818  -5.583   4.539  1.00  0.00     0.000 C 
BRANCH  17  18
ATOM     18  C   UNL     1      -0.653  -4.732   5.091  1.00  0.00    -0.000 C 
BRANCH  18  19
ATOM     19  C   UNL     1       0.735  -5.123   4.542  1.00  0.00    -0.000 C 
BRANCH  19  20
ATOM     20  C   UNL     1       1.120  -4.458   3.205  1.00  0.00    -0.000 C 
BRANCH  20  21
ATOM     21  C   UNL     1       1.754  -5.393   2.154  1.00  0.00    -0.000 C 
BRANCH  21  22
ATOM     22  C   UNL     1       0.821  -6.487   1.605  1.00  0.00    -0.000 C 
BRANCH  22  23
ATOM     23  C   UNL     1       0.543  -6.340   0.101  1.00  0.00    -0.000 C 
BRANCH  23  24
ATOM     24  C   UNL     1       0.705  -4.878  -0.342  1.00  0.00    -0.000 C 
BRANCH  24  25
ATOM     25  C   UNL     1       0.001  -4.585  -1.675  1.00  0.00    -0.003 C 
ATOM     26  C   UNL     1      -1.292  -5.382  -1.843  1.00  0.00     0.004 C 
ENDBRANCH  24  25
ENDBRANCH  23  24
ENDBRANCH  22  23
ENDBRANCH  21  22
ENDBRANCH  20  21
ENDBRANCH  19  20
ENDBRANCH  18  19
ENDBRANCH  17  18
ENDBRANCH  16  17
ENDBRANCH  15  16
ENDBRANCH   1  15
TORSDOF 22
ENDMDL
