MODEL 1
REMARK VINA RESULT:    -0.310      0.000      0.000
REMARK INTER + INTRA:          -0.040
REMARK INTER:                  -0.364
REMARK INTRA:                   0.325
REMARK UNBOUND:                 0.325
REMARK SMILES O=C([O-])C=Cc1ccc(O)c(O)c1
REMARK SMILES IDX 6 1 13 2 7 3 11 4 8 5 9 6 5 7 4 8 2 9 1 10 3 11 12 12 10 14
REMARK H PARENT 12 13 10 15
REMARK Flexibility Score: inf
ROOT
ATOM      1  C   UNL     1      26.885  28.609   2.331  1.00  0.00    -0.022 A 
ATOM      2  C   UNL     1      26.005  29.410   1.584  1.00  0.00     0.058 A 
ATOM      3  C   UNL     1      28.259  28.872   2.282  1.00  0.00     0.012 A 
ATOM      4  C   UNL     1      26.491  30.428   0.755  1.00  0.00     0.157 A 
ATOM      5  C   UNL     1      28.753  29.884   1.457  1.00  0.00     0.051 A 
ATOM      6  C   UNL     1      27.884  30.664   0.685  1.00  0.00     0.157 A 
ENDROOT
BRANCH   1   7
ATOM      7  C   UNL     1      26.381  27.567   3.249  1.00  0.00     0.010 C 
ATOM      8  C   UNL     1      26.096  26.300   2.907  1.00  0.00     0.025 C 
BRANCH   8   9
ATOM      9  C   UNL     1      26.401  25.668   1.608  1.00  0.00     0.064 C 
ATOM     10  O   UNL     1      27.133  26.235   0.755  1.00  0.00    -0.545 OA
ATOM     11  O   UNL     1      25.925  24.389   1.349  1.00  0.00    -0.545 OA
ENDBRANCH   8   9
ENDBRANCH   1   7
BRANCH   4  12
ATOM     12  O   UNL     1      25.561  31.178   0.030  1.00  0.00    -0.504 OA
ATOM     13  H   UNL     1      24.681  31.499   0.406  1.00  0.00     0.293 HD
ENDBRANCH   4  12
BRANCH   6  14
ATOM     14  O   UNL     1      28.443  31.655  -0.125  1.00  0.00    -0.504 OA
ATOM     15  H   UNL     1      28.938  31.468  -0.985  1.00  0.00     0.293 HD
ENDBRANCH   6  14
TORSDOF 4
ENDMDL
MODEL 2
REMARK VINA RESULT:     0.760      1.495      1.839
REMARK INTER + INTRA:           1.218
REMARK INTER:                   1.309
REMARK INTRA:                  -0.091
REMARK UNBOUND:                 0.325
REMARK SMILES O=C([O-])C=Cc1ccc(O)c(O)c1
REMARK SMILES IDX 6 1 13 2 7 3 11 4 8 5 9 6 5 7 4 8 2 9 1 10 3 11 12 12 10 14
REMARK H PARENT 12 13 10 15
REMARK Flexibility Score: inf
ROOT
ATOM      1  C   UNL     1      27.178  27.524   1.802  1.00  0.00    -0.022 A 
ATOM      2  C   UNL     1      26.352  28.446   2.466  1.00  0.00     0.058 A 
ATOM      3  C   UNL     1      27.717  27.862   0.555  1.00  0.00     0.012 A 
ATOM      4  C   UNL     1      26.022  29.671   1.873  1.00  0.00     0.157 A 
ATOM      5  C   UNL     1      27.392  29.080  -0.046  1.00  0.00     0.051 A 
ATOM      6  C   UNL     1      26.543  29.989   0.597  1.00  0.00     0.157 A 
ENDROOT
BRANCH   1   7
ATOM      7  C   UNL     1      27.575  26.252   2.440  1.00  0.00     0.010 C 
ATOM      8  C   UNL     1      26.925  25.083   2.318  1.00  0.00     0.025 C 
BRANCH   8   9
ATOM      9  C   UNL     1      25.808  24.810   1.392  1.00  0.00     0.064 C 
ATOM     10  O   UNL     1      24.766  25.518   1.389  1.00  0.00    -0.545 OA
ATOM     11  O   UNL     1      25.940  23.793   0.455  1.00  0.00    -0.545 OA
ENDBRANCH   8   9
ENDBRANCH   1   7
BRANCH   4  12
ATOM     12  O   UNL     1      25.186  30.535   2.584  1.00  0.00    -0.504 OA
ATOM     13  H   UNL     1      24.215  30.692   2.358  1.00  0.00     0.293 HD
ENDBRANCH   4  12
BRANCH   6  14
ATOM     14  O   UNL     1      26.252  31.186  -0.060  1.00  0.00    -0.504 OA
ATOM     15  H   UNL     1      26.300  31.305  -1.062  1.00  0.00     0.293 HD
ENDBRANCH   6  14
TORSDOF 4
ENDMDL
MODEL 3
REMARK VINA RESULT:     1.442      0.769      1.823
REMARK INTER + INTRA:           2.019
REMARK INTER:                   1.760
REMARK INTRA:                   0.259
REMARK UNBOUND:                 0.325
REMARK SMILES O=C([O-])C=Cc1ccc(O)c(O)c1
REMARK SMILES IDX 6 1 13 2 7 3 11 4 8 5 9 6 5 7 4 8 2 9 1 10 3 11 12 12 10 14
REMARK H PARENT 12 13 10 15
REMARK Flexibility Score: inf
ROOT
ATOM      1  C   UNL     1      26.909  28.648   2.501  1.00  0.00    -0.022 A 
ATOM      2  C   UNL     1      28.157  28.999   1.960  1.00  0.00     0.058 A 
ATOM      3  C   UNL     1      25.770  29.365   2.116  1.00  0.00     0.012 A 
ATOM      4  C   UNL     1      28.280  30.087   1.087  1.00  0.00     0.157 A 
ATOM      5  C   UNL     1      25.882  30.453   1.248  1.00  0.00     0.051 A 
ATOM      6  C   UNL     1      27.129  30.828   0.732  1.00  0.00     0.157 A 
ENDROOT
BRANCH   1   7
ATOM      7  C   UNL     1      26.759  27.470   3.381  1.00  0.00     0.010 C 
ATOM      8  C   UNL     1      26.429  26.233   2.975  1.00  0.00     0.025 C 
BRANCH   8   9
ATOM      9  C   UNL     1      26.333  25.781   1.573  1.00  0.00     0.064 C 
ATOM     10  O   UNL     1      26.981  26.347   0.653  1.00  0.00    -0.545 OA
ATOM     11  O   UNL     1      25.566  24.663   1.274  1.00  0.00    -0.545 OA
ENDBRANCH   8   9
ENDBRANCH   1   7
BRANCH   4  12
ATOM     12  O   UNL     1      29.553  30.389   0.597  1.00  0.00    -0.504 OA
ATOM     13  H   UNL     1      29.998  29.889  -0.159  1.00  0.00     0.293 HD
ENDBRANCH   4  12
BRANCH   6  14
ATOM     14  O   UNL     1      27.174  31.929  -0.125  1.00  0.00    -0.504 OA
ATOM     15  H   UNL     1      26.979  31.883  -1.115  1.00  0.00     0.293 HD
ENDBRANCH   6  14
TORSDOF 4
ENDMDL
MODEL 4
REMARK VINA RESULT:     2.058      1.300      4.848
REMARK INTER + INTRA:           2.744
REMARK INTER:                   2.604
REMARK INTRA:                   0.140
REMARK UNBOUND:                 0.325
REMARK SMILES O=C([O-])C=Cc1ccc(O)c(O)c1
REMARK SMILES IDX 6 1 13 2 7 3 11 4 8 5 9 6 5 7 4 8 2 9 1 10 3 11 12 12 10 14
REMARK H PARENT 12 13 10 15
REMARK Flexibility Score: inf
ROOT
ATOM      1  C   UNL     1      27.897  28.001   1.960  1.00  0.00    -0.022 A 
ATOM      2  C   UNL     1      27.132  27.384   2.964  1.00  0.00     0.058 A 
ATOM      3  C   UNL     1      27.856  27.492   0.657  1.00  0.00     0.012 A 
ATOM      4  C   UNL     1      26.376  26.239   2.686  1.00  0.00     0.157 A 
ATOM      5  C   UNL     1      27.106  26.350   0.371  1.00  0.00     0.051 A 
ATOM      6  C   UNL     1      26.368  25.711   1.374  1.00  0.00     0.157 A 
ENDROOT
BRANCH   1   7
ATOM      7  C   UNL     1      28.657  29.240   2.229  1.00  0.00     0.010 C 
ATOM      8  C   UNL     1      28.389  30.447   1.704  1.00  0.00     0.025 C 
BRANCH   8   9
ATOM      9  C   UNL     1      27.192  30.797   0.914  1.00  0.00     0.064 C 
ATOM     10  O   UNL     1      27.272  31.505  -0.124  1.00  0.00    -0.545 OA
ATOM     11  O   UNL     1      25.959  30.277   1.287  1.00  0.00    -0.545 OA
ENDBRANCH   8   9
ENDBRANCH   1   7
BRANCH   4  12
ATOM     12  O   UNL     1      25.649  25.668   3.734  1.00  0.00    -0.504 OA
ATOM     13  H   UNL     1      25.678  24.687   3.972  1.00  0.00     0.293 HD
ENDBRANCH   4  12
BRANCH   6  14
ATOM     14  O   UNL     1      25.645  24.568   1.024  1.00  0.00    -0.504 OA
ATOM     15  H   UNL     1      25.118  24.474   0.168  1.00  0.00     0.293 HD
ENDBRANCH   6  14
TORSDOF 4
ENDMDL
MODEL 5
REMARK VINA RESULT:     2.195      2.065      2.853
REMARK INTER + INTRA:           2.904
REMARK INTER:                   2.992
REMARK INTRA:                  -0.088
REMARK UNBOUND:                 0.325
REMARK SMILES O=C([O-])C=Cc1ccc(O)c(O)c1
REMARK SMILES IDX 6 1 13 2 7 3 11 4 8 5 9 6 5 7 4 8 2 9 1 10 3 11 12 12 10 14
REMARK H PARENT 12 13 10 15
REMARK Flexibility Score: inf
ROOT
ATOM      1  C   UNL     1      27.146  29.800  -0.099  1.00  0.00    -0.022 A 
ATOM      2  C   UNL     1      25.985  30.591  -0.099  1.00  0.00     0.058 A 
ATOM      3  C   UNL     1      28.399  30.423  -0.056  1.00  0.00     0.012 A 
ATOM      4  C   UNL     1      26.070  31.989  -0.111  1.00  0.00     0.157 A 
ATOM      5  C   UNL     1      28.494  31.816  -0.070  1.00  0.00     0.051 A 
ATOM      6  C   UNL     1      27.341  32.609  -0.103  1.00  0.00     0.157 A 
ENDROOT
BRANCH   1   7
ATOM      7  C   UNL     1      27.069  28.326  -0.033  1.00  0.00     0.010 C 
ATOM      8  C   UNL     1      27.139  27.592   1.090  1.00  0.00     0.025 C 
BRANCH   8   9
ATOM      9  C   UNL     1      27.124  28.121   2.468  1.00  0.00     0.064 C 
ATOM     10  O   UNL     1      26.221  27.803   3.286  1.00  0.00    -0.545 OA
ATOM     11  O   UNL     1      28.168  28.933   2.893  1.00  0.00    -0.545 OA
ENDBRANCH   8   9
ENDBRANCH   1   7
BRANCH   4  12
ATOM     12  O   UNL     1      24.876  32.713  -0.124  1.00  0.00    -0.504 OA
ATOM     13  H   UNL     1      24.547  33.272   0.650  1.00  0.00     0.293 HD
ENDBRANCH   4  12
BRANCH   6  14
ATOM     14  O   UNL     1      27.504  33.996  -0.123  1.00  0.00    -0.504 OA
ATOM     15  H   UNL     1      28.250  34.483   0.352  1.00  0.00     0.293 HD
ENDBRANCH   6  14
TORSDOF 4
ENDMDL
MODEL 6
REMARK VINA RESULT:     2.290      2.438      4.781
REMARK INTER + INTRA:           3.016
REMARK INTER:                   2.776
REMARK INTRA:                   0.240
REMARK UNBOUND:                 0.325
REMARK SMILES O=C([O-])C=Cc1ccc(O)c(O)c1
REMARK SMILES IDX 6 1 13 2 7 3 11 4 8 5 9 6 5 7 4 8 2 9 1 10 3 11 12 12 10 14
REMARK H PARENT 12 13 10 15
REMARK Flexibility Score: inf
ROOT
ATOM      1  C   UNL     1      27.241  28.519   2.028  1.00  0.00    -0.022 A 
ATOM      2  C   UNL     1      26.824  27.565   2.972  1.00  0.00     0.058 A 
ATOM      3  C   UNL     1      27.169  28.210   0.665  1.00  0.00     0.012 A 
ATOM      4  C   UNL     1      26.390  26.297   2.566  1.00  0.00     0.157 A 
ATOM      5  C   UNL     1      26.741  26.947   0.250  1.00  0.00     0.051 A 
ATOM      6  C   UNL     1      26.354  25.981   1.187  1.00  0.00     0.157 A 
ENDROOT
BRANCH   1   7
ATOM      7  C   UNL     1      27.650  29.877   2.441  1.00  0.00     0.010 C 
ATOM      8  C   UNL     1      28.773  30.181   3.111  1.00  0.00     0.025 C 
BRANCH   8   9
ATOM      9  C   UNL     1      29.884  29.253   3.399  1.00  0.00     0.064 C 
ATOM     10  O   UNL     1      30.589  29.370   4.436  1.00  0.00    -0.545 OA
ATOM     11  O   UNL     1      30.112  28.184   2.541  1.00  0.00    -0.545 OA
ENDBRANCH   8   9
ENDBRANCH   1   7
BRANCH   4  12
ATOM     12  O   UNL     1      26.001  25.393   3.557  1.00  0.00    -0.504 OA
ATOM     13  H   UNL     1      25.131  25.455   4.067  1.00  0.00     0.293 HD
ENDBRANCH   4  12
BRANCH   6  14
ATOM     14  O   UNL     1      25.943  24.736   0.708  1.00  0.00    -0.504 OA
ATOM     15  H   UNL     1      25.671  23.965   1.300  1.00  0.00     0.293 HD
ENDBRANCH   6  14
TORSDOF 4
ENDMDL
