MODEL 1
REMARK VINA RESULT:    21.192      0.000      0.000
REMARK INTER + INTRA:          52.099
REMARK INTER:                  53.403
REMARK INTRA:                  -1.305
REMARK UNBOUND:                -1.305
REMARK SMILES CCCCCCCCCCCCCCCCCCCCCCCCCCCC(=O)[O-]
REMARK SMILES IDX 15 1 16 2 17 3 18 4 19 5 20 6 21 7 22 8 23 9 24 10 25 11
REMARK SMILES IDX 26 12 27 13 28 14 29 15 30 16 14 17 13 18 12 19 11 20 10 21
REMARK SMILES IDX 9 22 8 23 7 24 6 25 5 26 4 27 3 28 2 29 1 30
REMARK H PARENT
REMARK Flexibility Score: inf
ROOT
ATOM      1  C   UNL     1      13.775  12.889  18.038  1.00  0.00     0.000 C 
ENDROOT
BRANCH   1   2
ATOM      2  C   UNL     1      13.825  11.651  17.128  1.00  0.00     0.000 C 
BRANCH   2   3
ATOM      3  C   UNL     1      14.949  11.738  16.083  1.00  0.00     0.000 C 
BRANCH   3   4
ATOM      4  C   UNL     1      15.978  10.603  16.228  1.00  0.00     0.000 C 
BRANCH   4   5
ATOM      5  C   UNL     1      16.509  10.111  14.872  1.00  0.00     0.000 C 
BRANCH   5   6
ATOM      6  C   UNL     1      15.748   8.880  14.346  1.00  0.00     0.000 C 
BRANCH   6   7
ATOM      7  C   UNL     1      15.902   8.691  12.829  1.00  0.00     0.000 C 
BRANCH   7   8
ATOM      8  C   UNL     1      16.766   9.786  12.179  1.00  0.00     0.000 C 
BRANCH   8   9
ATOM      9  C   UNL     1      17.114   9.461  10.711  1.00  0.00     0.000 C 
BRANCH   9  10
ATOM     10  C   UNL     1      16.145  10.085   9.691  1.00  0.00     0.000 C 
BRANCH  10  11
ATOM     11  C   UNL     1      16.543  11.515   9.287  1.00  0.00     0.000 C 
BRANCH  11  12
ATOM     12  C   UNL     1      15.376  12.509   9.407  1.00  0.00     0.006 C 
BRANCH  12  13
ATOM     13  C   UNL     1      15.827  13.968   9.259  1.00  0.00     0.053 C 
BRANCH  13  14
ATOM     14  C   UNL     1      17.029  14.232  10.111  1.00  0.00     0.041 C 
ATOM     15  O   UNL     1      18.134  14.515   9.578  1.00  0.00    -0.550 OA
ATOM     16  O   UNL     1      16.918  14.210  11.496  1.00  0.00    -0.550 OA
ENDBRANCH  13  14
ENDBRANCH  12  13
ENDBRANCH  11  12
ENDBRANCH  10  11
ENDBRANCH   9  10
ENDBRANCH   8   9
ENDBRANCH   7   8
ENDBRANCH   6   7
ENDBRANCH   5   6
ENDBRANCH   4   5
ENDBRANCH   3   4
ENDBRANCH   2   3
ENDBRANCH   1   2
BRANCH   1  17
ATOM     17  C   UNL     1      14.607  14.063  17.494  1.00  0.00     0.000 C 
BRANCH  17  18
ATOM     18  C   UNL     1      13.801  15.023  16.593  1.00  0.00     0.000 C 
BRANCH  18  19
ATOM     19  C   UNL     1      13.978  16.494  17.013  1.00  0.00     0.000 C 
BRANCH  19  20
ATOM     20  C   UNL     1      13.063  17.452  16.219  1.00  0.00     0.000 C 
BRANCH  20  21
ATOM     21  C   UNL     1      13.818  18.405  15.271  1.00  0.00     0.000 C 
BRANCH  21  22
ATOM     22  C   UNL     1      14.425  19.651  15.941  1.00  0.00    -0.000 C 
BRANCH  22  23
ATOM     23  C   UNL     1      14.695  20.828  14.983  1.00  0.00    -0.000 C 
BRANCH  23  24
ATOM     24  C   UNL     1      16.166  21.304  14.982  1.00  0.00    -0.000 C 
BRANCH  24  25
ATOM     25  C   UNL     1      16.512  22.272  16.133  1.00  0.00    -0.000 C 
BRANCH  25  26
ATOM     26  C   UNL     1      15.901  21.872  17.487  1.00  0.00    -0.000 C 
BRANCH  26  27
ATOM     27  C   UNL     1      16.961  21.490  18.533  1.00  0.00    -0.000 C 
BRANCH  27  28
ATOM     28  C   UNL     1      16.342  20.952  19.833  1.00  0.00    -0.000 C 
BRANCH  28  29
ATOM     29  C   UNL     1      16.777  19.512  20.140  1.00  0.00    -0.003 C 
ATOM     30  C   UNL     1      16.618  18.618  18.912  1.00  0.00     0.004 C 
ENDBRANCH  28  29
ENDBRANCH  27  28
ENDBRANCH  26  27
ENDBRANCH  25  26
ENDBRANCH  24  25
ENDBRANCH  23  24
ENDBRANCH  22  23
ENDBRANCH  21  22
ENDBRANCH  20  21
ENDBRANCH  19  20
ENDBRANCH  18  19
ENDBRANCH  17  18
ENDBRANCH   1  17
TORSDOF 26
ENDMDL
MODEL 2
REMARK VINA RESULT:    21.715      0.726      2.882
REMARK INTER + INTRA:          53.415
REMARK INTER:                  54.400
REMARK INTRA:                  -0.985
REMARK UNBOUND:                -1.305
REMARK SMILES CCCCCCCCCCCCCCCCCCCCCCCCCCCC(=O)[O-]
REMARK SMILES IDX 15 1 16 2 17 3 18 4 19 5 20 6 21 7 22 8 23 9 24 10 25 11
REMARK SMILES IDX 26 12 27 13 28 14 29 15 30 16 14 17 13 18 12 19 11 20 10 21
REMARK SMILES IDX 9 22 8 23 7 24 6 25 5 26 4 27 3 28 2 29 1 30
REMARK H PARENT
REMARK Flexibility Score: inf
ROOT
ATOM      1  C   UNL     1      14.142  14.254  16.750  1.00  0.00     0.000 C 
ENDROOT
BRANCH   1   2
ATOM      2  C   UNL     1      13.341  13.106  17.383  1.00  0.00     0.000 C 
BRANCH   2   3
ATOM      3  C   UNL     1      13.979  11.732  17.121  1.00  0.00     0.000 C 
BRANCH   3   4
ATOM      4  C   UNL     1      15.158  11.807  16.136  1.00  0.00     0.000 C 
BRANCH   4   5
ATOM      5  C   UNL     1      15.936  10.484  16.044  1.00  0.00     0.000 C 
BRANCH   5   6
ATOM      6  C   UNL     1      16.397  10.162  14.611  1.00  0.00     0.000 C 
BRANCH   6   7
ATOM      7  C   UNL     1      15.896   8.794  14.121  1.00  0.00     0.000 C 
BRANCH   7   8
ATOM      8  C   UNL     1      15.946   8.658  12.589  1.00  0.00     0.000 C 
BRANCH   8   9
ATOM      9  C   UNL     1      16.844   9.730  11.936  1.00  0.00     0.000 C 
BRANCH   9  10
ATOM     10  C   UNL     1      16.634   9.875  10.418  1.00  0.00     0.000 C 
BRANCH  10  11
ATOM     11  C   UNL     1      16.984  11.281   9.899  1.00  0.00     0.000 C 
BRANCH  11  12
ATOM     12  C   UNL     1      15.739  12.085   9.491  1.00  0.00     0.006 C 
BRANCH  12  13
ATOM     13  C   UNL     1      16.053  13.565   9.233  1.00  0.00     0.053 C 
BRANCH  13  14
ATOM     14  C   UNL     1      17.051  14.069  10.228  1.00  0.00     0.041 C 
ATOM     15  O   UNL     1      16.720  14.229  11.432  1.00  0.00    -0.550 OA
ATOM     16  O   UNL     1      18.360  14.318   9.835  1.00  0.00    -0.550 OA
ENDBRANCH  13  14
ENDBRANCH  12  13
ENDBRANCH  11  12
ENDBRANCH  10  11
ENDBRANCH   9  10
ENDBRANCH   8   9
ENDBRANCH   7   8
ENDBRANCH   6   7
ENDBRANCH   5   6
ENDBRANCH   4   5
ENDBRANCH   3   4
ENDBRANCH   2   3
ENDBRANCH   1   2
BRANCH   1  17
ATOM     17  C   UNL     1      14.897  15.099  17.790  1.00  0.00     0.000 C 
BRANCH  17  18
ATOM     18  C   UNL     1      14.600  16.611  17.688  1.00  0.00     0.000 C 
BRANCH  18  19
ATOM     19  C   UNL     1      15.853  17.465  17.955  1.00  0.00     0.000 C 
BRANCH  19  20
ATOM     20  C   UNL     1      15.855  18.090  19.367  1.00  0.00     0.000 C 
BRANCH  20  21
ATOM     21  C   UNL     1      17.083  18.974  19.664  1.00  0.00     0.000 C 
BRANCH  21  22
ATOM     22  C   UNL     1      16.767  20.435  20.032  1.00  0.00    -0.000 C 
BRANCH  22  23
ATOM     23  C   UNL     1      16.711  21.402  18.833  1.00  0.00    -0.000 C 
BRANCH  23  24
ATOM     24  C   UNL     1      15.293  21.942  18.536  1.00  0.00    -0.000 C 
BRANCH  24  25
ATOM     25  C   UNL     1      15.088  22.389  17.073  1.00  0.00    -0.000 C 
BRANCH  25  26
ATOM     26  C   UNL     1      16.099  21.776  16.087  1.00  0.00    -0.000 C 
BRANCH  26  27
ATOM     27  C   UNL     1      15.433  20.895  15.018  1.00  0.00    -0.000 C 
BRANCH  27  28
ATOM     28  C   UNL     1      14.144  20.227  15.520  1.00  0.00    -0.000 C 
BRANCH  28  29
ATOM     29  C   UNL     1      13.913  18.844  14.895  1.00  0.00    -0.003 C 
ATOM     30  C   UNL     1      13.148  17.932  15.851  1.00  0.00     0.004 C 
ENDBRANCH  28  29
ENDBRANCH  27  28
ENDBRANCH  26  27
ENDBRANCH  25  26
ENDBRANCH  24  25
ENDBRANCH  23  24
ENDBRANCH  22  23
ENDBRANCH  21  22
ENDBRANCH  20  21
ENDBRANCH  19  20
ENDBRANCH  18  19
ENDBRANCH  17  18
ENDBRANCH   1  17
TORSDOF 26
ENDMDL
MODEL 3
REMARK VINA RESULT:    21.900      0.922      2.470
REMARK INTER + INTRA:          53.883
REMARK INTER:                  54.474
REMARK INTRA:                  -0.590
REMARK UNBOUND:                -1.305
REMARK SMILES CCCCCCCCCCCCCCCCCCCCCCCCCCCC(=O)[O-]
REMARK SMILES IDX 15 1 16 2 17 3 18 4 19 5 20 6 21 7 22 8 23 9 24 10 25 11
REMARK SMILES IDX 26 12 27 13 28 14 29 15 30 16 14 17 13 18 12 19 11 20 10 21
REMARK SMILES IDX 9 22 8 23 7 24 6 25 5 26 4 27 3 28 2 29 1 30
REMARK H PARENT
REMARK Flexibility Score: inf
ROOT
ATOM      1  C   UNL     1      12.822  12.221  17.902  1.00  0.00     0.000 C 
ENDROOT
BRANCH   1   2
ATOM      2  C   UNL     1      13.371  11.169  16.926  1.00  0.00     0.000 C 
BRANCH   2   3
ATOM      3  C   UNL     1      14.903  11.218  16.812  1.00  0.00     0.000 C 
BRANCH   3   4
ATOM      4  C   UNL     1      15.387  11.202  15.352  1.00  0.00     0.000 C 
BRANCH   4   5
ATOM      5  C   UNL     1      16.532  10.203  15.121  1.00  0.00     0.000 C 
BRANCH   5   6
ATOM      6  C   UNL     1      16.044   8.856  14.558  1.00  0.00     0.000 C 
BRANCH   6   7
ATOM      7  C   UNL     1      15.837   8.890  13.035  1.00  0.00     0.000 C 
BRANCH   7   8
ATOM      8  C   UNL     1      16.687   9.971  12.345  1.00  0.00     0.000 C 
BRANCH   8   9
ATOM      9  C   UNL     1      17.229   9.502  10.977  1.00  0.00     0.000 C 
BRANCH   9  10
ATOM     10  C   UNL     1      16.467  10.087   9.775  1.00  0.00     0.000 C 
BRANCH  10  11
ATOM     11  C   UNL     1      16.743  11.586   9.565  1.00  0.00     0.000 C 
BRANCH  11  12
ATOM     12  C   UNL     1      15.452  12.409   9.423  1.00  0.00     0.006 C 
BRANCH  12  13
ATOM     13  C   UNL     1      15.711  13.921   9.456  1.00  0.00     0.053 C 
BRANCH  13  14
ATOM     14  C   UNL     1      17.032  14.211  10.096  1.00  0.00     0.041 C 
ATOM     15  O   UNL     1      17.186  14.047  11.335  1.00  0.00    -0.550 OA
ATOM     16  O   UNL     1      18.108  14.619   9.317  1.00  0.00    -0.550 OA
ENDBRANCH  13  14
ENDBRANCH  12  13
ENDBRANCH  11  12
ENDBRANCH  10  11
ENDBRANCH   9  10
ENDBRANCH   8   9
ENDBRANCH   7   8
ENDBRANCH   6   7
ENDBRANCH   5   6
ENDBRANCH   4   5
ENDBRANCH   3   4
ENDBRANCH   2   3
ENDBRANCH   1   2
BRANCH   1  17
ATOM     17  C   UNL     1      13.876  13.266  18.307  1.00  0.00     0.000 C 
BRANCH  17  18
ATOM     18  C   UNL     1      14.497  14.012  17.107  1.00  0.00     0.000 C 
BRANCH  18  19
ATOM     19  C   UNL     1      13.633  15.205  16.658  1.00  0.00     0.000 C 
BRANCH  19  20
ATOM     20  C   UNL     1      14.208  16.561  17.121  1.00  0.00     0.000 C 
BRANCH  20  21
ATOM     21  C   UNL     1      15.181  16.459  18.314  1.00  0.00     0.000 C 
BRANCH  21  22
ATOM     22  C   UNL     1      16.303  17.512  18.337  1.00  0.00    -0.000 C 
BRANCH  22  23
ATOM     23  C   UNL     1      15.918  18.847  19.003  1.00  0.00    -0.000 C 
BRANCH  23  24
ATOM     24  C   UNL     1      17.132  19.721  19.393  1.00  0.00    -0.000 C 
BRANCH  24  25
ATOM     25  C   UNL     1      16.804  21.222  19.536  1.00  0.00    -0.000 C 
BRANCH  25  26
ATOM     26  C   UNL     1      15.345  21.575  19.194  1.00  0.00    -0.000 C 
BRANCH  26  27
ATOM     27  C   UNL     1      15.214  22.388  17.896  1.00  0.00    -0.000 C 
BRANCH  27  28
ATOM     28  C   UNL     1      15.131  21.499  16.646  1.00  0.00    -0.000 C 
BRANCH  28  29
ATOM     29  C   UNL     1      16.185  21.865  15.591  1.00  0.00    -0.003 C 
ATOM     30  C   UNL     1      16.011  21.022  14.330  1.00  0.00     0.004 C 
ENDBRANCH  28  29
ENDBRANCH  27  28
ENDBRANCH  26  27
ENDBRANCH  25  26
ENDBRANCH  24  25
ENDBRANCH  23  24
ENDBRANCH  22  23
ENDBRANCH  21  22
ENDBRANCH  20  21
ENDBRANCH  19  20
ENDBRANCH  18  19
ENDBRANCH  17  18
ENDBRANCH   1  17
TORSDOF 26
ENDMDL
MODEL 4
REMARK VINA RESULT:    22.060      2.262     10.163
REMARK INTER + INTRA:          54.285
REMARK INTER:                  55.649
REMARK INTRA:                  -1.363
REMARK UNBOUND:                -1.305
REMARK SMILES CCCCCCCCCCCCCCCCCCCCCCCCCCCC(=O)[O-]
REMARK SMILES IDX 15 1 16 2 17 3 18 4 19 5 20 6 21 7 22 8 23 9 24 10 25 11
REMARK SMILES IDX 26 12 27 13 28 14 29 15 30 16 14 17 13 18 12 19 11 20 10 21
REMARK SMILES IDX 9 22 8 23 7 24 6 25 5 26 4 27 3 28 2 29 1 30
REMARK H PARENT
REMARK Flexibility Score: inf
ROOT
ATOM      1  C   UNL     1      13.154  12.969  17.520  1.00  0.00     0.000 C 
ENDROOT
BRANCH   1   2
ATOM      2  C   UNL     1      13.584  13.911  16.385  1.00  0.00     0.000 C 
BRANCH   2   3
ATOM      3  C   UNL     1      13.753  15.363  16.860  1.00  0.00     0.000 C 
BRANCH   3   4
ATOM      4  C   UNL     1      14.995  15.554  17.748  1.00  0.00     0.000 C 
BRANCH   4   5
ATOM      5  C   UNL     1      15.185  17.013  18.192  1.00  0.00     0.000 C 
BRANCH   5   6
ATOM      6  C   UNL     1      16.662  17.450  18.187  1.00  0.00     0.000 C 
BRANCH   6   7
ATOM      7  C   UNL     1      17.049  18.242  19.445  1.00  0.00     0.000 C 
BRANCH   7   8
ATOM      8  C   UNL     1      16.173  19.490  19.654  1.00  0.00     0.000 C 
BRANCH   8   9
ATOM      9  C   UNL     1      17.015  20.763  19.886  1.00  0.00     0.000 C 
BRANCH   9  10
ATOM     10  C   UNL     1      17.037  21.720  18.681  1.00  0.00     0.000 C 
BRANCH  10  11
ATOM     11  C   UNL     1      15.777  21.603  17.804  1.00  0.00     0.000 C 
BRANCH  11  12
ATOM     12  C   UNL     1      15.835  22.512  16.566  1.00  0.00     0.006 C 
BRANCH  12  13
ATOM     13  C   UNL     1      16.715  21.932  15.450  1.00  0.00     0.053 C 
BRANCH  13  14
ATOM     14  C   UNL     1      15.880  21.167  14.471  1.00  0.00     0.041 C 
ATOM     15  O   UNL     1      15.150  20.220  14.866  1.00  0.00    -0.550 OA
ATOM     16  O   UNL     1      15.875  21.528  13.130  1.00  0.00    -0.550 OA
ENDBRANCH  13  14
ENDBRANCH  12  13
ENDBRANCH  11  12
ENDBRANCH  10  11
ENDBRANCH   9  10
ENDBRANCH   8   9
ENDBRANCH   7   8
ENDBRANCH   6   7
ENDBRANCH   5   6
ENDBRANCH   4   5
ENDBRANCH   3   4
ENDBRANCH   2   3
ENDBRANCH   1   2
BRANCH   1  17
ATOM     17  C   UNL     1      13.702  11.542  17.351  1.00  0.00     0.000 C 
BRANCH  17  18
ATOM     18  C   UNL     1      15.187  11.498  16.929  1.00  0.00     0.000 C 
BRANCH  18  19
ATOM     19  C   UNL     1      15.358  11.071  15.460  1.00  0.00     0.000 C 
BRANCH  19  20
ATOM     20  C   UNL     1      16.522  10.076  15.263  1.00  0.00     0.000 C 
BRANCH  20  21
ATOM     21  C   UNL     1      16.128   8.783  14.521  1.00  0.00     0.000 C 
BRANCH  21  22
ATOM     22  C   UNL     1      15.804   8.956  13.027  1.00  0.00    -0.000 C 
BRANCH  22  23
ATOM     23  C   UNL     1      16.846   9.769  12.234  1.00  0.00    -0.000 C 
BRANCH  23  24
ATOM     24  C   UNL     1      17.012   9.305  10.768  1.00  0.00    -0.000 C 
BRANCH  24  25
ATOM     25  C   UNL     1      16.109  10.057   9.767  1.00  0.00    -0.000 C 
BRANCH  25  26
ATOM     26  C   UNL     1      16.571  11.496   9.472  1.00  0.00    -0.000 C 
BRANCH  26  27
ATOM     27  C   UNL     1      15.408  12.441   9.131  1.00  0.00    -0.000 C 
BRANCH  27  28
ATOM     28  C   UNL     1      15.661  13.883   9.597  1.00  0.00    -0.000 C 
BRANCH  28  29
ATOM     29  C   UNL     1      16.882  13.999  10.520  1.00  0.00    -0.003 C 
ATOM     30  C   UNL     1      18.117  14.443   9.740  1.00  0.00     0.004 C 
ENDBRANCH  28  29
ENDBRANCH  27  28
ENDBRANCH  26  27
ENDBRANCH  25  26
ENDBRANCH  24  25
ENDBRANCH  23  24
ENDBRANCH  22  23
ENDBRANCH  21  22
ENDBRANCH  20  21
ENDBRANCH  19  20
ENDBRANCH  18  19
ENDBRANCH  17  18
ENDBRANCH   1  17
TORSDOF 26
ENDMDL
MODEL 5
REMARK VINA RESULT:    22.318      2.847     10.471
REMARK INTER + INTRA:          54.936
REMARK INTER:                  56.422
REMARK INTRA:                  -1.487
REMARK UNBOUND:                -1.305
REMARK SMILES CCCCCCCCCCCCCCCCCCCCCCCCCCCC(=O)[O-]
REMARK SMILES IDX 15 1 16 2 17 3 18 4 19 5 20 6 21 7 22 8 23 9 24 10 25 11
REMARK SMILES IDX 26 12 27 13 28 14 29 15 30 16 14 17 13 18 12 19 11 20 10 21
REMARK SMILES IDX 9 22 8 23 7 24 6 25 5 26 4 27 3 28 2 29 1 30
REMARK H PARENT
REMARK Flexibility Score: inf
ROOT
ATOM      1  C   UNL     1      13.845  13.896  16.787  1.00  0.00     0.000 C 
ENDROOT
BRANCH   1   2
ATOM      2  C   UNL     1      14.579  14.909  17.680  1.00  0.00     0.000 C 
BRANCH   2   3
ATOM      3  C   UNL     1      14.419  16.354  17.179  1.00  0.00     0.000 C 
BRANCH   3   4
ATOM      4  C   UNL     1      13.121  16.561  16.380  1.00  0.00     0.000 C 
BRANCH   4   5
ATOM      5  C   UNL     1      13.178  17.802  15.473  1.00  0.00     0.000 C 
BRANCH   5   6
ATOM      6  C   UNL     1      14.249  18.815  15.916  1.00  0.00     0.000 C 
BRANCH   6   7
ATOM      7  C   UNL     1      14.203  20.119  15.105  1.00  0.00     0.000 C 
BRANCH   7   8
ATOM      8  C   UNL     1      15.600  20.601  14.674  1.00  0.00     0.000 C 
BRANCH   8   9
ATOM      9  C   UNL     1      16.100  21.783  15.532  1.00  0.00     0.000 C 
BRANCH   9  10
ATOM     10  C   UNL     1      15.046  22.329  16.511  1.00  0.00     0.000 C 
BRANCH  10  11
ATOM     11  C   UNL     1      15.556  22.395  17.961  1.00  0.00     0.000 C 
BRANCH  11  12
ATOM     12  C   UNL     1      16.435  21.190  18.332  1.00  0.00     0.006 C 
BRANCH  12  13
ATOM     13  C   UNL     1      16.791  21.158  19.825  1.00  0.00     0.053 C 
BRANCH  13  14
ATOM     14  C   UNL     1      16.548  19.794  20.390  1.00  0.00     0.041 C 
ATOM     15  O   UNL     1      17.311  18.839  20.090  1.00  0.00    -0.550 OA
ATOM     16  O   UNL     1      15.505  19.587  21.285  1.00  0.00    -0.550 OA
ENDBRANCH  13  14
ENDBRANCH  12  13
ENDBRANCH  11  12
ENDBRANCH  10  11
ENDBRANCH   9  10
ENDBRANCH   8   9
ENDBRANCH   7   8
ENDBRANCH   6   7
ENDBRANCH   5   6
ENDBRANCH   4   5
ENDBRANCH   3   4
ENDBRANCH   2   3
ENDBRANCH   1   2
BRANCH   1  17
ATOM     17  C   UNL     1      13.299  12.693  17.575  1.00  0.00     0.000 C 
BRANCH  17  18
ATOM     18  C   UNL     1      13.843  11.335  17.081  1.00  0.00     0.000 C 
BRANCH  18  19
ATOM     19  C   UNL     1      15.332  11.414  16.695  1.00  0.00     0.000 C 
BRANCH  19  20
ATOM     20  C   UNL     1      15.582  11.034  15.219  1.00  0.00     0.000 C 
BRANCH  20  21
ATOM     21  C   UNL     1      16.433   9.761  15.032  1.00  0.00     0.000 C 
BRANCH  21  22
ATOM     22  C   UNL     1      15.785   8.658  14.177  1.00  0.00    -0.000 C 
BRANCH  22  23
ATOM     23  C   UNL     1      15.753   8.953  12.664  1.00  0.00    -0.000 C 
BRANCH  23  24
ATOM     24  C   UNL     1      17.027   9.655  12.140  1.00  0.00    -0.000 C 
BRANCH  24  25
ATOM     25  C   UNL     1      17.003   9.946  10.625  1.00  0.00    -0.000 C 
BRANCH  25  26
ATOM     26  C   UNL     1      17.113  11.441  10.277  1.00  0.00    -0.000 C 
BRANCH  26  27
ATOM     27  C   UNL     1      15.924  11.952   9.447  1.00  0.00    -0.000 C 
BRANCH  27  28
ATOM     28  C   UNL     1      15.975  13.470   9.212  1.00  0.00    -0.000 C 
BRANCH  28  29
ATOM     29  C   UNL     1      17.149  14.140   9.940  1.00  0.00    -0.003 C 
ATOM     30  C   UNL     1      16.833  14.340  11.420  1.00  0.00     0.004 C 
ENDBRANCH  28  29
ENDBRANCH  27  28
ENDBRANCH  26  27
ENDBRANCH  25  26
ENDBRANCH  24  25
ENDBRANCH  23  24
ENDBRANCH  22  23
ENDBRANCH  21  22
ENDBRANCH  20  21
ENDBRANCH  19  20
ENDBRANCH  18  19
ENDBRANCH  17  18
ENDBRANCH   1  17
TORSDOF 26
ENDMDL
MODEL 6
REMARK VINA RESULT:    22.565      0.986      2.940
REMARK INTER + INTRA:          55.559
REMARK INTER:                  57.122
REMARK INTRA:                  -1.563
REMARK UNBOUND:                -1.305
REMARK SMILES CCCCCCCCCCCCCCCCCCCCCCCCCCCC(=O)[O-]
REMARK SMILES IDX 15 1 16 2 17 3 18 4 19 5 20 6 21 7 22 8 23 9 24 10 25 11
REMARK SMILES IDX 26 12 27 13 28 14 29 15 30 16 14 17 13 18 12 19 11 20 10 21
REMARK SMILES IDX 9 22 8 23 7 24 6 25 5 26 4 27 3 28 2 29 1 30
REMARK H PARENT
REMARK Flexibility Score: inf
ROOT
ATOM      1  C   UNL     1      14.230  13.953  17.613  1.00  0.00     0.000 C 
ENDROOT
BRANCH   1   2
ATOM      2  C   UNL     1      13.222  12.793  17.607  1.00  0.00     0.000 C 
BRANCH   2   3
ATOM      3  C   UNL     1      13.838  11.485  17.084  1.00  0.00     0.000 C 
BRANCH   3   4
ATOM      4  C   UNL     1      14.962  11.729  16.063  1.00  0.00     0.000 C 
BRANCH   4   5
ATOM      5  C   UNL     1      16.066  10.661  16.133  1.00  0.00     0.000 C 
BRANCH   5   6
ATOM      6  C   UNL     1      16.443  10.101  14.749  1.00  0.00     0.000 C 
BRANCH   6   7
ATOM      7  C   UNL     1      15.966   8.655  14.544  1.00  0.00     0.000 C 
BRANCH   7   8
ATOM      8  C   UNL     1      15.837   8.278  13.058  1.00  0.00     0.000 C 
BRANCH   8   9
ATOM      9  C   UNL     1      15.824   9.518  12.139  1.00  0.00     0.000 C 
BRANCH   9  10
ATOM     10  C   UNL     1      17.096   9.671  11.286  1.00  0.00     0.000 C 
BRANCH  10  11
ATOM     11  C   UNL     1      16.790   9.992   9.812  1.00  0.00     0.000 C 
BRANCH  11  12
ATOM     12  C   UNL     1      16.337  11.447   9.608  1.00  0.00     0.006 C 
BRANCH  12  13
ATOM     13  C   UNL     1      17.123  12.436  10.480  1.00  0.00     0.053 C 
BRANCH  13  14
ATOM     14  C   UNL     1      17.040  13.816   9.908  1.00  0.00     0.041 C 
ATOM     15  O   UNL     1      15.919  14.340   9.675  1.00  0.00    -0.550 OA
ATOM     16  O   UNL     1      18.201  14.542   9.672  1.00  0.00    -0.550 OA
ENDBRANCH  13  14
ENDBRANCH  12  13
ENDBRANCH  11  12
ENDBRANCH  10  11
ENDBRANCH   9  10
ENDBRANCH   8   9
ENDBRANCH   7   8
ENDBRANCH   6   7
ENDBRANCH   5   6
ENDBRANCH   4   5
ENDBRANCH   3   4
ENDBRANCH   2   3
ENDBRANCH   1   2
BRANCH   1  17
ATOM     17  C   UNL     1      13.864  15.066  16.615  1.00  0.00     0.000 C 
BRANCH  17  18
ATOM     18  C   UNL     1      13.934  16.484  17.221  1.00  0.00     0.000 C 
BRANCH  18  19
ATOM     19  C   UNL     1      15.379  16.895  17.563  1.00  0.00     0.000 C 
BRANCH  19  20
ATOM     20  C   UNL     1      15.467  17.725  18.862  1.00  0.00     0.000 C 
BRANCH  20  21
ATOM     21  C   UNL     1      16.706  18.640  18.943  1.00  0.00     0.000 C 
BRANCH  21  22
ATOM     22  C   UNL     1      16.786  19.527  20.197  1.00  0.00    -0.000 C 
BRANCH  22  23
ATOM     23  C   UNL     1      16.335  20.985  19.983  1.00  0.00    -0.000 C 
BRANCH  23  24
ATOM     24  C   UNL     1      16.243  21.395  18.495  1.00  0.00    -0.000 C 
BRANCH  24  25
ATOM     25  C   UNL     1      14.908  22.068  18.112  1.00  0.00    -0.000 C 
BRANCH  25  26
ATOM     26  C   UNL     1      14.513  21.872  16.637  1.00  0.00    -0.000 C 
BRANCH  26  27
ATOM     27  C   UNL     1      15.362  20.806  15.927  1.00  0.00    -0.000 C 
BRANCH  27  28
ATOM     28  C   UNL     1      16.028  21.336  14.647  1.00  0.00    -0.000 C 
BRANCH  28  29
ATOM     29  C   UNL     1      16.910  22.566  14.907  1.00  0.00    -0.003 C 
ATOM     30  C   UNL     1      17.949  22.275  15.989  1.00  0.00     0.004 C 
ENDBRANCH  28  29
ENDBRANCH  27  28
ENDBRANCH  26  27
ENDBRANCH  25  26
ENDBRANCH  24  25
ENDBRANCH  23  24
ENDBRANCH  22  23
ENDBRANCH  21  22
ENDBRANCH  20  21
ENDBRANCH  19  20
ENDBRANCH  18  19
ENDBRANCH  17  18
ENDBRANCH   1  17
TORSDOF 26
ENDMDL
MODEL 7
REMARK VINA RESULT:    22.882      2.312     10.184
REMARK INTER + INTRA:          56.356
REMARK INTER:                  58.042
REMARK INTRA:                  -1.686
REMARK UNBOUND:                -1.305
REMARK SMILES CCCCCCCCCCCCCCCCCCCCCCCCCCCC(=O)[O-]
REMARK SMILES IDX 15 1 16 2 17 3 18 4 19 5 20 6 21 7 22 8 23 9 24 10 25 11
REMARK SMILES IDX 26 12 27 13 28 14 29 15 30 16 14 17 13 18 12 19 11 20 10 21
REMARK SMILES IDX 9 22 8 23 7 24 6 25 5 26 4 27 3 28 2 29 1 30
REMARK H PARENT
REMARK Flexibility Score: inf
ROOT
ATOM      1  C   UNL     1      13.739  13.961  16.331  1.00  0.00     0.000 C 
ENDROOT
BRANCH   1   2
ATOM      2  C   UNL     1      13.837  15.306  17.068  1.00  0.00     0.000 C 
BRANCH   2   3
ATOM      3  C   UNL     1      14.931  15.303  18.148  1.00  0.00     0.000 C 
BRANCH   3   4
ATOM      4  C   UNL     1      16.035  16.338  17.873  1.00  0.00     0.000 C 
BRANCH   4   5
ATOM      5  C   UNL     1      15.632  17.759  18.297  1.00  0.00     0.000 C 
BRANCH   5   6
ATOM      6  C   UNL     1      16.728  18.473  19.110  1.00  0.00     0.000 C 
BRANCH   6   7
ATOM      7  C   UNL     1      16.182  19.647  19.938  1.00  0.00     0.000 C 
BRANCH   7   8
ATOM      8  C   UNL     1      17.030  20.923  19.789  1.00  0.00     0.000 C 
BRANCH   8   9
ATOM      9  C   UNL     1      16.826  21.603  18.418  1.00  0.00     0.000 C 
BRANCH   9  10
ATOM     10  C   UNL     1      18.132  21.826  17.636  1.00  0.00     0.000 C 
BRANCH  10  11
ATOM     11  C   UNL     1      17.900  22.467  16.256  1.00  0.00     0.000 C 
BRANCH  11  12
ATOM     12  C   UNL     1      16.417  22.472  15.851  1.00  0.00     0.006 C 
BRANCH  12  13
ATOM     13  C   UNL     1      16.000  21.184  15.127  1.00  0.00     0.053 C 
BRANCH  13  14
ATOM     14  C   UNL     1      14.690  20.689  15.654  1.00  0.00     0.041 C 
ATOM     15  O   UNL     1      13.929  21.464  16.290  1.00  0.00    -0.550 OA
ATOM     16  O   UNL     1      14.289  19.381  15.405  1.00  0.00    -0.550 OA
ENDBRANCH  13  14
ENDBRANCH  12  13
ENDBRANCH  11  12
ENDBRANCH  10  11
ENDBRANCH   9  10
ENDBRANCH   8   9
ENDBRANCH   7   8
ENDBRANCH   6   7
ENDBRANCH   5   6
ENDBRANCH   4   5
ENDBRANCH   3   4
ENDBRANCH   2   3
ENDBRANCH   1   2
BRANCH   1  17
ATOM     17  C   UNL     1      13.393  12.791  17.268  1.00  0.00     0.000 C 
BRANCH  17  18
ATOM     18  C   UNL     1      14.407  11.629  17.202  1.00  0.00     0.000 C 
BRANCH  18  19
ATOM     19  C   UNL     1      15.162  11.595  15.861  1.00  0.00     0.000 C 
BRANCH  19  20
ATOM     20  C   UNL     1      16.153  10.415  15.767  1.00  0.00     0.000 C 
BRANCH  20  21
ATOM     21  C   UNL     1      15.890   9.464  14.582  1.00  0.00     0.000 C 
BRANCH  21  22
ATOM     22  C   UNL     1      16.748   9.722  13.331  1.00  0.00    -0.000 C 
BRANCH  22  23
ATOM     23  C   UNL     1      16.077   9.331  12.000  1.00  0.00    -0.000 C 
BRANCH  23  24
ATOM     24  C   UNL     1      16.992   9.510  10.766  1.00  0.00    -0.000 C 
BRANCH  24  25
ATOM     25  C   UNL     1      17.202  10.982  10.350  1.00  0.00    -0.000 C 
BRANCH  25  26
ATOM     26  C   UNL     1      16.191  11.482   9.303  1.00  0.00    -0.000 C 
BRANCH  26  27
ATOM     27  C   UNL     1      15.853  12.973   9.461  1.00  0.00    -0.000 C 
BRANCH  27  28
ATOM     28  C   UNL     1      16.324  13.546  10.807  1.00  0.00    -0.000 C 
BRANCH  28  29
ATOM     29  C   UNL     1      17.476  14.548  10.650  1.00  0.00    -0.003 C 
ATOM     30  C   UNL     1      17.947  14.618   9.199  1.00  0.00     0.004 C 
ENDBRANCH  28  29
ENDBRANCH  27  28
ENDBRANCH  26  27
ENDBRANCH  25  26
ENDBRANCH  24  25
ENDBRANCH  23  24
ENDBRANCH  22  23
ENDBRANCH  21  22
ENDBRANCH  20  21
ENDBRANCH  19  20
ENDBRANCH  18  19
ENDBRANCH  17  18
ENDBRANCH   1  17
TORSDOF 26
ENDMDL
MODEL 8
REMARK VINA RESULT:    23.423      0.969      1.683
REMARK INTER + INTRA:          57.721
REMARK INTER:                  59.490
REMARK INTRA:                  -1.769
REMARK UNBOUND:                -1.305
REMARK SMILES CCCCCCCCCCCCCCCCCCCCCCCCCCCC(=O)[O-]
REMARK SMILES IDX 15 1 16 2 17 3 18 4 19 5 20 6 21 7 22 8 23 9 24 10 25 11
REMARK SMILES IDX 26 12 27 13 28 14 29 15 30 16 14 17 13 18 12 19 11 20 10 21
REMARK SMILES IDX 9 22 8 23 7 24 6 25 5 26 4 27 3 28 2 29 1 30
REMARK H PARENT
REMARK Flexibility Score: inf
ROOT
ATOM      1  C   UNL     1      13.834  14.027  16.355  1.00  0.00     0.000 C 
ENDROOT
BRANCH   1   2
ATOM      2  C   UNL     1      12.975  12.835  16.804  1.00  0.00     0.000 C 
BRANCH   2   3
ATOM      3  C   UNL     1      13.779  11.806  17.615  1.00  0.00     0.000 C 
BRANCH   3   4
ATOM      4  C   UNL     1      15.219  11.641  17.098  1.00  0.00     0.000 C 
BRANCH   4   5
ATOM      5  C   UNL     1      15.280  10.910  15.747  1.00  0.00     0.000 C 
BRANCH   5   6
ATOM      6  C   UNL     1      16.582  10.108  15.561  1.00  0.00     0.000 C 
BRANCH   6   7
ATOM      7  C   UNL     1      16.468   9.039  14.464  1.00  0.00     0.000 C 
BRANCH   7   8
ATOM      8  C   UNL     1      15.816   9.576  13.177  1.00  0.00     0.000 C 
BRANCH   8   9
ATOM      9  C   UNL     1      16.373   8.891  11.911  1.00  0.00     0.000 C 
BRANCH   9  10
ATOM     10  C   UNL     1      17.083   9.857  10.945  1.00  0.00     0.000 C 
BRANCH  10  11
ATOM     11  C   UNL     1      16.104  10.612  10.029  1.00  0.00     0.000 C 
BRANCH  11  12
ATOM     12  C   UNL     1      16.778  11.769   9.274  1.00  0.00     0.006 C 
BRANCH  12  13
ATOM     13  C   UNL     1      17.519  12.732  10.212  1.00  0.00     0.053 C 
BRANCH  13  14
ATOM     14  C   UNL     1      16.676  13.934  10.500  1.00  0.00     0.041 C 
ATOM     15  O   UNL     1      16.968  14.699  11.457  1.00  0.00    -0.550 OA
ATOM     16  O   UNL     1      15.592  14.235   9.684  1.00  0.00    -0.550 OA
ENDBRANCH  13  14
ENDBRANCH  12  13
ENDBRANCH  11  12
ENDBRANCH  10  11
ENDBRANCH   9  10
ENDBRANCH   8   9
ENDBRANCH   7   8
ENDBRANCH   6   7
ENDBRANCH   5   6
ENDBRANCH   4   5
ENDBRANCH   3   4
ENDBRANCH   2   3
ENDBRANCH   1   2
BRANCH   1  17
ATOM     17  C   UNL     1      14.197  14.971  17.514  1.00  0.00     0.000 C 
BRANCH  17  18
ATOM     18  C   UNL     1      14.138  16.466  17.133  1.00  0.00     0.000 C 
BRANCH  18  19
ATOM     19  C   UNL     1      13.021  16.759  16.114  1.00  0.00     0.000 C 
BRANCH  19  20
ATOM     20  C   UNL     1      13.024  18.227  15.638  1.00  0.00     0.000 C 
BRANCH  20  21
ATOM     21  C   UNL     1      14.432  18.833  15.471  1.00  0.00     0.000 C 
BRANCH  21  22
ATOM     22  C   UNL     1      14.467  20.346  15.192  1.00  0.00    -0.000 C 
BRANCH  22  23
ATOM     23  C   UNL     1      14.368  21.233  16.448  1.00  0.00    -0.000 C 
BRANCH  23  24
ATOM     24  C   UNL     1      15.681  21.974  16.791  1.00  0.00    -0.000 C 
BRANCH  24  25
ATOM     25  C   UNL     1      15.860  22.269  18.296  1.00  0.00    -0.000 C 
BRANCH  25  26
ATOM     26  C   UNL     1      16.964  21.432  18.966  1.00  0.00    -0.000 C 
BRANCH  26  27
ATOM     27  C   UNL     1      16.439  20.561  20.120  1.00  0.00    -0.000 C 
BRANCH  27  28
ATOM     28  C   UNL     1      16.833  19.084  19.972  1.00  0.00    -0.000 C 
BRANCH  28  29
ATOM     29  C   UNL     1      16.309  18.461  18.670  1.00  0.00    -0.003 C 
ATOM     30  C   UNL     1      17.075  17.184  18.328  1.00  0.00     0.004 C 
ENDBRANCH  28  29
ENDBRANCH  27  28
ENDBRANCH  26  27
ENDBRANCH  25  26
ENDBRANCH  24  25
ENDBRANCH  23  24
ENDBRANCH  22  23
ENDBRANCH  21  22
ENDBRANCH  20  21
ENDBRANCH  19  20
ENDBRANCH  18  19
ENDBRANCH  17  18
ENDBRANCH   1  17
TORSDOF 26
ENDMDL
