MODEL 1
REMARK VINA RESULT:    -6.495      0.000      0.000
REMARK INTER + INTRA:         -10.603
REMARK INTER:                  -9.343
REMARK INTRA:                  -1.261
REMARK UNBOUND:                -1.261
REMARK SMILES O=c1c(O[C@H]2O[C@H](CO)[C@H](O)[C@@H](O)[C@@H]2O)c(-c2ccc(O)cc2)oc2cc(O)cc(O)c12
REMARK SMILES IDX 4 1 3 2 16 3 24 4 2 5 25 6 1 7 32 8 26 9 30 10 27 11 29 12
REMARK SMILES IDX 17 13 18 14 19 15 20 16 23 17 22 18 21 19 31 21 28 23 5 25
REMARK SMILES IDX 14 26 6 27 12 28 7 29 10 30 15 31 13 33 8 35 9 36 11 38
REMARK H PARENT 21 20 31 22 28 24 15 32 13 34 9 37 11 39
REMARK Flexibility Score: inf
ROOT
ATOM      1  O   UNL     1      16.838  -3.273 -12.475  1.00  0.00    -0.454 OA
ENDROOT
BRANCH   1   2
ATOM      2  C   UNL     1      15.963  -2.509 -11.720  1.00  0.00     0.214 A 
ATOM      3  C   UNL     1      15.819  -1.103 -11.899  1.00  0.00     0.180 A 
ATOM      4  O   UNL     1      16.083  -0.291 -10.874  1.00  0.00    -0.452 OA
ATOM      5  C   UNL     1      15.875  -2.939 -10.390  1.00  0.00     0.239 A 
ATOM      6  C   UNL     1      16.547  -0.744  -9.718  1.00  0.00     0.146 A 
ATOM      7  O   UNL     1      15.452  -4.097 -10.094  1.00  0.00    -0.285 OA
ATOM      8  C   UNL     1      16.508  -2.120  -9.413  1.00  0.00     0.111 A 
ATOM      9  C   UNL     1      17.215   0.119  -8.850  1.00  0.00     0.094 A 
ATOM     10  C   UNL     1      17.465  -2.678  -8.474  1.00  0.00     0.134 A 
ATOM     11  C   UNL     1      18.095  -0.414  -7.859  1.00  0.00     0.123 A 
ATOM     12  C   UNL     1      18.268  -1.795  -7.703  1.00  0.00     0.093 A 
BRANCH   3  13
ATOM     13  C   UNL     1      15.561  -0.510 -13.205  1.00  0.00     0.021 A 
ATOM     14  C   UNL     1      16.614  -0.299 -14.107  1.00  0.00     0.016 A 
ATOM     15  C   UNL     1      16.390   0.402 -15.295  1.00  0.00     0.047 A 
ATOM     16  C   UNL     1      15.129   0.975 -15.530  1.00  0.00     0.115 A 
ATOM     17  C   UNL     1      14.269  -0.110 -13.535  1.00  0.00     0.016 A 
ATOM     18  C   UNL     1      14.045   0.640 -14.705  1.00  0.00     0.047 A 
BRANCH  16  19
ATOM     19  O   UNL     1      14.979   1.928 -16.528  1.00  0.00    -0.508 OA
ATOM     20  H   UNL     1      14.049   2.134 -16.910  1.00  0.00     0.293 HD
ENDBRANCH  16  19
ENDBRANCH   3  13
BRANCH  10  21
ATOM     21  O   UNL     1      17.756  -4.059  -8.452  1.00  0.00    -0.507 OA
ATOM     22  H   UNL     1      17.949  -4.526  -7.558  1.00  0.00     0.293 HD
ENDBRANCH  10  21
BRANCH  11  23
ATOM     23  O   UNL     1      18.884   0.504  -7.136  1.00  0.00    -0.508 OA
ATOM     24  H   UNL     1      19.145   0.348  -6.142  1.00  0.00     0.293 HD
ENDBRANCH  11  23
ENDBRANCH   1   2
BRANCH   1  25
ATOM     25  C   UNL     1      16.796  -4.171 -13.569  1.00  0.00     0.339 C 
ATOM     26  C   UNL     1      15.831  -5.355 -13.395  1.00  0.00     0.214 C 
ATOM     27  O   UNL     1      18.121  -4.548 -13.941  1.00  0.00    -0.332 OA
ATOM     28  C   UNL     1      15.744  -6.117 -14.723  1.00  0.00     0.180 C 
ATOM     29  C   UNL     1      18.148  -5.194 -15.215  1.00  0.00     0.179 C 
ATOM     30  C   UNL     1      17.158  -6.414 -15.283  1.00  0.00     0.177 C 
BRANCH  26  31
ATOM     31  O   UNL     1      14.560  -4.904 -12.943  1.00  0.00    -0.384 OA
ATOM     32  H   UNL     1      14.627  -4.895 -11.947  1.00  0.00     0.211 HD
ENDBRANCH  26  31
BRANCH  28  33
ATOM     33  O   UNL     1      15.020  -7.310 -14.518  1.00  0.00    -0.387 OA
ATOM     34  H   UNL     1      15.417  -7.790 -13.760  1.00  0.00     0.211 HD
ENDBRANCH  28  33
BRANCH  29  35
ATOM     35  C   UNL     1      18.049  -4.200 -16.363  1.00  0.00     0.191 C 
BRANCH  35  36
ATOM     36  O   UNL     1      18.428  -4.768 -17.581  1.00  0.00    -0.394 OA
ATOM     37  H   UNL     1      17.950  -4.275 -18.304  1.00  0.00     0.210 HD
ENDBRANCH  35  36
ENDBRANCH  29  35
BRANCH  30  38
ATOM     38  O   UNL     1      17.072  -6.924 -16.595  1.00  0.00    -0.387 OA
ATOM     39  H   UNL     1      17.514  -6.276 -17.200  1.00  0.00     0.211 HD
ENDBRANCH  30  38
ENDBRANCH   1  25
TORSDOF 11
ENDMDL
MODEL 2
REMARK VINA RESULT:    -6.456      2.320      6.168
REMARK INTER + INTRA:         -10.547
REMARK INTER:                  -9.096
REMARK INTRA:                  -1.452
REMARK UNBOUND:                -1.261
REMARK SMILES O=c1c(O[C@H]2O[C@H](CO)[C@H](O)[C@@H](O)[C@@H]2O)c(-c2ccc(O)cc2)oc2cc(O)cc(O)c12
REMARK SMILES IDX 4 1 3 2 16 3 24 4 2 5 25 6 1 7 32 8 26 9 30 10 27 11 29 12
REMARK SMILES IDX 17 13 18 14 19 15 20 16 23 17 22 18 21 19 31 21 28 23 5 25
REMARK SMILES IDX 14 26 6 27 12 28 7 29 10 30 15 31 13 33 8 35 9 36 11 38
REMARK H PARENT 21 20 31 22 28 24 15 32 13 34 9 37 11 39
REMARK Flexibility Score: inf
ROOT
ATOM      1  O   UNL     1      17.093  -1.686 -11.250  1.00  0.00    -0.454 OA
ENDROOT
BRANCH   1   2
ATOM      2  C   UNL     1      17.005  -2.061 -12.581  1.00  0.00     0.214 A 
ATOM      3  C   UNL     1      15.800  -2.551 -13.162  1.00  0.00     0.180 A 
ATOM      4  O   UNL     1      15.791  -3.775 -13.693  1.00  0.00    -0.452 OA
ATOM      5  C   UNL     1      18.172  -2.675 -13.051  1.00  0.00     0.239 A 
ATOM      6  C   UNL     1      16.843  -4.579 -13.628  1.00  0.00     0.146 A 
ATOM      7  O   UNL     1      19.281  -2.060 -13.079  1.00  0.00    -0.285 OA
ATOM      8  C   UNL     1      18.111  -4.081 -13.261  1.00  0.00     0.111 A 
ATOM      9  C   UNL     1      16.678  -5.955 -13.779  1.00  0.00     0.094 A 
ATOM     10  C   UNL     1      19.088  -4.971 -12.659  1.00  0.00     0.134 A 
ATOM     11  C   UNL     1      17.672  -6.847 -13.272  1.00  0.00     0.123 A 
ATOM     12  C   UNL     1      18.840  -6.370 -12.666  1.00  0.00     0.093 A 
BRANCH   3  13
ATOM     13  C   UNL     1      14.537  -1.834 -13.048  1.00  0.00     0.021 A 
ATOM     14  C   UNL     1      13.373  -2.511 -12.655  1.00  0.00     0.016 A 
ATOM     15  C   UNL     1      12.136  -1.859 -12.688  1.00  0.00     0.047 A 
ATOM     16  C   UNL     1      12.059  -0.557 -13.211  1.00  0.00     0.115 A 
ATOM     17  C   UNL     1      14.479  -0.483 -13.379  1.00  0.00     0.016 A 
ATOM     18  C   UNL     1      13.234   0.166 -13.464  1.00  0.00     0.047 A 
BRANCH  16  19
ATOM     19  O   UNL     1      10.822  -0.022 -13.547  1.00  0.00    -0.508 OA
ATOM     20  H   UNL     1      10.558   0.912 -13.216  1.00  0.00     0.293 HD
ENDBRANCH  16  19
ENDBRANCH   3  13
BRANCH  10  21
ATOM     21  O   UNL     1      20.168  -4.474 -11.900  1.00  0.00    -0.507 OA
ATOM     22  H   UNL     1      20.464  -4.966 -11.049  1.00  0.00     0.293 HD
ENDBRANCH  10  21
BRANCH  11  23
ATOM     23  O   UNL     1      17.368  -8.224 -13.284  1.00  0.00    -0.508 OA
ATOM     24  H   UNL     1      17.829  -8.888 -13.938  1.00  0.00     0.293 HD
ENDBRANCH  11  23
ENDBRANCH   1   2
BRANCH   1  25
ATOM     25  C   UNL     1      17.928  -1.921 -10.131  1.00  0.00     0.339 C 
ATOM     26  C   UNL     1      17.205  -2.466  -8.889  1.00  0.00     0.214 C 
ATOM     27  O   UNL     1      18.738  -0.774  -9.877  1.00  0.00    -0.332 OA
ATOM     28  C   UNL     1      18.254  -2.857  -7.841  1.00  0.00     0.180 C 
ATOM     29  C   UNL     1      19.801  -1.068  -8.969  1.00  0.00     0.179 C 
ATOM     30  C   UNL     1      19.280  -1.716  -7.634  1.00  0.00     0.177 C 
BRANCH  26  31
ATOM     31  O   UNL     1      16.355  -3.552  -9.240  1.00  0.00    -0.384 OA
ATOM     32  H   UNL     1      16.963  -4.246  -9.620  1.00  0.00     0.211 HD
ENDBRANCH  26  31
BRANCH  28  33
ATOM     33  O   UNL     1      17.597  -3.172  -6.632  1.00  0.00    -0.387 OA
ATOM     34  H   UNL     1      17.021  -2.416  -6.384  1.00  0.00     0.211 HD
ENDBRANCH  28  33
BRANCH  29  35
ATOM     35  C   UNL     1      20.950  -1.797  -9.651  1.00  0.00     0.191 C 
BRANCH  35  36
ATOM     36  O   UNL     1      20.972  -3.156  -9.329  1.00  0.00    -0.394 OA
ATOM     37  H   UNL     1      20.065  -3.399  -8.993  1.00  0.00     0.210 HD
ENDBRANCH  35  36
ENDBRANCH  29  35
BRANCH  30  38
ATOM     38  O   UNL     1      20.354  -2.156  -6.832  1.00  0.00    -0.387 OA
ATOM     39  H   UNL     1      21.153  -2.230  -7.413  1.00  0.00     0.211 HD
ENDBRANCH  30  38
ENDBRANCH   1  25
TORSDOF 11
ENDMDL
MODEL 3
REMARK VINA RESULT:    -6.362      6.433     10.968
REMARK INTER + INTRA:         -10.413
REMARK INTER:                  -8.716
REMARK INTRA:                  -1.697
REMARK UNBOUND:                -1.261
REMARK SMILES O=c1c(O[C@H]2O[C@H](CO)[C@H](O)[C@@H](O)[C@@H]2O)c(-c2ccc(O)cc2)oc2cc(O)cc(O)c12
REMARK SMILES IDX 4 1 3 2 16 3 24 4 2 5 25 6 1 7 32 8 26 9 30 10 27 11 29 12
REMARK SMILES IDX 17 13 18 14 19 15 20 16 23 17 22 18 21 19 31 21 28 23 5 25
REMARK SMILES IDX 14 26 6 27 12 28 7 29 10 30 15 31 13 33 8 35 9 36 11 38
REMARK H PARENT 21 20 31 22 28 24 15 32 13 34 9 37 11 39
REMARK Flexibility Score: inf
ROOT
ATOM      1  O   UNL     1       9.904   3.675 -14.878  1.00  0.00    -0.454 OA
ENDROOT
BRANCH   1   2
ATOM      2  C   UNL     1       9.004   4.093 -15.845  1.00  0.00     0.214 A 
ATOM      3  C   UNL     1       8.103   3.201 -16.494  1.00  0.00     0.180 A 
ATOM      4  O   UNL     1       8.170   3.066 -17.819  1.00  0.00    -0.452 OA
ATOM      5  C   UNL     1       9.522   5.100 -16.669  1.00  0.00     0.239 A 
ATOM      6  C   UNL     1       9.097   3.676 -18.544  1.00  0.00     0.146 A 
ATOM      7  O   UNL     1       9.868   6.227 -16.202  1.00  0.00    -0.285 OA
ATOM      8  C   UNL     1       9.870   4.721 -17.996  1.00  0.00     0.111 A 
ATOM      9  C   UNL     1       9.421   3.192 -19.810  1.00  0.00     0.094 A 
ATOM     10  C   UNL     1      11.191   4.998 -18.532  1.00  0.00     0.134 A 
ATOM     11  C   UNL     1      10.681   3.525 -20.395  1.00  0.00     0.123 A 
ATOM     12  C   UNL     1      11.586   4.373 -19.745  1.00  0.00     0.093 A 
BRANCH   3  13
ATOM     13  C   UNL     1       7.227   2.306 -15.748  1.00  0.00     0.021 A 
ATOM     14  C   UNL     1       6.912   2.577 -14.409  1.00  0.00     0.016 A 
ATOM     15  C   UNL     1       6.196   1.644 -13.653  1.00  0.00     0.047 A 
ATOM     16  C   UNL     1       5.881   0.397 -14.219  1.00  0.00     0.115 A 
ATOM     17  C   UNL     1       6.743   1.152 -16.359  1.00  0.00     0.016 A 
ATOM     18  C   UNL     1       6.064   0.186 -15.593  1.00  0.00     0.047 A 
BRANCH  16  19
ATOM     19  O   UNL     1       5.463  -0.645 -13.401  1.00  0.00    -0.508 OA
ATOM     20  H   UNL     1       5.825  -1.593 -13.549  1.00  0.00     0.293 HD
ENDBRANCH  16  19
ENDBRANCH   3  13
BRANCH  10  21
ATOM     21  O   UNL     1      12.155   5.708 -17.785  1.00  0.00    -0.507 OA
ATOM     22  H   UNL     1      12.940   6.162 -18.265  1.00  0.00     0.293 HD
ENDBRANCH  10  21
BRANCH  11  23
ATOM     23  O   UNL     1      11.034   2.862 -21.588  1.00  0.00    -0.508 OA
ATOM     24  H   UNL     1      10.914   3.300 -22.522  1.00  0.00     0.293 HD
ENDBRANCH  11  23
ENDBRANCH   1   2
BRANCH   1  25
ATOM     25  C   UNL     1      11.075   2.885 -14.784  1.00  0.00     0.339 C 
ATOM     26  C   UNL     1      11.222   2.102 -13.470  1.00  0.00     0.214 C 
ATOM     27  O   UNL     1      12.219   3.667 -15.128  1.00  0.00    -0.332 OA
ATOM     28  C   UNL     1      12.418   1.150 -13.595  1.00  0.00     0.180 C 
ATOM     29  C   UNL     1      13.371   2.851 -15.348  1.00  0.00     0.179 C 
ATOM     30  C   UNL     1      13.664   1.897 -14.132  1.00  0.00     0.177 C 
BRANCH  26  31
ATOM     31  O   UNL     1      10.014   1.419 -13.156  1.00  0.00    -0.384 OA
ATOM     32  H   UNL     1      10.046   1.275 -12.169  1.00  0.00     0.211 HD
ENDBRANCH  26  31
BRANCH  28  33
ATOM     33  O   UNL     1      12.678   0.574 -12.334  1.00  0.00    -0.387 OA
ATOM     34  H   UNL     1      13.650   0.525 -12.207  1.00  0.00     0.211 HD
ENDBRANCH  28  33
BRANCH  29  35
ATOM     35  C   UNL     1      13.345   2.185 -16.717  1.00  0.00     0.191 C 
BRANCH  35  36
ATOM     36  O   UNL     1      14.601   1.693 -17.082  1.00  0.00    -0.394 OA
ATOM     37  H   UNL     1      14.552   0.698 -17.058  1.00  0.00     0.210 HD
ENDBRANCH  35  36
ENDBRANCH  29  35
BRANCH  30  38
ATOM     38  O   UNL     1      14.693   0.983 -14.443  1.00  0.00    -0.387 OA
ATOM     39  H   UNL     1      15.061   0.643 -13.589  1.00  0.00     0.211 HD
ENDBRANCH  30  38
ENDBRANCH   1  25
TORSDOF 11
ENDMDL
MODEL 4
REMARK VINA RESULT:    -6.357      3.031      5.720
REMARK INTER + INTRA:         -10.406
REMARK INTER:                  -9.795
REMARK INTRA:                  -0.611
REMARK UNBOUND:                -1.261
REMARK SMILES O=c1c(O[C@H]2O[C@H](CO)[C@H](O)[C@@H](O)[C@@H]2O)c(-c2ccc(O)cc2)oc2cc(O)cc(O)c12
REMARK SMILES IDX 4 1 3 2 16 3 24 4 2 5 25 6 1 7 32 8 26 9 30 10 27 11 29 12
REMARK SMILES IDX 17 13 18 14 19 15 20 16 23 17 22 18 21 19 31 21 28 23 5 25
REMARK SMILES IDX 14 26 6 27 12 28 7 29 10 30 15 31 13 33 8 35 9 36 11 38
REMARK H PARENT 21 20 31 22 28 24 15 32 13 34 9 37 11 39
REMARK Flexibility Score: inf
ROOT
ATOM      1  O   UNL     1      15.858  -6.049 -14.229  1.00  0.00    -0.454 OA
ENDROOT
BRANCH   1   2
ATOM      2  C   UNL     1      16.133  -5.256 -13.126  1.00  0.00     0.214 A 
ATOM      3  C   UNL     1      15.118  -4.796 -12.239  1.00  0.00     0.180 A 
ATOM      4  O   UNL     1      14.943  -3.482 -12.084  1.00  0.00    -0.452 OA
ATOM      5  C   UNL     1      17.163  -4.337 -13.361  1.00  0.00     0.239 A 
ATOM      6  C   UNL     1      15.632  -2.592 -12.785  1.00  0.00     0.146 A 
ATOM      7  O   UNL     1      18.339  -4.717 -13.645  1.00  0.00    -0.285 OA
ATOM      8  C   UNL     1      16.779  -2.975 -13.510  1.00  0.00     0.111 A 
ATOM      9  C   UNL     1      15.144  -1.295 -12.934  1.00  0.00     0.094 A 
ATOM     10  C   UNL     1      17.190  -2.204 -14.670  1.00  0.00     0.134 A 
ATOM     11  C   UNL     1      15.601  -0.486 -14.019  1.00  0.00     0.123 A 
ATOM     12  C   UNL     1      16.572  -0.948 -14.915  1.00  0.00     0.093 A 
BRANCH   3  13
ATOM     13  C   UNL     1      14.153  -5.701 -11.627  1.00  0.00     0.021 A 
ATOM     14  C   UNL     1      13.978  -6.996 -12.135  1.00  0.00     0.016 A 
ATOM     15  C   UNL     1      12.952  -7.809 -11.644  1.00  0.00     0.047 A 
ATOM     16  C   UNL     1      12.044  -7.283 -10.710  1.00  0.00     0.115 A 
ATOM     17  C   UNL     1      13.372  -5.256 -10.564  1.00  0.00     0.016 A 
ATOM     18  C   UNL     1      12.306  -6.049 -10.098  1.00  0.00     0.047 A 
BRANCH  16  19
ATOM     19  O   UNL     1      10.853  -7.950 -10.456  1.00  0.00    -0.508 OA
ATOM     20  H   UNL     1      10.636  -8.277  -9.508  1.00  0.00     0.293 HD
ENDBRANCH  16  19
ENDBRANCH   3  13
BRANCH  10  21
ATOM     21  O   UNL     1      18.035  -2.753 -15.658  1.00  0.00    -0.507 OA
ATOM     22  H   UNL     1      18.310  -2.185 -16.468  1.00  0.00     0.293 HD
ENDBRANCH  10  21
BRANCH  11  23
ATOM     23  O   UNL     1      14.941   0.742 -14.231  1.00  0.00    -0.508 OA
ATOM     24  H   UNL     1      14.786   1.131 -15.181  1.00  0.00     0.293 HD
ENDBRANCH  11  23
ENDBRANCH   1   2
BRANCH   1  25
ATOM     25  C   UNL     1      16.555  -6.679 -15.288  1.00  0.00     0.339 C 
ATOM     26  C   UNL     1      15.659  -7.292 -16.376  1.00  0.00     0.214 C 
ATOM     27  O   UNL     1      17.532  -7.577 -14.762  1.00  0.00    -0.332 OA
ATOM     28  C   UNL     1      16.545  -7.753 -17.540  1.00  0.00     0.180 C 
ATOM     29  C   UNL     1      18.458  -7.997 -15.765  1.00  0.00     0.179 C 
ATOM     30  C   UNL     1      17.737  -8.598 -17.026  1.00  0.00     0.177 C 
BRANCH  26  31
ATOM     31  O   UNL     1      14.662  -6.364 -16.785  1.00  0.00    -0.384 OA
ATOM     32  H   UNL     1      14.994  -5.474 -16.480  1.00  0.00     0.211 HD
ENDBRANCH  26  31
BRANCH  28  33
ATOM     33  O   UNL     1      15.757  -8.489 -18.450  1.00  0.00    -0.387 OA
ATOM     34  H   UNL     1      14.986  -7.940 -18.711  1.00  0.00     0.211 HD
ENDBRANCH  28  33
BRANCH  29  35
ATOM     35  C   UNL     1      19.510  -6.934 -16.052  1.00  0.00     0.191 C 
BRANCH  35  36
ATOM     36  O   UNL     1      19.241  -6.239 -17.234  1.00  0.00    -0.394 OA
ATOM     37  H   UNL     1      20.095  -5.823 -17.538  1.00  0.00     0.210 HD
ENDBRANCH  35  36
ENDBRANCH  29  35
BRANCH  30  38
ATOM     38  O   UNL     1      18.656  -8.841 -18.068  1.00  0.00    -0.387 OA
ATOM     39  H   UNL     1      18.359  -8.324 -18.859  1.00  0.00     0.211 HD
ENDBRANCH  30  38
ENDBRANCH   1  25
TORSDOF 11
ENDMDL
MODEL 5
REMARK VINA RESULT:    -6.313      1.351      2.233
REMARK INTER + INTRA:         -10.342
REMARK INTER:                  -9.159
REMARK INTRA:                  -1.183
REMARK UNBOUND:                -1.261
REMARK SMILES O=c1c(O[C@H]2O[C@H](CO)[C@H](O)[C@@H](O)[C@@H]2O)c(-c2ccc(O)cc2)oc2cc(O)cc(O)c12
REMARK SMILES IDX 4 1 3 2 16 3 24 4 2 5 25 6 1 7 32 8 26 9 30 10 27 11 29 12
REMARK SMILES IDX 17 13 18 14 19 15 20 16 23 17 22 18 21 19 31 21 28 23 5 25
REMARK SMILES IDX 14 26 6 27 12 28 7 29 10 30 15 31 13 33 8 35 9 36 11 38
REMARK H PARENT 21 20 31 22 28 24 15 32 13 34 9 37 11 39
REMARK Flexibility Score: inf
ROOT
ATOM      1  O   UNL     1      16.337  -3.029 -13.759  1.00  0.00    -0.454 OA
ENDROOT
BRANCH   1   2
ATOM      2  C   UNL     1      15.429  -2.543 -12.833  1.00  0.00     0.214 A 
ATOM      3  C   UNL     1      15.270  -1.152 -12.570  1.00  0.00     0.180 A 
ATOM      4  O   UNL     1      15.491  -0.699 -11.335  1.00  0.00    -0.452 OA
ATOM      5  C   UNL     1      15.308  -3.366 -11.706  1.00  0.00     0.239 A 
ATOM      6  C   UNL     1      15.927  -1.487 -10.363  1.00  0.00     0.146 A 
ATOM      7  O   UNL     1      14.894  -4.561 -11.799  1.00  0.00    -0.285 OA
ATOM      8  C   UNL     1      15.899  -2.890 -10.503  1.00  0.00     0.111 A 
ATOM      9  C   UNL     1      16.556  -0.935  -9.248  1.00  0.00     0.094 A 
ATOM     10  C   UNL     1      16.836  -3.708  -9.753  1.00  0.00     0.134 A 
ATOM     11  C   UNL     1      17.414  -1.745  -8.444  1.00  0.00     0.123 A 
ATOM     12  C   UNL     1      17.603  -3.105  -8.720  1.00  0.00     0.093 A 
BRANCH   3  13
ATOM     13  C   UNL     1      15.042  -0.183 -13.634  1.00  0.00     0.021 A 
ATOM     14  C   UNL     1      13.744   0.267 -13.915  1.00  0.00     0.016 A 
ATOM     15  C   UNL     1      13.508   1.080 -15.028  1.00  0.00     0.047 A 
ATOM     16  C   UNL     1      14.563   1.360 -15.912  1.00  0.00     0.115 A 
ATOM     17  C   UNL     1      16.115   0.259 -14.404  1.00  0.00     0.016 A 
ATOM     18  C   UNL     1      15.880   1.035 -15.554  1.00  0.00     0.047 A 
BRANCH  16  19
ATOM     19  O   UNL     1      14.289   1.884 -17.168  1.00  0.00    -0.508 OA
ATOM     20  H   UNL     1      14.690   1.450 -18.007  1.00  0.00     0.293 HD
ENDBRANCH  16  19
ENDBRANCH   3  13
BRANCH  10  21
ATOM     21  O   UNL     1      17.146  -5.026 -10.153  1.00  0.00    -0.507 OA
ATOM     22  H   UNL     1      16.405  -5.735 -10.194  1.00  0.00     0.293 HD
ENDBRANCH  10  21
BRANCH  11  23
ATOM     23  O   UNL     1      18.167  -1.095  -7.445  1.00  0.00    -0.508 OA
ATOM     24  H   UNL     1      17.727  -0.488  -6.726  1.00  0.00     0.293 HD
ENDBRANCH  11  23
ENDBRANCH   1   2
BRANCH   1  25
ATOM     25  C   UNL     1      16.751  -4.274 -14.292  1.00  0.00     0.339 C 
ATOM     26  C   UNL     1      18.202  -4.664 -13.968  1.00  0.00     0.214 C 
ATOM     27  O   UNL     1      16.425  -4.342 -15.680  1.00  0.00    -0.332 OA
ATOM     28  C   UNL     1      18.439  -6.106 -14.433  1.00  0.00     0.180 C 
ATOM     29  C   UNL     1      16.537  -5.674 -16.184  1.00  0.00     0.179 C 
ATOM     30  C   UNL     1      17.947  -6.305 -15.888  1.00  0.00     0.177 C 
BRANCH  26  31
ATOM     31  O   UNL     1      18.471  -4.488 -12.582  1.00  0.00    -0.384 OA
ATOM     32  H   UNL     1      17.855  -5.120 -12.116  1.00  0.00     0.211 HD
ENDBRANCH  26  31
BRANCH  28  33
ATOM     33  O   UNL     1      19.814  -6.403 -14.318  1.00  0.00    -0.387 OA
ATOM     34  H   UNL     1      19.997  -7.228 -14.816  1.00  0.00     0.211 HD
ENDBRANCH  28  33
BRANCH  29  35
ATOM     35  C   UNL     1      15.338  -6.531 -15.803  1.00  0.00     0.191 C 
BRANCH  35  36
ATOM     36  O   UNL     1      14.317  -6.454 -16.754  1.00  0.00    -0.394 OA
ATOM     37  H   UNL     1      14.737  -6.221 -17.627  1.00  0.00     0.210 HD
ENDBRANCH  35  36
ENDBRANCH  29  35
BRANCH  30  38
ATOM     38  O   UNL     1      17.973  -7.672 -16.236  1.00  0.00    -0.387 OA
ATOM     39  H   UNL     1      17.707  -7.746 -17.187  1.00  0.00     0.211 HD
ENDBRANCH  30  38
ENDBRANCH   1  25
TORSDOF 11
ENDMDL
MODEL 6
REMARK VINA RESULT:    -6.282      1.959      6.721
REMARK INTER + INTRA:         -10.298
REMARK INTER:                  -8.518
REMARK INTRA:                  -1.779
REMARK UNBOUND:                -1.261
REMARK SMILES O=c1c(O[C@H]2O[C@H](CO)[C@H](O)[C@@H](O)[C@@H]2O)c(-c2ccc(O)cc2)oc2cc(O)cc(O)c12
REMARK SMILES IDX 4 1 3 2 16 3 24 4 2 5 25 6 1 7 32 8 26 9 30 10 27 11 29 12
REMARK SMILES IDX 17 13 18 14 19 15 20 16 23 17 22 18 21 19 31 21 28 23 5 25
REMARK SMILES IDX 14 26 6 27 12 28 7 29 10 30 15 31 13 33 8 35 9 36 11 38
REMARK H PARENT 21 20 31 22 28 24 15 32 13 34 9 37 11 39
REMARK Flexibility Score: inf
ROOT
ATOM      1  O   UNL     1      15.548  -2.850 -11.437  1.00  0.00    -0.454 OA
ENDROOT
BRANCH   1   2
ATOM      2  C   UNL     1      15.255  -2.730 -12.786  1.00  0.00     0.214 A 
ATOM      3  C   UNL     1      16.074  -3.300 -13.803  1.00  0.00     0.180 A 
ATOM      4  O   UNL     1      16.625  -2.495 -14.714  1.00  0.00    -0.452 OA
ATOM      5  C   UNL     1      14.700  -1.487 -13.113  1.00  0.00     0.239 A 
ATOM      6  C   UNL     1      16.498  -1.177 -14.659  1.00  0.00     0.146 A 
ATOM      7  O   UNL     1      13.594  -1.105 -12.623  1.00  0.00    -0.285 OA
ATOM      8  C   UNL     1      15.540  -0.578 -13.814  1.00  0.00     0.111 A 
ATOM      9  C   UNL     1      17.411  -0.361 -15.325  1.00  0.00     0.094 A 
ATOM     10  C   UNL     1      15.753   0.774 -13.329  1.00  0.00     0.134 A 
ATOM     11  C   UNL     1      17.573   0.999 -14.921  1.00  0.00     0.123 A 
ATOM     12  C   UNL     1      16.796   1.553 -13.896  1.00  0.00     0.093 A 
BRANCH   3  13
ATOM     13  C   UNL     1      16.469  -4.702 -13.786  1.00  0.00     0.021 A 
ATOM     14  C   UNL     1      15.765  -5.645 -14.549  1.00  0.00     0.016 A 
ATOM     15  C   UNL     1      16.049  -7.007 -14.418  1.00  0.00     0.047 A 
ATOM     16  C   UNL     1      16.976  -7.427 -13.449  1.00  0.00     0.115 A 
ATOM     17  C   UNL     1      17.521  -5.110 -12.970  1.00  0.00     0.016 A 
ATOM     18  C   UNL     1      17.781  -6.482 -12.795  1.00  0.00     0.047 A 
BRANCH  16  19
ATOM     19  O   UNL     1      17.035  -8.766 -13.086  1.00  0.00    -0.508 OA
ATOM     20  H   UNL     1      16.938  -9.038 -12.102  1.00  0.00     0.293 HD
ENDBRANCH  16  19
ENDBRANCH   3  13
BRANCH  10  21
ATOM     21  O   UNL     1      15.086   1.258 -12.183  1.00  0.00    -0.507 OA
ATOM     22  H   UNL     1      14.329   1.945 -12.284  1.00  0.00     0.293 HD
ENDBRANCH  10  21
BRANCH  11  23
ATOM     23  O   UNL     1      18.636   1.722 -15.500  1.00  0.00    -0.508 OA
ATOM     24  H   UNL     1      19.631   1.480 -15.327  1.00  0.00     0.293 HD
ENDBRANCH  11  23
ENDBRANCH   1   2
BRANCH   1  25
ATOM     25  C   UNL     1      16.499  -2.368 -10.506  1.00  0.00     0.339 C 
ATOM     26  C   UNL     1      16.695  -3.254  -9.266  1.00  0.00     0.214 C 
ATOM     27  O   UNL     1      16.237  -0.997 -10.208  1.00  0.00    -0.332 OA
ATOM     28  C   UNL     1      17.883  -2.716  -8.460  1.00  0.00     0.180 C 
ATOM     29  C   UNL     1      17.334  -0.386  -9.527  1.00  0.00     0.179 C 
ATOM     30  C   UNL     1      17.757  -1.188  -8.242  1.00  0.00     0.177 C 
BRANCH  26  31
ATOM     31  O   UNL     1      16.865  -4.615  -9.643  1.00  0.00    -0.384 OA
ATOM     32  H   UNL     1      17.079  -5.095  -8.795  1.00  0.00     0.211 HD
ENDBRANCH  26  31
BRANCH  28  33
ATOM     33  O   UNL     1      17.946  -3.399  -7.227  1.00  0.00    -0.387 OA
ATOM     34  H   UNL     1      17.121  -3.918  -7.115  1.00  0.00     0.211 HD
ENDBRANCH  28  33
BRANCH  29  35
ATOM     35  C   UNL     1      18.465  -0.021 -10.478  1.00  0.00     0.191 C 
BRANCH  35  36
ATOM     36  O   UNL     1      19.221   1.054 -10.003  1.00  0.00    -0.394 OA
ATOM     37  H   UNL     1      19.061   1.826 -10.613  1.00  0.00     0.210 HD
ENDBRANCH  35  36
ENDBRANCH  29  35
BRANCH  30  38
ATOM     38  O   UNL     1      18.945  -0.667  -7.688  1.00  0.00    -0.387 OA
ATOM     39  H   UNL     1      18.693   0.057  -7.061  1.00  0.00     0.211 HD
ENDBRANCH  30  38
ENDBRANCH   1  25
TORSDOF 11
ENDMDL
MODEL 7
REMARK VINA RESULT:    -6.271      3.356      5.051
REMARK INTER + INTRA:         -10.281
REMARK INTER:                  -8.872
REMARK INTRA:                  -1.409
REMARK UNBOUND:                -1.261
REMARK SMILES O=c1c(O[C@H]2O[C@H](CO)[C@H](O)[C@@H](O)[C@@H]2O)c(-c2ccc(O)cc2)oc2cc(O)cc(O)c12
REMARK SMILES IDX 4 1 3 2 16 3 24 4 2 5 25 6 1 7 32 8 26 9 30 10 27 11 29 12
REMARK SMILES IDX 17 13 18 14 19 15 20 16 23 17 22 18 21 19 31 21 28 23 5 25
REMARK SMILES IDX 14 26 6 27 12 28 7 29 10 30 15 31 13 33 8 35 9 36 11 38
REMARK H PARENT 21 20 31 22 28 24 15 32 13 34 9 37 11 39
REMARK Flexibility Score: inf
ROOT
ATOM      1  O   UNL     1      18.364  -1.931 -10.733  1.00  0.00    -0.454 OA
ENDROOT
BRANCH   1   2
ATOM      2  C   UNL     1      18.951  -0.970  -9.926  1.00  0.00     0.214 A 
ATOM      3  C   UNL     1      20.319  -0.595 -10.049  1.00  0.00     0.180 A 
ATOM      4  O   UNL     1      21.130  -0.758  -9.002  1.00  0.00    -0.452 OA
ATOM      5  C   UNL     1      18.470  -0.997  -8.611  1.00  0.00     0.239 A 
ATOM      6  C   UNL     1      20.722  -1.328  -7.877  1.00  0.00     0.146 A 
ATOM      7  O   UNL     1      17.249  -0.778  -8.346  1.00  0.00    -0.285 OA
ATOM      8  C   UNL     1      19.348  -1.522  -7.622  1.00  0.00     0.111 A 
ATOM      9  C   UNL     1      21.654  -1.877  -6.997  1.00  0.00     0.094 A 
ATOM     10  C   UNL     1      18.924  -2.588  -6.732  1.00  0.00     0.134 A 
ATOM     11  C   UNL     1      21.240  -2.864  -6.051  1.00  0.00     0.123 A 
ATOM     12  C   UNL     1      19.901  -3.263  -5.952  1.00  0.00     0.093 A 
BRANCH   3  13
ATOM     13  C   UNL     1      20.904  -0.200 -11.324  1.00  0.00     0.021 A 
ATOM     14  C   UNL     1      22.251  -0.474 -11.600  1.00  0.00     0.016 A 
ATOM     15  C   UNL     1      22.848   0.034 -12.758  1.00  0.00     0.047 A 
ATOM     16  C   UNL     1      22.114   0.897 -13.588  1.00  0.00     0.115 A 
ATOM     17  C   UNL     1      20.129   0.493 -12.250  1.00  0.00     0.016 A 
ATOM     18  C   UNL     1      20.733   1.049 -13.393  1.00  0.00     0.047 A 
BRANCH  16  19
ATOM     19  O   UNL     1      22.772   1.654 -14.548  1.00  0.00    -0.508 OA
ATOM     20  H   UNL     1      23.314   2.480 -14.271  1.00  0.00     0.293 HD
ENDBRANCH  16  19
ENDBRANCH   3  13
BRANCH  10  21
ATOM     21  O   UNL     1      17.609  -3.098  -6.769  1.00  0.00    -0.507 OA
ATOM     22  H   UNL     1      17.011  -2.911  -7.582  1.00  0.00     0.293 HD
ENDBRANCH  10  21
BRANCH  11  23
ATOM     23  O   UNL     1      22.250  -3.518  -5.317  1.00  0.00    -0.508 OA
ATOM     24  H   UNL     1      22.036  -4.237  -4.598  1.00  0.00     0.293 HD
ENDBRANCH  11  23
ENDBRANCH   1   2
BRANCH   1  25
ATOM     25  C   UNL     1      17.076  -2.283 -11.204  1.00  0.00     0.339 C 
ATOM     26  C   UNL     1      16.572  -3.658 -10.737  1.00  0.00     0.214 C 
ATOM     27  O   UNL     1      17.003  -2.085 -12.616  1.00  0.00    -0.332 OA
ATOM     28  C   UNL     1      15.104  -3.811 -11.154  1.00  0.00     0.180 C 
ATOM     29  C   UNL     1      15.654  -2.127 -13.086  1.00  0.00     0.179 C 
ATOM     30  C   UNL     1      14.913  -3.442 -12.646  1.00  0.00     0.177 C 
BRANCH  26  31
ATOM     31  O   UNL     1      16.757  -3.809  -9.334  1.00  0.00    -0.384 OA
ATOM     32  H   UNL     1      16.147  -4.553  -9.070  1.00  0.00     0.211 HD
ENDBRANCH  26  31
BRANCH  28  33
ATOM     33  O   UNL     1      14.694  -5.138 -10.904  1.00  0.00    -0.387 OA
ATOM     34  H   UNL     1      15.244  -5.503 -10.178  1.00  0.00     0.211 HD
ENDBRANCH  28  33
BRANCH  29  35
ATOM     35  C   UNL     1      14.912  -0.828 -12.809  1.00  0.00     0.191 C 
BRANCH  35  36
ATOM     36  O   UNL     1      13.955  -0.977 -11.801  1.00  0.00    -0.394 OA
ATOM     37  H   UNL     1      13.947  -1.938 -11.535  1.00  0.00     0.210 HD
ENDBRANCH  35  36
ENDBRANCH  29  35
BRANCH  30  38
ATOM     38  O   UNL     1      13.541  -3.382 -12.969  1.00  0.00    -0.387 OA
ATOM     39  H   UNL     1      13.048  -3.137 -12.146  1.00  0.00     0.211 HD
ENDBRANCH  30  38
ENDBRANCH   1  25
TORSDOF 11
ENDMDL
MODEL 8
REMARK VINA RESULT:    -6.251      3.977      6.890
REMARK INTER + INTRA:         -10.253
REMARK INTER:                  -8.583
REMARK INTRA:                  -1.670
REMARK UNBOUND:                -1.261
REMARK SMILES O=c1c(O[C@H]2O[C@H](CO)[C@H](O)[C@@H](O)[C@@H]2O)c(-c2ccc(O)cc2)oc2cc(O)cc(O)c12
REMARK SMILES IDX 4 1 3 2 16 3 24 4 2 5 25 6 1 7 32 8 26 9 30 10 27 11 29 12
REMARK SMILES IDX 17 13 18 14 19 15 20 16 23 17 22 18 21 19 31 21 28 23 5 25
REMARK SMILES IDX 14 26 6 27 12 28 7 29 10 30 15 31 13 33 8 35 9 36 11 38
REMARK H PARENT 21 20 31 22 28 24 15 32 13 34 9 37 11 39
REMARK Flexibility Score: inf
ROOT
ATOM      1  O   UNL     1      20.451  -2.980 -11.989  1.00  0.00    -0.454 OA
ENDROOT
BRANCH   1   2
ATOM      2  C   UNL     1      21.639  -2.771 -11.309  1.00  0.00     0.214 A 
ATOM      3  C   UNL     1      22.397  -3.835 -10.741  1.00  0.00     0.180 A 
ATOM      4  O   UNL     1      22.624  -3.836  -9.426  1.00  0.00    -0.452 OA
ATOM      5  C   UNL     1      21.633  -1.592 -10.553  1.00  0.00     0.239 A 
ATOM      6  C   UNL     1      22.105  -2.921  -8.621  1.00  0.00     0.146 A 
ATOM      7  O   UNL     1      21.500  -0.455 -11.099  1.00  0.00    -0.285 OA
ATOM      8  C   UNL     1      21.532  -1.741  -9.142  1.00  0.00     0.111 A 
ATOM      9  C   UNL     1      21.984  -3.181  -7.257  1.00  0.00     0.094 A 
ATOM     10  C   UNL     1      20.510  -1.041  -8.385  1.00  0.00     0.134 A 
ATOM     11  C   UNL     1      21.045  -2.442  -6.474  1.00  0.00     0.123 A 
ATOM     12  C   UNL     1      20.271  -1.419  -7.037  1.00  0.00     0.093 A 
BRANCH   3  13
ATOM     13  C   UNL     1      22.787  -5.008 -11.513  1.00  0.00     0.021 A 
ATOM     14  C   UNL     1      23.993  -5.016 -12.228  1.00  0.00     0.016 A 
ATOM     15  C   UNL     1      24.295  -6.079 -13.084  1.00  0.00     0.047 A 
ATOM     16  C   UNL     1      23.339  -7.087 -13.294  1.00  0.00     0.115 A 
ATOM     17  C   UNL     1      21.932  -6.105 -11.576  1.00  0.00     0.016 A 
ATOM     18  C   UNL     1      22.204  -7.155 -12.473  1.00  0.00     0.047 A 
BRANCH  16  19
ATOM     19  O   UNL     1      23.483  -7.962 -14.362  1.00  0.00    -0.508 OA
ATOM     20  H   UNL     1      23.790  -7.613 -15.277  1.00  0.00     0.293 HD
ENDBRANCH  16  19
ENDBRANCH   3  13
BRANCH  10  21
ATOM     21  O   UNL     1      19.620  -0.139  -9.008  1.00  0.00    -0.507 OA
ATOM     22  H   UNL     1      19.982   0.566  -9.661  1.00  0.00     0.293 HD
ENDBRANCH  10  21
BRANCH  11  23
ATOM     23  O   UNL     1      20.831  -2.871  -5.148  1.00  0.00    -0.508 OA
ATOM     24  H   UNL     1      19.886  -3.110  -4.789  1.00  0.00     0.293 HD
ENDBRANCH  11  23
ENDBRANCH   1   2
BRANCH   1  25
ATOM     25  C   UNL     1      19.089  -3.237 -11.700  1.00  0.00     0.339 C 
ATOM     26  C   UNL     1      18.291  -3.865 -12.854  1.00  0.00     0.214 C 
ATOM     27  O   UNL     1      18.483  -2.074 -11.137  1.00  0.00    -0.332 OA
ATOM     28  C   UNL     1      16.906  -4.266 -12.333  1.00  0.00     0.180 C 
ATOM     29  C   UNL     1      17.215  -2.371 -10.548  1.00  0.00     0.179 C 
ATOM     30  C   UNL     1      16.250  -3.099 -11.554  1.00  0.00     0.177 C 
BRANCH  26  31
ATOM     31  O   UNL     1      19.001  -4.963 -13.415  1.00  0.00    -0.384 OA
ATOM     32  H   UNL     1      19.468  -5.392 -12.644  1.00  0.00     0.211 HD
ENDBRANCH  26  31
BRANCH  28  33
ATOM     33  O   UNL     1      16.104  -4.660 -13.425  1.00  0.00    -0.387 OA
ATOM     34  H   UNL     1      16.228  -4.014 -14.153  1.00  0.00     0.211 HD
ENDBRANCH  28  33
BRANCH  29  35
ATOM     35  C   UNL     1      17.359  -3.025  -9.182  1.00  0.00     0.191 C 
BRANCH  35  36
ATOM     36  O   UNL     1      17.016  -4.380  -9.212  1.00  0.00    -0.394 OA
ATOM     37  H   UNL     1      16.024  -4.436  -9.290  1.00  0.00     0.210 HD
ENDBRANCH  35  36
ENDBRANCH  29  35
BRANCH  30  38
ATOM     38  O   UNL     1      15.077  -3.537 -10.903  1.00  0.00    -0.387 OA
ATOM     39  H   UNL     1      14.429  -2.789 -10.913  1.00  0.00     0.211 HD
ENDBRANCH  30  38
ENDBRANCH   1  25
TORSDOF 11
ENDMDL
MODEL 9
REMARK VINA RESULT:    -6.205      4.227      8.452
REMARK INTER + INTRA:         -10.186
REMARK INTER:                  -8.377
REMARK INTRA:                  -1.809
REMARK UNBOUND:                -1.261
REMARK SMILES O=c1c(O[C@H]2O[C@H](CO)[C@H](O)[C@@H](O)[C@@H]2O)c(-c2ccc(O)cc2)oc2cc(O)cc(O)c12
REMARK SMILES IDX 4 1 3 2 16 3 24 4 2 5 25 6 1 7 32 8 26 9 30 10 27 11 29 12
REMARK SMILES IDX 17 13 18 14 19 15 20 16 23 17 22 18 21 19 31 21 28 23 5 25
REMARK SMILES IDX 14 26 6 27 12 28 7 29 10 30 15 31 13 33 8 35 9 36 11 38
REMARK H PARENT 21 20 31 22 28 24 15 32 13 34 9 37 11 39
REMARK Flexibility Score: inf
ROOT
ATOM      1  O   UNL     1      21.452  -0.013  -8.545  1.00  0.00    -0.454 OA
ENDROOT
BRANCH   1   2
ATOM      2  C   UNL     1      20.644  -0.642  -7.613  1.00  0.00     0.214 A 
ATOM      3  C   UNL     1      20.658  -2.052  -7.410  1.00  0.00     0.180 A 
ATOM      4  O   UNL     1      19.532  -2.743  -7.603  1.00  0.00    -0.452 OA
ATOM      5  C   UNL     1      19.380  -0.049  -7.501  1.00  0.00     0.239 A 
ATOM      6  C   UNL     1      18.423  -2.172  -8.049  1.00  0.00     0.146 A 
ATOM      7  O   UNL     1      19.242   1.153  -7.123  1.00  0.00    -0.285 OA
ATOM      8  C   UNL     1      18.288  -0.768  -8.064  1.00  0.00     0.111 A 
ATOM      9  C   UNL     1      17.433  -2.949  -8.649  1.00  0.00     0.094 A 
ATOM     10  C   UNL     1      17.388  -0.140  -9.015  1.00  0.00     0.134 A 
ATOM     11  C   UNL     1      16.481  -2.336  -9.520  1.00  0.00     0.123 A 
ATOM     12  C   UNL     1      16.487  -0.955  -9.751  1.00  0.00     0.093 A 
BRANCH   3  13
ATOM     13  C   UNL     1      21.891  -2.789  -7.167  1.00  0.00     0.021 A 
ATOM     14  C   UNL     1      22.705  -3.180  -8.240  1.00  0.00     0.016 A 
ATOM     15  C   UNL     1      23.806  -4.011  -8.019  1.00  0.00     0.047 A 
ATOM     16  C   UNL     1      24.032  -4.527  -6.732  1.00  0.00     0.115 A 
ATOM     17  C   UNL     1      22.235  -3.145  -5.866  1.00  0.00     0.016 A 
ATOM     18  C   UNL     1      23.312  -4.021  -5.640  1.00  0.00     0.047 A 
BRANCH  16  19
ATOM     19  O   UNL     1      24.911  -5.588  -6.559  1.00  0.00    -0.508 OA
ATOM     20  H   UNL     1      25.608  -5.803  -7.280  1.00  0.00     0.293 HD
ENDBRANCH  16  19
ENDBRANCH   3  13
BRANCH  10  21
ATOM     21  O   UNL     1      17.522   1.220  -9.368  1.00  0.00    -0.507 OA
ATOM     22  H   UNL     1      17.398   1.509 -10.345  1.00  0.00     0.293 HD
ENDBRANCH  10  21
BRANCH  11  23
ATOM     23  O   UNL     1      15.623  -3.190 -10.242  1.00  0.00    -0.508 OA
ATOM     24  H   UNL     1      15.204  -2.916 -11.152  1.00  0.00     0.293 HD
ENDBRANCH  11  23
ENDBRANCH   1   2
BRANCH   1  25
ATOM     25  C   UNL     1      21.513   0.176  -9.947  1.00  0.00     0.339 C 
ATOM     26  C   UNL     1      22.899   0.564 -10.486  1.00  0.00     0.214 C 
ATOM     27  O   UNL     1      20.460   1.042 -10.368  1.00  0.00    -0.332 OA
ATOM     28  C   UNL     1      22.856   0.537 -12.019  1.00  0.00     0.180 C 
ATOM     29  C   UNL     1      20.289   1.017 -11.786  1.00  0.00     0.179 C 
ATOM     30  C   UNL     1      21.630   1.319 -12.551  1.00  0.00     0.177 C 
BRANCH  26  31
ATOM     31  O   UNL     1      23.902  -0.293  -9.955  1.00  0.00    -0.384 OA
ATOM     32  H   UNL     1      23.427  -0.871  -9.295  1.00  0.00     0.211 HD
ENDBRANCH  26  31
BRANCH  28  33
ATOM     33  O   UNL     1      24.058   1.078 -12.520  1.00  0.00    -0.387 OA
ATOM     34  H   UNL     1      24.272   0.633 -13.368  1.00  0.00     0.211 HD
ENDBRANCH  28  33
BRANCH  29  35
ATOM     35  C   UNL     1      19.532  -0.220 -12.248  1.00  0.00     0.191 C 
BRANCH  35  36
ATOM     36  O   UNL     1      18.927  -0.029 -13.493  1.00  0.00    -0.394 OA
ATOM     37  H   UNL     1      18.314  -0.799 -13.650  1.00  0.00     0.210 HD
ENDBRANCH  35  36
ENDBRANCH  29  35
BRANCH  30  38
ATOM     38  O   UNL     1      21.478   1.116 -13.939  1.00  0.00    -0.387 OA
ATOM     39  H   UNL     1      22.352   0.822 -14.298  1.00  0.00     0.211 HD
ENDBRANCH  30  38
ENDBRANCH   1  25
TORSDOF 11
ENDMDL
