MODEL 1
REMARK VINA RESULT:    -2.806      0.000      0.000
REMARK INTER + INTRA:          -2.888
REMARK INTER:                  -2.888
REMARK INTRA:                   0.000
REMARK UNBOUND:                 0.000
REMARK SMILES CC1(C)[C@@H]2CC[C@@](C)(C2)[C@H]1O
REMARK SMILES IDX 1 1 2 2 4 3 5 4 6 5 7 6 9 7 10 8 8 9 3 10 11 11
REMARK H PARENT 11 12
REMARK Flexibility Score: inf
ROOT
ATOM      1  C   UNL     1     128.510 110.704 119.235  1.00  0.00     0.014 C 
ATOM      2  C   UNL     1     128.010 112.063 118.683  1.00  0.00    -0.006 C 
ATOM      3  C   UNL     1     129.163 113.098 118.438  1.00  0.00    -0.002 C 
ATOM      4  C   UNL     1     130.095 113.205 119.665  1.00  0.00     0.005 C 
ATOM      5  C   UNL     1     129.201 113.881 120.716  1.00  0.00     0.010 C 
ATOM      6  C   UNL     1     127.898 114.161 119.929  1.00  0.00    -0.006 C 
ATOM      7  C   UNL     1     128.442 114.431 118.542  1.00  0.00     0.013 C 
ATOM      8  C   UNL     1     127.133 112.814 119.744  1.00  0.00     0.126 C 
ATOM      9  C   UNL     1     127.071 115.308 120.526  1.00  0.00     0.014 C 
ATOM     10  C   UNL     1     127.273 111.771 117.351  1.00  0.00     0.014 C 
ENDROOT
BRANCH   8  11
ATOM     11  O   UNL     1     125.790 112.981 119.345  1.00  0.00    -0.392 OA
ATOM     12  H   UNL     1     125.670 113.900 118.994  1.00  0.00     0.211 HD
ENDBRANCH   8  11
TORSDOF 1
ENDMDL
MODEL 2
REMARK VINA RESULT:    -2.791     14.153     15.294
REMARK INTER + INTRA:          -2.873
REMARK INTER:                  -2.873
REMARK INTRA:                   0.000
REMARK UNBOUND:                 0.000
REMARK SMILES CC1(C)[C@@H]2CC[C@@](C)(C2)[C@H]1O
REMARK SMILES IDX 1 1 2 2 4 3 5 4 6 5 7 6 9 7 10 8 8 9 3 10 11 11
REMARK H PARENT 11 12
REMARK Flexibility Score: inf
ROOT
ATOM      1  C   UNL     1     128.305 128.470 119.369  1.00  0.00     0.014 C 
ATOM      2  C   UNL     1     126.958 128.019 118.749  1.00  0.00    -0.006 C 
ATOM      3  C   UNL     1     125.965 129.205 118.488  1.00  0.00    -0.002 C 
ATOM      4  C   UNL     1     125.829 130.110 119.732  1.00  0.00     0.005 C 
ATOM      5  C   UNL     1     125.087 129.210 120.732  1.00  0.00     0.010 C 
ATOM      6  C   UNL     1     124.807 127.934 119.902  1.00  0.00    -0.006 C 
ATOM      7  C   UNL     1     124.610 128.517 118.519  1.00  0.00     0.013 C 
ATOM      8  C   UNL     1     126.140 127.138 119.755  1.00  0.00     0.126 C 
ATOM      9  C   UNL     1     123.614 127.124 120.430  1.00  0.00     0.014 C 
ATOM     10  C   UNL     1     127.288 127.306 117.413  1.00  0.00     0.014 C 
ENDROOT
BRANCH   8  11
ATOM     11  O   UNL     1     125.956 125.810 119.317  1.00  0.00    -0.392 OA
ATOM     12  H   UNL     1     126.842 125.373 119.230  1.00  0.00     0.211 HD
ENDBRANCH   8  11
TORSDOF 1
ENDMDL
MODEL 3
REMARK VINA RESULT:    -2.687     21.326     22.230
REMARK INTER + INTRA:          -2.766
REMARK INTER:                  -2.766
REMARK INTRA:                   0.000
REMARK UNBOUND:                 0.000
REMARK SMILES CC1(C)[C@@H]2CC[C@@](C)(C2)[C@H]1O
REMARK SMILES IDX 1 1 2 2 4 3 5 4 6 5 7 6 9 7 10 8 8 9 3 10 11 11
REMARK H PARENT 11 12
REMARK Flexibility Score: inf
ROOT
ATOM      1  C   UNL     1     114.593 129.625 116.336  1.00  0.00     0.014 C 
ATOM      2  C   UNL     1     113.063 129.380 116.346  1.00  0.00    -0.006 C 
ATOM      3  C   UNL     1     112.361 129.875 117.659  1.00  0.00    -0.002 C 
ATOM      4  C   UNL     1     113.102 129.373 118.917  1.00  0.00     0.005 C 
ATOM      5  C   UNL     1     112.831 127.861 118.894  1.00  0.00     0.010 C 
ATOM      6  C   UNL     1     111.891 127.700 117.675  1.00  0.00    -0.006 C 
ATOM      7  C   UNL     1     111.120 129.002 117.722  1.00  0.00     0.013 C 
ATOM      8  C   UNL     1     112.738 127.847 116.374  1.00  0.00     0.126 C 
ATOM      9  C   UNL     1     111.019 126.438 117.752  1.00  0.00     0.014 C 
ATOM     10  C   UNL     1     112.473 130.125 115.121  1.00  0.00     0.014 C 
ENDROOT
BRANCH   8  11
ATOM     11  O   UNL     1     112.072 127.392 115.216  1.00  0.00    -0.392 OA
ATOM     12  H   UNL     1     111.101 127.332 115.405  1.00  0.00     0.211 HD
ENDBRANCH   8  11
TORSDOF 1
ENDMDL
MODEL 4
REMARK VINA RESULT:    -2.637      1.197      3.126
REMARK INTER + INTRA:          -2.714
REMARK INTER:                  -2.714
REMARK INTRA:                   0.000
REMARK UNBOUND:                 0.000
REMARK SMILES CC1(C)[C@@H]2CC[C@@](C)(C2)[C@H]1O
REMARK SMILES IDX 1 1 2 2 4 3 5 4 6 5 7 6 9 7 10 8 8 9 3 10 11 11
REMARK H PARENT 11 12
REMARK Flexibility Score: inf
ROOT
ATOM      1  C   UNL     1     127.875 115.082 118.881  1.00  0.00     0.014 C 
ATOM      2  C   UNL     1     127.549 113.642 119.350  1.00  0.00    -0.006 C 
ATOM      3  C   UNL     1     128.606 113.058 120.352  1.00  0.00    -0.002 C 
ATOM      4  C   UNL     1     130.045 113.254 119.828  1.00  0.00     0.005 C 
ATOM      5  C   UNL     1     130.104 112.304 118.623  1.00  0.00     0.010 C 
ATOM      6  C   UNL     1     128.720 111.612 118.663  1.00  0.00    -0.006 C 
ATOM      7  C   UNL     1     128.459 111.559 120.153  1.00  0.00     0.013 C 
ATOM      8  C   UNL     1     127.647 112.626 118.160  1.00  0.00     0.126 C 
ATOM      9  C   UNL     1     128.711 110.246 117.963  1.00  0.00     0.014 C 
ATOM     10  C   UNL     1     126.153 113.687 120.025  1.00  0.00     0.014 C 
ENDROOT
BRANCH   8  11
ATOM     11  O   UNL     1     126.414 112.023 117.834  1.00  0.00    -0.392 OA
ATOM     12  H   UNL     1     126.535 111.040 117.795  1.00  0.00     0.211 HD
ENDBRANCH   8  11
TORSDOF 1
ENDMDL
MODEL 5
REMARK VINA RESULT:    -2.626     13.431     15.425
REMARK INTER + INTRA:          -2.702
REMARK INTER:                  -2.702
REMARK INTRA:                   0.000
REMARK UNBOUND:                 0.000
REMARK SMILES CC1(C)[C@@H]2CC[C@@](C)(C2)[C@H]1O
REMARK SMILES IDX 1 1 2 2 4 3 5 4 6 5 7 6 9 7 10 8 8 9 3 10 11 11
REMARK H PARENT 11 12
REMARK Flexibility Score: inf
ROOT
ATOM      1  C   UNL     1     123.990 127.816 118.878  1.00  0.00     0.014 C 
ATOM      2  C   UNL     1     125.438 127.510 119.336  1.00  0.00    -0.006 C 
ATOM      3  C   UNL     1     125.997 128.547 120.372  1.00  0.00    -0.002 C 
ATOM      4  C   UNL     1     125.766 129.998 119.897  1.00  0.00     0.005 C 
ATOM      5  C   UNL     1     126.713 130.120 118.694  1.00  0.00     0.010 C 
ATOM      6  C   UNL     1     127.438 128.753 118.688  1.00  0.00    -0.006 C 
ATOM      7  C   UNL     1     127.499 128.443 120.169  1.00  0.00     0.013 C 
ATOM      8  C   UNL     1     126.451 127.672 118.150  1.00  0.00     0.126 C 
ATOM      9  C   UNL     1     128.804 128.800 117.988  1.00  0.00     0.014 C 
ATOM     10  C   UNL     1     125.428 126.092 119.964  1.00  0.00     0.014 C 
ENDROOT
BRANCH   8  11
ATOM     11  O   UNL     1     127.083 126.466 117.782  1.00  0.00    -0.392 OA
ATOM     12  H   UNL     1     127.712 126.645 117.038  1.00  0.00     0.211 HD
ENDBRANCH   8  11
TORSDOF 1
ENDMDL
MODEL 6
REMARK VINA RESULT:    -2.516     12.243     13.955
REMARK INTER + INTRA:          -2.590
REMARK INTER:                  -2.590
REMARK INTRA:                   0.000
REMARK UNBOUND:                 0.000
REMARK SMILES CC1(C)[C@@H]2CC[C@@](C)(C2)[C@H]1O
REMARK SMILES IDX 1 1 2 2 4 3 5 4 6 5 7 6 9 7 10 8 8 9 3 10 11 11
REMARK H PARENT 11 12
REMARK Flexibility Score: inf
ROOT
ATOM      1  C   UNL     1     129.983 126.084 119.480  1.00  0.00     0.014 C 
ATOM      2  C   UNL     1     128.789 126.012 118.496  1.00  0.00    -0.006 C 
ATOM      3  C   UNL     1     128.976 126.907 117.221  1.00  0.00    -0.002 C 
ATOM      4  C   UNL     1     129.414 128.339 117.598  1.00  0.00     0.005 C 
ATOM      5  C   UNL     1     128.162 128.912 118.278  1.00  0.00     0.010 C 
ATOM      6  C   UNL     1     127.132 127.767 118.123  1.00  0.00    -0.006 C 
ATOM      7  C   UNL     1     127.545 127.177 116.791  1.00  0.00     0.013 C 
ATOM      8  C   UNL     1     127.497 126.634 119.130  1.00  0.00     0.126 C 
ATOM      9  C   UNL     1     125.678 128.255 118.182  1.00  0.00     0.014 C 
ATOM     10  C   UNL     1     128.631 124.527 118.078  1.00  0.00     0.014 C 
ENDROOT
BRANCH   8  11
ATOM     11  O   UNL     1     126.459 125.698 119.323  1.00  0.00    -0.392 OA
ATOM     12  H   UNL     1     126.721 124.836 118.909  1.00  0.00     0.211 HD
ENDBRANCH   8  11
TORSDOF 1
ENDMDL
MODEL 7
REMARK VINA RESULT:    -2.510     21.098     22.176
REMARK INTER + INTRA:          -2.583
REMARK INTER:                  -2.583
REMARK INTRA:                   0.000
REMARK UNBOUND:                 0.000
REMARK SMILES CC1(C)[C@@H]2CC[C@@](C)(C2)[C@H]1O
REMARK SMILES IDX 1 1 2 2 4 3 5 4 6 5 7 6 9 7 10 8 8 9 3 10 11 11
REMARK H PARENT 11 12
REMARK Flexibility Score: inf
ROOT
ATOM      1  C   UNL     1     111.430 127.021 117.510  1.00  0.00     0.014 C 
ATOM      2  C   UNL     1     111.870 128.497 117.345  1.00  0.00    -0.006 C 
ATOM      3  C   UNL     1     111.834 128.996 115.857  1.00  0.00    -0.002 C 
ATOM      4  C   UNL     1     112.545 128.003 114.913  1.00  0.00     0.005 C 
ATOM      5  C   UNL     1     114.020 128.139 115.319  1.00  0.00     0.010 C 
ATOM      6  C   UNL     1     113.981 129.263 116.383  1.00  0.00    -0.006 C 
ATOM      7  C   UNL     1     112.851 130.125 115.860  1.00  0.00     0.013 C 
ATOM      8  C   UNL     1     113.387 128.676 117.700  1.00  0.00     0.126 C 
ATOM      9  C   UNL     1     115.323 129.993 116.536  1.00  0.00     0.014 C 
ATOM     10  C   UNL     1     110.916 129.358 118.212  1.00  0.00     0.014 C 
ENDROOT
BRANCH   8  11
ATOM     11  O   UNL     1     113.606 129.494 118.828  1.00  0.00    -0.392 OA
ATOM     12  H   UNL     1     114.049 128.958 119.535  1.00  0.00     0.211 HD
ENDBRANCH   8  11
TORSDOF 1
ENDMDL
MODEL 8
REMARK VINA RESULT:    -2.507     11.898     13.671
REMARK INTER + INTRA:          -2.580
REMARK INTER:                  -2.580
REMARK INTRA:                   0.000
REMARK UNBOUND:                 0.000
REMARK SMILES CC1(C)[C@@H]2CC[C@@](C)(C2)[C@H]1O
REMARK SMILES IDX 1 1 2 2 4 3 5 4 6 5 7 6 9 7 10 8 8 9 3 10 11 11
REMARK H PARENT 11 12
REMARK Flexibility Score: inf
ROOT
ATOM      1  C   UNL     1     126.901 127.485 117.728  1.00  0.00     0.014 C 
ATOM      2  C   UNL     1     128.391 127.076 117.613  1.00  0.00    -0.006 C 
ATOM      3  C   UNL     1     128.984 127.276 116.175  1.00  0.00    -0.002 C 
ATOM      4  C   UNL     1     128.064 126.663 115.097  1.00  0.00     0.005 C 
ATOM      5  C   UNL     1     128.195 125.153 115.351  1.00  0.00     0.010 C 
ATOM      6  C   UNL     1     129.248 125.087 116.484  1.00  0.00    -0.006 C 
ATOM      7  C   UNL     1     130.125 126.273 116.143  1.00  0.00     0.013 C 
ATOM      8  C   UNL     1     128.569 125.532 117.816  1.00  0.00     0.126 C 
ATOM      9  C   UNL     1     129.986 123.742 116.541  1.00  0.00     0.014 C 
ATOM     10  C   UNL     1     129.180 127.939 118.632  1.00  0.00     0.014 C 
ENDROOT
BRANCH   8  11
ATOM     11  O   UNL     1     129.316 125.199 118.966  1.00  0.00    -0.392 OA
ATOM     12  H   UNL     1     130.168 124.777 118.686  1.00  0.00     0.211 HD
ENDBRANCH   8  11
TORSDOF 1
ENDMDL
MODEL 9
REMARK VINA RESULT:    -2.377      1.401      2.228
REMARK INTER + INTRA:          -2.447
REMARK INTER:                  -2.447
REMARK INTRA:                   0.000
REMARK UNBOUND:                 0.000
REMARK SMILES CC1(C)[C@@H]2CC[C@@](C)(C2)[C@H]1O
REMARK SMILES IDX 1 1 2 2 4 3 5 4 6 5 7 6 9 7 10 8 8 9 3 10 11 11
REMARK H PARENT 11 12
REMARK Flexibility Score: inf
ROOT
ATOM      1  C   UNL     1     126.698 110.005 120.437  1.00  0.00     0.014 C 
ATOM      2  C   UNL     1     126.516 110.983 119.249  1.00  0.00    -0.006 C 
ATOM      3  C   UNL     1     127.575 110.783 118.109  1.00  0.00    -0.002 C 
ATOM      4  C   UNL     1     129.009 110.721 118.677  1.00  0.00     0.005 C 
ATOM      5  C   UNL     1     129.247 112.159 119.163  1.00  0.00     0.010 C 
ATOM      6  C   UNL     1     127.953 112.887 118.728  1.00  0.00    -0.006 C 
ATOM      7  C   UNL     1     127.615 112.151 117.449  1.00  0.00     0.013 C 
ATOM      8  C   UNL     1     126.800 112.461 119.687  1.00  0.00     0.126 C 
ATOM      9  C   UNL     1     128.143 114.401 118.562  1.00  0.00     0.014 C 
ATOM     10  C   UNL     1     125.088 110.757 118.687  1.00  0.00     0.014 C 
ENDROOT
BRANCH   8  11
ATOM     11  O   UNL     1     125.666 113.297 119.608  1.00  0.00    -0.392 OA
ATOM     12  H   UNL     1     125.947 114.236 119.754  1.00  0.00     0.211 HD
ENDBRANCH   8  11
TORSDOF 1
ENDMDL
