MODEL 1
REMARK VINA RESULT:    -8.682      0.000      0.000
REMARK INTER + INTRA:         -10.474
REMARK INTER:                 -10.205
REMARK INTRA:                  -0.270
REMARK UNBOUND:                -0.270
REMARK SMILES O=c1cc(-c2ccc(O)c(O)c2)oc2cc(O)cc(O)c12
REMARK SMILES IDX 4 1 3 2 2 3 1 4 21 5 19 6 18 7 16 8 15 9 14 10 13 11 5 12
REMARK SMILES IDX 6 13 7 14 8 15 12 16 10 17 9 18 11 20 20 22 17 24
REMARK H PARENT 9 19 11 21 20 23 17 25
REMARK Flexibility Score: inf
ROOT
ATOM      1  C   UNL     1      16.647  -2.560  -6.362  1.00  0.00     0.138 A 
ATOM      2  C   UNL     1      17.783  -2.284  -5.588  1.00  0.00     0.100 A 
ATOM      3  C   UNL     1      17.754  -2.515  -4.212  1.00  0.00     0.197 A 
ATOM      4  O   UNL     1      18.770  -2.206  -3.537  1.00  0.00    -0.289 OA
ATOM      5  C   UNL     1      16.592  -3.060  -3.614  1.00  0.00     0.107 A 
ATOM      6  C   UNL     1      16.459  -3.370  -2.227  1.00  0.00     0.134 A 
ATOM      7  C   UNL     1      15.226  -3.813  -1.734  1.00  0.00     0.093 A 
ATOM      8  C   UNL     1      14.137  -4.014  -2.587  1.00  0.00     0.123 A 
ATOM      9  C   UNL     1      14.271  -3.762  -3.950  1.00  0.00     0.094 A 
ATOM     10  C   UNL     1      15.479  -3.286  -4.467  1.00  0.00     0.146 A 
ATOM     11  O   UNL     1      15.558  -3.042  -5.771  1.00  0.00    -0.456 OA
ENDROOT
BRANCH   1  12
ATOM     12  C   UNL     1      16.623  -2.336  -7.829  1.00  0.00     0.021 A 
ATOM     13  C   UNL     1      16.297  -3.403  -8.685  1.00  0.00     0.016 A 
ATOM     14  C   UNL     1      16.261  -3.218 -10.070  1.00  0.00     0.051 A 
ATOM     15  C   UNL     1      16.539  -1.961 -10.621  1.00  0.00     0.157 A 
ATOM     16  C   UNL     1      16.890  -1.072  -8.391  1.00  0.00     0.062 A 
ATOM     17  C   UNL     1      16.851  -0.887  -9.781  1.00  0.00     0.158 A 
BRANCH  15  18
ATOM     18  O   UNL     1      16.505  -1.773 -12.001  1.00  0.00    -0.504 OA
ATOM     19  H   UNL     1      17.337  -1.875 -12.571  1.00  0.00     0.293 HD
ENDBRANCH  15  18
BRANCH  17  20
ATOM     20  O   UNL     1      17.117   0.365 -10.333  1.00  0.00    -0.504 OA
ATOM     21  H   UNL     1      17.279   0.485 -11.326  1.00  0.00     0.293 HD
ENDBRANCH  17  20
ENDBRANCH   1  12
BRANCH   6  22
ATOM     22  O   UNL     1      17.503  -3.282  -1.301  1.00  0.00    -0.507 OA
ATOM     23  H   UNL     1      17.524  -2.662  -0.507  1.00  0.00     0.293 HD
ENDBRANCH   6  22
BRANCH   8  24
ATOM     24  O   UNL     1      12.919  -4.470  -2.090  1.00  0.00    -0.508 OA
ATOM     25  H   UNL     1      12.710  -4.448  -1.099  1.00  0.00     0.293 HD
ENDBRANCH   8  24
TORSDOF 5
ENDMDL
MODEL 2
REMARK VINA RESULT:    -8.651      1.318      2.553
REMARK INTER + INTRA:         -10.438
REMARK INTER:                 -10.129
REMARK INTRA:                  -0.309
REMARK UNBOUND:                -0.270
REMARK SMILES O=c1cc(-c2ccc(O)c(O)c2)oc2cc(O)cc(O)c12
REMARK SMILES IDX 4 1 3 2 2 3 1 4 21 5 19 6 18 7 16 8 15 9 14 10 13 11 5 12
REMARK SMILES IDX 6 13 7 14 8 15 12 16 10 17 9 18 11 20 20 22 17 24
REMARK H PARENT 9 19 11 21 20 23 17 25
REMARK Flexibility Score: inf
ROOT
ATOM      1  C   UNL     1      16.194  -2.795  -6.192  1.00  0.00     0.138 A 
ATOM      2  C   UNL     1      15.418  -3.881  -5.765  1.00  0.00     0.100 A 
ATOM      3  C   UNL     1      15.281  -4.140  -4.401  1.00  0.00     0.197 A 
ATOM      4  O   UNL     1      14.624  -5.155  -4.052  1.00  0.00    -0.289 OA
ATOM      5  C   UNL     1      15.896  -3.283  -3.457  1.00  0.00     0.107 A 
ATOM      6  C   UNL     1      15.799  -3.427  -2.040  1.00  0.00     0.134 A 
ATOM      7  C   UNL     1      16.533  -2.575  -1.207  1.00  0.00     0.093 A 
ATOM      8  C   UNL     1      17.316  -1.545  -1.737  1.00  0.00     0.123 A 
ATOM      9  C   UNL     1      17.379  -1.365  -3.116  1.00  0.00     0.094 A 
ATOM     10  C   UNL     1      16.685  -2.221  -3.976  1.00  0.00     0.146 A 
ATOM     11  O   UNL     1      16.787  -2.023  -5.286  1.00  0.00    -0.456 OA
ENDROOT
BRANCH   1  12
ATOM     12  C   UNL     1      16.371  -2.472  -7.629  1.00  0.00     0.021 A 
ATOM     13  C   UNL     1      16.221  -3.490  -8.588  1.00  0.00     0.016 A 
ATOM     14  C   UNL     1      16.375  -3.213  -9.949  1.00  0.00     0.051 A 
ATOM     15  C   UNL     1      16.672  -1.912 -10.375  1.00  0.00     0.157 A 
ATOM     16  C   UNL     1      16.657  -1.164  -8.067  1.00  0.00     0.062 A 
ATOM     17  C   UNL     1      16.810  -0.887  -9.433  1.00  0.00     0.158 A 
BRANCH  15  18
ATOM     18  O   UNL     1      16.828  -1.632 -11.731  1.00  0.00    -0.504 OA
ATOM     19  H   UNL     1      16.180  -1.990 -12.424  1.00  0.00     0.293 HD
ENDBRANCH  15  18
BRANCH  17  20
ATOM     20  O   UNL     1      17.095   0.409  -9.862  1.00  0.00    -0.504 OA
ATOM     21  H   UNL     1      16.973   0.688 -10.829  1.00  0.00     0.293 HD
ENDBRANCH  17  20
ENDBRANCH   1  12
BRANCH   6  22
ATOM     22  O   UNL     1      14.985  -4.368  -1.403  1.00  0.00    -0.507 OA
ATOM     23  H   UNL     1      14.938  -5.348  -1.636  1.00  0.00     0.293 HD
ENDBRANCH   6  22
BRANCH   8  24
ATOM     24  O   UNL     1      18.031  -0.692  -0.900  1.00  0.00    -0.508 OA
ATOM     25  H   UNL     1      18.625  -1.050  -0.161  1.00  0.00     0.293 HD
ENDBRANCH   8  24
TORSDOF 5
ENDMDL
MODEL 3
REMARK VINA RESULT:    -8.622      0.656      1.508
REMARK INTER + INTRA:         -10.404
REMARK INTER:                 -10.124
REMARK INTRA:                  -0.280
REMARK UNBOUND:                -0.270
REMARK SMILES O=c1cc(-c2ccc(O)c(O)c2)oc2cc(O)cc(O)c12
REMARK SMILES IDX 4 1 3 2 2 3 1 4 21 5 19 6 18 7 16 8 15 9 14 10 13 11 5 12
REMARK SMILES IDX 6 13 7 14 8 15 12 16 10 17 9 18 11 20 20 22 17 24
REMARK H PARENT 9 19 11 21 20 23 17 25
REMARK Flexibility Score: inf
ROOT
ATOM      1  C   UNL     1      16.634  -2.573  -6.552  1.00  0.00     0.138 A 
ATOM      2  C   UNL     1      17.789  -2.296  -5.807  1.00  0.00     0.100 A 
ATOM      3  C   UNL     1      17.785  -2.499  -4.426  1.00  0.00     0.197 A 
ATOM      4  O   UNL     1      18.817  -2.188  -3.777  1.00  0.00    -0.289 OA
ATOM      5  C   UNL     1      16.629  -3.017  -3.794  1.00  0.00     0.107 A 
ATOM      6  C   UNL     1      16.519  -3.297  -2.399  1.00  0.00     0.134 A 
ATOM      7  C   UNL     1      15.291  -3.715  -1.872  1.00  0.00     0.093 A 
ATOM      8  C   UNL     1      14.183  -3.920  -2.700  1.00  0.00     0.123 A 
ATOM      9  C   UNL     1      14.293  -3.697  -4.070  1.00  0.00     0.094 A 
ATOM     10  C   UNL     1      15.496  -3.245  -4.621  1.00  0.00     0.146 A 
ATOM     11  O   UNL     1      15.552  -3.029  -5.930  1.00  0.00    -0.456 OA
ENDROOT
BRANCH   1  12
ATOM     12  C   UNL     1      16.584  -2.378  -8.022  1.00  0.00     0.021 A 
ATOM     13  C   UNL     1      16.886  -1.115  -8.562  1.00  0.00     0.016 A 
ATOM     14  C   UNL     1      16.853  -0.905  -9.943  1.00  0.00     0.051 A 
ATOM     15  C   UNL     1      16.528  -1.957 -10.809  1.00  0.00     0.157 A 
ATOM     16  C   UNL     1      16.269  -3.433  -8.901  1.00  0.00     0.062 A 
ATOM     17  C   UNL     1      16.238  -3.222 -10.287  1.00  0.00     0.158 A 
BRANCH  15  18
ATOM     18  O   UNL     1      16.492  -1.751 -12.187  1.00  0.00    -0.504 OA
ATOM     19  H   UNL     1      17.018  -2.339 -12.823  1.00  0.00     0.293 HD
ENDBRANCH  15  18
BRANCH  17  20
ATOM     20  O   UNL     1      15.924  -4.269 -11.152  1.00  0.00    -0.504 OA
ATOM     21  H   UNL     1      15.060  -4.280 -11.682  1.00  0.00     0.293 HD
ENDBRANCH  17  20
ENDBRANCH   1  12
BRANCH   6  22
ATOM     22  O   UNL     1      17.583  -3.205  -1.495  1.00  0.00    -0.507 OA
ATOM     23  H   UNL     1      18.218  -3.953  -1.268  1.00  0.00     0.293 HD
ENDBRANCH   6  22
BRANCH   8  24
ATOM     24  O   UNL     1      12.969  -4.351  -2.170  1.00  0.00    -0.508 OA
ATOM     25  H   UNL     1      12.666  -4.069  -1.245  1.00  0.00     0.293 HD
ENDBRANCH   8  24
TORSDOF 5
ENDMDL
MODEL 4
REMARK VINA RESULT:    -7.606      1.437      6.863
REMARK INTER + INTRA:          -9.210
REMARK INTER:                  -8.918
REMARK INTRA:                  -0.292
REMARK UNBOUND:                -0.270
REMARK SMILES O=c1cc(-c2ccc(O)c(O)c2)oc2cc(O)cc(O)c12
REMARK SMILES IDX 4 1 3 2 2 3 1 4 21 5 19 6 18 7 16 8 15 9 14 10 13 11 5 12
REMARK SMILES IDX 6 13 7 14 8 15 12 16 10 17 9 18 11 20 20 22 17 24
REMARK H PARENT 9 19 11 21 20 23 17 25
REMARK Flexibility Score: inf
ROOT
ATOM      1  C   UNL     1      16.658  -2.803  -5.795  1.00  0.00     0.138 A 
ATOM      2  C   UNL     1      17.617  -1.796  -5.624  1.00  0.00     0.100 A 
ATOM      3  C   UNL     1      18.042  -1.052  -6.726  1.00  0.00     0.197 A 
ATOM      4  O   UNL     1      18.945  -0.193  -6.550  1.00  0.00    -0.289 OA
ATOM      5  C   UNL     1      17.474  -1.294  -8.000  1.00  0.00     0.107 A 
ATOM      6  C   UNL     1      17.804  -0.576  -9.189  1.00  0.00     0.134 A 
ATOM      7  C   UNL     1      17.248  -0.972 -10.411  1.00  0.00     0.093 A 
ATOM      8  C   UNL     1      16.330  -2.024 -10.480  1.00  0.00     0.123 A 
ATOM      9  C   UNL     1      15.964  -2.699  -9.318  1.00  0.00     0.094 A 
ATOM     10  C   UNL     1      16.527  -2.350  -8.088  1.00  0.00     0.146 A 
ATOM     11  O   UNL     1      16.163  -3.032  -7.007  1.00  0.00    -0.456 OA
ENDROOT
BRANCH   1  12
ATOM     12  C   UNL     1      16.169  -3.622  -4.658  1.00  0.00     0.021 A 
ATOM     13  C   UNL     1      14.932  -4.283  -4.765  1.00  0.00     0.016 A 
ATOM     14  C   UNL     1      14.451  -5.066  -3.712  1.00  0.00     0.051 A 
ATOM     15  C   UNL     1      15.203  -5.211  -2.540  1.00  0.00     0.157 A 
ATOM     16  C   UNL     1      16.924  -3.784  -3.480  1.00  0.00     0.062 A 
ATOM     17  C   UNL     1      16.442  -4.571  -2.425  1.00  0.00     0.158 A 
BRANCH  15  18
ATOM     18  O   UNL     1      14.726  -5.990  -1.488  1.00  0.00    -0.504 OA
ATOM     19  H   UNL     1      14.253  -5.575  -0.694  1.00  0.00     0.293 HD
ENDBRANCH  15  18
BRANCH  17  20
ATOM     20  O   UNL     1      17.193  -4.727  -1.261  1.00  0.00    -0.504 OA
ATOM     21  H   UNL     1      17.930  -5.419  -1.193  1.00  0.00     0.293 HD
ENDBRANCH  17  20
ENDBRANCH   1  12
BRANCH   6  22
ATOM     22  O   UNL     1      18.646   0.540  -9.222  1.00  0.00    -0.507 OA
ATOM     23  H   UNL     1      19.542   0.604  -8.764  1.00  0.00     0.293 HD
ENDBRANCH   6  22
BRANCH   8  24
ATOM     24  O   UNL     1      15.770  -2.401 -11.698  1.00  0.00    -0.508 OA
ATOM     25  H   UNL     1      15.433  -1.713 -12.362  1.00  0.00     0.293 HD
ENDBRANCH   8  24
TORSDOF 5
ENDMDL
MODEL 5
REMARK VINA RESULT:    -7.431      2.048      3.531
REMARK INTER + INTRA:          -9.004
REMARK INTER:                  -8.728
REMARK INTRA:                  -0.276
REMARK UNBOUND:                -0.270
REMARK SMILES O=c1cc(-c2ccc(O)c(O)c2)oc2cc(O)cc(O)c12
REMARK SMILES IDX 4 1 3 2 2 3 1 4 21 5 19 6 18 7 16 8 15 9 14 10 13 11 5 12
REMARK SMILES IDX 6 13 7 14 8 15 12 16 10 17 9 18 11 20 20 22 17 24
REMARK H PARENT 9 19 11 21 20 23 17 25
REMARK Flexibility Score: inf
ROOT
ATOM      1  C   UNL     1      15.937  -3.333  -4.757  1.00  0.00     0.138 A 
ATOM      2  C   UNL     1      14.640  -3.003  -4.338  1.00  0.00     0.100 A 
ATOM      3  C   UNL     1      14.053  -3.710  -3.288  1.00  0.00     0.197 A 
ATOM      4  O   UNL     1      12.868  -3.428  -2.972  1.00  0.00    -0.289 OA
ATOM      5  C   UNL     1      14.783  -4.729  -2.629  1.00  0.00     0.107 A 
ATOM      6  C   UNL     1      14.301  -5.493  -1.525  1.00  0.00     0.134 A 
ATOM      7  C   UNL     1      15.078  -6.543  -1.019  1.00  0.00     0.093 A 
ATOM      8  C   UNL     1      16.345  -6.818  -1.540  1.00  0.00     0.123 A 
ATOM      9  C   UNL     1      16.846  -6.046  -2.586  1.00  0.00     0.094 A 
ATOM     10  C   UNL     1      16.080  -5.015  -3.135  1.00  0.00     0.146 A 
ATOM     11  O   UNL     1      16.589  -4.314  -4.143  1.00  0.00    -0.456 OA
ENDROOT
BRANCH   1  12
ATOM     12  C   UNL     1      16.610  -2.613  -5.866  1.00  0.00     0.021 A 
ATOM     13  C   UNL     1      16.032  -2.625  -7.149  1.00  0.00     0.016 A 
ATOM     14  C   UNL     1      16.642  -1.950  -8.209  1.00  0.00     0.051 A 
ATOM     15  C   UNL     1      17.832  -1.242  -8.004  1.00  0.00     0.157 A 
ATOM     16  C   UNL     1      17.801  -1.888  -5.666  1.00  0.00     0.062 A 
ATOM     17  C   UNL     1      18.411  -1.209  -6.731  1.00  0.00     0.158 A 
BRANCH  15  18
ATOM     18  O   UNL     1      18.443  -0.568  -9.060  1.00  0.00    -0.504 OA
ATOM     19  H   UNL     1      19.448  -0.444  -9.098  1.00  0.00     0.293 HD
ENDBRANCH  15  18
BRANCH  17  20
ATOM     20  O   UNL     1      19.590  -0.494  -6.528  1.00  0.00    -0.504 OA
ATOM     21  H   UNL     1      19.581   0.495  -6.302  1.00  0.00     0.293 HD
ENDBRANCH  17  20
ENDBRANCH   1  12
BRANCH   6  22
ATOM     22  O   UNL     1      13.086  -5.252  -0.876  1.00  0.00    -0.507 OA
ATOM     23  H   UNL     1      12.244  -4.925  -1.324  1.00  0.00     0.293 HD
ENDBRANCH   6  22
BRANCH   8  24
ATOM     24  O   UNL     1      17.118  -7.854  -1.021  1.00  0.00    -0.508 OA
ATOM     25  H   UNL     1      18.036  -7.684  -0.628  1.00  0.00     0.293 HD
ENDBRANCH   8  24
TORSDOF 5
ENDMDL
MODEL 6
REMARK VINA RESULT:    -7.410      1.456      6.982
REMARK INTER + INTRA:          -8.979
REMARK INTER:                  -8.699
REMARK INTRA:                  -0.280
REMARK UNBOUND:                -0.270
REMARK SMILES O=c1cc(-c2ccc(O)c(O)c2)oc2cc(O)cc(O)c12
REMARK SMILES IDX 4 1 3 2 2 3 1 4 21 5 19 6 18 7 16 8 15 9 14 10 13 11 5 12
REMARK SMILES IDX 6 13 7 14 8 15 12 16 10 17 9 18 11 20 20 22 17 24
REMARK H PARENT 9 19 11 21 20 23 17 25
REMARK Flexibility Score: inf
ROOT
ATOM      1  C   UNL     1      17.073  -2.313  -6.386  1.00  0.00     0.138 A 
ATOM      2  C   UNL     1      17.708  -1.118  -6.754  1.00  0.00     0.100 A 
ATOM      3  C   UNL     1      17.751  -0.744  -8.098  1.00  0.00     0.197 A 
ATOM      4  O   UNL     1      18.376   0.304  -8.403  1.00  0.00    -0.289 OA
ATOM      5  C   UNL     1      17.121  -1.553  -9.074  1.00  0.00     0.107 A 
ATOM      6  C   UNL     1      17.069  -1.256 -10.469  1.00  0.00     0.134 A 
ATOM      7  C   UNL     1      16.503  -2.183 -11.353  1.00  0.00     0.093 A 
ATOM      8  C   UNL     1      15.933  -3.370 -10.885  1.00  0.00     0.123 A 
ATOM      9  C   UNL     1      15.934  -3.647  -9.521  1.00  0.00     0.094 A 
ATOM     10  C   UNL     1      16.523  -2.759  -8.617  1.00  0.00     0.146 A 
ATOM     11  O   UNL     1      16.517  -3.070  -7.326  1.00  0.00    -0.456 OA
ENDROOT
BRANCH   1  12
ATOM     12  C   UNL     1      16.997  -2.757  -4.972  1.00  0.00     0.021 A 
ATOM     13  C   UNL     1      15.799  -3.312  -4.487  1.00  0.00     0.016 A 
ATOM     14  C   UNL     1      15.702  -3.745  -3.162  1.00  0.00     0.051 A 
ATOM     15  C   UNL     1      16.803  -3.641  -2.303  1.00  0.00     0.157 A 
ATOM     16  C   UNL     1      18.103  -2.667  -4.105  1.00  0.00     0.062 A 
ATOM     17  C   UNL     1      18.005  -3.104  -2.776  1.00  0.00     0.158 A 
BRANCH  15  18
ATOM     18  O   UNL     1      16.709  -4.070  -0.980  1.00  0.00    -0.504 OA
ATOM     19  H   UNL     1      17.016  -4.994  -0.701  1.00  0.00     0.293 HD
ENDBRANCH  15  18
BRANCH  17  20
ATOM     20  O   UNL     1      19.103  -3.011  -1.921  1.00  0.00    -0.504 OA
ATOM     21  H   UNL     1      20.052  -2.982  -2.275  1.00  0.00     0.293 HD
ENDBRANCH  17  20
ENDBRANCH   1  12
BRANCH   6  22
ATOM     22  O   UNL     1      17.535  -0.064 -11.034  1.00  0.00    -0.507 OA
ATOM     23  H   UNL     1      17.127   0.399 -11.830  1.00  0.00     0.293 HD
ENDBRANCH   6  22
BRANCH   8  24
ATOM     24  O   UNL     1      15.358  -4.279 -11.770  1.00  0.00    -0.508 OA
ATOM     25  H   UNL     1      14.397  -4.584 -11.665  1.00  0.00     0.293 HD
ENDBRANCH   8  24
TORSDOF 5
ENDMDL
MODEL 7
REMARK VINA RESULT:    -6.604      1.432      2.250
REMARK INTER + INTRA:          -8.032
REMARK INTER:                  -7.729
REMARK INTRA:                  -0.302
REMARK UNBOUND:                -0.270
REMARK SMILES O=c1cc(-c2ccc(O)c(O)c2)oc2cc(O)cc(O)c12
REMARK SMILES IDX 4 1 3 2 2 3 1 4 21 5 19 6 18 7 16 8 15 9 14 10 13 11 5 12
REMARK SMILES IDX 6 13 7 14 8 15 12 16 10 17 9 18 11 20 20 22 17 24
REMARK H PARENT 9 19 11 21 20 23 17 25
REMARK Flexibility Score: inf
ROOT
ATOM      1  C   UNL     1      16.542  -2.677  -5.179  1.00  0.00     0.138 A 
ATOM      2  C   UNL     1      17.407  -3.266  -4.245  1.00  0.00     0.100 A 
ATOM      3  C   UNL     1      16.880  -3.899  -3.118  1.00  0.00     0.197 A 
ATOM      4  O   UNL     1      17.684  -4.369  -2.272  1.00  0.00    -0.289 OA
ATOM      5  C   UNL     1      15.477  -3.974  -2.944  1.00  0.00     0.107 A 
ATOM      6  C   UNL     1      14.825  -4.622  -1.853  1.00  0.00     0.134 A 
ATOM      7  C   UNL     1      13.432  -4.545  -1.736  1.00  0.00     0.093 A 
ATOM      8  C   UNL     1      12.662  -3.893  -2.703  1.00  0.00     0.123 A 
ATOM      9  C   UNL     1      13.284  -3.299  -3.797  1.00  0.00     0.094 A 
ATOM     10  C   UNL     1      14.676  -3.328  -3.924  1.00  0.00     0.146 A 
ATOM     11  O   UNL     1      15.230  -2.734  -4.976  1.00  0.00    -0.456 OA
ENDROOT
BRANCH   1  12
ATOM     12  C   UNL     1      17.047  -1.995  -6.395  1.00  0.00     0.021 A 
ATOM     13  C   UNL     1      18.273  -1.307  -6.342  1.00  0.00     0.016 A 
ATOM     14  C   UNL     1      18.775  -0.661  -7.475  1.00  0.00     0.051 A 
ATOM     15  C   UNL     1      18.067  -0.700  -8.682  1.00  0.00     0.157 A 
ATOM     16  C   UNL     1      16.347  -2.039  -7.617  1.00  0.00     0.062 A 
ATOM     17  C   UNL     1      16.853  -1.393  -8.753  1.00  0.00     0.158 A 
BRANCH  15  18
ATOM     18  O   UNL     1      18.564  -0.056  -9.813  1.00  0.00    -0.504 OA
ATOM     19  H   UNL     1      19.428  -0.350 -10.253  1.00  0.00     0.293 HD
ENDBRANCH  15  18
BRANCH  17  20
ATOM     20  O   UNL     1      16.155  -1.439  -9.960  1.00  0.00    -0.504 OA
ATOM     21  H   UNL     1      16.478  -2.002 -10.739  1.00  0.00     0.293 HD
ENDBRANCH  17  20
ENDBRANCH   1  12
BRANCH   6  22
ATOM     22  O   UNL     1      15.490  -5.370  -0.875  1.00  0.00    -0.507 OA
ATOM     23  H   UNL     1      15.789  -6.327  -0.980  1.00  0.00     0.293 HD
ENDBRANCH   6  22
BRANCH   8  24
ATOM     24  O   UNL     1      11.275  -3.835  -2.586  1.00  0.00    -0.508 OA
ATOM     25  H   UNL     1      10.810  -4.019  -1.705  1.00  0.00     0.293 HD
ENDBRANCH   8  24
TORSDOF 5
ENDMDL
MODEL 8
REMARK VINA RESULT:    -6.224     13.802     14.612
REMARK INTER + INTRA:          -7.586
REMARK INTER:                  -7.321
REMARK INTRA:                  -0.265
REMARK UNBOUND:                -0.270
REMARK SMILES O=c1cc(-c2ccc(O)c(O)c2)oc2cc(O)cc(O)c12
REMARK SMILES IDX 4 1 3 2 2 3 1 4 21 5 19 6 18 7 16 8 15 9 14 10 13 11 5 12
REMARK SMILES IDX 6 13 7 14 8 15 12 16 10 17 9 18 11 20 20 22 17 24
REMARK H PARENT 9 19 11 21 20 23 17 25
REMARK Flexibility Score: inf
ROOT
ATOM      1  C   UNL     1       7.440   5.367 -13.595  1.00  0.00     0.138 A 
ATOM      2  C   UNL     1       6.516   4.935 -12.633  1.00  0.00     0.100 A 
ATOM      3  C   UNL     1       6.413   5.616 -11.419  1.00  0.00     0.197 A 
ATOM      4  O   UNL     1       5.615   5.170 -10.555  1.00  0.00    -0.289 OA
ATOM      5  C   UNL     1       7.215   6.758 -11.182  1.00  0.00     0.107 A 
ATOM      6  C   UNL     1       7.173   7.552  -9.997  1.00  0.00     0.134 A 
ATOM      7  C   UNL     1       8.086   8.602  -9.836  1.00  0.00     0.093 A 
ATOM      8  C   UNL     1       9.001   8.924 -10.843  1.00  0.00     0.123 A 
ATOM      9  C   UNL     1       9.017   8.186 -12.024  1.00  0.00     0.094 A 
ATOM     10  C   UNL     1       8.142   7.111 -12.200  1.00  0.00     0.146 A 
ATOM     11  O   UNL     1       8.204   6.423 -13.336  1.00  0.00    -0.456 OA
ENDROOT
BRANCH   1  12
ATOM     12  C   UNL     1       7.589   4.682 -14.903  1.00  0.00     0.021 A 
ATOM     13  C   UNL     1       6.747   5.041 -15.970  1.00  0.00     0.016 A 
ATOM     14  C   UNL     1       6.870   4.417 -17.214  1.00  0.00     0.051 A 
ATOM     15  C   UNL     1       7.844   3.431 -17.416  1.00  0.00     0.157 A 
ATOM     16  C   UNL     1       8.574   3.698 -15.118  1.00  0.00     0.062 A 
ATOM     17  C   UNL     1       8.698   3.074 -16.367  1.00  0.00     0.158 A 
BRANCH  15  18
ATOM     18  O   UNL     1       7.969   2.806 -18.655  1.00  0.00    -0.504 OA
ATOM     19  H   UNL     1       8.778   2.959 -19.246  1.00  0.00     0.293 HD
ENDBRANCH  15  18
BRANCH  17  20
ATOM     20  O   UNL     1       9.674   2.099 -16.575  1.00  0.00    -0.504 OA
ATOM     21  H   UNL     1       9.654   1.492 -17.386  1.00  0.00     0.293 HD
ENDBRANCH  17  20
ENDBRANCH   1  12
BRANCH   6  22
ATOM     22  O   UNL     1       6.248   7.369  -8.964  1.00  0.00    -0.507 OA
ATOM     23  H   UNL     1       5.252   7.499  -9.048  1.00  0.00     0.293 HD
ENDBRANCH   6  22
BRANCH   8  24
ATOM     24  O   UNL     1       9.894   9.980 -10.680  1.00  0.00    -0.508 OA
ATOM     25  H   UNL     1      10.030  10.425  -9.780  1.00  0.00     0.293 HD
ENDBRANCH   8  24
TORSDOF 5
ENDMDL
MODEL 9
REMARK VINA RESULT:    -5.730     12.279     14.204
REMARK INTER + INTRA:          -7.005
REMARK INTER:                  -6.687
REMARK INTRA:                  -0.318
REMARK UNBOUND:                -0.270
REMARK SMILES O=c1cc(-c2ccc(O)c(O)c2)oc2cc(O)cc(O)c12
REMARK SMILES IDX 4 1 3 2 2 3 1 4 21 5 19 6 18 7 16 8 15 9 14 10 13 11 5 12
REMARK SMILES IDX 6 13 7 14 8 15 12 16 10 17 9 18 11 20 20 22 17 24
REMARK H PARENT 9 19 11 21 20 23 17 25
REMARK Flexibility Score: inf
ROOT
ATOM      1  C   UNL     1      11.059   1.615 -18.242  1.00  0.00     0.138 A 
ATOM      2  C   UNL     1      10.207   2.429 -19.001  1.00  0.00     0.100 A 
ATOM      3  C   UNL     1       9.131   3.068 -18.383  1.00  0.00     0.197 A 
ATOM      4  O   UNL     1       8.352   3.747 -19.101  1.00  0.00    -0.289 OA
ATOM      5  C   UNL     1       8.930   2.920 -16.989  1.00  0.00     0.107 A 
ATOM      6  C   UNL     1       7.889   3.551 -16.244  1.00  0.00     0.134 A 
ATOM      7  C   UNL     1       7.731   3.250 -14.886  1.00  0.00     0.093 A 
ATOM      8  C   UNL     1       8.614   2.386 -14.231  1.00  0.00     0.123 A 
ATOM      9  C   UNL     1       9.663   1.804 -14.937  1.00  0.00     0.094 A 
ATOM     10  C   UNL     1       9.826   2.057 -16.302  1.00  0.00     0.146 A 
ATOM     11  O   UNL     1      10.830   1.467 -16.941  1.00  0.00    -0.456 OA
ENDROOT
BRANCH   1  12
ATOM     12  C   UNL     1      12.218   0.913 -18.847  1.00  0.00     0.021 A 
ATOM     13  C   UNL     1      12.471   1.057 -20.223  1.00  0.00     0.016 A 
ATOM     14  C   UNL     1      13.560   0.414 -20.817  1.00  0.00     0.051 A 
ATOM     15  C   UNL     1      14.420  -0.376 -20.044  1.00  0.00     0.157 A 
ATOM     16  C   UNL     1      13.096   0.127 -18.075  1.00  0.00     0.062 A 
ATOM     17  C   UNL     1      14.189  -0.517 -18.672  1.00  0.00     0.158 A 
BRANCH  15  18
ATOM     18  O   UNL     1      15.506  -1.020 -20.633  1.00  0.00    -0.504 OA
ATOM     19  H   UNL     1      16.393  -0.549 -20.768  1.00  0.00     0.293 HD
ENDBRANCH  15  18
BRANCH  17  20
ATOM     20  O   UNL     1      15.054  -1.295 -17.904  1.00  0.00    -0.504 OA
ATOM     21  H   UNL     1      14.793  -1.629 -16.982  1.00  0.00     0.293 HD
ENDBRANCH  17  20
ENDBRANCH   1  12
BRANCH   6  22
ATOM     22  O   UNL     1       7.002   4.491 -16.779  1.00  0.00    -0.507 OA
ATOM     23  H   UNL     1       5.998   4.403 -16.786  1.00  0.00     0.293 HD
ENDBRANCH   6  22
BRANCH   8  24
ATOM     24  O   UNL     1       8.459   2.105 -12.876  1.00  0.00    -0.508 OA
ATOM     25  H   UNL     1       7.798   2.615 -12.301  1.00  0.00     0.293 HD
ENDBRANCH   8  24
TORSDOF 5
ENDMDL
