MODEL 1
REMARK VINA RESULT:    -9.022      0.000      0.000
REMARK INTER + INTRA:         -17.122
REMARK INTER:                 -14.823
REMARK INTRA:                  -2.299
REMARK UNBOUND:                -2.299
REMARK SMILES C[C@@H]1O[C@H](OC[C@@H]2O[C@@H](Oc3c(-c4ccc(O)c(O)c4)oc4cc(O)cc(O)c4c3=O)[C@H](O)[C@@H](O)[C@@H]2O)[C@@H](O)[C@@H](O)[C@H]1O
REMARK SMILES IDX 7 1 36 2 34 3 32 4 9 5 8 6 6 7 5 8 4 9 1 10 2 11 42 12 3 13
REMARK SMILES IDX 40 14 38 15 43 16 41 18 39 20 37 22 35 24 10 26 11 27 12 28
REMARK SMILES IDX 30 29 21 30 29 31 31 32 22 33 27 34 23 35 26 36 24 37 13 38
REMARK SMILES IDX 20 39 14 40 18 41 15 42 16 43 19 44 17 46 28 48 25 50 33 52
REMARK H PARENT 43 17 41 19 39 21 37 23 35 25 19 45 17 47 28 49 25 51 33 53
REMARK Flexibility Score: inf
ROOT
ATOM      1  C   UNL     1      24.153 -25.017  27.637  1.00  0.00     0.180 C 
ATOM      2  C   UNL     1      24.100 -25.430  26.147  1.00  0.00     0.177 C 
ATOM      3  C   UNL     1      23.272 -24.417  25.323  1.00  0.00     0.180 C 
ATOM      4  C   UNL     1      21.957 -24.012  26.036  1.00  0.00     0.214 C 
ATOM      5  C   UNL     1      22.145 -23.805  27.555  1.00  0.00     0.339 C 
ATOM      6  O   UNL     1      22.846 -24.876  28.164  1.00  0.00    -0.332 OA
ENDROOT
BRANCH   1   7
ATOM      7  C   UNL     1      24.924 -26.049  28.477  1.00  0.00     0.198 C 
BRANCH   7   8
ATOM      8  O   UNL     1      24.274 -26.240  29.725  1.00  0.00    -0.347 OA
BRANCH   8   9
ATOM      9  C   UNL     1      24.976 -27.112  30.597  1.00  0.00     0.281 C 
ATOM     10  C   UNL     1      26.135 -26.648  34.045  1.00  0.00     0.041 C 
ATOM     11  C   UNL     1      26.112 -27.239  32.635  1.00  0.00     0.150 C 
ATOM     12  C   UNL     1      25.845 -28.778  32.676  1.00  0.00     0.174 C 
ATOM     13  O   UNL     1      25.136 -26.533  31.884  1.00  0.00    -0.344 OA
ATOM     14  C   UNL     1      24.450 -29.098  32.097  1.00  0.00     0.179 C 
ATOM     15  C   UNL     1      24.292 -28.506  30.680  1.00  0.00     0.202 C 
BRANCH  12  16
ATOM     16  O   UNL     1      26.839 -29.438  31.932  1.00  0.00    -0.388 OA
ATOM     17  H   UNL     1      27.384 -29.966  32.573  1.00  0.00     0.211 HD
ENDBRANCH  12  16
BRANCH  14  18
ATOM     18  O   UNL     1      24.223 -30.484  32.069  1.00  0.00    -0.387 OA
ATOM     19  H   UNL     1      24.032 -30.761  33.003  1.00  0.00     0.211 HD
ENDBRANCH  14  18
BRANCH  15  20
ATOM     20  O   UNL     1      24.861 -29.372  29.731  1.00  0.00    -0.385 OA
ATOM     21  H   UNL     1      25.128 -30.194  30.220  1.00  0.00     0.211 HD
ENDBRANCH  15  20
ENDBRANCH   8   9
ENDBRANCH   7   8
ENDBRANCH   1   7
BRANCH   2  22
ATOM     22  O   UNL     1      23.598 -26.735  25.986  1.00  0.00    -0.387 OA
ATOM     23  H   UNL     1      22.616 -26.707  26.126  1.00  0.00     0.211 HD
ENDBRANCH   2  22
BRANCH   3  24
ATOM     24  O   UNL     1      24.038 -23.282  24.992  1.00  0.00    -0.387 OA
ATOM     25  H   UNL     1      24.767 -23.194  25.654  1.00  0.00     0.211 HD
ENDBRANCH   3  24
BRANCH   5  26
ATOM     26  O   UNL     1      22.780 -22.551  27.837  1.00  0.00    -0.454 OA
BRANCH  26  27
ATOM     27  C   UNL     1      22.082 -21.439  28.328  1.00  0.00     0.214 A 
ATOM     28  C   UNL     1      21.578 -21.437  29.643  1.00  0.00     0.180 A 
ATOM     29  C   UNL     1      21.866 -20.309  27.522  1.00  0.00     0.239 A 
ATOM     30  O   UNL     1      20.849 -20.411  30.072  1.00  0.00    -0.452 OA
ATOM     31  C   UNL     1      21.094 -19.237  28.014  1.00  0.00     0.111 A 
ATOM     32  O   UNL     1      22.378 -20.262  26.370  1.00  0.00    -0.285 OA
ATOM     33  C   UNL     1      20.587 -19.341  29.330  1.00  0.00     0.146 A 
ATOM     34  C   UNL     1      20.807 -18.077  27.255  1.00  0.00     0.134 A 
ATOM     35  C   UNL     1      19.808 -18.313  29.869  1.00  0.00     0.094 A 
ATOM     36  C   UNL     1      20.026 -17.056  27.815  1.00  0.00     0.093 A 
ATOM     37  C   UNL     1      19.527 -17.170  29.114  1.00  0.00     0.123 A 
BRANCH  28  38
ATOM     38  C   UNL     1      21.809 -22.563  30.571  1.00  0.00     0.025 A 
ATOM     39  C   UNL     1      20.822 -23.535  30.793  1.00  0.00     0.062 A 
ATOM     40  C   UNL     1      23.055 -22.697  31.198  1.00  0.00     0.016 A 
ATOM     41  C   UNL     1      21.051 -24.602  31.672  1.00  0.00     0.158 A 
ATOM     42  C   UNL     1      23.294 -23.758  32.071  1.00  0.00     0.051 A 
ATOM     43  C   UNL     1      22.300 -24.711  32.325  1.00  0.00     0.157 A 
BRANCH  41  44
ATOM     44  O   UNL     1      20.016 -25.522  31.862  1.00  0.00    -0.504 OA
ATOM     45  H   UNL     1      19.203 -25.345  32.433  1.00  0.00     0.293 HD
ENDBRANCH  41  44
BRANCH  43  46
ATOM     46  O   UNL     1      22.596 -25.738  33.223  1.00  0.00    -0.504 OA
ATOM     47  H   UNL     1      23.294 -26.450  33.057  1.00  0.00     0.293 HD
ENDBRANCH  43  46
ENDBRANCH  28  38
BRANCH  34  48
ATOM     48  O   UNL     1      21.287 -17.933  25.953  1.00  0.00    -0.507 OA
ATOM     49  H   UNL     1      21.507 -18.735  25.373  1.00  0.00     0.293 HD
ENDBRANCH  34  48
BRANCH  37  50
ATOM     50  O   UNL     1      18.752 -16.142  29.646  1.00  0.00    -0.508 OA
ATOM     51  H   UNL     1      19.165 -15.396  30.194  1.00  0.00     0.293 HD
ENDBRANCH  37  50
ENDBRANCH  26  27
ENDBRANCH   5  26
BRANCH   4  52
ATOM     52  O   UNL     1      20.982 -25.004  25.834  1.00  0.00    -0.384 OA
ATOM     53  H   UNL     1      20.388 -24.683  25.107  1.00  0.00     0.211 HD
ENDBRANCH   4  52
TORSDOF 16
ENDMDL
MODEL 2
REMARK VINA RESULT:    -8.885      3.839      8.647
REMARK INTER + INTRA:         -16.898
REMARK INTER:                 -16.425
REMARK INTRA:                  -0.473
REMARK UNBOUND:                -2.299
REMARK SMILES C[C@@H]1O[C@H](OC[C@@H]2O[C@@H](Oc3c(-c4ccc(O)c(O)c4)oc4cc(O)cc(O)c4c3=O)[C@H](O)[C@@H](O)[C@@H]2O)[C@@H](O)[C@@H](O)[C@H]1O
REMARK SMILES IDX 7 1 36 2 34 3 32 4 9 5 8 6 6 7 5 8 4 9 1 10 2 11 42 12 3 13
REMARK SMILES IDX 40 14 38 15 43 16 41 18 39 20 37 22 35 24 10 26 11 27 12 28
REMARK SMILES IDX 30 29 21 30 29 31 31 32 22 33 27 34 23 35 26 36 24 37 13 38
REMARK SMILES IDX 20 39 14 40 18 41 15 42 16 43 19 44 17 46 28 48 25 50 33 52
REMARK H PARENT 43 17 41 19 39 21 37 23 35 25 19 45 17 47 28 49 25 51 33 53
REMARK Flexibility Score: inf
ROOT
ATOM      1  C   UNL     1      24.990 -23.490  24.315  1.00  0.00     0.180 C 
ATOM      2  C   UNL     1      23.757 -23.413  23.384  1.00  0.00     0.177 C 
ATOM      3  C   UNL     1      22.495 -23.952  24.096  1.00  0.00     0.180 C 
ATOM      4  C   UNL     1      22.769 -25.267  24.869  1.00  0.00     0.214 C 
ATOM      5  C   UNL     1      24.126 -25.248  25.607  1.00  0.00     0.339 C 
ATOM      6  O   UNL     1      25.189 -24.815  24.775  1.00  0.00    -0.332 OA
ENDROOT
BRANCH   1   7
ATOM      7  C   UNL     1      26.264 -23.013  23.597  1.00  0.00     0.198 C 
BRANCH   7   8
ATOM      8  O   UNL     1      26.578 -21.688  24.000  1.00  0.00    -0.347 OA
BRANCH   8   9
ATOM      9  C   UNL     1      27.928 -21.329  23.747  1.00  0.00     0.281 C 
ATOM     10  C   UNL     1      30.742 -23.299  22.462  1.00  0.00     0.041 C 
ATOM     11  C   UNL     1      30.044 -22.171  23.224  1.00  0.00     0.150 C 
ATOM     12  C   UNL     1      30.448 -20.774  22.653  1.00  0.00     0.174 C 
ATOM     13  O   UNL     1      28.645 -22.406  23.162  1.00  0.00    -0.344 OA
ATOM     14  C   UNL     1      29.246 -20.116  21.942  1.00  0.00     0.179 C 
ATOM     15  C   UNL     1      28.023 -20.043  22.879  1.00  0.00     0.202 C 
BRANCH  12  16
ATOM     16  O   UNL     1      30.890 -19.957  23.709  1.00  0.00    -0.388 OA
ATOM     17  H   UNL     1      31.830 -19.702  23.509  1.00  0.00     0.211 HD
ENDBRANCH  12  16
BRANCH  14  18
ATOM     18  O   UNL     1      29.578 -18.832  21.479  1.00  0.00    -0.387 OA
ATOM     19  H   UNL     1      30.380 -18.934  20.903  1.00  0.00     0.211 HD
ENDBRANCH  14  18
BRANCH  15  20
ATOM     20  O   UNL     1      28.120 -18.914  23.711  1.00  0.00    -0.385 OA
ATOM     21  H   UNL     1      27.338 -18.339  23.503  1.00  0.00     0.211 HD
ENDBRANCH  15  20
ENDBRANCH   8   9
ENDBRANCH   7   8
ENDBRANCH   1   7
BRANCH   2  22
ATOM     22  O   UNL     1      23.977 -24.094  22.172  1.00  0.00    -0.387 OA
ATOM     23  H   UNL     1      23.554 -23.571  21.442  1.00  0.00     0.211 HD
ENDBRANCH   2  22
BRANCH   3  24
ATOM     24  O   UNL     1      21.930 -22.977  24.940  1.00  0.00    -0.387 OA
ATOM     25  H   UNL     1      22.196 -23.179  25.872  1.00  0.00     0.211 HD
ENDBRANCH   3  24
BRANCH   5  26
ATOM     26  O   UNL     1      24.059 -24.462  26.804  1.00  0.00    -0.454 OA
BRANCH  26  27
ATOM     27  C   UNL     1      24.075 -25.027  28.086  1.00  0.00     0.214 A 
ATOM     28  C   UNL     1      23.816 -24.232  29.220  1.00  0.00     0.180 A 
ATOM     29  C   UNL     1      24.353 -26.392  28.270  1.00  0.00     0.239 A 
ATOM     30  O   UNL     1      23.913 -24.760  30.436  1.00  0.00    -0.452 OA
ATOM     31  C   UNL     1      24.439 -26.918  29.576  1.00  0.00     0.111 A 
ATOM     32  O   UNL     1      24.509 -27.135  27.263  1.00  0.00    -0.285 OA
ATOM     33  C   UNL     1      24.211 -26.035  30.656  1.00  0.00     0.146 A 
ATOM     34  C   UNL     1      24.743 -28.274  29.845  1.00  0.00     0.134 A 
ATOM     35  C   UNL     1      24.291 -26.497  31.973  1.00  0.00     0.094 A 
ATOM     36  C   UNL     1      24.816 -28.718  31.174  1.00  0.00     0.093 A 
ATOM     37  C   UNL     1      24.593 -27.837  32.234  1.00  0.00     0.123 A 
BRANCH  28  38
ATOM     38  C   UNL     1      23.463 -22.802  29.107  1.00  0.00     0.025 A 
ATOM     39  C   UNL     1      22.628 -22.340  28.078  1.00  0.00     0.062 A 
ATOM     40  C   UNL     1      23.921 -21.899  30.075  1.00  0.00     0.016 A 
ATOM     41  C   UNL     1      22.294 -20.983  27.980  1.00  0.00     0.158 A 
ATOM     42  C   UNL     1      23.590 -20.547  29.989  1.00  0.00     0.051 A 
ATOM     43  C   UNL     1      22.788 -20.073  28.944  1.00  0.00     0.157 A 
BRANCH  41  44
ATOM     44  O   UNL     1      21.476 -20.588  26.919  1.00  0.00    -0.504 OA
ATOM     45  H   UNL     1      20.636 -20.040  27.028  1.00  0.00     0.293 HD
ENDBRANCH  41  44
BRANCH  43  46
ATOM     46  O   UNL     1      22.508 -18.706  28.904  1.00  0.00    -0.504 OA
ATOM     47  H   UNL     1      22.393 -18.178  28.051  1.00  0.00     0.293 HD
ENDBRANCH  43  46
ENDBRANCH  28  38
BRANCH  34  48
ATOM     48  O   UNL     1      24.975 -29.179  28.809  1.00  0.00    -0.507 OA
ATOM     49  H   UNL     1      24.409 -30.011  28.691  1.00  0.00     0.293 HD
ENDBRANCH  34  48
BRANCH  37  50
ATOM     50  O   UNL     1      24.674 -28.304  33.544  1.00  0.00    -0.508 OA
ATOM     51  H   UNL     1      24.410 -27.723  34.331  1.00  0.00     0.293 HD
ENDBRANCH  37  50
ENDBRANCH  26  27
ENDBRANCH   5  26
BRANCH   4  52
ATOM     52  O   UNL     1      22.756 -26.353  23.979  1.00  0.00    -0.384 OA
ATOM     53  H   UNL     1      22.935 -25.989  23.072  1.00  0.00     0.211 HD
ENDBRANCH   4  52
TORSDOF 16
ENDMDL
MODEL 3
REMARK VINA RESULT:    -8.812      1.408      4.169
REMARK INTER + INTRA:         -16.777
REMARK INTER:                 -14.111
REMARK INTRA:                  -2.666
REMARK UNBOUND:                -2.299
REMARK SMILES C[C@@H]1O[C@H](OC[C@@H]2O[C@@H](Oc3c(-c4ccc(O)c(O)c4)oc4cc(O)cc(O)c4c3=O)[C@H](O)[C@@H](O)[C@@H]2O)[C@@H](O)[C@@H](O)[C@H]1O
REMARK SMILES IDX 7 1 36 2 34 3 32 4 9 5 8 6 6 7 5 8 4 9 1 10 2 11 42 12 3 13
REMARK SMILES IDX 40 14 38 15 43 16 41 18 39 20 37 22 35 24 10 26 11 27 12 28
REMARK SMILES IDX 30 29 21 30 29 31 31 32 22 33 27 34 23 35 26 36 24 37 13 38
REMARK SMILES IDX 20 39 14 40 18 41 15 42 16 43 19 44 17 46 28 48 25 50 33 52
REMARK H PARENT 43 17 41 19 39 21 37 23 35 25 19 45 17 47 28 49 25 51 33 53
REMARK Flexibility Score: inf
ROOT
ATOM      1  C   UNL     1      22.217 -24.731  31.342  1.00  0.00     0.180 C 
ATOM      2  C   UNL     1      21.909 -24.802  32.857  1.00  0.00     0.177 C 
ATOM      3  C   UNL     1      21.329 -23.462  33.365  1.00  0.00     0.180 C 
ATOM      4  C   UNL     1      22.103 -22.238  32.814  1.00  0.00     0.214 C 
ATOM      5  C   UNL     1      22.489 -22.400  31.327  1.00  0.00     0.339 C 
ATOM      6  O   UNL     1      23.092 -23.654  31.059  1.00  0.00    -0.332 OA
ENDROOT
BRANCH   1   7
ATOM      7  C   UNL     1      22.851 -26.038  30.838  1.00  0.00     0.198 C 
BRANCH   7   8
ATOM      8  O   UNL     1      24.247 -25.859  30.652  1.00  0.00    -0.347 OA
BRANCH   8   9
ATOM      9  C   UNL     1      25.028 -26.895  31.228  1.00  0.00     0.281 C 
ATOM     10  C   UNL     1      26.723 -27.112  34.473  1.00  0.00     0.041 C 
ATOM     11  C   UNL     1      26.454 -27.428  33.001  1.00  0.00     0.150 C 
ATOM     12  C   UNL     1      26.116 -28.941  32.804  1.00  0.00     0.174 C 
ATOM     13  O   UNL     1      25.413 -26.571  32.556  1.00  0.00    -0.344 OA
ATOM     14  C   UNL     1      24.634 -29.114  32.406  1.00  0.00     0.179 C 
ATOM     15  C   UNL     1      24.293 -28.264  31.165  1.00  0.00     0.202 C 
BRANCH  12  16
ATOM     16  O   UNL     1      26.950 -29.471  31.803  1.00  0.00    -0.388 OA
ATOM     17  H   UNL     1      27.886 -29.257  32.056  1.00  0.00     0.211 HD
ENDBRANCH  12  16
BRANCH  14  18
ATOM     18  O   UNL     1      24.334 -30.465  32.164  1.00  0.00    -0.387 OA
ATOM     19  H   UNL     1      23.971 -30.516  31.241  1.00  0.00     0.211 HD
ENDBRANCH  14  18
BRANCH  15  20
ATOM     20  O   UNL     1      24.665 -28.949  29.995  1.00  0.00    -0.385 OA
ATOM     21  H   UNL     1      24.929 -29.865  30.274  1.00  0.00     0.211 HD
ENDBRANCH  15  20
ENDBRANCH   8   9
ENDBRANCH   7   8
ENDBRANCH   1   7
BRANCH   2  22
ATOM     22  O   UNL     1      23.046 -25.170  33.602  1.00  0.00    -0.387 OA
ATOM     23  H   UNL     1      22.977 -26.136  33.815  1.00  0.00     0.211 HD
ENDBRANCH   2  22
BRANCH   3  24
ATOM     24  O   UNL     1      19.954 -23.362  33.080  1.00  0.00    -0.387 OA
ATOM     25  H   UNL     1      19.528 -24.230  33.289  1.00  0.00     0.211 HD
ENDBRANCH   3  24
BRANCH   5  26
ATOM     26  O   UNL     1      21.363 -22.179  30.467  1.00  0.00    -0.454 OA
BRANCH  26  27
ATOM     27  C   UNL     1      21.320 -21.145  29.522  1.00  0.00     0.214 A 
ATOM     28  C   UNL     1      22.060 -21.240  28.327  1.00  0.00     0.180 A 
ATOM     29  C   UNL     1      20.546 -19.995  29.746  1.00  0.00     0.239 A 
ATOM     30  O   UNL     1      22.075 -20.220  27.475  1.00  0.00    -0.452 OA
ATOM     31  C   UNL     1      20.582 -18.937  28.814  1.00  0.00     0.111 A 
ATOM     32  O   UNL     1      19.816 -19.928  30.772  1.00  0.00    -0.285 OA
ATOM     33  C   UNL     1      21.390 -19.099  27.665  1.00  0.00     0.146 A 
ATOM     34  C   UNL     1      19.854 -17.734  28.981  1.00  0.00     0.134 A 
ATOM     35  C   UNL     1      21.472 -18.081  26.711  1.00  0.00     0.094 A 
ATOM     36  C   UNL     1      19.948 -16.725  28.011  1.00  0.00     0.093 A 
ATOM     37  C   UNL     1      20.752 -16.894  26.882  1.00  0.00     0.123 A 
BRANCH  28  38
ATOM     38  C   UNL     1      22.854 -22.440  27.993  1.00  0.00     0.025 A 
ATOM     39  C   UNL     1      22.235 -23.630  27.583  1.00  0.00     0.062 A 
ATOM     40  C   UNL     1      24.253 -22.374  28.029  1.00  0.00     0.016 A 
ATOM     41  C   UNL     1      22.995 -24.762  27.264  1.00  0.00     0.158 A 
ATOM     42  C   UNL     1      25.020 -23.494  27.709  1.00  0.00     0.051 A 
ATOM     43  C   UNL     1      24.406 -24.696  27.335  1.00  0.00     0.157 A 
BRANCH  41  44
ATOM     44  O   UNL     1      22.312 -25.920  26.885  1.00  0.00    -0.504 OA
ATOM     45  H   UNL     1      22.152 -26.706  27.497  1.00  0.00     0.293 HD
ENDBRANCH  41  44
BRANCH  43  46
ATOM     46  O   UNL     1      25.229 -25.786  27.045  1.00  0.00    -0.504 OA
ATOM     47  H   UNL     1      25.797 -25.858  26.213  1.00  0.00     0.293 HD
ENDBRANCH  43  46
ENDBRANCH  28  38
BRANCH  34  48
ATOM     48  O   UNL     1      19.045 -17.532  30.099  1.00  0.00    -0.507 OA
ATOM     49  H   UNL     1      18.787 -18.294  30.717  1.00  0.00     0.293 HD
ENDBRANCH  34  48
BRANCH  37  50
ATOM     50  O   UNL     1      20.828 -15.876  25.934  1.00  0.00    -0.508 OA
ATOM     51  H   UNL     1      20.771 -16.070  24.941  1.00  0.00     0.293 HD
ENDBRANCH  37  50
ENDBRANCH  26  27
ENDBRANCH   5  26
BRANCH   4  52
ATOM     52  O   UNL     1      23.274 -22.038  33.564  1.00  0.00    -0.384 OA
ATOM     53  H   UNL     1      23.595 -22.935  33.845  1.00  0.00     0.211 HD
ENDBRANCH   4  52
TORSDOF 16
ENDMDL
MODEL 4
REMARK VINA RESULT:    -8.773      1.921      4.396
REMARK INTER + INTRA:         -16.714
REMARK INTER:                 -14.919
REMARK INTRA:                  -1.795
REMARK UNBOUND:                -2.299
REMARK SMILES C[C@@H]1O[C@H](OC[C@@H]2O[C@@H](Oc3c(-c4ccc(O)c(O)c4)oc4cc(O)cc(O)c4c3=O)[C@H](O)[C@@H](O)[C@@H]2O)[C@@H](O)[C@@H](O)[C@H]1O
REMARK SMILES IDX 7 1 36 2 34 3 32 4 9 5 8 6 6 7 5 8 4 9 1 10 2 11 42 12 3 13
REMARK SMILES IDX 40 14 38 15 43 16 41 18 39 20 37 22 35 24 10 26 11 27 12 28
REMARK SMILES IDX 30 29 21 30 29 31 31 32 22 33 27 34 23 35 26 36 24 37 13 38
REMARK SMILES IDX 20 39 14 40 18 41 15 42 16 43 19 44 17 46 28 48 25 50 33 52
REMARK H PARENT 43 17 41 19 39 21 37 23 35 25 19 45 17 47 28 49 25 51 33 53
REMARK Flexibility Score: inf
ROOT
ATOM      1  C   UNL     1      24.224 -25.517  29.800  1.00  0.00     0.180 C 
ATOM      2  C   UNL     1      24.665 -26.591  28.777  1.00  0.00     0.177 C 
ATOM      3  C   UNL     1      24.437 -26.100  27.329  1.00  0.00     0.180 C 
ATOM      4  C   UNL     1      23.059 -25.415  27.149  1.00  0.00     0.214 C 
ATOM      5  C   UNL     1      22.687 -24.507  28.342  1.00  0.00     0.339 C 
ATOM      6  O   UNL     1      22.871 -25.152  29.591  1.00  0.00    -0.332 OA
ENDROOT
BRANCH   1   7
ATOM      7  C   UNL     1      24.390 -26.019  31.245  1.00  0.00     0.198 C 
BRANCH   7   8
ATOM      8  O   UNL     1      25.288 -27.118  31.275  1.00  0.00    -0.347 OA
BRANCH   8   9
ATOM      9  C   UNL     1      25.711 -27.462  32.586  1.00  0.00     0.281 C 
ATOM     10  C   UNL     1      27.701 -25.601  35.040  1.00  0.00     0.041 C 
ATOM     11  C   UNL     1      27.101 -26.829  34.353  1.00  0.00     0.150 C 
ATOM     12  C   UNL     1      26.200 -27.639  35.339  1.00  0.00     0.174 C 
ATOM     13  O   UNL     1      26.396 -26.384  33.205  1.00  0.00    -0.344 OA
ATOM     14  C   UNL     1      24.717 -27.530  34.925  1.00  0.00     0.179 C 
ATOM     15  C   UNL     1      24.521 -27.957  33.456  1.00  0.00     0.202 C 
BRANCH  12  16
ATOM     16  O   UNL     1      26.605 -28.986  35.331  1.00  0.00    -0.388 OA
ATOM     17  H   UNL     1      27.315 -29.075  34.642  1.00  0.00     0.211 HD
ENDBRANCH  12  16
BRANCH  14  18
ATOM     18  O   UNL     1      23.902 -28.306  35.766  1.00  0.00    -0.387 OA
ATOM     19  H   UNL     1      24.032 -27.962  36.689  1.00  0.00     0.211 HD
ENDBRANCH  14  18
BRANCH  15  20
ATOM     20  O   UNL     1      24.419 -29.356  33.370  1.00  0.00    -0.385 OA
ATOM     21  H   UNL     1      24.915 -29.628  32.554  1.00  0.00     0.211 HD
ENDBRANCH  15  20
ENDBRANCH   8   9
ENDBRANCH   7   8
ENDBRANCH   1   7
BRANCH   2  22
ATOM     22  O   UNL     1      24.013 -27.819  28.998  1.00  0.00    -0.387 OA
ATOM     23  H   UNL     1      24.581 -28.367  29.599  1.00  0.00     0.211 HD
ENDBRANCH   2  22
BRANCH   3  24
ATOM     24  O   UNL     1      25.481 -25.255  26.907  1.00  0.00    -0.387 OA
ATOM     25  H   UNL     1      26.226 -25.818  26.582  1.00  0.00     0.211 HD
ENDBRANCH   3  24
BRANCH   5  26
ATOM     26  O   UNL     1      23.402 -23.265  28.297  1.00  0.00    -0.454 OA
BRANCH  26  27
ATOM     27  C   UNL     1      22.768 -22.030  28.107  1.00  0.00     0.214 A 
ATOM     28  C   UNL     1      22.495 -21.561  26.807  1.00  0.00     0.180 A 
ATOM     29  C   UNL     1      22.395 -21.234  29.203  1.00  0.00     0.239 A 
ATOM     30  O   UNL     1      21.966 -20.353  26.636  1.00  0.00    -0.452 OA
ATOM     31  C   UNL     1      21.829 -19.961  28.981  1.00  0.00     0.111 A 
ATOM     32  O   UNL     1      22.560 -21.673  30.374  1.00  0.00    -0.285 OA
ATOM     33  C   UNL     1      21.636 -19.552  27.642  1.00  0.00     0.146 A 
ATOM     34  C   UNL     1      21.455 -19.088  30.030  1.00  0.00     0.134 A 
ATOM     35  C   UNL     1      21.087 -18.297  27.360  1.00  0.00     0.094 A 
ATOM     36  C   UNL     1      20.903 -17.834  29.727  1.00  0.00     0.093 A 
ATOM     37  C   UNL     1      20.720 -17.438  28.400  1.00  0.00     0.123 A 
BRANCH  28  38
ATOM     38  C   UNL     1      22.805 -22.362  25.606  1.00  0.00     0.025 A 
ATOM     39  C   UNL     1      24.121 -22.480  25.132  1.00  0.00     0.062 A 
ATOM     40  C   UNL     1      21.780 -23.065  24.960  1.00  0.00     0.016 A 
ATOM     41  C   UNL     1      24.407 -23.245  23.994  1.00  0.00     0.158 A 
ATOM     42  C   UNL     1      22.056 -23.833  23.829  1.00  0.00     0.051 A 
ATOM     43  C   UNL     1      23.360 -23.925  23.329  1.00  0.00     0.157 A 
BRANCH  41  44
ATOM     44  O   UNL     1      25.736 -23.301  23.564  1.00  0.00    -0.504 OA
ATOM     45  H   UNL     1      26.031 -23.732  22.701  1.00  0.00     0.293 HD
ENDBRANCH  41  44
BRANCH  43  46
ATOM     46  O   UNL     1      23.567 -24.695  22.183  1.00  0.00    -0.504 OA
ATOM     47  H   UNL     1      23.407 -25.691  22.136  1.00  0.00     0.293 HD
ENDBRANCH  43  46
ENDBRANCH  28  38
BRANCH  34  48
ATOM     48  O   UNL     1      21.628 -19.452  31.366  1.00  0.00    -0.507 OA
ATOM     49  H   UNL     1      22.488 -19.874  31.697  1.00  0.00     0.293 HD
ENDBRANCH  34  48
BRANCH  37  50
ATOM     50  O   UNL     1      20.172 -16.187  28.127  1.00  0.00    -0.508 OA
ATOM     51  H   UNL     1      20.329 -15.394  28.738  1.00  0.00     0.293 HD
ENDBRANCH  37  50
ENDBRANCH  26  27
ENDBRANCH   5  26
BRANCH   4  52
ATOM     52  O   UNL     1      22.059 -26.391  26.997  1.00  0.00    -0.384 OA
ATOM     53  H   UNL     1      21.424 -26.276  27.752  1.00  0.00     0.211 HD
ENDBRANCH   4  52
TORSDOF 16
ENDMDL
MODEL 5
REMARK VINA RESULT:    -8.594      1.973      4.634
REMARK INTER + INTRA:         -16.420
REMARK INTER:                 -14.654
REMARK INTRA:                  -1.766
REMARK UNBOUND:                -2.299
REMARK SMILES C[C@@H]1O[C@H](OC[C@@H]2O[C@@H](Oc3c(-c4ccc(O)c(O)c4)oc4cc(O)cc(O)c4c3=O)[C@H](O)[C@@H](O)[C@@H]2O)[C@@H](O)[C@@H](O)[C@H]1O
REMARK SMILES IDX 7 1 36 2 34 3 32 4 9 5 8 6 6 7 5 8 4 9 1 10 2 11 42 12 3 13
REMARK SMILES IDX 40 14 38 15 43 16 41 18 39 20 37 22 35 24 10 26 11 27 12 28
REMARK SMILES IDX 30 29 21 30 29 31 31 32 22 33 27 34 23 35 26 36 24 37 13 38
REMARK SMILES IDX 20 39 14 40 18 41 15 42 16 43 19 44 17 46 28 48 25 50 33 52
REMARK H PARENT 43 17 41 19 39 21 37 23 35 25 19 45 17 47 28 49 25 51 33 53
REMARK Flexibility Score: inf
ROOT
ATOM      1  C   UNL     1      23.907 -25.100  30.480  1.00  0.00     0.180 C 
ATOM      2  C   UNL     1      24.663 -26.327  29.915  1.00  0.00     0.177 C 
ATOM      3  C   UNL     1      24.927 -26.160  28.401  1.00  0.00     0.180 C 
ATOM      4  C   UNL     1      23.687 -25.628  27.640  1.00  0.00     0.214 C 
ATOM      5  C   UNL     1      22.940 -24.525  28.421  1.00  0.00     0.339 C 
ATOM      6  O   UNL     1      22.700 -24.885  29.770  1.00  0.00    -0.332 OA
ENDROOT
BRANCH   1   7
ATOM      7  C   UNL     1      23.584 -25.282  31.973  1.00  0.00     0.198 C 
BRANCH   7   8
ATOM      8  O   UNL     1      24.753 -25.066  32.750  1.00  0.00    -0.347 OA
BRANCH   8   9
ATOM      9  C   UNL     1      25.039 -26.132  33.643  1.00  0.00     0.281 C 
ATOM     10  C   UNL     1      25.576 -29.708  33.031  1.00  0.00     0.041 C 
ATOM     11  C   UNL     1      25.203 -28.455  33.826  1.00  0.00     0.150 C 
ATOM     12  C   UNL     1      26.135 -28.282  35.068  1.00  0.00     0.174 C 
ATOM     13  O   UNL     1      25.256 -27.347  32.941  1.00  0.00    -0.344 OA
ATOM     14  C   UNL     1      27.058 -27.058  34.881  1.00  0.00     0.179 C 
ATOM     15  C   UNL     1      26.237 -25.789  34.574  1.00  0.00     0.202 C 
BRANCH  12  16
ATOM     16  O   UNL     1      25.342 -28.116  36.218  1.00  0.00    -0.388 OA
ATOM     17  H   UNL     1      24.946 -29.002  36.431  1.00  0.00     0.211 HD
ENDBRANCH  12  16
BRANCH  14  18
ATOM     18  O   UNL     1      27.856 -26.853  36.019  1.00  0.00    -0.387 OA
ATOM     19  H   UNL     1      28.791 -26.755  35.698  1.00  0.00     0.211 HD
ENDBRANCH  14  18
BRANCH  15  20
ATOM     20  O   UNL     1      25.762 -25.221  35.769  1.00  0.00    -0.385 OA
ATOM     21  H   UNL     1      25.048 -24.580  35.515  1.00  0.00     0.211 HD
ENDBRANCH  15  20
ENDBRANCH   8   9
ENDBRANCH   7   8
ENDBRANCH   1   7
BRANCH   2  22
ATOM     22  O   UNL     1      23.974 -27.527  30.173  1.00  0.00    -0.387 OA
ATOM     23  H   UNL     1      24.344 -28.230  29.579  1.00  0.00     0.211 HD
ENDBRANCH   2  22
BRANCH   3  24
ATOM     24  O   UNL     1      26.052 -25.346  28.166  1.00  0.00    -0.387 OA
ATOM     25  H   UNL     1      26.402 -25.549  27.263  1.00  0.00     0.211 HD
ENDBRANCH   3  24
BRANCH   5  26
ATOM     26  O   UNL     1      23.629 -23.270  28.341  1.00  0.00    -0.454 OA
BRANCH  26  27
ATOM     27  C   UNL     1      22.967 -22.050  28.144  1.00  0.00     0.214 A 
ATOM     28  C   UNL     1      22.563 -21.659  26.852  1.00  0.00     0.180 A 
ATOM     29  C   UNL     1      22.697 -21.193  29.223  1.00  0.00     0.239 A 
ATOM     30  O   UNL     1      22.008 -20.465  26.665  1.00  0.00    -0.452 OA
ATOM     31  C   UNL     1      22.099 -19.938  28.986  1.00  0.00     0.111 A 
ATOM     32  O   UNL     1      22.980 -21.563  30.395  1.00  0.00    -0.285 OA
ATOM     33  C   UNL     1      21.770 -19.608  27.651  1.00  0.00     0.146 A 
ATOM     34  C   UNL     1      21.820 -19.007  30.015  1.00  0.00     0.134 A 
ATOM     35  C   UNL     1      21.183 -18.375  27.353  1.00  0.00     0.094 A 
ATOM     36  C   UNL     1      21.229 -17.776  29.696  1.00  0.00     0.093 A 
ATOM     37  C   UNL     1      20.912 -17.458  28.374  1.00  0.00     0.123 A 
BRANCH  28  38
ATOM     38  C   UNL     1      22.762 -22.527  25.674  1.00  0.00     0.025 A 
ATOM     39  C   UNL     1      21.866 -23.566  25.379  1.00  0.00     0.062 A 
ATOM     40  C   UNL     1      23.830 -22.277  24.803  1.00  0.00     0.016 A 
ATOM     41  C   UNL     1      22.059 -24.383  24.258  1.00  0.00     0.158 A 
ATOM     42  C   UNL     1      24.027 -23.082  23.681  1.00  0.00     0.051 A 
ATOM     43  C   UNL     1      23.159 -24.142  23.402  1.00  0.00     0.157 A 
BRANCH  41  44
ATOM     44  O   UNL     1      21.140 -25.412  24.036  1.00  0.00    -0.504 OA
ATOM     45  H   UNL     1      20.535 -25.791  24.749  1.00  0.00     0.293 HD
ENDBRANCH  41  44
BRANCH  43  46
ATOM     46  O   UNL     1      23.422 -24.922  22.274  1.00  0.00    -0.504 OA
ATOM     47  H   UNL     1      24.227 -24.797  21.677  1.00  0.00     0.293 HD
ENDBRANCH  43  46
ENDBRANCH  28  38
BRANCH  34  48
ATOM     48  O   UNL     1      22.128 -19.292  31.346  1.00  0.00    -0.507 OA
ATOM     49  H   UNL     1      21.786 -20.128  31.805  1.00  0.00     0.293 HD
ENDBRANCH  34  48
BRANCH  37  50
ATOM     50  O   UNL     1      20.327 -16.227  28.084  1.00  0.00    -0.508 OA
ATOM     51  H   UNL     1      19.451 -15.944  28.508  1.00  0.00     0.293 HD
ENDBRANCH  37  50
ENDBRANCH  26  27
ENDBRANCH   5  26
BRANCH   4  52
ATOM     52  O   UNL     1      22.794 -26.684  27.388  1.00  0.00    -0.384 OA
ATOM     53  H   UNL     1      21.896 -26.381  27.683  1.00  0.00     0.211 HD
ENDBRANCH   4  52
TORSDOF 16
ENDMDL
MODEL 6
REMARK VINA RESULT:    -8.439      1.590      8.608
REMARK INTER + INTRA:         -16.165
REMARK INTER:                 -13.279
REMARK INTRA:                  -2.885
REMARK UNBOUND:                -2.299
REMARK SMILES C[C@@H]1O[C@H](OC[C@@H]2O[C@@H](Oc3c(-c4ccc(O)c(O)c4)oc4cc(O)cc(O)c4c3=O)[C@H](O)[C@@H](O)[C@@H]2O)[C@@H](O)[C@@H](O)[C@H]1O
REMARK SMILES IDX 7 1 36 2 34 3 32 4 9 5 8 6 6 7 5 8 4 9 1 10 2 11 42 12 3 13
REMARK SMILES IDX 40 14 38 15 43 16 41 18 39 20 37 22 35 24 10 26 11 27 12 28
REMARK SMILES IDX 30 29 21 30 29 31 31 32 22 33 27 34 23 35 26 36 24 37 13 38
REMARK SMILES IDX 20 39 14 40 18 41 15 42 16 43 19 44 17 46 28 48 25 50 33 52
REMARK H PARENT 43 17 41 19 39 21 37 23 35 25 19 45 17 47 28 49 25 51 33 53
REMARK Flexibility Score: inf
ROOT
ATOM      1  C   UNL     1      22.634 -22.200  27.648  1.00  0.00     0.180 C 
ATOM      2  C   UNL     1      22.182 -22.237  26.168  1.00  0.00     0.177 C 
ATOM      3  C   UNL     1      22.069 -23.693  25.663  1.00  0.00     0.180 C 
ATOM      4  C   UNL     1      23.274 -24.564  26.100  1.00  0.00     0.214 C 
ATOM      5  C   UNL     1      23.714 -24.281  27.553  1.00  0.00     0.339 C 
ATOM      6  O   UNL     1      23.857 -22.895  27.815  1.00  0.00    -0.332 OA
ENDROOT
BRANCH   1   7
ATOM      7  C   UNL     1      22.808 -20.754  28.144  1.00  0.00     0.198 C 
BRANCH   7   8
ATOM      8  O   UNL     1      21.745 -19.946  27.660  1.00  0.00    -0.347 OA
BRANCH   8   9
ATOM      9  C   UNL     1      21.291 -18.990  28.606  1.00  0.00     0.281 C 
ATOM     10  C   UNL     1      22.854 -15.922  29.868  1.00  0.00     0.041 C 
ATOM     11  C   UNL     1      21.929 -17.140  29.882  1.00  0.00     0.150 C 
ATOM     12  C   UNL     1      20.431 -16.705  29.982  1.00  0.00     0.174 C 
ATOM     13  O   UNL     1      22.201 -17.906  28.719  1.00  0.00    -0.344 OA
ATOM     14  C   UNL     1      19.693 -17.012  28.662  1.00  0.00     0.179 C 
ATOM     15  C   UNL     1      19.855 -18.496  28.271  1.00  0.00     0.202 C 
BRANCH  12  16
ATOM     16  O   UNL     1      19.823 -17.394  31.047  1.00  0.00    -0.388 OA
ATOM     17  H   UNL     1      18.928 -17.689  30.732  1.00  0.00     0.211 HD
ENDBRANCH  12  16
BRANCH  14  18
ATOM     18  O   UNL     1      18.330 -16.685  28.760  1.00  0.00    -0.387 OA
ATOM     19  H   UNL     1      17.822 -17.482  28.456  1.00  0.00     0.211 HD
ENDBRANCH  14  18
BRANCH  15  20
ATOM     20  O   UNL     1      18.911 -19.280  28.956  1.00  0.00    -0.385 OA
ATOM     21  H   UNL     1      18.878 -18.937  29.887  1.00  0.00     0.211 HD
ENDBRANCH  15  20
ENDBRANCH   8   9
ENDBRANCH   7   8
ENDBRANCH   1   7
BRANCH   2  22
ATOM     22  O   UNL     1      23.039 -21.485  25.343  1.00  0.00    -0.387 OA
ATOM     23  H   UNL     1      23.691 -22.107  24.927  1.00  0.00     0.211 HD
ENDBRANCH   2  22
BRANCH   3  24
ATOM     24  O   UNL     1      20.852 -24.278  26.060  1.00  0.00    -0.387 OA
ATOM     25  H   UNL     1      20.424 -23.686  26.728  1.00  0.00     0.211 HD
ENDBRANCH   3  24
BRANCH   5  26
ATOM     26  O   UNL     1      22.826 -24.892  28.498  1.00  0.00    -0.454 OA
BRANCH  26  27
ATOM     27  C   UNL     1      23.277 -25.555  29.647  1.00  0.00     0.214 A 
ATOM     28  C   UNL     1      23.097 -24.979  30.919  1.00  0.00     0.180 A 
ATOM     29  C   UNL     1      23.920 -26.800  29.556  1.00  0.00     0.239 A 
ATOM     30  O   UNL     1      23.599 -25.577  31.995  1.00  0.00    -0.452 OA
ATOM     31  C   UNL     1      24.432 -27.409  30.720  1.00  0.00     0.111 A 
ATOM     32  O   UNL     1      24.018 -27.367  28.433  1.00  0.00    -0.285 OA
ATOM     33  C   UNL     1      24.247 -26.735  31.950  1.00  0.00     0.146 A 
ATOM     34  C   UNL     1      25.117 -28.648  30.708  1.00  0.00     0.134 A 
ATOM     35  C   UNL     1      24.741 -27.285  33.136  1.00  0.00     0.094 A 
ATOM     36  C   UNL     1      25.602 -29.184  31.910  1.00  0.00     0.093 A 
ATOM     37  C   UNL     1      25.418 -28.509  33.119  1.00  0.00     0.123 A 
BRANCH  28  38
ATOM     38  C   UNL     1      22.383 -23.699  31.104  1.00  0.00     0.025 A 
ATOM     39  C   UNL     1      23.080 -22.513  31.382  1.00  0.00     0.062 A 
ATOM     40  C   UNL     1      20.992 -23.653  30.944  1.00  0.00     0.016 A 
ATOM     41  C   UNL     1      22.396 -21.302  31.552  1.00  0.00     0.158 A 
ATOM     42  C   UNL     1      20.303 -22.452  31.106  1.00  0.00     0.051 A 
ATOM     43  C   UNL     1      20.988 -21.273  31.420  1.00  0.00     0.157 A 
BRANCH  41  44
ATOM     44  O   UNL     1      23.150 -20.164  31.849  1.00  0.00    -0.504 OA
ATOM     45  H   UNL     1      24.159 -20.136  31.832  1.00  0.00     0.293 HD
ENDBRANCH  41  44
BRANCH  43  46
ATOM     46  O   UNL     1      20.238 -20.107  31.588  1.00  0.00    -0.504 OA
ATOM     47  H   UNL     1      19.601 -19.741  30.895  1.00  0.00     0.293 HD
ENDBRANCH  43  46
ENDBRANCH  28  38
BRANCH  34  48
ATOM     48  O   UNL     1      25.321 -29.346  29.518  1.00  0.00    -0.507 OA
ATOM     49  H   UNL     1      26.113 -29.154  28.916  1.00  0.00     0.293 HD
ENDBRANCH  34  48
BRANCH  37  50
ATOM     50  O   UNL     1      25.912 -29.063  34.298  1.00  0.00    -0.508 OA
ATOM     51  H   UNL     1      25.404 -28.990  35.172  1.00  0.00     0.293 HD
ENDBRANCH  37  50
ENDBRANCH  26  27
ENDBRANCH   5  26
BRANCH   4  52
ATOM     52  O   UNL     1      24.365 -24.330  25.245  1.00  0.00    -0.384 OA
ATOM     53  H   UNL     1      25.102 -24.924  25.546  1.00  0.00     0.211 HD
ENDBRANCH   4  52
TORSDOF 16
ENDMDL
MODEL 7
REMARK VINA RESULT:    -8.283      1.780      6.003
REMARK INTER + INTRA:         -15.909
REMARK INTER:                 -14.490
REMARK INTRA:                  -1.419
REMARK UNBOUND:                -2.299
REMARK SMILES C[C@@H]1O[C@H](OC[C@@H]2O[C@@H](Oc3c(-c4ccc(O)c(O)c4)oc4cc(O)cc(O)c4c3=O)[C@H](O)[C@@H](O)[C@@H]2O)[C@@H](O)[C@@H](O)[C@H]1O
REMARK SMILES IDX 7 1 36 2 34 3 32 4 9 5 8 6 6 7 5 8 4 9 1 10 2 11 42 12 3 13
REMARK SMILES IDX 40 14 38 15 43 16 41 18 39 20 37 22 35 24 10 26 11 27 12 28
REMARK SMILES IDX 30 29 21 30 29 31 31 32 22 33 27 34 23 35 26 36 24 37 13 38
REMARK SMILES IDX 20 39 14 40 18 41 15 42 16 43 19 44 17 46 28 48 25 50 33 52
REMARK H PARENT 43 17 41 19 39 21 37 23 35 25 19 45 17 47 28 49 25 51 33 53
REMARK Flexibility Score: inf
ROOT
ATOM      1  C   UNL     1      22.462 -23.887  31.990  1.00  0.00     0.180 C 
ATOM      2  C   UNL     1      21.935 -23.190  33.268  1.00  0.00     0.177 C 
ATOM      3  C   UNL     1      21.310 -21.817  32.929  1.00  0.00     0.180 C 
ATOM      4  C   UNL     1      22.178 -21.003  31.935  1.00  0.00     0.214 C 
ATOM      5  C   UNL     1      22.774 -21.881  30.813  1.00  0.00     0.339 C 
ATOM      6  O   UNL     1      23.388 -23.056  31.313  1.00  0.00    -0.332 OA
ENDROOT
BRANCH   1   7
ATOM      7  C   UNL     1      23.140 -25.226  32.323  1.00  0.00     0.198 C 
BRANCH   7   8
ATOM      8  O   UNL     1      24.125 -25.526  31.345  1.00  0.00    -0.347 OA
BRANCH   8   9
ATOM      9  C   UNL     1      24.850 -26.714  31.624  1.00  0.00     0.281 C 
ATOM     10  C   UNL     1      26.446 -27.891  34.709  1.00  0.00     0.041 C 
ATOM     11  C   UNL     1      26.206 -27.777  33.203  1.00  0.00     0.150 C 
ATOM     12  C   UNL     1      25.817 -29.160  32.590  1.00  0.00     0.174 C 
ATOM     13  O   UNL     1      25.210 -26.786  32.996  1.00  0.00    -0.344 OA
ATOM     14  C   UNL     1      24.341 -29.152  32.136  1.00  0.00     0.179 C 
ATOM     15  C   UNL     1      24.066 -27.979  31.173  1.00  0.00     0.202 C 
BRANCH  12  16
ATOM     16  O   UNL     1      26.657 -29.430  31.494  1.00  0.00    -0.388 OA
ATOM     17  H   UNL     1      27.220 -30.210  31.741  1.00  0.00     0.211 HD
ENDBRANCH  12  16
BRANCH  14  18
ATOM     18  O   UNL     1      23.997 -30.370  31.525  1.00  0.00    -0.387 OA
ATOM     19  H   UNL     1      24.555 -31.072  31.951  1.00  0.00     0.211 HD
ENDBRANCH  14  18
BRANCH  15  20
ATOM     20  O   UNL     1      24.444 -28.330  29.865  1.00  0.00    -0.385 OA
ATOM     21  H   UNL     1      24.784 -29.262  29.909  1.00  0.00     0.211 HD
ENDBRANCH  15  20
ENDBRANCH   8   9
ENDBRANCH   7   8
ENDBRANCH   1   7
BRANCH   2  22
ATOM     22  O   UNL     1      22.944 -23.055  34.240  1.00  0.00    -0.387 OA
ATOM     23  H   UNL     1      23.818 -23.226  33.804  1.00  0.00     0.211 HD
ENDBRANCH   2  22
BRANCH   3  24
ATOM     24  O   UNL     1      19.994 -21.960  32.451  1.00  0.00    -0.387 OA
ATOM     25  H   UNL     1      19.523 -22.614  33.025  1.00  0.00     0.211 HD
ENDBRANCH   3  24
BRANCH   5  26
ATOM     26  O   UNL     1      21.791 -22.200  29.820  1.00  0.00    -0.454 OA
BRANCH  26  27
ATOM     27  C   UNL     1      22.113 -22.417  28.473  1.00  0.00     0.214 A 
ATOM     28  C   UNL     1      22.217 -21.332  27.581  1.00  0.00     0.180 A 
ATOM     29  C   UNL     1      22.334 -23.715  27.984  1.00  0.00     0.239 A 
ATOM     30  O   UNL     1      22.444 -21.555  26.290  1.00  0.00    -0.452 OA
ATOM     31  C   UNL     1      22.580 -23.911  26.610  1.00  0.00     0.111 A 
ATOM     32  O   UNL     1      22.323 -24.690  28.785  1.00  0.00    -0.285 OA
ATOM     33  C   UNL     1      22.619 -22.768  25.779  1.00  0.00     0.146 A 
ATOM     34  C   UNL     1      22.783 -25.189  26.035  1.00  0.00     0.134 A 
ATOM     35  C   UNL     1      22.851 -22.901  24.407  1.00  0.00     0.094 A 
ATOM     36  C   UNL     1      23.017 -25.301  24.656  1.00  0.00     0.093 A 
ATOM     37  C   UNL     1      23.050 -24.166  23.844  1.00  0.00     0.123 A 
BRANCH  28  38
ATOM     38  C   UNL     1      22.053 -19.934  28.028  1.00  0.00     0.025 A 
ATOM     39  C   UNL     1      22.968 -19.343  28.913  1.00  0.00     0.062 A 
ATOM     40  C   UNL     1      21.000 -19.164  27.517  1.00  0.00     0.016 A 
ATOM     41  C   UNL     1      22.807 -18.015  29.330  1.00  0.00     0.158 A 
ATOM     42  C   UNL     1      20.835 -17.839  27.922  1.00  0.00     0.051 A 
ATOM     43  C   UNL     1      21.722 -17.256  28.833  1.00  0.00     0.157 A 
BRANCH  41  44
ATOM     44  O   UNL     1      23.743 -17.497  30.229  1.00  0.00    -0.504 OA
ATOM     45  H   UNL     1      23.576 -16.692  30.814  1.00  0.00     0.293 HD
ENDBRANCH  41  44
BRANCH  43  46
ATOM     46  O   UNL     1      21.491 -15.932  29.212  1.00  0.00    -0.504 OA
ATOM     47  H   UNL     1      20.991 -15.262  28.646  1.00  0.00     0.293 HD
ENDBRANCH  43  46
ENDBRANCH  28  38
BRANCH  34  48
ATOM     48  O   UNL     1      22.753 -26.343  26.818  1.00  0.00    -0.507 OA
ATOM     49  H   UNL     1      21.908 -26.893  26.926  1.00  0.00     0.293 HD
ENDBRANCH  34  48
BRANCH  37  50
ATOM     50  O   UNL     1      23.281 -24.305  22.477  1.00  0.00    -0.508 OA
ATOM     51  H   UNL     1      22.531 -24.525  21.832  1.00  0.00     0.293 HD
ENDBRANCH  37  50
ENDBRANCH  26  27
ENDBRANCH   5  26
BRANCH   4  52
ATOM     52  O   UNL     1      23.230 -20.377  32.624  1.00  0.00    -0.384 OA
ATOM     53  H   UNL     1      24.076 -20.748  32.260  1.00  0.00     0.211 HD
ENDBRANCH   4  52
TORSDOF 16
ENDMDL
MODEL 8
REMARK VINA RESULT:    -8.130      1.591      8.755
REMARK INTER + INTRA:         -15.657
REMARK INTER:                 -13.164
REMARK INTRA:                  -2.493
REMARK UNBOUND:                -2.299
REMARK SMILES C[C@@H]1O[C@H](OC[C@@H]2O[C@@H](Oc3c(-c4ccc(O)c(O)c4)oc4cc(O)cc(O)c4c3=O)[C@H](O)[C@@H](O)[C@@H]2O)[C@@H](O)[C@@H](O)[C@H]1O
REMARK SMILES IDX 7 1 36 2 34 3 32 4 9 5 8 6 6 7 5 8 4 9 1 10 2 11 42 12 3 13
REMARK SMILES IDX 40 14 38 15 43 16 41 18 39 20 37 22 35 24 10 26 11 27 12 28
REMARK SMILES IDX 30 29 21 30 29 31 31 32 22 33 27 34 23 35 26 36 24 37 13 38
REMARK SMILES IDX 20 39 14 40 18 41 15 42 16 43 19 44 17 46 28 48 25 50 33 52
REMARK H PARENT 43 17 41 19 39 21 37 23 35 25 19 45 17 47 28 49 25 51 33 53
REMARK Flexibility Score: inf
ROOT
ATOM      1  C   UNL     1      22.750 -23.173  28.423  1.00  0.00     0.180 C 
ATOM      2  C   UNL     1      22.579 -23.323  26.893  1.00  0.00     0.177 C 
ATOM      3  C   UNL     1      22.819 -24.786  26.452  1.00  0.00     0.180 C 
ATOM      4  C   UNL     1      24.063 -25.411  27.132  1.00  0.00     0.214 C 
ATOM      5  C   UNL     1      24.183 -25.021  28.622  1.00  0.00     0.339 C 
ATOM      6  O   UNL     1      24.028 -23.628  28.831  1.00  0.00    -0.332 OA
ENDROOT
BRANCH   1   7
ATOM      7  C   UNL     1      22.573 -21.711  28.865  1.00  0.00     0.198 C 
BRANCH   7   8
ATOM      8  O   UNL     1      21.782 -21.011  27.917  1.00  0.00    -0.347 OA
BRANCH   8   9
ATOM      9  C   UNL     1      21.530 -19.663  28.281  1.00  0.00     0.281 C 
ATOM     10  C   UNL     1      21.065 -16.661  26.226  1.00  0.00     0.041 C 
ATOM     11  C   UNL     1      21.419 -17.473  27.473  1.00  0.00     0.150 C 
ATOM     12  C   UNL     1      20.498 -17.087  28.674  1.00  0.00     0.174 C 
ATOM     13  O   UNL     1      21.332 -18.849  27.134  1.00  0.00    -0.344 OA
ATOM     14  C   UNL     1      19.545 -18.253  29.018  1.00  0.00     0.179 C 
ATOM     15  C   UNL     1      20.335 -19.554  29.270  1.00  0.00     0.202 C 
BRANCH  12  16
ATOM     16  O   UNL     1      21.299 -16.775  29.787  1.00  0.00    -0.388 OA
ATOM     17  H   UNL     1      22.223 -17.072  29.575  1.00  0.00     0.211 HD
ENDBRANCH  12  16
BRANCH  14  18
ATOM     18  O   UNL     1      18.755 -17.943  30.137  1.00  0.00    -0.387 OA
ATOM     19  H   UNL     1      18.356 -18.796  30.451  1.00  0.00     0.211 HD
ENDBRANCH  14  18
BRANCH  15  20
ATOM     20  O   UNL     1      20.810 -19.580  30.593  1.00  0.00    -0.385 OA
ATOM     21  H   UNL     1      20.038 -19.354  31.176  1.00  0.00     0.211 HD
ENDBRANCH  15  20
ENDBRANCH   8   9
ENDBRANCH   7   8
ENDBRANCH   1   7
BRANCH   2  22
ATOM     22  O   UNL     1      23.421 -22.444  26.187  1.00  0.00    -0.387 OA
ATOM     23  H   UNL     1      23.212 -21.518  26.475  1.00  0.00     0.211 HD
ENDBRANCH   2  22
BRANCH   3  24
ATOM     24  O   UNL     1      21.674 -25.577  26.667  1.00  0.00    -0.387 OA
ATOM     25  H   UNL     1      21.293 -25.821  25.787  1.00  0.00     0.211 HD
ENDBRANCH   3  24
BRANCH   5  26
ATOM     26  O   UNL     1      23.265 -25.766  29.433  1.00  0.00    -0.454 OA
BRANCH  26  27
ATOM     27  C   UNL     1      23.612 -26.297  30.682  1.00  0.00     0.214 A 
ATOM     28  C   UNL     1      23.018 -25.800  31.858  1.00  0.00     0.180 A 
ATOM     29  C   UNL     1      24.559 -27.328  30.790  1.00  0.00     0.239 A 
ATOM     30  O   UNL     1      23.412 -26.254  33.044  1.00  0.00    -0.452 OA
ATOM     31  C   UNL     1      24.947 -27.790  32.065  1.00  0.00     0.111 A 
ATOM     32  O   UNL     1      25.043 -27.839  29.743  1.00  0.00    -0.285 OA
ATOM     33  C   UNL     1      24.332 -27.200  33.193  1.00  0.00     0.146 A 
ATOM     34  C   UNL     1      25.915 -28.805  32.259  1.00  0.00     0.134 A 
ATOM     35  C   UNL     1      24.682 -27.610  34.483  1.00  0.00     0.094 A 
ATOM     36  C   UNL     1      26.251 -29.205  33.561  1.00  0.00     0.093 A 
ATOM     37  C   UNL     1      25.640 -28.612  34.669  1.00  0.00     0.123 A 
BRANCH  28  38
ATOM     38  C   UNL     1      21.974 -24.755  31.825  1.00  0.00     0.025 A 
ATOM     39  C   UNL     1      22.239 -23.450  32.269  1.00  0.00     0.062 A 
ATOM     40  C   UNL     1      20.714 -25.052  31.289  1.00  0.00     0.016 A 
ATOM     41  C   UNL     1      21.245 -22.464  32.231  1.00  0.00     0.158 A 
ATOM     42  C   UNL     1      19.720 -24.076  31.242  1.00  0.00     0.051 A 
ATOM     43  C   UNL     1      19.966 -22.783  31.718  1.00  0.00     0.157 A 
BRANCH  41  44
ATOM     44  O   UNL     1      21.571 -21.192  32.708  1.00  0.00    -0.504 OA
ATOM     45  H   UNL     1      22.185 -21.024  33.491  1.00  0.00     0.293 HD
ENDBRANCH  41  44
BRANCH  43  46
ATOM     46  O   UNL     1      18.923 -21.857  31.660  1.00  0.00    -0.504 OA
ATOM     47  H   UNL     1      19.015 -20.886  31.923  1.00  0.00     0.293 HD
ENDBRANCH  43  46
ENDBRANCH  28  38
BRANCH  34  48
ATOM     48  O   UNL     1      26.546 -29.414  31.175  1.00  0.00    -0.507 OA
ATOM     49  H   UNL     1      26.294 -29.194  30.218  1.00  0.00     0.293 HD
ENDBRANCH  34  48
BRANCH  37  50
ATOM     50  O   UNL     1      25.993 -29.027  35.952  1.00  0.00    -0.508 OA
ATOM     51  H   UNL     1      26.482 -29.900  36.110  1.00  0.00     0.293 HD
ENDBRANCH  37  50
ENDBRANCH  26  27
ENDBRANCH   5  26
BRANCH   4  52
ATOM     52  O   UNL     1      25.228 -24.997  26.464  1.00  0.00    -0.384 OA
ATOM     53  H   UNL     1      24.966 -24.781  25.530  1.00  0.00     0.211 HD
ENDBRANCH   4  52
TORSDOF 16
ENDMDL
MODEL 9
REMARK VINA RESULT:    -8.090      2.138      7.253
REMARK INTER + INTRA:         -15.591
REMARK INTER:                 -13.459
REMARK INTRA:                  -2.132
REMARK UNBOUND:                -2.299
REMARK SMILES C[C@@H]1O[C@H](OC[C@@H]2O[C@@H](Oc3c(-c4ccc(O)c(O)c4)oc4cc(O)cc(O)c4c3=O)[C@H](O)[C@@H](O)[C@@H]2O)[C@@H](O)[C@@H](O)[C@H]1O
REMARK SMILES IDX 7 1 36 2 34 3 32 4 9 5 8 6 6 7 5 8 4 9 1 10 2 11 42 12 3 13
REMARK SMILES IDX 40 14 38 15 43 16 41 18 39 20 37 22 35 24 10 26 11 27 12 28
REMARK SMILES IDX 30 29 21 30 29 31 31 32 22 33 27 34 23 35 26 36 24 37 13 38
REMARK SMILES IDX 20 39 14 40 18 41 15 42 16 43 19 44 17 46 28 48 25 50 33 52
REMARK H PARENT 43 17 41 19 39 21 37 23 35 25 19 45 17 47 28 49 25 51 33 53
REMARK Flexibility Score: inf
ROOT
ATOM      1  C   UNL     1      22.373 -20.852  27.985  1.00  0.00     0.180 C 
ATOM      2  C   UNL     1      22.192 -19.348  28.299  1.00  0.00     0.177 C 
ATOM      3  C   UNL     1      22.337 -19.080  29.815  1.00  0.00     0.180 C 
ATOM      4  C   UNL     1      21.575 -20.121  30.673  1.00  0.00     0.214 C 
ATOM      5  C   UNL     1      21.715 -21.558  30.124  1.00  0.00     0.339 C 
ATOM      6  O   UNL     1      21.458 -21.633  28.733  1.00  0.00    -0.332 OA
ENDROOT
BRANCH   1   7
ATOM      7  C   UNL     1      22.172 -21.139  26.488  1.00  0.00     0.198 C 
BRANCH   7   8
ATOM      8  O   UNL     1      21.800 -22.497  26.302  1.00  0.00    -0.347 OA
BRANCH   8   9
ATOM      9  C   UNL     1      22.457 -23.114  25.205  1.00  0.00     0.281 C 
ATOM     10  C   UNL     1      25.976 -23.070  24.171  1.00  0.00     0.041 C 
ATOM     11  C   UNL     1      24.461 -23.205  24.006  1.00  0.00     0.150 C 
ATOM     12  C   UNL     1      24.077 -24.630  23.493  1.00  0.00     0.174 C 
ATOM     13  O   UNL     1      23.858 -22.891  25.253  1.00  0.00    -0.344 OA
ATOM     14  C   UNL     1      23.341 -25.420  24.597  1.00  0.00     0.179 C 
ATOM     15  C   UNL     1      22.124 -24.631  25.122  1.00  0.00     0.202 C 
BRANCH  12  16
ATOM     16  O   UNL     1      23.253 -24.504  22.360  1.00  0.00    -0.388 OA
ATOM     17  H   UNL     1      22.382 -24.141  22.670  1.00  0.00     0.211 HD
ENDBRANCH  12  16
BRANCH  14  18
ATOM     18  O   UNL     1      22.934 -26.680  24.127  1.00  0.00    -0.387 OA
ATOM     19  H   UNL     1      21.952 -26.631  23.992  1.00  0.00     0.211 HD
ENDBRANCH  14  18
BRANCH  15  20
ATOM     20  O   UNL     1      21.020 -24.829  24.275  1.00  0.00    -0.385 OA
ATOM     21  H   UNL     1      21.281 -24.482  23.382  1.00  0.00     0.211 HD
ENDBRANCH  15  20
ENDBRANCH   8   9
ENDBRANCH   7   8
ENDBRANCH   1   7
BRANCH   2  22
ATOM     22  O   UNL     1      20.962 -18.861  27.820  1.00  0.00    -0.387 OA
ATOM     23  H   UNL     1      20.663 -18.130  28.421  1.00  0.00     0.211 HD
ENDBRANCH   2  22
BRANCH   3  24
ATOM     24  O   UNL     1      23.691 -19.006  30.193  1.00  0.00    -0.387 OA
ATOM     25  H   UNL     1      24.241 -18.936  29.373  1.00  0.00     0.211 HD
ENDBRANCH   3  24
BRANCH   5  26
ATOM     26  O   UNL     1      22.998 -22.116  30.439  1.00  0.00    -0.454 OA
BRANCH  26  27
ATOM     27  C   UNL     1      23.292 -23.478  30.289  1.00  0.00     0.214 A 
ATOM     28  C   UNL     1      22.821 -24.417  31.228  1.00  0.00     0.180 A 
ATOM     29  C   UNL     1      24.063 -23.935  29.207  1.00  0.00     0.239 A 
ATOM     30  O   UNL     1      23.172 -25.694  31.121  1.00  0.00    -0.452 OA
ATOM     31  C   UNL     1      24.408 -25.300  29.123  1.00  0.00     0.111 A 
ATOM     32  O   UNL     1      24.425 -23.121  28.315  1.00  0.00    -0.285 OA
ATOM     33  C   UNL     1      23.931 -26.163  30.137  1.00  0.00     0.146 A 
ATOM     34  C   UNL     1      25.205 -25.834  28.082  1.00  0.00     0.134 A 
ATOM     35  C   UNL     1      24.248 -27.524  30.111  1.00  0.00     0.094 A 
ATOM     36  C   UNL     1      25.510 -27.203  28.073  1.00  0.00     0.093 A 
ATOM     37  C   UNL     1      25.037 -28.046  29.081  1.00  0.00     0.123 A 
BRANCH  28  38
ATOM     38  C   UNL     1      21.960 -24.024  32.362  1.00  0.00     0.025 A 
ATOM     39  C   UNL     1      20.576 -24.252  32.335  1.00  0.00     0.062 A 
ATOM     40  C   UNL     1      22.539 -23.465  33.509  1.00  0.00     0.016 A 
ATOM     41  C   UNL     1      19.766 -23.879  33.416  1.00  0.00     0.158 A 
ATOM     42  C   UNL     1      21.743 -23.096  34.592  1.00  0.00     0.051 A 
ATOM     43  C   UNL     1      20.357 -23.287  34.556  1.00  0.00     0.157 A 
BRANCH  41  44
ATOM     44  O   UNL     1      18.393 -24.116  33.313  1.00  0.00    -0.504 OA
ATOM     45  H   UNL     1      17.979 -25.036  33.307  1.00  0.00     0.293 HD
ENDBRANCH  41  44
BRANCH  43  46
ATOM     46  O   UNL     1      19.613 -22.878  35.666  1.00  0.00    -0.504 OA
ATOM     47  H   UNL     1      18.672 -23.190  35.860  1.00  0.00     0.293 HD
ENDBRANCH  43  46
ENDBRANCH  28  38
BRANCH  34  48
ATOM     48  O   UNL     1      25.696 -25.018  27.062  1.00  0.00    -0.507 OA
ATOM     49  H   UNL     1      25.166 -24.845  26.215  1.00  0.00     0.293 HD
ENDBRANCH  34  48
BRANCH  37  50
ATOM     50  O   UNL     1      25.356 -29.402  29.049  1.00  0.00    -0.508 OA
ATOM     51  H   UNL     1      25.194 -30.003  29.848  1.00  0.00     0.293 HD
ENDBRANCH  37  50
ENDBRANCH  26  27
ENDBRANCH   5  26
BRANCH   4  52
ATOM     52  O   UNL     1      20.211 -19.790  30.724  1.00  0.00    -0.384 OA
ATOM     53  H   UNL     1      20.149 -18.872  31.097  1.00  0.00     0.211 HD
ENDBRANCH   4  52
TORSDOF 16
ENDMDL
