MODEL 1
REMARK VINA RESULT:    -6.746      0.000      0.000
REMARK INTER + INTRA:          -8.422
REMARK INTER:                  -8.126
REMARK INTRA:                  -0.296
REMARK UNBOUND:                -0.296
REMARK SMILES O=c1c(O)c(-c2ccc(O)c(O)c2)oc2cc(O)cc(O)c12
REMARK SMILES IDX 5 1 3 2 2 3 1 4 22 5 20 6 19 7 17 8 16 9 15 10 14 11 6 12
REMARK SMILES IDX 7 13 8 14 9 15 13 16 11 17 10 18 12 20 4 22 21 24 18 26
REMARK H PARENT 10 19 12 21 4 23 21 25 18 27
REMARK Flexibility Score: inf
ROOT
ATOM      1  C   UNL     1       8.965  16.928  76.768  1.00  0.00     0.180 A 
ATOM      2  C   UNL     1       8.568  16.115  77.844  1.00  0.00     0.208 A 
ATOM      3  C   UNL     1       7.328  16.355  78.456  1.00  0.00     0.238 A 
ATOM      4  O   UNL     1       7.013  15.672  79.465  1.00  0.00    -0.285 OA
ATOM      5  C   UNL     1       6.475  17.366  77.952  1.00  0.00     0.111 A 
ATOM      6  C   UNL     1       5.176  17.665  78.466  1.00  0.00     0.134 A 
ATOM      7  C   UNL     1       4.466  18.759  77.955  1.00  0.00     0.093 A 
ATOM      8  C   UNL     1       4.977  19.523  76.907  1.00  0.00     0.123 A 
ATOM      9  C   UNL     1       6.220  19.205  76.359  1.00  0.00     0.094 A 
ATOM     10  C   UNL     1       6.970  18.145  76.873  1.00  0.00     0.146 A 
ATOM     11  O   UNL     1       8.157  17.890  76.337  1.00  0.00    -0.452 OA
ENDROOT
BRANCH   1  12
ATOM     12  C   UNL     1      10.263  16.748  76.079  1.00  0.00     0.025 A 
ATOM     13  C   UNL     1      10.393  15.751  75.101  1.00  0.00     0.016 A 
ATOM     14  C   UNL     1      11.602  15.576  74.424  1.00  0.00     0.051 A 
ATOM     15  C   UNL     1      12.695  16.407  74.704  1.00  0.00     0.157 A 
ATOM     16  C   UNL     1      11.356  17.594  76.344  1.00  0.00     0.062 A 
ATOM     17  C   UNL     1      12.569  17.423  75.666  1.00  0.00     0.158 A 
BRANCH  15  18
ATOM     18  O   UNL     1      13.902  16.230  74.028  1.00  0.00    -0.504 OA
ATOM     19  H   UNL     1      14.568  15.519  74.309  1.00  0.00     0.293 HD
ENDBRANCH  15  18
BRANCH  17  20
ATOM     20  O   UNL     1      13.633  18.276  75.957  1.00  0.00    -0.504 OA
ATOM     21  H   UNL     1      14.021  18.907  75.267  1.00  0.00     0.293 HD
ENDBRANCH  17  20
ENDBRANCH   1  12
BRANCH   2  22
ATOM     22  O   UNL     1       9.391  15.073  78.278  1.00  0.00    -0.502 OA
ATOM     23  H   UNL     1       9.049  14.314  78.854  1.00  0.00     0.293 HD
ENDBRANCH   2  22
BRANCH   6  24
ATOM     24  O   UNL     1       4.532  16.913  79.453  1.00  0.00    -0.507 OA
ATOM     25  H   UNL     1       4.970  16.565  80.292  1.00  0.00     0.293 HD
ENDBRANCH   6  24
BRANCH   8  26
ATOM     26  O   UNL     1       4.234  20.593  76.412  1.00  0.00    -0.508 OA
ATOM     27  H   UNL     1       3.224  20.620  76.493  1.00  0.00     0.293 HD
ENDBRANCH   8  26
TORSDOF 6
ENDMDL
MODEL 2
REMARK VINA RESULT:    -6.739      3.997      5.985
REMARK INTER + INTRA:          -8.414
REMARK INTER:                  -8.186
REMARK INTRA:                  -0.227
REMARK UNBOUND:                -0.296
REMARK SMILES O=c1c(O)c(-c2ccc(O)c(O)c2)oc2cc(O)cc(O)c12
REMARK SMILES IDX 5 1 3 2 2 3 1 4 22 5 20 6 19 7 17 8 16 9 15 10 14 11 6 12
REMARK SMILES IDX 7 13 8 14 9 15 13 16 11 17 10 18 12 20 4 22 21 24 18 26
REMARK H PARENT 10 19 12 21 4 23 21 25 18 27
REMARK Flexibility Score: inf
ROOT
ATOM      1  C   UNL     1       5.810  19.230  77.159  1.00  0.00     0.180 A 
ATOM      2  C   UNL     1       5.598  20.607  77.346  1.00  0.00     0.208 A 
ATOM      3  C   UNL     1       5.130  21.377  76.270  1.00  0.00     0.238 A 
ATOM      4  O   UNL     1       5.014  22.620  76.424  1.00  0.00    -0.285 OA
ATOM      5  C   UNL     1       4.825  20.753  75.036  1.00  0.00     0.111 A 
ATOM      6  C   UNL     1       4.302  21.427  73.891  1.00  0.00     0.134 A 
ATOM      7  C   UNL     1       4.139  20.725  72.690  1.00  0.00     0.093 A 
ATOM      8  C   UNL     1       4.419  19.363  72.609  1.00  0.00     0.123 A 
ATOM      9  C   UNL     1       4.878  18.681  73.736  1.00  0.00     0.094 A 
ATOM     10  C   UNL     1       5.088  19.360  74.938  1.00  0.00     0.146 A 
ATOM     11  O   UNL     1       5.547  18.678  75.980  1.00  0.00    -0.452 OA
ENDROOT
BRANCH   1  12
ATOM     12  C   UNL     1       6.316  18.355  78.240  1.00  0.00     0.025 A 
ATOM     13  C   UNL     1       5.485  17.353  78.763  1.00  0.00     0.016 A 
ATOM     14  C   UNL     1       5.948  16.502  79.769  1.00  0.00     0.051 A 
ATOM     15  C   UNL     1       7.255  16.630  80.257  1.00  0.00     0.157 A 
ATOM     16  C   UNL     1       7.635  18.468  78.718  1.00  0.00     0.062 A 
ATOM     17  C   UNL     1       8.103  17.616  79.725  1.00  0.00     0.158 A 
BRANCH  15  18
ATOM     18  O   UNL     1       7.715  15.781  81.263  1.00  0.00    -0.504 OA
ATOM     19  H   UNL     1       7.075  15.255  81.847  1.00  0.00     0.293 HD
ENDBRANCH  15  18
BRANCH  17  20
ATOM     20  O   UNL     1       9.414  17.760  80.178  1.00  0.00    -0.504 OA
ATOM     21  H   UNL     1       9.674  18.464  80.858  1.00  0.00     0.293 HD
ENDBRANCH  17  20
ENDBRANCH   1  12
BRANCH   2  22
ATOM     22  O   UNL     1       5.833  21.190  78.594  1.00  0.00    -0.502 OA
ATOM     23  H   UNL     1       5.696  20.688  79.464  1.00  0.00     0.293 HD
ENDBRANCH   2  22
BRANCH   6  24
ATOM     24  O   UNL     1       3.905  22.768  73.885  1.00  0.00    -0.507 OA
ATOM     25  H   UNL     1       4.371  23.506  73.380  1.00  0.00     0.293 HD
ENDBRANCH   6  24
BRANCH   8  26
ATOM     26  O   UNL     1       4.228  18.693  71.402  1.00  0.00    -0.508 OA
ATOM     27  H   UNL     1       4.909  18.749  70.652  1.00  0.00     0.293 HD
ENDBRANCH   8  26
TORSDOF 6
ENDMDL
MODEL 3
REMARK VINA RESULT:    -6.381      2.058      2.470
REMARK INTER + INTRA:          -7.983
REMARK INTER:                  -7.997
REMARK INTRA:                   0.014
REMARK UNBOUND:                -0.296
REMARK SMILES O=c1c(O)c(-c2ccc(O)c(O)c2)oc2cc(O)cc(O)c12
REMARK SMILES IDX 5 1 3 2 2 3 1 4 22 5 20 6 19 7 17 8 16 9 15 10 14 11 6 12
REMARK SMILES IDX 7 13 8 14 9 15 13 16 11 17 10 18 12 20 4 22 21 24 18 26
REMARK H PARENT 10 19 12 21 4 23 21 25 18 27
REMARK Flexibility Score: inf
ROOT
ATOM      1  C   UNL     1       8.698  18.368  75.980  1.00  0.00     0.180 A 
ATOM      2  C   UNL     1       8.466  18.659  77.335  1.00  0.00     0.208 A 
ATOM      3  C   UNL     1       7.380  19.479  77.679  1.00  0.00     0.238 A 
ATOM      4  O   UNL     1       7.222  19.796  78.886  1.00  0.00    -0.285 OA
ATOM      5  C   UNL     1       6.506  19.952  76.670  1.00  0.00     0.111 A 
ATOM      6  C   UNL     1       5.347  20.753  76.908  1.00  0.00     0.134 A 
ATOM      7  C   UNL     1       4.617  21.252  75.822  1.00  0.00     0.093 A 
ATOM      8  C   UNL     1       4.964  20.927  74.512  1.00  0.00     0.123 A 
ATOM      9  C   UNL     1       6.061  20.100  74.269  1.00  0.00     0.094 A 
ATOM     10  C   UNL     1       6.832  19.619  75.329  1.00  0.00     0.146 A 
ATOM     11  O   UNL     1       7.881  18.853  75.053  1.00  0.00    -0.452 OA
ENDROOT
BRANCH   1  12
ATOM     12  C   UNL     1       9.831  17.523  75.537  1.00  0.00     0.025 A 
ATOM     13  C   UNL     1       9.611  16.521  74.580  1.00  0.00     0.016 A 
ATOM     14  C   UNL     1      10.669  15.726  74.132  1.00  0.00     0.051 A 
ATOM     15  C   UNL     1      11.965  15.932  74.623  1.00  0.00     0.157 A 
ATOM     16  C   UNL     1      11.137  17.741  76.013  1.00  0.00     0.062 A 
ATOM     17  C   UNL     1      12.200  16.946  75.565  1.00  0.00     0.158 A 
BRANCH  15  18
ATOM     18  O   UNL     1      13.018  15.136  74.176  1.00  0.00    -0.504 OA
ATOM     19  H   UNL     1      12.938  14.568  73.340  1.00  0.00     0.293 HD
ENDBRANCH  15  18
BRANCH  17  20
ATOM     20  O   UNL     1      13.480  17.186  76.062  1.00  0.00    -0.504 OA
ATOM     21  H   UNL     1      13.964  16.517  76.649  1.00  0.00     0.293 HD
ENDBRANCH  17  20
ENDBRANCH   1  12
BRANCH   2  22
ATOM     22  O   UNL     1       9.295  18.119  78.322  1.00  0.00    -0.502 OA
ATOM     23  H   UNL     1       9.943  18.685  78.857  1.00  0.00     0.293 HD
ENDBRANCH   2  22
BRANCH   6  24
ATOM     24  O   UNL     1       4.859  21.065  78.180  1.00  0.00    -0.507 OA
ATOM     25  H   UNL     1       3.896  21.277  78.393  1.00  0.00     0.293 HD
ENDBRANCH   6  24
BRANCH   8  26
ATOM     26  O   UNL     1       4.204  21.428  73.456  1.00  0.00    -0.508 OA
ATOM     27  H   UNL     1       4.023  22.421  73.358  1.00  0.00     0.293 HD
ENDBRANCH   8  26
TORSDOF 6
ENDMDL
MODEL 4
REMARK VINA RESULT:    -6.370      3.880      6.684
REMARK INTER + INTRA:          -7.970
REMARK INTER:                  -7.744
REMARK INTRA:                  -0.225
REMARK UNBOUND:                -0.296
REMARK SMILES O=c1c(O)c(-c2ccc(O)c(O)c2)oc2cc(O)cc(O)c12
REMARK SMILES IDX 5 1 3 2 2 3 1 4 22 5 20 6 19 7 17 8 16 9 15 10 14 11 6 12
REMARK SMILES IDX 7 13 8 14 9 15 13 16 11 17 10 18 12 20 4 22 21 24 18 26
REMARK H PARENT 10 19 12 21 4 23 21 25 18 27
REMARK Flexibility Score: inf
ROOT
ATOM      1  C   UNL     1       6.024  20.291  75.526  1.00  0.00     0.180 A 
ATOM      2  C   UNL     1       5.034  21.289  75.519  1.00  0.00     0.208 A 
ATOM      3  C   UNL     1       4.539  21.747  74.288  1.00  0.00     0.238 A 
ATOM      4  O   UNL     1       3.708  22.692  74.287  1.00  0.00    -0.285 OA
ATOM      5  C   UNL     1       4.998  21.165  73.082  1.00  0.00     0.111 A 
ATOM      6  C   UNL     1       4.532  21.521  71.779  1.00  0.00     0.134 A 
ATOM      7  C   UNL     1       5.137  20.952  70.650  1.00  0.00     0.093 A 
ATOM      8  C   UNL     1       6.142  19.995  70.777  1.00  0.00     0.123 A 
ATOM      9  C   UNL     1       6.566  19.599  72.046  1.00  0.00     0.094 A 
ATOM     10  C   UNL     1       6.011  20.176  73.190  1.00  0.00     0.146 A 
ATOM     11  O   UNL     1       6.459  19.787  74.378  1.00  0.00    -0.452 OA
ENDROOT
BRANCH   1  12
ATOM     12  C   UNL     1       6.607  19.766  76.782  1.00  0.00     0.025 A 
ATOM     13  C   UNL     1       5.838  18.925  77.601  1.00  0.00     0.016 A 
ATOM     14  C   UNL     1       6.373  18.402  78.780  1.00  0.00     0.051 A 
ATOM     15  C   UNL     1       7.692  18.699  79.150  1.00  0.00     0.157 A 
ATOM     16  C   UNL     1       7.937  20.047  77.147  1.00  0.00     0.062 A 
ATOM     17  C   UNL     1       8.477  19.522  78.327  1.00  0.00     0.158 A 
BRANCH  15  18
ATOM     18  O   UNL     1       8.223  18.177  80.328  1.00  0.00    -0.504 OA
ATOM     19  H   UNL     1       8.146  17.193  80.555  1.00  0.00     0.293 HD
ENDBRANCH  15  18
BRANCH  17  20
ATOM     20  O   UNL     1       9.797  19.825  78.659  1.00  0.00    -0.504 OA
ATOM     21  H   UNL     1      10.095  20.769  78.874  1.00  0.00     0.293 HD
ENDBRANCH  17  20
ENDBRANCH   1  12
BRANCH   2  22
ATOM     22  O   UNL     1       4.539  21.796  76.723  1.00  0.00    -0.502 OA
ATOM     23  H   UNL     1       4.669  22.762  77.000  1.00  0.00     0.293 HD
ENDBRANCH   2  22
BRANCH   6  24
ATOM     24  O   UNL     1       3.472  22.400  71.539  1.00  0.00    -0.507 OA
ATOM     25  H   UNL     1       3.543  23.406  71.551  1.00  0.00     0.293 HD
ENDBRANCH   6  24
BRANCH   8  26
ATOM     26  O   UNL     1       6.708  19.438  69.632  1.00  0.00    -0.508 OA
ATOM     27  H   UNL     1       6.317  18.610  69.197  1.00  0.00     0.293 HD
ENDBRANCH   8  26
TORSDOF 6
ENDMDL
MODEL 5
REMARK VINA RESULT:    -6.303      2.399      6.817
REMARK INTER + INTRA:          -7.889
REMARK INTER:                  -7.782
REMARK INTRA:                  -0.107
REMARK UNBOUND:                -0.296
REMARK SMILES O=c1c(O)c(-c2ccc(O)c(O)c2)oc2cc(O)cc(O)c12
REMARK SMILES IDX 5 1 3 2 2 3 1 4 22 5 20 6 19 7 17 8 16 9 15 10 14 11 6 12
REMARK SMILES IDX 7 13 8 14 9 15 13 16 11 17 10 18 12 20 4 22 21 24 18 26
REMARK H PARENT 10 19 12 21 4 23 21 25 18 27
REMARK Flexibility Score: inf
ROOT
ATOM      1  C   UNL     1       8.186  18.081  75.535  1.00  0.00     0.180 A 
ATOM      2  C   UNL     1       7.741  16.814  75.118  1.00  0.00     0.208 A 
ATOM      3  C   UNL     1       8.688  15.849  74.745  1.00  0.00     0.238 A 
ATOM      4  O   UNL     1       8.281  14.744  74.302  1.00  0.00    -0.285 OA
ATOM      5  C   UNL     1      10.071  16.140  74.846  1.00  0.00     0.111 A 
ATOM      6  C   UNL     1      11.120  15.222  74.537  1.00  0.00     0.134 A 
ATOM      7  C   UNL     1      12.451  15.656  74.573  1.00  0.00     0.093 A 
ATOM      8  C   UNL     1      12.775  16.953  74.967  1.00  0.00     0.123 A 
ATOM      9  C   UNL     1      11.761  17.843  75.324  1.00  0.00     0.094 A 
ATOM     10  C   UNL     1      10.422  17.452  75.262  1.00  0.00     0.146 A 
ATOM     11  O   UNL     1       9.488  18.336  75.588  1.00  0.00    -0.452 OA
ENDROOT
BRANCH   1  12
ATOM     12  C   UNL     1       7.248  19.156  75.930  1.00  0.00     0.025 A 
ATOM     13  C   UNL     1       6.303  19.623  75.004  1.00  0.00     0.016 A 
ATOM     14  C   UNL     1       5.395  20.622  75.361  1.00  0.00     0.051 A 
ATOM     15  C   UNL     1       5.408  21.159  76.655  1.00  0.00     0.157 A 
ATOM     16  C   UNL     1       7.246  19.683  77.235  1.00  0.00     0.062 A 
ATOM     17  C   UNL     1       6.335  20.684  77.597  1.00  0.00     0.158 A 
BRANCH  15  18
ATOM     18  O   UNL     1       4.502  22.158  77.008  1.00  0.00    -0.504 OA
ATOM     19  H   UNL     1       4.722  22.846  77.719  1.00  0.00     0.293 HD
ENDBRANCH  15  18
BRANCH  17  20
ATOM     20  O   UNL     1       6.365  21.187  78.897  1.00  0.00    -0.504 OA
ATOM     21  H   UNL     1       5.562  21.136  79.512  1.00  0.00     0.293 HD
ENDBRANCH  17  20
ENDBRANCH   1  12
BRANCH   2  22
ATOM     22  O   UNL     1       6.375  16.521  75.098  1.00  0.00    -0.502 OA
ATOM     23  H   UNL     1       5.743  16.920  74.414  1.00  0.00     0.293 HD
ENDBRANCH   2  22
BRANCH   6  24
ATOM     24  O   UNL     1      10.915  13.876  74.218  1.00  0.00    -0.507 OA
ATOM     25  H   UNL     1      11.215  13.434  73.363  1.00  0.00     0.293 HD
ENDBRANCH   6  24
BRANCH   8  26
ATOM     26  O   UNL     1      14.111  17.345  75.007  1.00  0.00    -0.508 OA
ATOM     27  H   UNL     1      14.673  17.229  75.843  1.00  0.00     0.293 HD
ENDBRANCH   8  26
TORSDOF 6
ENDMDL
MODEL 6
REMARK VINA RESULT:    -6.202      3.849      6.125
REMARK INTER + INTRA:          -7.767
REMARK INTER:                  -7.447
REMARK INTRA:                  -0.320
REMARK UNBOUND:                -0.296
REMARK SMILES O=c1c(O)c(-c2ccc(O)c(O)c2)oc2cc(O)cc(O)c12
REMARK SMILES IDX 5 1 3 2 2 3 1 4 22 5 20 6 19 7 17 8 16 9 15 10 14 11 6 12
REMARK SMILES IDX 7 13 8 14 9 15 13 16 11 17 10 18 12 20 4 22 21 24 18 26
REMARK H PARENT 10 19 12 21 4 23 21 25 18 27
REMARK Flexibility Score: inf
ROOT
ATOM      1  C   UNL     1       5.843  19.821  75.601  1.00  0.00     0.180 A 
ATOM      2  C   UNL     1       5.734  18.869  74.572  1.00  0.00     0.208 A 
ATOM      3  C   UNL     1       5.040  19.210  73.400  1.00  0.00     0.238 A 
ATOM      4  O   UNL     1       4.883  18.330  72.515  1.00  0.00    -0.285 OA
ATOM      5  C   UNL     1       4.511  20.515  73.247  1.00  0.00     0.111 A 
ATOM      6  C   UNL     1       3.828  20.984  72.084  1.00  0.00     0.134 A 
ATOM      7  C   UNL     1       3.254  22.262  72.088  1.00  0.00     0.093 A 
ATOM      8  C   UNL     1       3.393  23.110  73.185  1.00  0.00     0.123 A 
ATOM      9  C   UNL     1       4.106  22.682  74.306  1.00  0.00     0.094 A 
ATOM     10  C   UNL     1       4.657  21.400  74.348  1.00  0.00     0.146 A 
ATOM     11  O   UNL     1       5.308  21.026  75.442  1.00  0.00    -0.452 OA
ENDROOT
BRANCH   1  12
ATOM     12  C   UNL     1       6.546  19.532  76.871  1.00  0.00     0.025 A 
ATOM     13  C   UNL     1       5.850  18.911  77.919  1.00  0.00     0.016 A 
ATOM     14  C   UNL     1       6.499  18.611  79.120  1.00  0.00     0.051 A 
ATOM     15  C   UNL     1       7.857  18.913  79.284  1.00  0.00     0.157 A 
ATOM     16  C   UNL     1       7.915  19.817  77.032  1.00  0.00     0.062 A 
ATOM     17  C   UNL     1       8.568  19.515  78.233  1.00  0.00     0.158 A 
BRANCH  15  18
ATOM     18  O   UNL     1       8.502  18.614  80.483  1.00  0.00    -0.504 OA
ATOM     19  H   UNL     1       8.246  19.070  81.351  1.00  0.00     0.293 HD
ENDBRANCH  15  18
BRANCH  17  20
ATOM     20  O   UNL     1       9.924  19.815  78.359  1.00  0.00    -0.504 OA
ATOM     21  H   UNL     1      10.282  20.754  78.229  1.00  0.00     0.293 HD
ENDBRANCH  17  20
ENDBRANCH   1  12
BRANCH   2  22
ATOM     22  O   UNL     1       6.329  17.613  74.711  1.00  0.00    -0.502 OA
ATOM     23  H   UNL     1       5.968  16.907  75.341  1.00  0.00     0.293 HD
ENDBRANCH   2  22
BRANCH   6  24
ATOM     24  O   UNL     1       3.706  20.253  70.899  1.00  0.00    -0.507 OA
ATOM     25  H   UNL     1       2.977  20.380  70.214  1.00  0.00     0.293 HD
ENDBRANCH   6  24
BRANCH   8  26
ATOM     26  O   UNL     1       2.823  24.381  73.147  1.00  0.00    -0.508 OA
ATOM     27  H   UNL     1       3.179  25.103  72.531  1.00  0.00     0.293 HD
ENDBRANCH   8  26
TORSDOF 6
ENDMDL
MODEL 7
REMARK VINA RESULT:    -6.063      3.957      6.266
REMARK INTER + INTRA:          -7.600
REMARK INTER:                  -7.337
REMARK INTRA:                  -0.264
REMARK UNBOUND:                -0.296
REMARK SMILES O=c1c(O)c(-c2ccc(O)c(O)c2)oc2cc(O)cc(O)c12
REMARK SMILES IDX 5 1 3 2 2 3 1 4 22 5 20 6 19 7 17 8 16 9 15 10 14 11 6 12
REMARK SMILES IDX 7 13 8 14 9 15 13 16 11 17 10 18 12 20 4 22 21 24 18 26
REMARK H PARENT 10 19 12 21 4 23 21 25 18 27
REMARK Flexibility Score: inf
ROOT
ATOM      1  C   UNL     1       6.347  19.017  77.731  1.00  0.00     0.180 A 
ATOM      2  C   UNL     1       7.629  19.215  78.272  1.00  0.00     0.208 A 
ATOM      3  C   UNL     1       8.113  18.306  79.225  1.00  0.00     0.238 A 
ATOM      4  O   UNL     1       9.230  18.530  79.760  1.00  0.00    -0.285 OA
ATOM      5  C   UNL     1       7.335  17.178  79.585  1.00  0.00     0.111 A 
ATOM      6  C   UNL     1       7.745  16.167  80.507  1.00  0.00     0.134 A 
ATOM      7  C   UNL     1       6.847  15.155  80.866  1.00  0.00     0.093 A 
ATOM      8  C   UNL     1       5.580  15.078  80.291  1.00  0.00     0.123 A 
ATOM      9  C   UNL     1       5.189  16.029  79.348  1.00  0.00     0.094 A 
ATOM     10  C   UNL     1       6.046  17.074  78.997  1.00  0.00     0.146 A 
ATOM     11  O   UNL     1       5.626  17.969  78.112  1.00  0.00    -0.452 OA
ENDROOT
BRANCH   1  12
ATOM     12  C   UNL     1       5.760  19.940  76.734  1.00  0.00     0.025 A 
ATOM     13  C   UNL     1       5.295  21.198  77.146  1.00  0.00     0.016 A 
ATOM     14  C   UNL     1       4.757  22.093  76.219  1.00  0.00     0.051 A 
ATOM     15  C   UNL     1       4.690  21.750  74.862  1.00  0.00     0.157 A 
ATOM     16  C   UNL     1       5.710  19.607  75.367  1.00  0.00     0.062 A 
ATOM     17  C   UNL     1       5.173  20.502  74.435  1.00  0.00     0.158 A 
BRANCH  15  18
ATOM     18  O   UNL     1       4.151  22.644  73.939  1.00  0.00    -0.504 OA
ATOM     19  H   UNL     1       3.537  23.398  74.226  1.00  0.00     0.293 HD
ENDBRANCH  15  18
BRANCH  17  20
ATOM     20  O   UNL     1       5.134  20.136  73.090  1.00  0.00    -0.504 OA
ATOM     21  H   UNL     1       4.925  20.803  72.356  1.00  0.00     0.293 HD
ENDBRANCH  17  20
ENDBRANCH   1  12
BRANCH   2  22
ATOM     22  O   UNL     1       8.413  20.291  77.848  1.00  0.00    -0.502 OA
ATOM     23  H   UNL     1       8.370  21.202  78.289  1.00  0.00     0.293 HD
ENDBRANCH   2  22
BRANCH   6  24
ATOM     24  O   UNL     1       9.021  16.096  81.075  1.00  0.00    -0.507 OA
ATOM     25  H   UNL     1       9.819  15.651  80.648  1.00  0.00     0.293 HD
ENDBRANCH   6  24
BRANCH   8  26
ATOM     26  O   UNL     1       4.719  14.047  80.660  1.00  0.00    -0.508 OA
ATOM     27  H   UNL     1       3.941  13.770  80.071  1.00  0.00     0.293 HD
ENDBRANCH   8  26
TORSDOF 6
ENDMDL
MODEL 8
REMARK VINA RESULT:    -6.045      4.857      7.979
REMARK INTER + INTRA:          -7.577
REMARK INTER:                  -7.356
REMARK INTRA:                  -0.222
REMARK UNBOUND:                -0.296
REMARK SMILES O=c1c(O)c(-c2ccc(O)c(O)c2)oc2cc(O)cc(O)c12
REMARK SMILES IDX 5 1 3 2 2 3 1 4 22 5 20 6 19 7 17 8 16 9 15 10 14 11 6 12
REMARK SMILES IDX 7 13 8 14 9 15 13 16 11 17 10 18 12 20 4 22 21 24 18 26
REMARK H PARENT 10 19 12 21 4 23 21 25 18 27
REMARK Flexibility Score: inf
ROOT
ATOM      1  C   UNL     1       4.625  20.969  73.259  1.00  0.00     0.180 A 
ATOM      2  C   UNL     1       4.690  19.589  73.002  1.00  0.00     0.208 A 
ATOM      3  C   UNL     1       5.072  18.721  74.036  1.00  0.00     0.238 A 
ATOM      4  O   UNL     1       5.201  17.496  73.779  1.00  0.00    -0.285 OA
ATOM      5  C   UNL     1       5.330  19.235  75.330  1.00  0.00     0.111 A 
ATOM      6  C   UNL     1       5.681  18.442  76.465  1.00  0.00     0.134 A 
ATOM      7  C   UNL     1       6.018  19.072  77.670  1.00  0.00     0.093 A 
ATOM      8  C   UNL     1       5.953  20.458  77.801  1.00  0.00     0.123 A 
ATOM      9  C   UNL     1       5.558  21.239  76.714  1.00  0.00     0.094 A 
ATOM     10  C   UNL     1       5.254  20.644  75.488  1.00  0.00     0.146 A 
ATOM     11  O   UNL     1       4.904  21.426  74.474  1.00  0.00    -0.452 OA
ENDROOT
BRANCH   1  12
ATOM     12  C   UNL     1       4.245  21.949  72.217  1.00  0.00     0.025 A 
ATOM     13  C   UNL     1       3.053  22.677  72.356  1.00  0.00     0.016 A 
ATOM     14  C   UNL     1       2.684  23.622  71.396  1.00  0.00     0.051 A 
ATOM     15  C   UNL     1       3.509  23.864  70.289  1.00  0.00     0.157 A 
ATOM     16  C   UNL     1       5.081  22.209  71.115  1.00  0.00     0.062 A 
ATOM     17  C   UNL     1       4.715  23.157  70.152  1.00  0.00     0.158 A 
BRANCH  15  18
ATOM     18  O   UNL     1       3.138  24.806  69.331  1.00  0.00    -0.504 OA
ATOM     19  H   UNL     1       2.588  25.622  69.573  1.00  0.00     0.293 HD
ENDBRANCH  15  18
BRANCH  17  20
ATOM     20  O   UNL     1       5.565  23.385  69.071  1.00  0.00    -0.504 OA
ATOM     21  H   UNL     1       5.696  24.308  68.674  1.00  0.00     0.293 HD
ENDBRANCH  17  20
ENDBRANCH   1  12
BRANCH   2  22
ATOM     22  O   UNL     1       4.358  19.093  71.738  1.00  0.00    -0.502 OA
ATOM     23  H   UNL     1       5.016  19.082  70.968  1.00  0.00     0.293 HD
ENDBRANCH   2  22
BRANCH   6  24
ATOM     24  O   UNL     1       5.691  17.044  76.471  1.00  0.00    -0.507 OA
ATOM     25  H   UNL     1       6.414  16.470  76.067  1.00  0.00     0.293 HD
ENDBRANCH   6  24
BRANCH   8  26
ATOM     26  O   UNL     1       6.279  21.049  79.020  1.00  0.00    -0.508 OA
ATOM     27  H   UNL     1       6.765  20.534  79.745  1.00  0.00     0.293 HD
ENDBRANCH   8  26
TORSDOF 6
ENDMDL
MODEL 9
REMARK VINA RESULT:    -6.023      3.503      6.252
REMARK INTER + INTRA:          -7.551
REMARK INTER:                  -7.278
REMARK INTRA:                  -0.273
REMARK UNBOUND:                -0.296
REMARK SMILES O=c1c(O)c(-c2ccc(O)c(O)c2)oc2cc(O)cc(O)c12
REMARK SMILES IDX 5 1 3 2 2 3 1 4 22 5 20 6 19 7 17 8 16 9 15 10 14 11 6 12
REMARK SMILES IDX 7 13 8 14 9 15 13 16 11 17 10 18 12 20 4 22 21 24 18 26
REMARK H PARENT 10 19 12 21 4 23 21 25 18 27
REMARK Flexibility Score: inf
ROOT
ATOM      1  C   UNL     1       6.557  18.979  76.186  1.00  0.00     0.180 A 
ATOM      2  C   UNL     1       5.529  19.908  75.948  1.00  0.00     0.208 A 
ATOM      3  C   UNL     1       5.369  20.430  74.656  1.00  0.00     0.238 A 
ATOM      4  O   UNL     1       4.495  21.316  74.467  1.00  0.00    -0.285 OA
ATOM      5  C   UNL     1       6.201  19.977  73.603  1.00  0.00     0.111 A 
ATOM      6  C   UNL     1       6.098  20.405  72.244  1.00  0.00     0.134 A 
ATOM      7  C   UNL     1       7.046  19.968  71.309  1.00  0.00     0.093 A 
ATOM      8  C   UNL     1       8.051  19.071  71.667  1.00  0.00     0.123 A 
ATOM      9  C   UNL     1       8.127  18.603  72.980  1.00  0.00     0.094 A 
ATOM     10  C   UNL     1       7.221  19.050  73.944  1.00  0.00     0.146 A 
ATOM     11  O   UNL     1       7.343  18.597  75.186  1.00  0.00    -0.452 OA
ENDROOT
BRANCH   1  12
ATOM     12  C   UNL     1       6.798  18.394  77.524  1.00  0.00     0.025 A 
ATOM     13  C   UNL     1       5.966  17.364  77.988  1.00  0.00     0.016 A 
ATOM     14  C   UNL     1       6.187  16.783  79.239  1.00  0.00     0.051 A 
ATOM     15  C   UNL     1       7.255  17.213  80.038  1.00  0.00     0.157 A 
ATOM     16  C   UNL     1       7.881  18.809  78.321  1.00  0.00     0.062 A 
ATOM     17  C   UNL     1       8.107  18.228  79.574  1.00  0.00     0.158 A 
BRANCH  15  18
ATOM     18  O   UNL     1       7.473  16.633  81.287  1.00  0.00    -0.504 OA
ATOM     19  H   UNL     1       8.404  16.387  81.603  1.00  0.00     0.293 HD
ENDBRANCH  15  18
BRANCH  17  20
ATOM     20  O   UNL     1       9.187  18.668  80.339  1.00  0.00    -0.504 OA
ATOM     21  H   UNL     1      10.125  18.311  80.202  1.00  0.00     0.293 HD
ENDBRANCH  17  20
ENDBRANCH   1  12
BRANCH   2  22
ATOM     22  O   UNL     1       4.669  20.285  76.983  1.00  0.00    -0.502 OA
ATOM     23  H   UNL     1       4.810  21.128  77.527  1.00  0.00     0.293 HD
ENDBRANCH   2  22
BRANCH   6  24
ATOM     24  O   UNL     1       5.081  21.230  71.757  1.00  0.00    -0.507 OA
ATOM     25  H   UNL     1       4.145  21.275  72.131  1.00  0.00     0.293 HD
ENDBRANCH   6  24
BRANCH   8  26
ATOM     26  O   UNL     1       8.965  18.645  70.707  1.00  0.00    -0.508 OA
ATOM     27  H   UNL     1       8.874  17.743  70.251  1.00  0.00     0.293 HD
ENDBRANCH   8  26
TORSDOF 6
ENDMDL
