MODEL 1
REMARK VINA RESULT:    -3.968      0.000      0.000
REMARK INTER + INTRA:          -9.193
REMARK INTER:                  -7.215
REMARK INTRA:                  -1.978
REMARK UNBOUND:                -1.978
REMARK SMILES CCCCCCCCCCCCCCCC(=O)[O-]
REMARK SMILES IDX 9 1 10 2 11 3 12 4 13 5 14 6 15 7 16 8 17 9 18 10 8 11 7 12
REMARK SMILES IDX 6 13 5 14 4 15 3 16 2 17 1 18
REMARK H PARENT
REMARK Flexibility Score: inf
ROOT
ATOM      1  C   UNL     1      11.607 -28.261 -28.987  1.00  0.00     0.000 C 
ENDROOT
BRANCH   1   2
ATOM      2  C   UNL     1      12.170 -27.087 -28.173  1.00  0.00     0.000 C 
BRANCH   2   3
ATOM      3  C   UNL     1      11.778 -25.744 -28.803  1.00  0.00     0.000 C 
BRANCH   3   4
ATOM      4  C   UNL     1      10.917 -25.953 -30.054  1.00  0.00     0.000 C 
BRANCH   4   5
ATOM      5  C   UNL     1       9.901 -24.816 -30.219  1.00  0.00     0.000 C 
BRANCH   5   6
ATOM      6  C   UNL     1      10.497 -23.660 -31.036  1.00  0.00     0.006 C 
BRANCH   6   7
ATOM      7  C   UNL     1      11.207 -24.152 -32.304  1.00  0.00     0.053 C 
BRANCH   7   8
ATOM      8  C   UNL     1      12.083 -23.092 -32.899  1.00  0.00     0.041 C 
ATOM      9  O   UNL     1      12.329 -23.092 -34.134  1.00  0.00    -0.550 OA
ATOM     10  O   UNL     1      12.600 -22.084 -32.095  1.00  0.00    -0.550 OA
ENDBRANCH   7   8
ENDBRANCH   6   7
ENDBRANCH   5   6
ENDBRANCH   4   5
ENDBRANCH   3   4
ENDBRANCH   2   3
ENDBRANCH   1   2
BRANCH   1  11
ATOM     11  C   UNL     1      11.100 -29.412 -28.101  1.00  0.00     0.000 C 
BRANCH  11  12
ATOM     12  C   UNL     1       9.574 -29.638 -28.128  1.00  0.00    -0.000 C 
BRANCH  12  13
ATOM     13  C   UNL     1       8.811 -28.834 -29.197  1.00  0.00    -0.000 C 
BRANCH  13  14
ATOM     14  C   UNL     1       8.005 -27.666 -28.604  1.00  0.00    -0.000 C 
BRANCH  14  15
ATOM     15  C   UNL     1       8.222 -27.508 -27.091  1.00  0.00    -0.000 C 
BRANCH  15  16
ATOM     16  C   UNL     1       9.063 -26.272 -26.737  1.00  0.00    -0.000 C 
BRANCH  16  17
ATOM     17  C   UNL     1       9.725 -26.435 -25.364  1.00  0.00    -0.003 C 
ATOM     18  C   UNL     1       9.481 -25.211 -24.485  1.00  0.00     0.004 C 
ENDBRANCH  16  17
ENDBRANCH  15  16
ENDBRANCH  14  15
ENDBRANCH  13  14
ENDBRANCH  12  13
ENDBRANCH  11  12
ENDBRANCH   1  11
TORSDOF 14
ENDMDL
MODEL 2
REMARK VINA RESULT:    -3.922      1.523      2.789
REMARK INTER + INTRA:          -9.109
REMARK INTER:                  -6.814
REMARK INTRA:                  -2.295
REMARK UNBOUND:                -1.978
REMARK SMILES CCCCCCCCCCCCCCCC(=O)[O-]
REMARK SMILES IDX 9 1 10 2 11 3 12 4 13 5 14 6 15 7 16 8 17 9 18 10 8 11 7 12
REMARK SMILES IDX 6 13 5 14 4 15 3 16 2 17 1 18
REMARK H PARENT
REMARK Flexibility Score: inf
ROOT
ATOM      1  C   UNL     1      10.509 -27.826 -29.960  1.00  0.00     0.000 C 
ENDROOT
BRANCH   1   2
ATOM      2  C   UNL     1      10.408 -27.313 -31.404  1.00  0.00     0.000 C 
BRANCH   2   3
ATOM      3  C   UNL     1      10.996 -25.902 -31.529  1.00  0.00     0.000 C 
BRANCH   3   4
ATOM      4  C   UNL     1       9.929 -24.835 -31.254  1.00  0.00     0.000 C 
BRANCH   4   5
ATOM      5  C   UNL     1      10.450 -23.776 -30.274  1.00  0.00     0.000 C 
BRANCH   5   6
ATOM      6  C   UNL     1      11.964 -23.924 -30.060  1.00  0.00     0.006 C 
BRANCH   6   7
ATOM      7  C   UNL     1      12.722 -22.624 -30.360  1.00  0.00     0.053 C 
BRANCH   7   8
ATOM      8  C   UNL     1      13.342 -22.643 -31.724  1.00  0.00     0.041 C 
ATOM      9  O   UNL     1      12.638 -22.907 -32.736  1.00  0.00    -0.550 OA
ATOM     10  O   UNL     1      14.687 -22.338 -31.883  1.00  0.00    -0.550 OA
ENDBRANCH   7   8
ENDBRANCH   6   7
ENDBRANCH   5   6
ENDBRANCH   4   5
ENDBRANCH   3   4
ENDBRANCH   2   3
ENDBRANCH   1   2
BRANCH   1  11
ATOM     11  C   UNL     1       9.134 -28.087 -29.322  1.00  0.00     0.000 C 
BRANCH  11  12
ATOM     12  C   UNL     1       8.608 -26.957 -28.413  1.00  0.00    -0.000 C 
BRANCH  12  13
ATOM     13  C   UNL     1       8.627 -27.266 -26.904  1.00  0.00    -0.000 C 
BRANCH  13  14
ATOM     14  C   UNL     1       9.457 -26.254 -26.098  1.00  0.00    -0.000 C 
BRANCH  14  15
ATOM     15  C   UNL     1      10.463 -25.486 -26.971  1.00  0.00    -0.000 C 
BRANCH  15  16
ATOM     16  C   UNL     1      11.917 -25.684 -26.518  1.00  0.00    -0.000 C 
BRANCH  16  17
ATOM     17  C   UNL     1      12.688 -26.556 -27.516  1.00  0.00    -0.003 C 
ATOM     18  C   UNL     1      12.747 -28.008 -27.050  1.00  0.00     0.004 C 
ENDBRANCH  16  17
ENDBRANCH  15  16
ENDBRANCH  14  15
ENDBRANCH  13  14
ENDBRANCH  12  13
ENDBRANCH  11  12
ENDBRANCH   1  11
TORSDOF 14
ENDMDL
MODEL 3
REMARK VINA RESULT:    -3.853      1.297      2.523
REMARK INTER + INTRA:          -8.983
REMARK INTER:                  -6.579
REMARK INTRA:                  -2.404
REMARK UNBOUND:                -1.978
REMARK SMILES CCCCCCCCCCCCCCCC(=O)[O-]
REMARK SMILES IDX 9 1 10 2 11 3 12 4 13 5 14 6 15 7 16 8 17 9 18 10 8 11 7 12
REMARK SMILES IDX 6 13 5 14 4 15 3 16 2 17 1 18
REMARK H PARENT
REMARK Flexibility Score: inf
ROOT
ATOM      1  C   UNL     1       9.300 -27.866 -29.519  1.00  0.00     0.000 C 
ENDROOT
BRANCH   1   2
ATOM      2  C   UNL     1      10.581 -27.537 -30.298  1.00  0.00     0.000 C 
BRANCH   2   3
ATOM      3  C   UNL     1      10.440 -26.210 -31.054  1.00  0.00     0.000 C 
BRANCH   3   4
ATOM      4  C   UNL     1       9.716 -25.163 -30.199  1.00  0.00     0.000 C 
BRANCH   4   5
ATOM      5  C   UNL     1      10.450 -23.817 -30.239  1.00  0.00     0.000 C 
BRANCH   5   6
ATOM      6  C   UNL     1      11.972 -24.021 -30.224  1.00  0.00     0.006 C 
BRANCH   6   7
ATOM      7  C   UNL     1      12.717 -22.882 -30.933  1.00  0.00     0.053 C 
BRANCH   7   8
ATOM      8  C   UNL     1      12.257 -22.712 -32.349  1.00  0.00     0.041 C 
ATOM      9  O   UNL     1      12.411 -23.645 -33.181  1.00  0.00    -0.550 OA
ATOM     10  O   UNL     1      11.628 -21.537 -32.741  1.00  0.00    -0.550 OA
ENDBRANCH   7   8
ENDBRANCH   6   7
ENDBRANCH   5   6
ENDBRANCH   4   5
ENDBRANCH   3   4
ENDBRANCH   2   3
ENDBRANCH   1   2
BRANCH   1  11
ATOM     11  C   UNL     1       9.568 -28.684 -28.245  1.00  0.00     0.000 C 
BRANCH  11  12
ATOM     12  C   UNL     1      10.966 -29.333 -28.164  1.00  0.00    -0.000 C 
BRANCH  12  13
ATOM     13  C   UNL     1      11.825 -28.893 -26.965  1.00  0.00    -0.000 C 
BRANCH  13  14
ATOM     14  C   UNL     1      12.997 -27.984 -27.371  1.00  0.00    -0.000 C 
BRANCH  14  15
ATOM     15  C   UNL     1      12.562 -26.526 -27.596  1.00  0.00    -0.000 C 
BRANCH  15  16
ATOM     16  C   UNL     1      11.927 -25.896 -26.348  1.00  0.00    -0.000 C 
BRANCH  16  17
ATOM     17  C   UNL     1      10.470 -25.500 -26.615  1.00  0.00    -0.003 C 
ATOM     18  C   UNL     1       9.536 -26.089 -25.562  1.00  0.00     0.004 C 
ENDBRANCH  16  17
ENDBRANCH  15  16
ENDBRANCH  14  15
ENDBRANCH  13  14
ENDBRANCH  12  13
ENDBRANCH  11  12
ENDBRANCH   1  11
TORSDOF 14
ENDMDL
MODEL 4
REMARK VINA RESULT:    -3.834      1.551      2.562
REMARK INTER + INTRA:          -8.949
REMARK INTER:                  -7.517
REMARK INTRA:                  -1.432
REMARK UNBOUND:                -1.978
REMARK SMILES CCCCCCCCCCCCCCCC(=O)[O-]
REMARK SMILES IDX 9 1 10 2 11 3 12 4 13 5 14 6 15 7 16 8 17 9 18 10 8 11 7 12
REMARK SMILES IDX 6 13 5 14 4 15 3 16 2 17 1 18
REMARK H PARENT
REMARK Flexibility Score: inf
ROOT
ATOM      1  C   UNL     1      11.353 -26.089 -29.704  1.00  0.00     0.000 C 
ENDROOT
BRANCH   1   2
ATOM      2  C   UNL     1      10.606 -24.761 -29.517  1.00  0.00     0.000 C 
BRANCH   2   3
ATOM      3  C   UNL     1       9.944 -24.313 -30.827  1.00  0.00     0.000 C 
BRANCH   3   4
ATOM      4  C   UNL     1      10.819 -23.293 -31.564  1.00  0.00     0.000 C 
BRANCH   4   5
ATOM      5  C   UNL     1      11.663 -23.973 -32.649  1.00  0.00     0.000 C 
BRANCH   5   6
ATOM      6  C   UNL     1      12.214 -22.942 -33.645  1.00  0.00     0.006 C 
BRANCH   6   7
ATOM      7  C   UNL     1      13.645 -23.272 -34.090  1.00  0.00     0.053 C 
BRANCH   7   8
ATOM      8  C   UNL     1      14.654 -22.396 -33.414  1.00  0.00     0.041 C 
ATOM      9  O   UNL     1      15.227 -21.476 -34.057  1.00  0.00    -0.550 OA
ATOM     10  O   UNL     1      14.937 -22.572 -32.065  1.00  0.00    -0.550 OA
ENDBRANCH   7   8
ENDBRANCH   6   7
ENDBRANCH   5   6
ENDBRANCH   4   5
ENDBRANCH   3   4
ENDBRANCH   2   3
ENDBRANCH   1   2
BRANCH   1  11
ATOM     11  C   UNL     1      10.450 -27.213 -30.240  1.00  0.00     0.000 C 
BRANCH  11  12
ATOM     12  C   UNL     1       9.845 -28.138 -29.164  1.00  0.00    -0.000 C 
BRANCH  12  13
ATOM     13  C   UNL     1       8.370 -27.862 -28.816  1.00  0.00    -0.000 C 
BRANCH  13  14
ATOM     14  C   UNL     1       8.182 -27.346 -27.380  1.00  0.00    -0.000 C 
BRANCH  14  15
ATOM     15  C   UNL     1       9.517 -27.016 -26.692  1.00  0.00    -0.000 C 
BRANCH  15  16
ATOM     16  C   UNL     1       9.349 -26.077 -25.488  1.00  0.00    -0.000 C 
BRANCH  16  17
ATOM     17  C   UNL     1      10.561 -25.151 -25.343  1.00  0.00    -0.003 C 
ATOM     18  C   UNL     1      11.774 -25.710 -26.082  1.00  0.00     0.004 C 
ENDBRANCH  16  17
ENDBRANCH  15  16
ENDBRANCH  14  15
ENDBRANCH  13  14
ENDBRANCH  12  13
ENDBRANCH  11  12
ENDBRANCH   1  11
TORSDOF 14
ENDMDL
MODEL 5
REMARK VINA RESULT:    -3.802      5.185      8.364
REMARK INTER + INTRA:          -8.891
REMARK INTER:                  -7.950
REMARK INTRA:                  -0.941
REMARK UNBOUND:                -1.978
REMARK SMILES CCCCCCCCCCCCCCCC(=O)[O-]
REMARK SMILES IDX 9 1 10 2 11 3 12 4 13 5 14 6 15 7 16 8 17 9 18 10 8 11 7 12
REMARK SMILES IDX 6 13 5 14 4 15 3 16 2 17 1 18
REMARK H PARENT
REMARK Flexibility Score: inf
ROOT
ATOM      1  C   UNL     1       9.496 -26.285 -26.694  1.00  0.00     0.000 C 
ENDROOT
BRANCH   1   2
ATOM      2  C   UNL     1       9.852 -26.323 -25.201  1.00  0.00     0.000 C 
BRANCH   2   3
ATOM      3  C   UNL     1       9.226 -25.136 -24.457  1.00  0.00     0.000 C 
BRANCH   3   4
ATOM      4  C   UNL     1       9.926 -24.898 -23.113  1.00  0.00     0.000 C 
BRANCH   4   5
ATOM      5  C   UNL     1      10.220 -26.225 -22.404  1.00  0.00     0.000 C 
BRANCH   5   6
ATOM      6  C   UNL     1      10.542 -25.996 -20.920  1.00  0.00     0.006 C 
BRANCH   6   7
ATOM      7  C   UNL     1       9.620 -26.801 -19.995  1.00  0.00     0.053 C 
BRANCH   7   8
ATOM      8  C   UNL     1       8.566 -25.939 -19.371  1.00  0.00     0.041 C 
ATOM      9  O   UNL     1       7.546 -26.462 -18.850  1.00  0.00    -0.550 OA
ATOM     10  O   UNL     1       8.725 -24.560 -19.336  1.00  0.00    -0.550 OA
ENDBRANCH   7   8
ENDBRANCH   6   7
ENDBRANCH   5   6
ENDBRANCH   4   5
ENDBRANCH   3   4
ENDBRANCH   2   3
ENDBRANCH   1   2
BRANCH   1  11
ATOM     11  C   UNL     1       8.458 -27.350 -27.088  1.00  0.00     0.000 C 
BRANCH  11  12
ATOM     12  C   UNL     1       8.501 -27.793 -28.565  1.00  0.00    -0.000 C 
BRANCH  12  13
ATOM     13  C   UNL     1       9.897 -28.173 -29.095  1.00  0.00    -0.000 C 
BRANCH  13  14
ATOM     14  C   UNL     1      10.275 -27.414 -30.378  1.00  0.00    -0.000 C 
BRANCH  14  15
ATOM     15  C   UNL     1      10.895 -26.038 -30.088  1.00  0.00    -0.000 C 
BRANCH  15  16
ATOM     16  C   UNL     1       9.868 -24.897 -30.150  1.00  0.00    -0.000 C 
BRANCH  16  17
ATOM     17  C   UNL     1       9.575 -24.503 -31.602  1.00  0.00    -0.003 C 
ATOM     18  C   UNL     1      10.866 -24.299 -32.390  1.00  0.00     0.004 C 
ENDBRANCH  16  17
ENDBRANCH  15  16
ENDBRANCH  14  15
ENDBRANCH  13  14
ENDBRANCH  12  13
ENDBRANCH  11  12
ENDBRANCH   1  11
TORSDOF 14
ENDMDL
MODEL 6
REMARK VINA RESULT:    -3.772      1.892      3.631
REMARK INTER + INTRA:          -8.836
REMARK INTER:                  -7.013
REMARK INTRA:                  -1.823
REMARK UNBOUND:                -1.978
REMARK SMILES CCCCCCCCCCCCCCCC(=O)[O-]
REMARK SMILES IDX 9 1 10 2 11 3 12 4 13 5 14 6 15 7 16 8 17 9 18 10 8 11 7 12
REMARK SMILES IDX 6 13 5 14 4 15 3 16 2 17 1 18
REMARK H PARENT
REMARK Flexibility Score: inf
ROOT
ATOM      1  C   UNL     1      10.355 -25.274 -29.557  1.00  0.00     0.000 C 
ENDROOT
BRANCH   1   2
ATOM      2  C   UNL     1      11.028 -26.249 -30.535  1.00  0.00     0.000 C 
BRANCH   2   3
ATOM      3  C   UNL     1      10.655 -25.915 -31.986  1.00  0.00     0.000 C 
BRANCH   3   4
ATOM      4  C   UNL     1       9.992 -24.536 -32.081  1.00  0.00     0.000 C 
BRANCH   4   5
ATOM      5  C   UNL     1      10.680 -23.667 -33.142  1.00  0.00     0.000 C 
BRANCH   5   6
ATOM      6  C   UNL     1      12.199 -23.634 -32.924  1.00  0.00     0.006 C 
BRANCH   6   7
ATOM      7  C   UNL     1      12.653 -22.365 -32.191  1.00  0.00     0.053 C 
BRANCH   7   8
ATOM      8  C   UNL     1      13.591 -22.677 -31.066  1.00  0.00     0.041 C 
ATOM      9  O   UNL     1      14.829 -22.481 -31.199  1.00  0.00    -0.550 OA
ATOM     10  O   UNL     1      13.096 -23.151 -29.858  1.00  0.00    -0.550 OA
ENDBRANCH   7   8
ENDBRANCH   6   7
ENDBRANCH   5   6
ENDBRANCH   4   5
ENDBRANCH   3   4
ENDBRANCH   2   3
ENDBRANCH   1   2
BRANCH   1  11
ATOM     11  C   UNL     1      10.968 -25.326 -28.147  1.00  0.00     0.000 C 
BRANCH  11  12
ATOM     12  C   UNL     1      12.135 -26.320 -27.975  1.00  0.00    -0.000 C 
BRANCH  12  13
ATOM     13  C   UNL     1      11.788 -27.614 -27.215  1.00  0.00    -0.000 C 
BRANCH  13  14
ATOM     14  C   UNL     1      11.505 -28.799 -28.153  1.00  0.00    -0.000 C 
BRANCH  14  15
ATOM     15  C   UNL     1      10.134 -29.443 -27.894  1.00  0.00    -0.000 C 
BRANCH  15  16
ATOM     16  C   UNL     1       8.979 -28.431 -27.962  1.00  0.00    -0.000 C 
BRANCH  16  17
ATOM     17  C   UNL     1       8.280 -28.490 -29.325  1.00  0.00    -0.003 C 
ATOM     18  C   UNL     1       8.112 -29.931 -29.798  1.00  0.00     0.004 C 
ENDBRANCH  16  17
ENDBRANCH  15  16
ENDBRANCH  14  15
ENDBRANCH  13  14
ENDBRANCH  12  13
ENDBRANCH  11  12
ENDBRANCH   1  11
TORSDOF 14
ENDMDL
MODEL 7
REMARK VINA RESULT:    -3.767      1.528      3.386
REMARK INTER + INTRA:          -8.828
REMARK INTER:                  -6.619
REMARK INTRA:                  -2.209
REMARK UNBOUND:                -1.978
REMARK SMILES CCCCCCCCCCCCCCCC(=O)[O-]
REMARK SMILES IDX 9 1 10 2 11 3 12 4 13 5 14 6 15 7 16 8 17 9 18 10 8 11 7 12
REMARK SMILES IDX 6 13 5 14 4 15 3 16 2 17 1 18
REMARK H PARENT
REMARK Flexibility Score: inf
ROOT
ATOM      1  C   UNL     1       8.322 -28.149 -28.756  1.00  0.00     0.000 C 
ENDROOT
BRANCH   1   2
ATOM      2  C   UNL     1       9.794 -28.153 -29.193  1.00  0.00     0.000 C 
BRANCH   2   3
ATOM      3  C   UNL     1       9.926 -27.792 -30.679  1.00  0.00     0.000 C 
BRANCH   3   4
ATOM      4  C   UNL     1      10.851 -26.585 -30.872  1.00  0.00     0.000 C 
BRANCH   4   5
ATOM      5  C   UNL     1      10.159 -25.287 -30.437  1.00  0.00     0.000 C 
BRANCH   5   6
ATOM      6  C   UNL     1      10.966 -24.576 -29.341  1.00  0.00     0.006 C 
BRANCH   6   7
ATOM      7  C   UNL     1      12.213 -23.876 -29.899  1.00  0.00     0.053 C 
BRANCH   7   8
ATOM      8  C   UNL     1      11.877 -22.972 -31.045  1.00  0.00     0.041 C 
ATOM      9  O   UNL     1      11.192 -21.932 -30.853  1.00  0.00    -0.550 OA
ATOM     10  O   UNL     1      12.350 -23.258 -32.320  1.00  0.00    -0.550 OA
ENDBRANCH   7   8
ENDBRANCH   6   7
ENDBRANCH   5   6
ENDBRANCH   4   5
ENDBRANCH   3   4
ENDBRANCH   2   3
ENDBRANCH   1   2
BRANCH   1  11
ATOM     11  C   UNL     1       8.093 -27.387 -27.439  1.00  0.00     0.000 C 
BRANCH  11  12
ATOM     12  C   UNL     1       9.322 -26.630 -26.896  1.00  0.00    -0.000 C 
BRANCH  12  13
ATOM     13  C   UNL     1       9.144 -26.004 -25.501  1.00  0.00    -0.000 C 
BRANCH  13  14
ATOM     14  C   UNL     1      10.417 -25.310 -24.991  1.00  0.00    -0.000 C 
BRANCH  14  15
ATOM     15  C   UNL     1      11.699 -26.057 -25.395  1.00  0.00    -0.000 C 
BRANCH  15  16
ATOM     16  C   UNL     1      12.741 -25.138 -26.050  1.00  0.00    -0.000 C 
BRANCH  16  17
ATOM     17  C   UNL     1      13.626 -25.923 -27.025  1.00  0.00    -0.003 C 
ATOM     18  C   UNL     1      12.946 -27.215 -27.470  1.00  0.00     0.004 C 
ENDBRANCH  16  17
ENDBRANCH  15  16
ENDBRANCH  14  15
ENDBRANCH  13  14
ENDBRANCH  12  13
ENDBRANCH  11  12
ENDBRANCH   1  11
TORSDOF 14
ENDMDL
MODEL 8
REMARK VINA RESULT:    -3.757      2.668      6.141
REMARK INTER + INTRA:          -8.810
REMARK INTER:                  -7.019
REMARK INTRA:                  -1.791
REMARK UNBOUND:                -1.978
REMARK SMILES CCCCCCCCCCCCCCCC(=O)[O-]
REMARK SMILES IDX 9 1 10 2 11 3 12 4 13 5 14 6 15 7 16 8 17 9 18 10 8 11 7 12
REMARK SMILES IDX 6 13 5 14 4 15 3 16 2 17 1 18
REMARK H PARENT
REMARK Flexibility Score: inf
ROOT
ATOM      1  C   UNL     1      10.724 -26.599 -30.502  1.00  0.00     0.000 C 
ENDROOT
BRANCH   1   2
ATOM      2  C   UNL     1      10.379 -28.009 -29.999  1.00  0.00     0.000 C 
BRANCH   2   3
ATOM      3  C   UNL     1       8.915 -28.089 -29.548  1.00  0.00     0.000 C 
BRANCH   3   4
ATOM      4  C   UNL     1       8.814 -28.476 -28.068  1.00  0.00     0.000 C 
BRANCH   4   5
ATOM      5  C   UNL     1       8.156 -27.358 -27.251  1.00  0.00     0.000 C 
BRANCH   5   6
ATOM      6  C   UNL     1       9.203 -26.579 -26.441  1.00  0.00     0.006 C 
BRANCH   6   7
ATOM      7  C   UNL     1      10.530 -27.341 -26.324  1.00  0.00     0.053 C 
BRANCH   7   8
ATOM      8  C   UNL     1      11.682 -26.536 -26.844  1.00  0.00     0.041 C 
ATOM      9  O   UNL     1      11.548 -25.302 -27.056  1.00  0.00    -0.550 OA
ATOM     10  O   UNL     1      12.912 -27.142 -27.062  1.00  0.00    -0.550 OA
ENDBRANCH   7   8
ENDBRANCH   6   7
ENDBRANCH   5   6
ENDBRANCH   4   5
ENDBRANCH   3   4
ENDBRANCH   2   3
ENDBRANCH   1   2
BRANCH   1  11
ATOM     11  C   UNL     1       9.696 -25.541 -30.064  1.00  0.00     0.000 C 
BRANCH  11  12
ATOM     12  C   UNL     1       9.461 -24.399 -31.073  1.00  0.00    -0.000 C 
BRANCH  12  13
ATOM     13  C   UNL     1      10.111 -24.600 -32.455  1.00  0.00    -0.000 C 
BRANCH  13  14
ATOM     14  C   UNL     1      11.131 -23.502 -32.801  1.00  0.00    -0.000 C 
BRANCH  14  15
ATOM     15  C   UNL     1      12.174 -23.295 -31.690  1.00  0.00    -0.000 C 
BRANCH  15  16
ATOM     16  C   UNL     1      12.345 -21.818 -31.304  1.00  0.00    -0.000 C 
BRANCH  16  17
ATOM     17  C   UNL     1      10.984 -21.139 -31.118  1.00  0.00    -0.003 C 
ATOM     18  C   UNL     1      10.979 -19.738 -31.722  1.00  0.00     0.004 C 
ENDBRANCH  16  17
ENDBRANCH  15  16
ENDBRANCH  14  15
ENDBRANCH  13  14
ENDBRANCH  12  13
ENDBRANCH  11  12
ENDBRANCH   1  11
TORSDOF 14
ENDMDL
MODEL 9
REMARK VINA RESULT:    -3.676      1.443      2.801
REMARK INTER + INTRA:          -8.663
REMARK INTER:                  -6.699
REMARK INTRA:                  -1.964
REMARK UNBOUND:                -1.978
REMARK SMILES CCCCCCCCCCCCCCCC(=O)[O-]
REMARK SMILES IDX 9 1 10 2 11 3 12 4 13 5 14 6 15 7 16 8 17 9 18 10 8 11 7 12
REMARK SMILES IDX 6 13 5 14 4 15 3 16 2 17 1 18
REMARK H PARENT
REMARK Flexibility Score: inf
ROOT
ATOM      1  C   UNL     1       8.374 -29.390 -29.507  1.00  0.00     0.000 C 
ENDROOT
BRANCH   1   2
ATOM      2  C   UNL     1       8.349 -28.140 -28.617  1.00  0.00     0.000 C 
BRANCH   2   3
ATOM      3  C   UNL     1       9.115 -26.983 -29.273  1.00  0.00     0.000 C 
BRANCH   3   4
ATOM      4  C   UNL     1      10.264 -27.507 -30.143  1.00  0.00     0.000 C 
BRANCH   4   5
ATOM      5  C   UNL     1      10.796 -26.408 -31.071  1.00  0.00     0.000 C 
BRANCH   5   6
ATOM      6  C   UNL     1       9.961 -25.126 -30.939  1.00  0.00     0.006 C 
BRANCH   6   7
ATOM      7  C   UNL     1      10.795 -23.939 -30.439  1.00  0.00     0.053 C 
BRANCH   7   8
ATOM      8  C   UNL     1      11.771 -23.468 -31.474  1.00  0.00     0.041 C 
ATOM      9  O   UNL     1      12.934 -23.121 -31.137  1.00  0.00    -0.550 OA
ATOM     10  O   UNL     1      11.407 -23.446 -32.814  1.00  0.00    -0.550 OA
ENDBRANCH   7   8
ENDBRANCH   6   7
ENDBRANCH   5   6
ENDBRANCH   4   5
ENDBRANCH   3   4
ENDBRANCH   2   3
ENDBRANCH   1   2
BRANCH   1  11
ATOM     11  C   UNL     1       8.749 -30.667 -28.734  1.00  0.00     0.000 C 
BRANCH  11  12
ATOM     12  C   UNL     1      10.262 -30.893 -28.538  1.00  0.00    -0.000 C 
BRANCH  12  13
ATOM     13  C   UNL     1      10.731 -30.959 -27.072  1.00  0.00    -0.000 C 
BRANCH  13  14
ATOM     14  C   UNL     1      12.061 -30.225 -26.837  1.00  0.00    -0.000 C 
BRANCH  14  15
ATOM     15  C   UNL     1      11.955 -28.713 -27.096  1.00  0.00    -0.000 C 
BRANCH  15  16
ATOM     16  C   UNL     1      11.037 -28.001 -26.091  1.00  0.00    -0.000 C 
BRANCH  16  17
ATOM     17  C   UNL     1      11.090 -26.481 -26.284  1.00  0.00    -0.003 C 
ATOM     18  C   UNL     1       9.829 -25.812 -25.744  1.00  0.00     0.004 C 
ENDBRANCH  16  17
ENDBRANCH  15  16
ENDBRANCH  14  15
ENDBRANCH  13  14
ENDBRANCH  12  13
ENDBRANCH  11  12
ENDBRANCH   1  11
TORSDOF 14
ENDMDL
