MODEL 1
REMARK VINA RESULT:    -5.466      0.000      0.000
REMARK INTER + INTRA:         -11.839
REMARK INTER:                  -9.939
REMARK INTRA:                  -1.900
REMARK UNBOUND:                -1.900
REMARK SMILES CCCCCCCCCCCCCCCC(=O)[O-]
REMARK SMILES IDX 9 1 10 2 11 3 12 4 13 5 14 6 15 7 16 8 17 9 18 10 8 11 7 12
REMARK SMILES IDX 6 13 5 14 4 15 3 16 2 17 1 18
REMARK H PARENT
REMARK Flexibility Score: inf
ROOT
ATOM      1  C   UNL     1      14.349  21.765  18.627  1.00  0.00     0.000 C 
ENDROOT
BRANCH   1   2
ATOM      2  C   UNL     1      14.320  22.683  17.388  1.00  0.00     0.000 C 
BRANCH   2   3
ATOM      3  C   UNL     1      14.223  21.959  16.032  1.00  0.00     0.000 C 
BRANCH   3   4
ATOM      4  C   UNL     1      15.457  22.186  15.143  1.00  0.00     0.000 C 
BRANCH   4   5
ATOM      5  C   UNL     1      15.102  22.363  13.656  1.00  0.00     0.000 C 
BRANCH   5   6
ATOM      6  C   UNL     1      15.500  21.188  12.740  1.00  0.00     0.006 C 
BRANCH   6   7
ATOM      7  C   UNL     1      16.039  21.604  11.363  1.00  0.00     0.053 C 
BRANCH   7   8
ATOM      8  C   UNL     1      17.340  20.935  11.043  1.00  0.00     0.041 C 
ATOM      9  O   UNL     1      18.142  20.634  11.967  1.00  0.00    -0.550 OA
ATOM     10  O   UNL     1      17.685  20.675   9.722  1.00  0.00    -0.550 OA
ENDBRANCH   7   8
ENDBRANCH   6   7
ENDBRANCH   5   6
ENDBRANCH   4   5
ENDBRANCH   3   4
ENDBRANCH   2   3
ENDBRANCH   1   2
BRANCH   1  11
ATOM     11  C   UNL     1      14.252  20.258  18.331  1.00  0.00     0.000 C 
BRANCH  11  12
ATOM     12  C   UNL     1      15.318  19.435  19.075  1.00  0.00    -0.000 C 
BRANCH  12  13
ATOM     13  C   UNL     1      16.462  20.306  19.621  1.00  0.00    -0.000 C 
BRANCH  13  14
ATOM     14  C   UNL     1      17.793  20.056  18.889  1.00  0.00    -0.000 C 
BRANCH  14  15
ATOM     15  C   UNL     1      17.895  20.834  17.568  1.00  0.00    -0.000 C 
BRANCH  15  16
ATOM     16  C   UNL     1      18.836  20.165  16.555  1.00  0.00    -0.000 C 
BRANCH  16  17
ATOM     17  C   UNL     1      18.070  19.725  15.303  1.00  0.00    -0.003 C 
ATOM     18  C   UNL     1      16.889  18.828  15.664  1.00  0.00     0.004 C 
ENDBRANCH  16  17
ENDBRANCH  15  16
ENDBRANCH  14  15
ENDBRANCH  13  14
ENDBRANCH  12  13
ENDBRANCH  11  12
ENDBRANCH   1  11
TORSDOF 14
ENDMDL
MODEL 2
REMARK VINA RESULT:    -5.394      2.237      5.263
REMARK INTER + INTRA:         -11.708
REMARK INTER:                  -9.890
REMARK INTRA:                  -1.818
REMARK UNBOUND:                -1.900
REMARK SMILES CCCCCCCCCCCCCCCC(=O)[O-]
REMARK SMILES IDX 9 1 10 2 11 3 12 4 13 5 14 6 15 7 16 8 17 9 18 10 8 11 7 12
REMARK SMILES IDX 6 13 5 14 4 15 3 16 2 17 1 18
REMARK H PARENT
REMARK Flexibility Score: inf
ROOT
ATOM      1  C   UNL     1      15.377  23.047  16.904  1.00  0.00     0.000 C 
ENDROOT
BRANCH   1   2
ATOM      2  C   UNL     1      14.039  22.617  17.538  1.00  0.00     0.000 C 
BRANCH   2   3
ATOM      3  C   UNL     1      14.112  22.209  19.021  1.00  0.00     0.000 C 
BRANCH   3   4
ATOM      4  C   UNL     1      14.301  20.695  19.216  1.00  0.00     0.000 C 
BRANCH   4   5
ATOM      5  C   UNL     1      15.683  20.333  19.792  1.00  0.00     0.000 C 
BRANCH   5   6
ATOM      6  C   UNL     1      16.588  19.505  18.856  1.00  0.00     0.006 C 
BRANCH   6   7
ATOM      7  C   UNL     1      17.948  20.151  18.546  1.00  0.00     0.053 C 
BRANCH   7   8
ATOM      8  C   UNL     1      18.550  19.615  17.284  1.00  0.00     0.041 C 
ATOM      9  O   UNL     1      19.093  20.396  16.459  1.00  0.00    -0.550 OA
ATOM     10  O   UNL     1      18.480  18.256  17.001  1.00  0.00    -0.550 OA
ENDBRANCH   7   8
ENDBRANCH   6   7
ENDBRANCH   5   6
ENDBRANCH   4   5
ENDBRANCH   3   4
ENDBRANCH   2   3
ENDBRANCH   1   2
BRANCH   1  11
ATOM     11  C   UNL     1      16.006  22.026  15.939  1.00  0.00     0.000 C 
BRANCH  11  12
ATOM     12  C   UNL     1      14.980  21.022  15.383  1.00  0.00    -0.000 C 
BRANCH  12  13
ATOM     13  C   UNL     1      14.555  21.349  13.942  1.00  0.00    -0.000 C 
BRANCH  13  14
ATOM     14  C   UNL     1      15.586  22.225  13.208  1.00  0.00    -0.000 C 
BRANCH  14  15
ATOM     15  C   UNL     1      15.802  21.786  11.750  1.00  0.00    -0.000 C 
BRANCH  15  16
ATOM     16  C   UNL     1      17.267  21.439  11.445  1.00  0.00    -0.000 C 
BRANCH  16  17
ATOM     17  C   UNL     1      17.528  19.942  11.646  1.00  0.00    -0.003 C 
ATOM     18  C   UNL     1      18.266  19.681  12.956  1.00  0.00     0.004 C 
ENDBRANCH  16  17
ENDBRANCH  15  16
ENDBRANCH  14  15
ENDBRANCH  13  14
ENDBRANCH  12  13
ENDBRANCH  11  12
ENDBRANCH   1  11
TORSDOF 14
ENDMDL
MODEL 3
REMARK VINA RESULT:    -5.364      2.063      4.617
REMARK INTER + INTRA:         -11.653
REMARK INTER:                  -9.909
REMARK INTRA:                  -1.744
REMARK UNBOUND:                -1.900
REMARK SMILES CCCCCCCCCCCCCCCC(=O)[O-]
REMARK SMILES IDX 9 1 10 2 11 3 12 4 13 5 14 6 15 7 16 8 17 9 18 10 8 11 7 12
REMARK SMILES IDX 6 13 5 14 4 15 3 16 2 17 1 18
REMARK H PARENT
REMARK Flexibility Score: inf
ROOT
ATOM      1  C   UNL     1      14.667  21.183  13.613  1.00  0.00     0.000 C 
ENDROOT
BRANCH   1   2
ATOM      2  C   UNL     1      15.489  22.253  12.865  1.00  0.00     0.000 C 
BRANCH   2   3
ATOM      3  C   UNL     1      16.001  21.838  11.474  1.00  0.00     0.000 C 
BRANCH   3   4
ATOM      4  C   UNL     1      16.600  20.421  11.455  1.00  0.00     0.000 C 
BRANCH   4   5
ATOM      5  C   UNL     1      18.006  20.355  12.079  1.00  0.00     0.000 C 
BRANCH   5   6
ATOM      6  C   UNL     1      18.215  19.229  13.112  1.00  0.00     0.006 C 
BRANCH   6   7
ATOM      7  C   UNL     1      18.085  19.673  14.577  1.00  0.00     0.053 C 
BRANCH   7   8
ATOM      8  C   UNL     1      19.318  19.366  15.369  1.00  0.00     0.041 C 
ATOM      9  O   UNL     1      20.091  18.440  15.005  1.00  0.00    -0.550 OA
ATOM     10  O   UNL     1      19.598  20.078  16.529  1.00  0.00    -0.550 OA
ENDBRANCH   7   8
ENDBRANCH   6   7
ENDBRANCH   5   6
ENDBRANCH   4   5
ENDBRANCH   3   4
ENDBRANCH   2   3
ENDBRANCH   1   2
BRANCH   1  11
ATOM     11  C   UNL     1      14.513  21.411  15.127  1.00  0.00     0.000 C 
BRANCH  11  12
ATOM     12  C   UNL     1      15.717  22.145  15.744  1.00  0.00    -0.000 C 
BRANCH  12  13
ATOM     13  C   UNL     1      15.314  23.067  16.907  1.00  0.00    -0.000 C 
BRANCH  13  14
ATOM     14  C   UNL     1      13.964  22.672  17.531  1.00  0.00    -0.000 C 
BRANCH  14  15
ATOM     15  C   UNL     1      14.083  22.323  19.024  1.00  0.00    -0.000 C 
BRANCH  15  16
ATOM     16  C   UNL     1      14.397  20.840  19.265  1.00  0.00    -0.000 C 
BRANCH  16  17
ATOM     17  C   UNL     1      15.770  20.671  19.925  1.00  0.00    -0.003 C 
ATOM     18  C   UNL     1      16.823  20.238  18.909  1.00  0.00     0.004 C 
ENDBRANCH  16  17
ENDBRANCH  15  16
ENDBRANCH  14  15
ENDBRANCH  13  14
ENDBRANCH  12  13
ENDBRANCH  11  12
ENDBRANCH   1  11
TORSDOF 14
ENDMDL
MODEL 4
REMARK VINA RESULT:    -5.351      1.851      4.412
REMARK INTER + INTRA:         -11.631
REMARK INTER:                  -9.747
REMARK INTRA:                  -1.884
REMARK UNBOUND:                -1.900
REMARK SMILES CCCCCCCCCCCCCCCC(=O)[O-]
REMARK SMILES IDX 9 1 10 2 11 3 12 4 13 5 14 6 15 7 16 8 17 9 18 10 8 11 7 12
REMARK SMILES IDX 6 13 5 14 4 15 3 16 2 17 1 18
REMARK H PARENT
REMARK Flexibility Score: inf
ROOT
ATOM      1  C   UNL     1      14.611  21.682  19.493  1.00  0.00     0.000 C 
ENDROOT
BRANCH   1   2
ATOM      2  C   UNL     1      15.831  20.739  19.482  1.00  0.00     0.000 C 
BRANCH   2   3
ATOM      3  C   UNL     1      15.504  19.235  19.507  1.00  0.00     0.000 C 
BRANCH   3   4
ATOM      4  C   UNL     1      16.157  18.461  18.350  1.00  0.00     0.000 C 
BRANCH   4   5
ATOM      5  C   UNL     1      16.590  19.373  17.187  1.00  0.00     0.000 C 
BRANCH   5   6
ATOM      6  C   UNL     1      16.880  18.648  15.856  1.00  0.00     0.006 C 
BRANCH   6   7
ATOM      7  C   UNL     1      17.614  19.501  14.810  1.00  0.00     0.053 C 
BRANCH   7   8
ATOM      8  C   UNL     1      19.060  19.130  14.697  1.00  0.00     0.041 C 
ATOM      9  O   UNL     1      19.413  18.171  13.960  1.00  0.00    -0.550 OA
ATOM     10  O   UNL     1      20.017  19.819  15.433  1.00  0.00    -0.550 OA
ENDBRANCH   7   8
ENDBRANCH   6   7
ENDBRANCH   5   6
ENDBRANCH   4   5
ENDBRANCH   3   4
ENDBRANCH   2   3
ENDBRANCH   1   2
BRANCH   1  11
ATOM     11  C   UNL     1      14.062  22.063  18.107  1.00  0.00     0.000 C 
BRANCH  11  12
ATOM     12  C   UNL     1      14.982  23.035  17.348  1.00  0.00    -0.000 C 
BRANCH  12  13
ATOM     13  C   UNL     1      15.361  22.520  15.949  1.00  0.00    -0.000 C 
BRANCH  13  14
ATOM     14  C   UNL     1      14.339  21.511  15.397  1.00  0.00    -0.000 C 
BRANCH  14  15
ATOM     15  C   UNL     1      14.432  21.351  13.872  1.00  0.00    -0.000 C 
BRANCH  15  16
ATOM     16  C   UNL     1      15.577  22.170  13.257  1.00  0.00    -0.000 C 
BRANCH  16  17
ATOM     17  C   UNL     1      15.777  21.810  11.780  1.00  0.00    -0.003 C 
ATOM     18  C   UNL     1      17.223  21.411  11.501  1.00  0.00     0.004 C 
ENDBRANCH  16  17
ENDBRANCH  15  16
ENDBRANCH  14  15
ENDBRANCH  13  14
ENDBRANCH  12  13
ENDBRANCH  11  12
ENDBRANCH   1  11
TORSDOF 14
ENDMDL
MODEL 5
REMARK VINA RESULT:    -5.332      2.524      5.647
REMARK INTER + INTRA:         -11.596
REMARK INTER:                  -9.664
REMARK INTRA:                  -1.933
REMARK UNBOUND:                -1.900
REMARK SMILES CCCCCCCCCCCCCCCC(=O)[O-]
REMARK SMILES IDX 9 1 10 2 11 3 12 4 13 5 14 6 15 7 16 8 17 9 18 10 8 11 7 12
REMARK SMILES IDX 6 13 5 14 4 15 3 16 2 17 1 18
REMARK H PARENT
REMARK Flexibility Score: inf
ROOT
ATOM      1  C   UNL     1      16.089  21.865  15.779  1.00  0.00     0.000 C 
ENDROOT
BRANCH   1   2
ATOM      2  C   UNL     1      15.277  22.614  16.857  1.00  0.00     0.000 C 
BRANCH   2   3
ATOM      3  C   UNL     1      13.881  22.037  17.151  1.00  0.00     0.000 C 
BRANCH   3   4
ATOM      4  C   UNL     1      13.876  21.058  18.337  1.00  0.00     0.000 C 
BRANCH   4   5
ATOM      5  C   UNL     1      15.098  21.225  19.258  1.00  0.00     0.000 C 
BRANCH   5   6
ATOM      6  C   UNL     1      15.837  19.918  19.613  1.00  0.00     0.006 C 
BRANCH   6   7
ATOM      7  C   UNL     1      16.761  19.384  18.508  1.00  0.00     0.053 C 
BRANCH   7   8
ATOM      8  C   UNL     1      16.132  18.263  17.741  1.00  0.00     0.041 C 
ATOM      9  O   UNL     1      16.583  17.936  16.611  1.00  0.00    -0.550 OA
ATOM     10  O   UNL     1      15.025  17.601  18.257  1.00  0.00    -0.550 OA
ENDBRANCH   7   8
ENDBRANCH   6   7
ENDBRANCH   5   6
ENDBRANCH   4   5
ENDBRANCH   3   4
ENDBRANCH   2   3
ENDBRANCH   1   2
BRANCH   1  11
ATOM     11  C   UNL     1      15.297  20.828  14.963  1.00  0.00     0.000 C 
BRANCH  11  12
ATOM     12  C   UNL     1      14.726  21.406  13.657  1.00  0.00    -0.000 C 
BRANCH  12  13
ATOM     13  C   UNL     1      15.824  21.902  12.701  1.00  0.00    -0.000 C 
BRANCH  13  14
ATOM     14  C   UNL     1      15.777  21.196  11.334  1.00  0.00    -0.000 C 
BRANCH  14  15
ATOM     15  C   UNL     1      17.028  20.344  11.067  1.00  0.00    -0.000 C 
BRANCH  15  16
ATOM     16  C   UNL     1      18.043  20.401  12.218  1.00  0.00    -0.000 C 
BRANCH  16  17
ATOM     17  C   UNL     1      18.081  19.073  12.983  1.00  0.00    -0.003 C 
ATOM     18  C   UNL     1      18.836  19.216  14.301  1.00  0.00     0.004 C 
ENDBRANCH  16  17
ENDBRANCH  15  16
ENDBRANCH  14  15
ENDBRANCH  13  14
ENDBRANCH  12  13
ENDBRANCH  11  12
ENDBRANCH   1  11
TORSDOF 14
ENDMDL
MODEL 6
REMARK VINA RESULT:    -5.308      1.638      2.728
REMARK INTER + INTRA:         -11.552
REMARK INTER:                  -9.884
REMARK INTRA:                  -1.668
REMARK UNBOUND:                -1.900
REMARK SMILES CCCCCCCCCCCCCCCC(=O)[O-]
REMARK SMILES IDX 9 1 10 2 11 3 12 4 13 5 14 6 15 7 16 8 17 9 18 10 8 11 7 12
REMARK SMILES IDX 6 13 5 14 4 15 3 16 2 17 1 18
REMARK H PARENT
REMARK Flexibility Score: inf
ROOT
ATOM      1  C   UNL     1      15.426  22.738  16.734  1.00  0.00     0.000 C 
ENDROOT
BRANCH   1   2
ATOM      2  C   UNL     1      15.268  21.847  15.484  1.00  0.00     0.000 C 
BRANCH   2   3
ATOM      3  C   UNL     1      15.424  22.571  14.134  1.00  0.00     0.000 C 
BRANCH   3   4
ATOM      4  C   UNL     1      15.118  21.663  12.931  1.00  0.00     0.000 C 
BRANCH   4   5
ATOM      5  C   UNL     1      16.194  21.741  11.832  1.00  0.00     0.000 C 
BRANCH   5   6
ATOM      6  C   UNL     1      16.876  20.401  11.483  1.00  0.00     0.006 C 
BRANCH   6   7
ATOM      7  C   UNL     1      18.243  20.187  12.150  1.00  0.00     0.053 C 
BRANCH   7   8
ATOM      8  C   UNL     1      18.165  19.228  13.297  1.00  0.00     0.041 C 
ATOM      9  O   UNL     1      19.183  18.571  13.644  1.00  0.00    -0.550 OA
ATOM     10  O   UNL     1      16.961  19.033  13.962  1.00  0.00    -0.550 OA
ENDBRANCH   7   8
ENDBRANCH   6   7
ENDBRANCH   5   6
ENDBRANCH   4   5
ENDBRANCH   3   4
ENDBRANCH   2   3
ENDBRANCH   1   2
BRANCH   1  11
ATOM     11  C   UNL     1      14.175  22.852  17.623  1.00  0.00     0.000 C 
BRANCH  11  12
ATOM     12  C   UNL     1      13.911  21.578  18.445  1.00  0.00    -0.000 C 
BRANCH  12  13
ATOM     13  C   UNL     1      14.685  21.562  19.774  1.00  0.00    -0.000 C 
BRANCH  13  14
ATOM     14  C   UNL     1      15.444  20.243  19.998  1.00  0.00    -0.000 C 
BRANCH  14  15
ATOM     15  C   UNL     1      15.586  19.417  18.709  1.00  0.00    -0.000 C 
BRANCH  15  16
ATOM     16  C   UNL     1      17.050  19.140  18.338  1.00  0.00    -0.000 C 
BRANCH  16  17
ATOM     17  C   UNL     1      17.828  20.449  18.163  1.00  0.00    -0.003 C 
ATOM     18  C   UNL     1      18.689  20.416  16.904  1.00  0.00     0.004 C 
ENDBRANCH  16  17
ENDBRANCH  15  16
ENDBRANCH  14  15
ENDBRANCH  13  14
ENDBRANCH  12  13
ENDBRANCH  11  12
ENDBRANCH   1  11
TORSDOF 14
ENDMDL
MODEL 7
REMARK VINA RESULT:    -5.292      3.070      6.293
REMARK INTER + INTRA:         -11.524
REMARK INTER:                  -9.715
REMARK INTRA:                  -1.809
REMARK UNBOUND:                -1.900
REMARK SMILES CCCCCCCCCCCCCCCC(=O)[O-]
REMARK SMILES IDX 9 1 10 2 11 3 12 4 13 5 14 6 15 7 16 8 17 9 18 10 8 11 7 12
REMARK SMILES IDX 6 13 5 14 4 15 3 16 2 17 1 18
REMARK H PARENT
REMARK Flexibility Score: inf
ROOT
ATOM      1  C   UNL     1      18.169  18.964  15.299  1.00  0.00     0.000 C 
ENDROOT
BRANCH   1   2
ATOM      2  C   UNL     1      18.561  17.989  16.428  1.00  0.00     0.000 C 
BRANCH   2   3
ATOM      3  C   UNL     1      17.405  17.157  17.013  1.00  0.00     0.000 C 
BRANCH   3   4
ATOM      4  C   UNL     1      16.806  17.778  18.286  1.00  0.00     0.000 C 
BRANCH   4   5
ATOM      5  C   UNL     1      15.345  18.228  18.105  1.00  0.00     0.000 C 
BRANCH   5   6
ATOM      6  C   UNL     1      14.896  19.389  19.016  1.00  0.00     0.006 C 
BRANCH   6   7
ATOM      7  C   UNL     1      13.954  20.401  18.346  1.00  0.00     0.053 C 
BRANCH   7   8
ATOM      8  C   UNL     1      14.212  21.801  18.809  1.00  0.00     0.041 C 
ATOM      9  O   UNL     1      14.583  22.018  19.994  1.00  0.00    -0.550 OA
ATOM     10  O   UNL     1      14.010  22.870  17.945  1.00  0.00    -0.550 OA
ENDBRANCH   7   8
ENDBRANCH   6   7
ENDBRANCH   5   6
ENDBRANCH   4   5
ENDBRANCH   3   4
ENDBRANCH   2   3
ENDBRANCH   1   2
BRANCH   1  11
ATOM     11  C   UNL     1      17.503  20.272  15.762  1.00  0.00     0.000 C 
BRANCH  11  12
ATOM     12  C   UNL     1      16.078  20.444  15.209  1.00  0.00    -0.000 C 
BRANCH  12  13
ATOM     13  C   UNL     1      15.689  21.921  15.027  1.00  0.00    -0.000 C 
BRANCH  13  14
ATOM     14  C   UNL     1      15.179  22.225  13.608  1.00  0.00    -0.000 C 
BRANCH  14  15
ATOM     15  C   UNL     1      15.233  20.997  12.685  1.00  0.00    -0.000 C 
BRANCH  15  16
ATOM     16  C   UNL     1      15.833  21.316  11.307  1.00  0.00    -0.000 C 
BRANCH  16  17
ATOM     17  C   UNL     1      17.347  21.531  11.405  1.00  0.00    -0.003 C 
ATOM     18  C   UNL     1      18.052  20.276  11.910  1.00  0.00     0.004 C 
ENDBRANCH  16  17
ENDBRANCH  15  16
ENDBRANCH  14  15
ENDBRANCH  13  14
ENDBRANCH  12  13
ENDBRANCH  11  12
ENDBRANCH   1  11
TORSDOF 14
ENDMDL
MODEL 8
REMARK VINA RESULT:    -5.262      2.858      6.579
REMARK INTER + INTRA:         -11.469
REMARK INTER:                  -9.686
REMARK INTRA:                  -1.782
REMARK UNBOUND:                -1.900
REMARK SMILES CCCCCCCCCCCCCCCC(=O)[O-]
REMARK SMILES IDX 9 1 10 2 11 3 12 4 13 5 14 6 15 7 16 8 17 9 18 10 8 11 7 12
REMARK SMILES IDX 6 13 5 14 4 15 3 16 2 17 1 18
REMARK H PARENT
REMARK Flexibility Score: inf
ROOT
ATOM      1  C   UNL     1      18.387  19.944  13.063  1.00  0.00     0.000 C 
ENDROOT
BRANCH   1   2
ATOM      2  C   UNL     1      17.733  18.906  13.999  1.00  0.00     0.000 C 
BRANCH   2   3
ATOM      3  C   UNL     1      18.125  19.016  15.483  1.00  0.00     0.000 C 
BRANCH   3   4
ATOM      4  C   UNL     1      17.701  20.352  16.116  1.00  0.00     0.000 C 
BRANCH   4   5
ATOM      5  C   UNL     1      18.340  20.592  17.496  1.00  0.00     0.000 C 
BRANCH   5   6
ATOM      6  C   UNL     1      17.555  20.017  18.693  1.00  0.00     0.006 C 
BRANCH   6   7
ATOM      7  C   UNL     1      16.083  20.453  18.762  1.00  0.00     0.053 C 
BRANCH   7   8
ATOM      8  C   UNL     1      15.155  19.373  18.296  1.00  0.00     0.041 C 
ATOM      9  O   UNL     1      13.932  19.621  18.122  1.00  0.00    -0.550 OA
ATOM     10  O   UNL     1      15.632  18.085  18.088  1.00  0.00    -0.550 OA
ENDBRANCH   7   8
ENDBRANCH   6   7
ENDBRANCH   5   6
ENDBRANCH   4   5
ENDBRANCH   3   4
ENDBRANCH   2   3
ENDBRANCH   1   2
BRANCH   1  11
ATOM     11  C   UNL     1      17.745  20.071  11.670  1.00  0.00     0.000 C 
BRANCH  11  12
ATOM     12  C   UNL     1      17.242  21.495  11.373  1.00  0.00    -0.000 C 
BRANCH  12  13
ATOM     13  C   UNL     1      15.744  21.667  11.674  1.00  0.00    -0.000 C 
BRANCH  13  14
ATOM     14  C   UNL     1      15.487  22.243  13.078  1.00  0.00    -0.000 C 
BRANCH  14  15
ATOM     15  C   UNL     1      14.825  21.226  14.021  1.00  0.00    -0.000 C 
BRANCH  15  16
ATOM     16  C   UNL     1      13.917  21.890  15.067  1.00  0.00    -0.000 C 
BRANCH  16  17
ATOM     17  C   UNL     1      14.746  22.631  16.122  1.00  0.00    -0.003 C 
ATOM     18  C   UNL     1      13.875  23.088  17.288  1.00  0.00     0.004 C 
ENDBRANCH  16  17
ENDBRANCH  15  16
ENDBRANCH  14  15
ENDBRANCH  13  14
ENDBRANCH  12  13
ENDBRANCH  11  12
ENDBRANCH   1  11
TORSDOF 14
ENDMDL
MODEL 9
REMARK VINA RESULT:    -5.225      2.694      5.091
REMARK INTER + INTRA:         -11.401
REMARK INTER:                  -9.675
REMARK INTRA:                  -1.726
REMARK UNBOUND:                -1.900
REMARK SMILES CCCCCCCCCCCCCCCC(=O)[O-]
REMARK SMILES IDX 9 1 10 2 11 3 12 4 13 5 14 6 15 7 16 8 17 9 18 10 8 11 7 12
REMARK SMILES IDX 6 13 5 14 4 15 3 16 2 17 1 18
REMARK H PARENT
REMARK Flexibility Score: inf
ROOT
ATOM      1  C   UNL     1      17.609  19.259  12.568  1.00  0.00     0.000 C 
ENDROOT
BRANCH   1   2
ATOM      2  C   UNL     1      18.025  20.369  11.581  1.00  0.00     0.000 C 
BRANCH   2   3
ATOM      3  C   UNL     1      17.025  21.529  11.433  1.00  0.00     0.000 C 
BRANCH   3   4
ATOM      4  C   UNL     1      15.734  21.314  12.241  1.00  0.00     0.000 C 
BRANCH   4   5
ATOM      5  C   UNL     1      15.620  22.256  13.453  1.00  0.00     0.000 C 
BRANCH   5   6
ATOM      6  C   UNL     1      14.602  21.824  14.529  1.00  0.00     0.006 C 
BRANCH   6   7
ATOM      7  C   UNL     1      15.209  21.050  15.709  1.00  0.00     0.053 C 
BRANCH   7   8
ATOM      8  C   UNL     1      15.868  21.960  16.699  1.00  0.00     0.041 C 
ATOM      9  O   UNL     1      15.400  23.111  16.910  1.00  0.00    -0.550 OA
ATOM     10  O   UNL     1      17.018  21.553  17.364  1.00  0.00    -0.550 OA
ENDBRANCH   7   8
ENDBRANCH   6   7
ENDBRANCH   5   6
ENDBRANCH   4   5
ENDBRANCH   3   4
ENDBRANCH   2   3
ENDBRANCH   1   2
BRANCH   1  11
ATOM     11  C   UNL     1      18.672  18.875  13.612  1.00  0.00     0.000 C 
BRANCH  11  12
ATOM     12  C   UNL     1      18.647  19.786  14.852  1.00  0.00    -0.000 C 
BRANCH  12  13
ATOM     13  C   UNL     1      19.253  19.111  16.094  1.00  0.00    -0.000 C 
BRANCH  13  14
ATOM     14  C   UNL     1      18.925  17.609  16.166  1.00  0.00    -0.000 C 
BRANCH  14  15
ATOM     15  C   UNL     1      17.865  17.287  17.232  1.00  0.00    -0.000 C 
BRANCH  15  16
ATOM     16  C   UNL     1      16.477  17.839  16.876  1.00  0.00    -0.000 C 
BRANCH  16  17
ATOM     17  C   UNL     1      15.514  17.705  18.062  1.00  0.00    -0.003 C 
ATOM     18  C   UNL     1      15.734  18.818  19.081  1.00  0.00     0.004 C 
ENDBRANCH  16  17
ENDBRANCH  15  16
ENDBRANCH  14  15
ENDBRANCH  13  14
ENDBRANCH  12  13
ENDBRANCH  11  12
ENDBRANCH   1  11
TORSDOF 14
ENDMDL
