MODEL 1
REMARK VINA RESULT:    23.475      0.000      0.000
REMARK INTER + INTRA:          27.329
REMARK INTER:                  27.592
REMARK INTRA:                  -0.264
REMARK UNBOUND:                -0.264
REMARK SMILES O=c1cc(-c2ccc(O)c(O)c2)oc2cc(O)cc(O)c12
REMARK SMILES IDX 4 1 3 2 2 3 1 4 21 5 19 6 18 7 16 8 15 9 14 10 13 11 5 12
REMARK SMILES IDX 6 13 7 14 8 15 12 16 10 17 9 18 11 20 20 22 17 24
REMARK H PARENT 9 19 11 21 20 23 17 25
REMARK Flexibility Score: inf
ROOT
ATOM      1  C   UNL     1       7.125   3.347  18.665  1.00  0.00     0.138 A 
ATOM      2  C   UNL     1       8.505   3.108  18.576  1.00  0.00     0.100 A 
ATOM      3  C   UNL     1       9.375   4.176  18.352  1.00  0.00     0.197 A 
ATOM      4  O   UNL     1      10.613   3.951  18.275  1.00  0.00    -0.289 OA
ATOM      5  C   UNL     1       8.855   5.480  18.221  1.00  0.00     0.107 A 
ATOM      6  C   UNL     1       9.666   6.617  17.992  1.00  0.00     0.134 A 
ATOM      7  C   UNL     1       9.072   7.882  17.879  1.00  0.00     0.093 A 
ATOM      8  C   UNL     1       7.687   8.032  17.991  1.00  0.00     0.123 A 
ATOM      9  C   UNL     1       6.881   6.912  18.218  1.00  0.00     0.094 A 
ATOM     10  C   UNL     1       7.454   5.641  18.333  1.00  0.00     0.146 A 
ATOM     11  O   UNL     1       6.667   4.592  18.546  1.00  0.00    -0.456 OA
ENDROOT
BRANCH   1  12
ATOM     12  C   UNL     1       6.153   2.250  18.903  1.00  0.00     0.021 A 
ATOM     13  C   UNL     1       5.235   1.908  17.895  1.00  0.00     0.016 A 
ATOM     14  C   UNL     1       4.315   0.875  18.091  1.00  0.00     0.051 A 
ATOM     15  C   UNL     1       4.302   0.161  19.294  1.00  0.00     0.157 A 
ATOM     16  C   UNL     1       6.142   1.518  20.107  1.00  0.00     0.062 A 
ATOM     17  C   UNL     1       5.220   0.480  20.303  1.00  0.00     0.158 A 
BRANCH  15  18
ATOM     18  O   UNL     1       3.385  -0.869  19.495  1.00  0.00    -0.504 OA
ATOM     19  H   UNL     1       2.486  -0.700  19.932  1.00  0.00     0.293 HD
ENDBRANCH  15  18
BRANCH  17  20
ATOM     20  O   UNL     1       5.211  -0.241  21.496  1.00  0.00    -0.504 OA
ATOM     21  H   UNL     1       5.061   0.213  22.389  1.00  0.00     0.293 HD
ENDBRANCH  17  20
ENDBRANCH   1  12
BRANCH   6  22
ATOM     22  O   UNL     1      11.051   6.499  17.875  1.00  0.00    -0.507 OA
ATOM     23  H   UNL     1      11.616   6.091  18.611  1.00  0.00     0.293 HD
ENDBRANCH   6  22
BRANCH   8  24
ATOM     24  O   UNL     1       7.122   9.300  17.875  1.00  0.00    -0.508 OA
ATOM     25  H   UNL     1       6.118   9.433  17.856  1.00  0.00     0.293 HD
ENDBRANCH   8  24
TORSDOF 5
ENDMDL
