MODEL 1
REMARK VINA RESULT:    -7.060      0.000      0.000
REMARK INTER + INTRA:          -8.616
REMARK INTER:                  -8.299
REMARK INTRA:                  -0.318
REMARK UNBOUND:                -0.318
REMARK SMILES O=c1cc(-c2ccc(O)c(O)c2)oc2cc(O)cc(O)c12
REMARK SMILES IDX 4 1 3 2 2 3 1 4 21 5 19 6 18 7 16 8 15 9 14 10 13 11 5 12
REMARK SMILES IDX 6 13 7 14 8 15 12 16 10 17 9 18 11 20 20 22 17 24
REMARK H PARENT 9 19 11 21 20 23 17 25
REMARK Flexibility Score: inf
ROOT
ATOM      1  C   UNL     1     180.280 171.764 172.502  1.00  0.00     0.138 A 
ATOM      2  C   UNL     1     179.307 171.799 171.495  1.00  0.00     0.100 A 
ATOM      3  C   UNL     1     178.308 172.773 171.534  1.00  0.00     0.197 A 
ATOM      4  O   UNL     1     177.412 172.741 170.651  1.00  0.00    -0.289 OA
ATOM      5  C   UNL     1     178.305 173.736 172.572  1.00  0.00     0.107 A 
ATOM      6  C   UNL     1     177.360 174.800 172.690  1.00  0.00     0.134 A 
ATOM      7  C   UNL     1     177.386 175.623 173.823  1.00  0.00     0.093 A 
ATOM      8  C   UNL     1     178.360 175.457 174.812  1.00  0.00     0.123 A 
ATOM      9  C   UNL     1     179.319 174.457 174.679  1.00  0.00     0.094 A 
ATOM     10  C   UNL     1     179.299 173.598 173.577  1.00  0.00     0.146 A 
ATOM     11  O   UNL     1     180.223 172.646 173.495  1.00  0.00    -0.456 OA
ENDROOT
BRANCH   1  12
ATOM     12  C   UNL     1     181.365 170.751 172.509  1.00  0.00     0.021 A 
ATOM     13  C   UNL     1     181.369 169.734 171.539  1.00  0.00     0.016 A 
ATOM     14  C   UNL     1     182.376 168.765 171.529  1.00  0.00     0.051 A 
ATOM     15  C   UNL     1     183.389 168.788 172.490  1.00  0.00     0.157 A 
ATOM     16  C   UNL     1     182.382 170.762 173.484  1.00  0.00     0.062 A 
ATOM     17  C   UNL     1     183.392 169.788 173.476  1.00  0.00     0.158 A 
BRANCH  15  18
ATOM     18  O   UNL     1     184.381 167.808 172.453  1.00  0.00    -0.504 OA
ATOM     19  H   UNL     1     184.882 167.518 173.284  1.00  0.00     0.293 HD
ENDBRANCH  15  18
BRANCH  17  20
ATOM     20  O   UNL     1     184.394 169.809 174.445  1.00  0.00    -0.504 OA
ATOM     21  H   UNL     1     185.230 170.372 174.332  1.00  0.00     0.293 HD
ENDBRANCH  17  20
ENDBRANCH   1  12
BRANCH   6  22
ATOM     22  O   UNL     1     176.401 175.104 171.720  1.00  0.00    -0.507 OA
ATOM     23  H   UNL     1     176.309 174.635 170.832  1.00  0.00     0.293 HD
ENDBRANCH   6  22
BRANCH   8  24
ATOM     24  O   UNL     1     178.387 176.290 175.928  1.00  0.00    -0.508 OA
ATOM     25  H   UNL     1     178.487 177.295 175.837  1.00  0.00     0.293 HD
ENDBRANCH   8  24
TORSDOF 5
ENDMDL
MODEL 2
REMARK VINA RESULT:    -7.047      8.709     13.639
REMARK INTER + INTRA:          -8.601
REMARK INTER:                  -8.283
REMARK INTRA:                  -0.318
REMARK UNBOUND:                -0.318
REMARK SMILES O=c1cc(-c2ccc(O)c(O)c2)oc2cc(O)cc(O)c12
REMARK SMILES IDX 4 1 3 2 2 3 1 4 21 5 19 6 18 7 16 8 15 9 14 10 13 11 5 12
REMARK SMILES IDX 6 13 7 14 8 15 12 16 10 17 9 18 11 20 20 22 17 24
REMARK H PARENT 9 19 11 21 20 23 17 25
REMARK Flexibility Score: inf
ROOT
ATOM      1  C   UNL     1     169.337 177.552 172.576  1.00  0.00     0.138 A 
ATOM      2  C   UNL     1     170.329 177.530 171.587  1.00  0.00     0.100 A 
ATOM      3  C   UNL     1     171.337 176.565 171.642  1.00  0.00     0.197 A 
ATOM      4  O   UNL     1     172.247 176.609 170.776  1.00  0.00    -0.289 OA
ATOM      5  C   UNL     1     171.329 175.599 172.676  1.00  0.00     0.107 A 
ATOM      6  C   UNL     1     172.282 174.544 172.808  1.00  0.00     0.134 A 
ATOM      7  C   UNL     1     172.243 173.717 173.938  1.00  0.00     0.093 A 
ATOM      8  C   UNL     1     171.250 173.870 174.909  1.00  0.00     0.123 A 
ATOM      9  C   UNL     1     170.284 174.862 174.762  1.00  0.00     0.094 A 
ATOM     10  C   UNL     1     170.316 175.724 173.664  1.00  0.00     0.146 A 
ATOM     11  O   UNL     1     169.384 176.667 173.568  1.00  0.00    -0.456 OA
ENDROOT
BRANCH   1  12
ATOM     12  C   UNL     1     168.242 178.554 172.567  1.00  0.00     0.021 A 
ATOM     13  C   UNL     1     168.240 179.568 171.593  1.00  0.00     0.016 A 
ATOM     14  C   UNL     1     167.224 180.527 171.567  1.00  0.00     0.051 A 
ATOM     15  C   UNL     1     166.200 180.498 172.517  1.00  0.00     0.157 A 
ATOM     16  C   UNL     1     167.214 178.537 173.530  1.00  0.00     0.062 A 
ATOM     17  C   UNL     1     166.195 179.502 173.506  1.00  0.00     0.158 A 
BRANCH  15  18
ATOM     18  O   UNL     1     165.199 181.468 172.464  1.00  0.00    -0.504 OA
ATOM     19  H   UNL     1     164.322 181.363 172.959  1.00  0.00     0.293 HD
ENDBRANCH  15  18
BRANCH  17  20
ATOM     20  O   UNL     1     165.182 179.475 174.463  1.00  0.00    -0.504 OA
ATOM     21  H   UNL     1     164.798 178.602 174.806  1.00  0.00     0.293 HD
ENDBRANCH  17  20
ENDBRANCH   1  12
BRANCH   6  22
ATOM     22  O   UNL     1     173.262 174.252 171.855  1.00  0.00    -0.507 OA
ATOM     23  H   UNL     1     173.881 173.456 171.890  1.00  0.00     0.293 HD
ENDBRANCH   6  22
BRANCH   8  24
ATOM     24  O   UNL     1     171.210 173.033 176.022  1.00  0.00    -0.508 OA
ATOM     25  H   UNL     1     171.262 172.024 175.930  1.00  0.00     0.293 HD
ENDBRANCH   8  24
TORSDOF 5
ENDMDL
MODEL 3
REMARK VINA RESULT:    -6.470      1.515      1.856
REMARK INTER + INTRA:          -7.922
REMARK INTER:                  -7.657
REMARK INTRA:                  -0.265
REMARK UNBOUND:                -0.318
REMARK SMILES O=c1cc(-c2ccc(O)c(O)c2)oc2cc(O)cc(O)c12
REMARK SMILES IDX 4 1 3 2 2 3 1 4 21 5 19 6 18 7 16 8 15 9 14 10 13 11 5 12
REMARK SMILES IDX 6 13 7 14 8 15 12 16 10 17 9 18 11 20 20 22 17 24
REMARK H PARENT 9 19 11 21 20 23 17 25
REMARK Flexibility Score: inf
ROOT
ATOM      1  C   UNL     1     179.706 172.976 172.525  1.00  0.00     0.138 A 
ATOM      2  C   UNL     1     178.668 173.050 171.586  1.00  0.00     0.100 A 
ATOM      3  C   UNL     1     177.627 173.960 171.778  1.00  0.00     0.197 A 
ATOM      4  O   UNL     1     176.679 173.959 170.951  1.00  0.00    -0.289 OA
ATOM      5  C   UNL     1     177.643 174.820 172.902  1.00  0.00     0.107 A 
ATOM      6  C   UNL     1     176.656 175.814 173.177  1.00  0.00     0.134 A 
ATOM      7  C   UNL     1     176.714 176.528 174.381  1.00  0.00     0.093 A 
ATOM      8  C   UNL     1     177.756 176.326 175.289  1.00  0.00     0.123 A 
ATOM      9  C   UNL     1     178.754 175.397 175.004  1.00  0.00     0.094 A 
ATOM     10  C   UNL     1     178.705 174.645 173.828  1.00  0.00     0.146 A 
ATOM     11  O   UNL     1     179.669 173.758 173.600  1.00  0.00    -0.456 OA
ENDROOT
BRANCH   1  12
ATOM     12  C   UNL     1     180.838 172.029 172.370  1.00  0.00     0.021 A 
ATOM     13  C   UNL     1     180.954 170.939 173.249  1.00  0.00     0.016 A 
ATOM     14  C   UNL     1     182.015 170.038 173.128  1.00  0.00     0.051 A 
ATOM     15  C   UNL     1     182.982 170.213 172.135  1.00  0.00     0.157 A 
ATOM     16  C   UNL     1     181.823 172.209 171.379  1.00  0.00     0.062 A 
ATOM     17  C   UNL     1     182.890 171.306 171.258  1.00  0.00     0.158 A 
BRANCH  15  18
ATOM     18  O   UNL     1     184.028 169.296 172.038  1.00  0.00    -0.504 OA
ATOM     19  H   UNL     1     184.162 168.717 171.218  1.00  0.00     0.293 HD
ENDBRANCH  15  18
BRANCH  17  20
ATOM     20  O   UNL     1     183.858 171.493 170.273  1.00  0.00    -0.504 OA
ATOM     21  H   UNL     1     183.749 172.191 169.546  1.00  0.00     0.293 HD
ENDBRANCH  17  20
ENDBRANCH   1  12
BRANCH   6  22
ATOM     22  O   UNL     1     175.622 176.153 172.300  1.00  0.00    -0.507 OA
ATOM     23  H   UNL     1     175.249 175.547 171.585  1.00  0.00     0.293 HD
ENDBRANCH   6  22
BRANCH   8  24
ATOM     24  O   UNL     1     177.815 177.052 176.477  1.00  0.00    -0.508 OA
ATOM     25  H   UNL     1     176.983 177.458 176.891  1.00  0.00     0.293 HD
ENDBRANCH   8  24
TORSDOF 5
ENDMDL
MODEL 4
REMARK VINA RESULT:    -6.347      4.615      7.473
REMARK INTER + INTRA:          -7.777
REMARK INTER:                  -7.484
REMARK INTRA:                  -0.294
REMARK UNBOUND:                -0.318
REMARK SMILES O=c1cc(-c2ccc(O)c(O)c2)oc2cc(O)cc(O)c12
REMARK SMILES IDX 4 1 3 2 2 3 1 4 21 5 19 6 18 7 16 8 15 9 14 10 13 11 5 12
REMARK SMILES IDX 6 13 7 14 8 15 12 16 10 17 9 18 11 20 20 22 17 24
REMARK H PARENT 9 19 11 21 20 23 17 25
REMARK Flexibility Score: inf
ROOT
ATOM      1  C   UNL     1     174.593 175.062 173.029  1.00  0.00     0.138 A 
ATOM      2  C   UNL     1     174.313 175.057 171.656  1.00  0.00     0.100 A 
ATOM      3  C   UNL     1     172.986 175.033 171.223  1.00  0.00     0.197 A 
ATOM      4  O   UNL     1     172.767 174.966 169.986  1.00  0.00    -0.289 OA
ATOM      5  C   UNL     1     171.936 175.048 172.172  1.00  0.00     0.107 A 
ATOM      6  C   UNL     1     170.547 175.067 171.845  1.00  0.00     0.134 A 
ATOM      7  C   UNL     1     169.596 174.963 172.868  1.00  0.00     0.093 A 
ATOM      8  C   UNL     1     169.984 174.900 174.209  1.00  0.00     0.123 A 
ATOM      9  C   UNL     1     171.336 174.935 174.541  1.00  0.00     0.094 A 
ATOM     10  C   UNL     1     172.310 175.004 173.541  1.00  0.00     0.146 A 
ATOM     11  O   UNL     1     173.589 175.021 173.900  1.00  0.00    -0.456 OA
ENDROOT
BRANCH   1  12
ATOM     12  C   UNL     1     175.985 175.088 173.545  1.00  0.00     0.021 A 
ATOM     13  C   UNL     1     176.956 174.261 172.957  1.00  0.00     0.016 A 
ATOM     14  C   UNL     1     178.272 174.262 173.430  1.00  0.00     0.051 A 
ATOM     15  C   UNL     1     178.637 175.080 174.502  1.00  0.00     0.157 A 
ATOM     16  C   UNL     1     176.355 175.901 174.635  1.00  0.00     0.062 A 
ATOM     17  C   UNL     1     177.675 175.901 175.111  1.00  0.00     0.158 A 
BRANCH  15  18
ATOM     18  O   UNL     1     179.958 175.060 174.950  1.00  0.00    -0.504 OA
ATOM     19  H   UNL     1     180.513 174.213 174.951  1.00  0.00     0.293 HD
ENDBRANCH  15  18
BRANCH  17  20
ATOM     20  O   UNL     1     178.031 176.711 176.189  1.00  0.00    -0.504 OA
ATOM     21  H   UNL     1     178.561 177.565 176.059  1.00  0.00     0.293 HD
ENDBRANCH  17  20
ENDBRANCH   1  12
BRANCH   6  22
ATOM     22  O   UNL     1     170.051 175.212 170.546  1.00  0.00    -0.507 OA
ATOM     23  H   UNL     1     169.086 175.091 170.280  1.00  0.00     0.293 HD
ENDBRANCH   6  22
BRANCH   8  24
ATOM     24  O   UNL     1     169.031 174.813 175.221  1.00  0.00    -0.508 OA
ATOM     25  H   UNL     1     168.554 173.942 175.427  1.00  0.00     0.293 HD
ENDBRANCH   8  24
TORSDOF 5
ENDMDL
MODEL 5
REMARK VINA RESULT:    -6.334      4.165      8.225
REMARK INTER + INTRA:          -7.762
REMARK INTER:                  -7.468
REMARK INTRA:                  -0.295
REMARK UNBOUND:                -0.318
REMARK SMILES O=c1cc(-c2ccc(O)c(O)c2)oc2cc(O)cc(O)c12
REMARK SMILES IDX 4 1 3 2 2 3 1 4 21 5 19 6 18 7 16 8 15 9 14 10 13 11 5 12
REMARK SMILES IDX 6 13 7 14 8 15 12 16 10 17 9 18 11 20 20 22 17 24
REMARK H PARENT 9 19 11 21 20 23 17 25
REMARK Flexibility Score: inf
ROOT
ATOM      1  C   UNL     1     174.733 174.547 172.953  1.00  0.00     0.138 A 
ATOM      2  C   UNL     1     175.031 174.552 171.584  1.00  0.00     0.100 A 
ATOM      3  C   UNL     1     176.363 174.584 171.168  1.00  0.00     0.197 A 
ATOM      4  O   UNL     1     176.597 174.651 169.934  1.00  0.00    -0.289 OA
ATOM      5  C   UNL     1     177.400 174.578 172.130  1.00  0.00     0.107 A 
ATOM      6  C   UNL     1     178.794 174.568 171.821  1.00  0.00     0.134 A 
ATOM      7  C   UNL     1     179.731 174.680 172.857  1.00  0.00     0.093 A 
ATOM      8  C   UNL     1     179.325 174.742 174.192  1.00  0.00     0.123 A 
ATOM      9  C   UNL     1     177.969 174.699 174.507  1.00  0.00     0.094 A 
ATOM     10  C   UNL     1     177.009 174.621 173.495  1.00  0.00     0.146 A 
ATOM     11  O   UNL     1     175.725 174.597 173.836  1.00  0.00    -0.456 OA
ENDROOT
BRANCH   1  12
ATOM     12  C   UNL     1     173.335 174.512 173.451  1.00  0.00     0.021 A 
ATOM     13  C   UNL     1     172.361 175.317 172.836  1.00  0.00     0.016 A 
ATOM     14  C   UNL     1     171.039 175.307 173.291  1.00  0.00     0.051 A 
ATOM     15  C   UNL     1     170.669 174.504 174.372  1.00  0.00     0.157 A 
ATOM     16  C   UNL     1     172.960 173.713 174.549  1.00  0.00     0.062 A 
ATOM     17  C   UNL     1     171.634 173.705 175.008  1.00  0.00     0.158 A 
BRANCH  15  18
ATOM     18  O   UNL     1     169.343 174.514 174.802  1.00  0.00    -0.504 OA
ATOM     19  H   UNL     1     168.584 174.807 174.199  1.00  0.00     0.293 HD
ENDBRANCH  15  18
BRANCH  17  20
ATOM     20  O   UNL     1     171.273 172.910 176.095  1.00  0.00    -0.504 OA
ATOM     21  H   UNL     1     171.271 173.273 177.041  1.00  0.00     0.293 HD
ENDBRANCH  17  20
ENDBRANCH   1  12
BRANCH   6  22
ATOM     22  O   UNL     1     179.307 174.424 170.529  1.00  0.00    -0.507 OA
ATOM     23  H   UNL     1     179.906 173.672 170.227  1.00  0.00     0.293 HD
ENDBRANCH   6  22
BRANCH   8  24
ATOM     24  O   UNL     1     180.264 174.839 175.217  1.00  0.00    -0.508 OA
ATOM     25  H   UNL     1     180.936 175.597 175.250  1.00  0.00     0.293 HD
ENDBRANCH   8  24
TORSDOF 5
ENDMDL
MODEL 6
REMARK VINA RESULT:    -6.276      8.490     13.608
REMARK INTER + INTRA:          -7.694
REMARK INTER:                  -7.397
REMARK INTRA:                  -0.297
REMARK UNBOUND:                -0.318
REMARK SMILES O=c1cc(-c2ccc(O)c(O)c2)oc2cc(O)cc(O)c12
REMARK SMILES IDX 4 1 3 2 2 3 1 4 21 5 19 6 18 7 16 8 15 9 14 10 13 11 5 12
REMARK SMILES IDX 6 13 7 14 8 15 12 16 10 17 9 18 11 20 20 22 17 24
REMARK H PARENT 9 19 11 21 20 23 17 25
REMARK Flexibility Score: inf
ROOT
ATOM      1  C   UNL     1     169.351 177.496 172.588  1.00  0.00     0.138 A 
ATOM      2  C   UNL     1     169.338 176.429 173.497  1.00  0.00     0.100 A 
ATOM      3  C   UNL     1     170.376 175.496 173.479  1.00  0.00     0.197 A 
ATOM      4  O   UNL     1     170.304 174.516 174.264  1.00  0.00    -0.289 OA
ATOM      5  C   UNL     1     171.447 175.652 172.568  1.00  0.00     0.107 A 
ATOM      6  C   UNL     1     172.578 174.786 172.489  1.00  0.00     0.134 A 
ATOM      7  C   UNL     1     173.520 174.973 171.469  1.00  0.00     0.093 A 
ATOM      8  C   UNL     1     173.402 176.030 170.564  1.00  0.00     0.123 A 
ATOM      9  C   UNL     1     172.330 176.913 170.666  1.00  0.00     0.094 A 
ATOM     10  C   UNL     1     171.356 176.733 171.651  1.00  0.00     0.146 A 
ATOM     11  O   UNL     1     170.341 177.589 171.706  1.00  0.00    -0.456 OA
ENDROOT
BRANCH   1  12
ATOM     12  C   UNL     1     168.274 178.518 172.563  1.00  0.00     0.021 A 
ATOM     13  C   UNL     1     168.307 179.534 171.593  1.00  0.00     0.016 A 
ATOM     14  C   UNL     1     167.308 180.511 171.553  1.00  0.00     0.051 A 
ATOM     15  C   UNL     1     166.267 180.497 172.484  1.00  0.00     0.157 A 
ATOM     16  C   UNL     1     167.229 178.515 173.508  1.00  0.00     0.062 A 
ATOM     17  C   UNL     1     166.227 179.497 173.469  1.00  0.00     0.158 A 
BRANCH  15  18
ATOM     18  O   UNL     1     165.284 181.484 172.418  1.00  0.00    -0.504 OA
ATOM     19  H   UNL     1     164.632 181.646 173.176  1.00  0.00     0.293 HD
ENDBRANCH  15  18
BRANCH  17  20
ATOM     20  O   UNL     1     165.197 179.485 174.409  1.00  0.00    -0.504 OA
ATOM     21  H   UNL     1     164.653 180.315 174.611  1.00  0.00     0.293 HD
ENDBRANCH  17  20
ENDBRANCH   1  12
BRANCH   6  22
ATOM     22  O   UNL     1     172.836 173.752 173.394  1.00  0.00    -0.507 OA
ATOM     23  H   UNL     1     173.408 172.945 173.200  1.00  0.00     0.293 HD
ENDBRANCH   6  22
BRANCH   8  24
ATOM     24  O   UNL     1     174.352 176.217 169.562  1.00  0.00    -0.508 OA
ATOM     25  H   UNL     1     174.092 176.551 168.640  1.00  0.00     0.293 HD
ENDBRANCH   8  24
TORSDOF 5
ENDMDL
MODEL 7
REMARK VINA RESULT:    -6.240      1.235      2.771
REMARK INTER + INTRA:          -7.651
REMARK INTER:                  -7.355
REMARK INTRA:                  -0.297
REMARK UNBOUND:                -0.318
REMARK SMILES O=c1cc(-c2ccc(O)c(O)c2)oc2cc(O)cc(O)c12
REMARK SMILES IDX 4 1 3 2 2 3 1 4 21 5 19 6 18 7 16 8 15 9 14 10 13 11 5 12
REMARK SMILES IDX 6 13 7 14 8 15 12 16 10 17 9 18 11 20 20 22 17 24
REMARK H PARENT 9 19 11 21 20 23 17 25
REMARK Flexibility Score: inf
ROOT
ATOM      1  C   UNL     1     180.192 172.046 172.734  1.00  0.00     0.138 A 
ATOM      2  C   UNL     1     180.209 173.053 173.708  1.00  0.00     0.100 A 
ATOM      3  C   UNL     1     179.189 174.006 173.734  1.00  0.00     0.197 A 
ATOM      4  O   UNL     1     179.265 174.934 174.580  1.00  0.00    -0.289 OA
ATOM      5  C   UNL     1     178.130 173.929 172.797  1.00  0.00     0.107 A 
ATOM      6  C   UNL     1     177.017 174.821 172.755  1.00  0.00     0.134 A 
ATOM      7  C   UNL     1     176.089 174.717 171.711  1.00  0.00     0.093 A 
ATOM      8  C   UNL     1     176.204 173.716 170.742  1.00  0.00     0.123 A 
ATOM      9  C   UNL     1     177.257 172.808 170.806  1.00  0.00     0.094 A 
ATOM     10  C   UNL     1     178.217 172.906 171.815  1.00  0.00     0.146 A 
ATOM     11  O   UNL     1     179.215 172.028 171.832  1.00  0.00    -0.456 OA
ENDROOT
BRANCH   1  12
ATOM     12  C   UNL     1     181.250 171.008 172.662  1.00  0.00     0.021 A 
ATOM     13  C   UNL     1     181.186 170.024 171.660  1.00  0.00     0.016 A 
ATOM     14  C   UNL     1     182.166 169.031 171.575  1.00  0.00     0.051 A 
ATOM     15  C   UNL     1     183.219 168.997 172.492  1.00  0.00     0.157 A 
ATOM     16  C   UNL     1     182.306 170.961 173.592  1.00  0.00     0.062 A 
ATOM     17  C   UNL     1     183.289 169.963 173.509  1.00  0.00     0.158 A 
BRANCH  15  18
ATOM     18  O   UNL     1     184.183 167.995 172.381  1.00  0.00    -0.504 OA
ATOM     19  H   UNL     1     184.812 167.767 173.141  1.00  0.00     0.293 HD
ENDBRANCH  15  18
BRANCH  17  20
ATOM     20  O   UNL     1     184.331 169.927 174.434  1.00  0.00    -0.504 OA
ATOM     21  H   UNL     1     184.570 170.735 174.998  1.00  0.00     0.293 HD
ENDBRANCH  17  20
ENDBRANCH   1  12
BRANCH   6  22
ATOM     22  O   UNL     1     176.763 175.800 173.719  1.00  0.00    -0.507 OA
ATOM     23  H   UNL     1     176.015 176.475 173.673  1.00  0.00     0.293 HD
ENDBRANCH   6  22
BRANCH   8  24
ATOM     24  O   UNL     1     175.268 173.611 169.715  1.00  0.00    -0.508 OA
ATOM     25  H   UNL     1     174.293 173.407 169.905  1.00  0.00     0.293 HD
ENDBRANCH   8  24
TORSDOF 5
ENDMDL
MODEL 8
REMARK VINA RESULT:    -6.044      4.189      6.785
REMARK INTER + INTRA:          -7.422
REMARK INTER:                  -7.128
REMARK INTRA:                  -0.294
REMARK UNBOUND:                -0.318
REMARK SMILES O=c1cc(-c2ccc(O)c(O)c2)oc2cc(O)cc(O)c12
REMARK SMILES IDX 4 1 3 2 2 3 1 4 21 5 19 6 18 7 16 8 15 9 14 10 13 11 5 12
REMARK SMILES IDX 6 13 7 14 8 15 12 16 10 17 9 18 11 20 20 22 17 24
REMARK H PARENT 9 19 11 21 20 23 17 25
REMARK Flexibility Score: inf
ROOT
ATOM      1  C   UNL     1     175.443 174.472 173.612  1.00  0.00     0.138 A 
ATOM      2  C   UNL     1     174.990 174.261 174.921  1.00  0.00     0.100 A 
ATOM      3  C   UNL     1     173.618 174.214 175.177  1.00  0.00     0.197 A 
ATOM      4  O   UNL     1     173.241 174.085 176.370  1.00  0.00    -0.289 OA
ATOM      5  C   UNL     1     172.699 174.348 174.109  1.00  0.00     0.107 A 
ATOM      6  C   UNL     1     171.280 174.276 174.246  1.00  0.00     0.134 A 
ATOM      7  C   UNL     1     170.465 174.539 173.137  1.00  0.00     0.093 A 
ATOM      8  C   UNL     1     171.020 174.813 171.885  1.00  0.00     0.123 A 
ATOM      9  C   UNL     1     172.404 174.832 171.729  1.00  0.00     0.094 A 
ATOM     10  C   UNL     1     173.243 174.608 172.824  1.00  0.00     0.146 A 
ATOM     11  O   UNL     1     174.558 174.650 172.636  1.00  0.00    -0.456 OA
ENDROOT
BRANCH   1  12
ATOM     12  C   UNL     1     176.890 174.530 173.283  1.00  0.00     0.021 A 
ATOM     13  C   UNL     1     177.300 174.416 171.944  1.00  0.00     0.016 A 
ATOM     14  C   UNL     1     178.656 174.461 171.610  1.00  0.00     0.051 A 
ATOM     15  C   UNL     1     179.625 174.609 172.605  1.00  0.00     0.157 A 
ATOM     16  C   UNL     1     177.871 174.667 174.285  1.00  0.00     0.062 A 
ATOM     17  C   UNL     1     179.233 174.709 173.950  1.00  0.00     0.158 A 
BRANCH  15  18
ATOM     18  O   UNL     1     180.971 174.652 172.240  1.00  0.00    -0.504 OA
ATOM     19  H   UNL     1     181.437 175.520 172.006  1.00  0.00     0.293 HD
ENDBRANCH  15  18
BRANCH  17  20
ATOM     20  O   UNL     1     180.197 174.846 174.948  1.00  0.00    -0.504 OA
ATOM     21  H   UNL     1     180.816 174.083 175.196  1.00  0.00     0.293 HD
ENDBRANCH  17  20
ENDBRANCH   1  12
BRANCH   6  22
ATOM     22  O   UNL     1     170.625 173.927 175.431  1.00  0.00    -0.507 OA
ATOM     23  H   UNL     1     169.641 174.057 175.606  1.00  0.00     0.293 HD
ENDBRANCH   6  22
BRANCH   8  24
ATOM     24  O   UNL     1     170.203 175.058 170.784  1.00  0.00    -0.508 OA
ATOM     25  H   UNL     1     169.319 175.546 170.877  1.00  0.00     0.293 HD
ENDBRANCH   8  24
TORSDOF 5
ENDMDL
MODEL 9
REMARK VINA RESULT:    -6.036      4.441      9.175
REMARK INTER + INTRA:          -7.412
REMARK INTER:                  -7.120
REMARK INTRA:                  -0.293
REMARK UNBOUND:                -0.318
REMARK SMILES O=c1cc(-c2ccc(O)c(O)c2)oc2cc(O)cc(O)c12
REMARK SMILES IDX 4 1 3 2 2 3 1 4 21 5 19 6 18 7 16 8 15 9 14 10 13 11 5 12
REMARK SMILES IDX 6 13 7 14 8 15 12 16 10 17 9 18 11 20 20 22 17 24
REMARK H PARENT 9 19 11 21 20 23 17 25
REMARK Flexibility Score: inf
ROOT
ATOM      1  C   UNL     1     174.109 174.993 173.634  1.00  0.00     0.138 A 
ATOM      2  C   UNL     1     174.587 175.212 174.933  1.00  0.00     0.100 A 
ATOM      3  C   UNL     1     175.963 175.243 175.165  1.00  0.00     0.197 A 
ATOM      4  O   UNL     1     176.361 175.380 176.351  1.00  0.00    -0.289 OA
ATOM      5  C   UNL     1     176.863 175.086 174.084  1.00  0.00     0.107 A 
ATOM      6  C   UNL     1     178.285 175.141 174.197  1.00  0.00     0.134 A 
ATOM      7  C   UNL     1     179.077 174.855 173.078  1.00  0.00     0.093 A 
ATOM      8  C   UNL     1     178.498 174.576 171.837  1.00  0.00     0.123 A 
ATOM      9  C   UNL     1     177.111 174.573 171.705  1.00  0.00     0.094 A 
ATOM     10  C   UNL     1     176.294 174.820 172.810  1.00  0.00     0.146 A 
ATOM     11  O   UNL     1     174.976 174.794 172.645  1.00  0.00    -0.456 OA
ENDROOT
BRANCH   1  12
ATOM     12  C   UNL     1     172.657 174.951 173.329  1.00  0.00     0.021 A 
ATOM     13  C   UNL     1     172.222 175.137 172.006  1.00  0.00     0.016 A 
ATOM     14  C   UNL     1     170.859 175.109 171.695  1.00  0.00     0.051 A 
ATOM     15  C   UNL     1     169.909 174.905 172.699  1.00  0.00     0.157 A 
ATOM     16  C   UNL     1     171.694 174.759 174.340  1.00  0.00     0.062 A 
ATOM     17  C   UNL     1     170.326 174.733 174.028  1.00  0.00     0.158 A 
BRANCH  15  18
ATOM     18  O   UNL     1     168.557 174.881 172.357  1.00  0.00    -0.504 OA
ATOM     19  H   UNL     1     168.207 175.320 171.515  1.00  0.00     0.293 HD
ENDBRANCH  15  18
BRANCH  17  20
ATOM     20  O   UNL     1     169.382 174.541 175.036  1.00  0.00    -0.504 OA
ATOM     21  H   UNL     1     168.392 174.680 174.869  1.00  0.00     0.293 HD
ENDBRANCH  17  20
ENDBRANCH   1  12
BRANCH   6  22
ATOM     22  O   UNL     1     178.963 175.493 175.367  1.00  0.00    -0.507 OA
ATOM     23  H   UNL     1     179.383 176.393 175.542  1.00  0.00     0.293 HD
ENDBRANCH   6  22
BRANCH   8  24
ATOM     24  O   UNL     1     179.294 174.308 170.726  1.00  0.00    -0.508 OA
ATOM     25  H   UNL     1     180.222 174.704 170.630  1.00  0.00     0.293 HD
ENDBRANCH   8  24
TORSDOF 5
ENDMDL
