MODEL 1
REMARK VINA RESULT:    -4.452      0.000      0.000
REMARK INTER + INTRA:          -4.752
REMARK INTER:                  -4.842
REMARK INTRA:                   0.090
REMARK UNBOUND:                 0.090
REMARK SMILES C[C@@H]1[C@H]2C3=CC[C@H]4[C@]5(C)CC[C@H](O)C(C)(C)[C@@H]5CC[C@@]4(C)[C@]3(C)CC[C@]2(C(=O)[O-])CC[C@@H]1C
REMARK SMILES IDX 26 1 30 2 25 3 3 4 31 5 24 6 4 7 2 8 32 9 22 10 5 11 1 12
REMARK SMILES IDX 33 13 23 14 20 15 6 16 7 17 19 18 21 19 8 20 18 21 17 22
REMARK SMILES IDX 10 23 9 24 14 25 11 26 12 27 15 28 16 29 27 30 28 31 29 32
REMARK SMILES IDX 13 33
REMARK H PARENT 13 34
REMARK Flexibility Score: inf
ROOT
ATOM      1  C   UNL     1      -8.479  -2.935   8.898  1.00  0.00     0.017 C 
ATOM      2  C   UNL     1      -9.338  -2.099   7.909  1.00  0.00     0.014 C 
ATOM      3  C   UNL     1      -7.839  -4.108   8.147  1.00  0.00     0.014 C 
ATOM      4  C   UNL     1      -7.340  -2.003   9.436  1.00  0.00     0.030 C 
ATOM      5  C   UNL     1      -9.997  -0.898   8.610  1.00  0.00     0.004 C 
ATOM      6  C   UNL     1      -7.074  -5.015   9.117  1.00  0.00     0.013 C 
ATOM      7  C   UNL     1      -6.123  -2.767  10.038  1.00  0.00    -0.063 C 
ATOM      8  C   UNL     1      -8.011  -0.817  10.250  1.00  0.00    -0.003 C 
ATOM      9  C   UNL     1      -8.976   0.010   9.333  1.00  0.00    -0.011 C 
ATOM     10  C   UNL     1      -5.923  -4.311   9.949  1.00  0.00    -0.006 C 
ATOM     11  C   UNL     1      -5.036  -2.046  10.375  1.00  0.00    -0.027 C 
ATOM     12  C   UNL     1      -7.085   0.126  11.037  1.00  0.00     0.008 C 
ATOM     13  C   UNL     1      -8.260   0.932   8.323  1.00  0.00     0.008 C 
ATOM     14  C   UNL     1      -6.051  -4.864  11.402  1.00  0.00     0.017 C 
ATOM     15  C   UNL     1      -4.458  -4.656   9.311  1.00  0.00    -0.020 C 
ATOM     16  C   UNL     1      -3.769  -2.668  10.857  1.00  0.00     0.032 C 
ATOM     17  C   UNL     1      -3.265  -3.718   9.835  1.00  0.00     0.006 C 
ATOM     18  C   UNL     1      -4.111  -6.162   9.520  1.00  0.00     0.008 C 
ATOM     19  C   UNL     1      -4.519  -4.419   7.764  1.00  0.00     0.012 C 
ATOM     20  C   UNL     1      -1.888  -4.425  10.247  1.00  0.00    -0.025 C 
ATOM     21  C   UNL     1      -3.347  -6.529  10.799  1.00  0.00     0.005 C 
ATOM     22  C   UNL     1      -2.146  -5.622  11.242  1.00  0.00     0.003 C 
ATOM     23  C   UNL     1      -1.123  -4.947   8.987  1.00  0.00     0.010 C 
ATOM     24  C   UNL     1      -0.981  -3.320  10.883  1.00  0.00     0.012 C 
ATOM     25  C   UNL     1      -0.848  -6.483  11.600  1.00  0.00    -0.006 C 
ATOM     26  C   UNL     1       0.139  -5.774   9.309  1.00  0.00     0.033 C 
ATOM     27  C   UNL     1      -0.120  -6.938  10.291  1.00  0.00     0.120 C 
ATOM     28  C   UNL     1      -1.216  -7.738  12.459  1.00  0.00     0.014 C 
ATOM     29  C   UNL     1       0.145  -5.681  12.506  1.00  0.00     0.014 C 
ENDROOT
BRANCH   1  30
ATOM     30  C   UNL     1      -9.413  -3.504   9.974  1.00  0.00     0.048 C 
ATOM     31  O   UNL     1      -9.182  -3.337  11.200  1.00  0.00    -0.550 OA
ATOM     32  O   UNL     1     -10.487  -4.309   9.606  1.00  0.00    -0.550 OA
ENDBRANCH   1  30
BRANCH  27  33
ATOM     33  O   UNL     1      -0.855  -7.937   9.630  1.00  0.00    -0.393 OA
ATOM     34  H   UNL     1      -1.149  -8.591  10.318  1.00  0.00     0.210 HD
ENDBRANCH  27  33
TORSDOF 2
ENDMDL
MODEL 2
REMARK VINA RESULT:    -4.298      8.442     10.775
REMARK INTER + INTRA:          -4.584
REMARK INTER:                  -4.683
REMARK INTRA:                   0.098
REMARK UNBOUND:                 0.090
REMARK SMILES C[C@@H]1[C@H]2C3=CC[C@H]4[C@]5(C)CC[C@H](O)C(C)(C)[C@@H]5CC[C@@]4(C)[C@]3(C)CC[C@]2(C(=O)[O-])CC[C@@H]1C
REMARK SMILES IDX 26 1 30 2 25 3 3 4 31 5 24 6 4 7 2 8 32 9 22 10 5 11 1 12
REMARK SMILES IDX 33 13 23 14 20 15 6 16 7 17 19 18 21 19 8 20 18 21 17 22
REMARK SMILES IDX 10 23 9 24 14 25 11 26 12 27 15 28 16 29 27 30 28 31 29 32
REMARK SMILES IDX 13 33
REMARK H PARENT 13 34
REMARK Flexibility Score: inf
ROOT
ATOM      1  C   UNL     1      -3.307   8.788   7.937  1.00  0.00     0.017 C 
ATOM      2  C   UNL     1      -3.751  10.277   7.926  1.00  0.00     0.014 C 
ATOM      3  C   UNL     1      -1.819   8.705   8.297  1.00  0.00     0.014 C 
ATOM      4  C   UNL     1      -4.134   8.059   9.051  1.00  0.00     0.030 C 
ATOM      5  C   UNL     1      -5.244  10.419   7.579  1.00  0.00     0.004 C 
ATOM      6  C   UNL     1      -1.325   7.257   8.210  1.00  0.00     0.013 C 
ATOM      7  C   UNL     1      -3.505   6.720   9.539  1.00  0.00    -0.063 C 
ATOM      8  C   UNL     1      -5.668   8.112   8.646  1.00  0.00    -0.003 C 
ATOM      9  C   UNL     1      -6.158   9.595   8.514  1.00  0.00    -0.011 C 
ATOM     10  C   UNL     1      -2.087   6.217   9.133  1.00  0.00    -0.006 C 
ATOM     11  C   UNL     1      -4.068   6.116  10.602  1.00  0.00    -0.027 C 
ATOM     12  C   UNL     1      -6.661   7.296   9.491  1.00  0.00     0.008 C 
ATOM     13  C   UNL     1      -6.352  10.323   9.861  1.00  0.00     0.008 C 
ATOM     14  C   UNL     1      -2.298   4.945   8.252  1.00  0.00     0.017 C 
ATOM     15  C   UNL     1      -1.204   5.875  10.465  1.00  0.00    -0.020 C 
ATOM     16  C   UNL     1      -3.497   4.890  11.234  1.00  0.00     0.032 C 
ATOM     17  C   UNL     1      -2.020   5.132  11.632  1.00  0.00     0.006 C 
ATOM     18  C   UNL     1       0.075   5.068  10.083  1.00  0.00     0.008 C 
ATOM     19  C   UNL     1      -0.715   7.221  11.098  1.00  0.00     0.012 C 
ATOM     20  C   UNL     1      -1.321   3.881  12.348  1.00  0.00    -0.025 C 
ATOM     21  C   UNL     1      -0.040   3.538  10.089  1.00  0.00     0.005 C 
ATOM     22  C   UNL     1      -0.790   2.847  11.281  1.00  0.00     0.003 C 
ATOM     23  C   UNL     1      -0.140   4.342  13.264  1.00  0.00     0.010 C 
ATOM     24  C   UNL     1      -2.389   3.245  13.299  1.00  0.00     0.012 C 
ATOM     25  C   UNL     1       0.051   1.632  11.891  1.00  0.00    -0.006 C 
ATOM     26  C   UNL     1       0.681   3.185  13.871  1.00  0.00     0.033 C 
ATOM     27  C   UNL     1       1.189   2.173  12.821  1.00  0.00     0.120 C 
ATOM     28  C   UNL     1       0.673   0.746  10.762  1.00  0.00     0.014 C 
ATOM     29  C   UNL     1      -0.861   0.643  12.691  1.00  0.00     0.014 C 
ENDROOT
BRANCH   1  30
ATOM     30  C   UNL     1      -3.492   8.226   6.521  1.00  0.00     0.048 C 
ATOM     31  O   UNL     1      -4.144   7.171   6.313  1.00  0.00    -0.550 OA
ATOM     32  O   UNL     1      -2.847   8.830   5.446  1.00  0.00    -0.550 OA
ENDBRANCH   1  30
BRANCH  27  33
ATOM     33  O   UNL     1       2.211   2.772  12.065  1.00  0.00    -0.393 OA
ATOM     34  H   UNL     1       1.776   3.364  11.397  1.00  0.00     0.210 HD
ENDBRANCH  27  33
TORSDOF 2
ENDMDL
MODEL 3
REMARK VINA RESULT:    -4.242      9.016     11.001
REMARK INTER + INTRA:          -4.523
REMARK INTER:                  -4.619
REMARK INTRA:                   0.096
REMARK UNBOUND:                 0.090
REMARK SMILES C[C@@H]1[C@H]2C3=CC[C@H]4[C@]5(C)CC[C@H](O)C(C)(C)[C@@H]5CC[C@@]4(C)[C@]3(C)CC[C@]2(C(=O)[O-])CC[C@@H]1C
REMARK SMILES IDX 26 1 30 2 25 3 3 4 31 5 24 6 4 7 2 8 32 9 22 10 5 11 1 12
REMARK SMILES IDX 33 13 23 14 20 15 6 16 7 17 19 18 21 19 8 20 18 21 17 22
REMARK SMILES IDX 10 23 9 24 14 25 11 26 12 27 15 28 16 29 27 30 28 31 29 32
REMARK SMILES IDX 13 33
REMARK H PARENT 13 34
REMARK Flexibility Score: inf
ROOT
ATOM      1  C   UNL     1      -3.181   8.464   8.958  1.00  0.00     0.017 C 
ATOM      2  C   UNL     1      -3.932   9.129   7.772  1.00  0.00     0.014 C 
ATOM      3  C   UNL     1      -3.788   7.084   9.234  1.00  0.00     0.014 C 
ATOM      4  C   UNL     1      -1.686   8.277   8.524  1.00  0.00     0.030 C 
ATOM      5  C   UNL     1      -3.354  10.517   7.444  1.00  0.00     0.004 C 
ATOM      6  C   UNL     1      -3.141   6.449  10.470  1.00  0.00     0.013 C 
ATOM      7  C   UNL     1      -0.909   7.216   9.358  1.00  0.00    -0.063 C 
ATOM      8  C   UNL     1      -1.055   9.714   8.285  1.00  0.00    -0.003 C 
ATOM      9  C   UNL     1      -1.834  10.485   7.166  1.00  0.00    -0.011 C 
ATOM     10  C   UNL     1      -1.568   6.260  10.398  1.00  0.00    -0.006 C 
ATOM     11  C   UNL     1       0.329   6.882   8.946  1.00  0.00    -0.027 C 
ATOM     12  C   UNL     1       0.461   9.798   8.035  1.00  0.00     0.008 C 
ATOM     13  C   UNL     1      -1.557   9.979   5.734  1.00  0.00     0.008 C 
ATOM     14  C   UNL     1      -1.027   6.683  11.800  1.00  0.00     0.017 C 
ATOM     15  C   UNL     1      -1.189   4.706  10.060  1.00  0.00    -0.020 C 
ATOM     16  C   UNL     1       1.134   5.803   9.590  1.00  0.00     0.032 C 
ATOM     17  C   UNL     1       0.333   4.476   9.606  1.00  0.00     0.006 C 
ATOM     18  C   UNL     1      -1.556   3.780  11.261  1.00  0.00     0.008 C 
ATOM     19  C   UNL     1      -2.057   4.235   8.846  1.00  0.00     0.012 C 
ATOM     20  C   UNL     1       1.124   3.242  10.254  1.00  0.00    -0.025 C 
ATOM     21  C   UNL     1      -0.466   3.540  12.313  1.00  0.00     0.005 C 
ATOM     22  C   UNL     1       0.998   3.255  11.826  1.00  0.00     0.003 C 
ATOM     23  C   UNL     1       0.596   1.879   9.696  1.00  0.00     0.010 C 
ATOM     24  C   UNL     1       2.612   3.358   9.784  1.00  0.00     0.012 C 
ATOM     25  C   UNL     1       1.633   1.983  12.556  1.00  0.00    -0.006 C 
ATOM     26  C   UNL     1       1.201   0.636  10.382  1.00  0.00     0.033 C 
ATOM     27  C   UNL     1       1.082   0.662  11.921  1.00  0.00     0.120 C 
ATOM     28  C   UNL     1       1.326   1.995  14.091  1.00  0.00     0.014 C 
ATOM     29  C   UNL     1       3.196   1.995  12.482  1.00  0.00     0.014 C 
ENDROOT
BRANCH   1  30
ATOM     30  C   UNL     1      -3.389   9.339  10.202  1.00  0.00     0.048 C 
ATOM     31  O   UNL     1      -2.417   9.753  10.885  1.00  0.00    -0.550 OA
ATOM     32  O   UNL     1      -4.678   9.605  10.654  1.00  0.00    -0.550 OA
ENDBRANCH   1  30
BRANCH  27  33
ATOM     33  O   UNL     1      -0.262   0.456  12.279  1.00  0.00    -0.393 OA
ATOM     34  H   UNL     1      -0.734   1.321  12.161  1.00  0.00     0.210 HD
ENDBRANCH  27  33
TORSDOF 2
ENDMDL
MODEL 4
REMARK VINA RESULT:    -4.157      9.289     13.439
REMARK INTER + INTRA:          -4.431
REMARK INTER:                  -4.526
REMARK INTRA:                   0.095
REMARK UNBOUND:                 0.090
REMARK SMILES C[C@@H]1[C@H]2C3=CC[C@H]4[C@]5(C)CC[C@H](O)C(C)(C)[C@@H]5CC[C@@]4(C)[C@]3(C)CC[C@]2(C(=O)[O-])CC[C@@H]1C
REMARK SMILES IDX 26 1 30 2 25 3 3 4 31 5 24 6 4 7 2 8 32 9 22 10 5 11 1 12
REMARK SMILES IDX 33 13 23 14 20 15 6 16 7 17 19 18 21 19 8 20 18 21 17 22
REMARK SMILES IDX 10 23 9 24 14 25 11 26 12 27 15 28 16 29 27 30 28 31 29 32
REMARK SMILES IDX 13 33
REMARK H PARENT 13 34
REMARK Flexibility Score: inf
ROOT
ATOM      1  C   UNL     1       3.525   5.695   9.392  1.00  0.00     0.017 C 
ATOM      2  C   UNL     1       4.578   5.514   8.265  1.00  0.00     0.014 C 
ATOM      3  C   UNL     1       2.792   7.026   9.193  1.00  0.00     0.014 C 
ATOM      4  C   UNL     1       2.488   4.527   9.259  1.00  0.00     0.030 C 
ATOM      5  C   UNL     1       5.339   4.184   8.410  1.00  0.00     0.004 C 
ATOM      6  C   UNL     1       1.822   7.285  10.352  1.00  0.00     0.013 C 
ATOM      7  C   UNL     1       1.126   4.801   9.963  1.00  0.00    -0.063 C 
ATOM      8  C   UNL     1       3.248   3.156   9.511  1.00  0.00    -0.003 C 
ATOM      9  C   UNL     1       4.399   2.958   8.467  1.00  0.00    -0.011 C 
ATOM     10  C   UNL     1       0.715   6.173  10.579  1.00  0.00    -0.006 C 
ATOM     11  C   UNL     1       0.128   3.919   9.761  1.00  0.00    -0.027 C 
ATOM     12  C   UNL     1       2.401   1.877   9.621  1.00  0.00     0.008 C 
ATOM     13  C   UNL     1       3.915   2.582   7.050  1.00  0.00     0.008 C 
ATOM     14  C   UNL     1       0.634   5.965  12.123  1.00  0.00     0.017 C 
ATOM     15  C   UNL     1      -0.722   6.659   9.970  1.00  0.00    -0.020 C 
ATOM     16  C   UNL     1      -1.253   4.122  10.287  1.00  0.00     0.032 C 
ATOM     17  C   UNL     1      -1.809   5.489   9.814  1.00  0.00     0.006 C 
ATOM     18  C   UNL     1      -1.299   7.843  10.807  1.00  0.00     0.008 C 
ATOM     19  C   UNL     1      -0.491   7.203   8.520  1.00  0.00     0.012 C 
ATOM     20  C   UNL     1      -3.305   5.792  10.303  1.00  0.00    -0.025 C 
ATOM     21  C   UNL     1      -2.218   7.482  11.981  1.00  0.00     0.005 C 
ATOM     22  C   UNL     1      -3.310   6.377  11.767  1.00  0.00     0.003 C 
ATOM     23  C   UNL     1      -4.023   6.789   9.337  1.00  0.00     0.010 C 
ATOM     24  C   UNL     1      -4.097   4.445  10.207  1.00  0.00     0.012 C 
ATOM     25  C   UNL     1      -4.745   6.846  12.293  1.00  0.00    -0.006 C 
ATOM     26  C   UNL     1      -5.414   7.251   9.820  1.00  0.00     0.033 C 
ATOM     27  C   UNL     1      -5.412   7.813  11.258  1.00  0.00     0.120 C 
ATOM     28  C   UNL     1      -4.638   7.557  13.683  1.00  0.00     0.014 C 
ATOM     29  C   UNL     1      -5.688   5.627  12.563  1.00  0.00     0.014 C 
ENDROOT
BRANCH   1  30
ATOM     30  C   UNL     1       4.269   5.750  10.734  1.00  0.00     0.048 C 
ATOM     31  O   UNL     1       3.956   4.996  11.690  1.00  0.00    -0.550 OA
ATOM     32  O   UNL     1       5.246   6.718  10.945  1.00  0.00    -0.550 OA
ENDBRANCH   1  30
BRANCH  27  33
ATOM     33  O   UNL     1      -4.772   9.065  11.258  1.00  0.00    -0.393 OA
ATOM     34  H   UNL     1      -5.465   9.750  11.450  1.00  0.00     0.210 HD
ENDBRANCH  27  33
TORSDOF 2
ENDMDL
MODEL 5
REMARK VINA RESULT:    -4.086      8.442     12.838
REMARK INTER + INTRA:          -4.354
REMARK INTER:                  -4.447
REMARK INTRA:                   0.094
REMARK UNBOUND:                 0.090
REMARK SMILES C[C@@H]1[C@H]2C3=CC[C@H]4[C@]5(C)CC[C@H](O)C(C)(C)[C@@H]5CC[C@@]4(C)[C@]3(C)CC[C@]2(C(=O)[O-])CC[C@@H]1C
REMARK SMILES IDX 26 1 30 2 25 3 3 4 31 5 24 6 4 7 2 8 32 9 22 10 5 11 1 12
REMARK SMILES IDX 33 13 23 14 20 15 6 16 7 17 19 18 21 19 8 20 18 21 17 22
REMARK SMILES IDX 10 23 9 24 14 25 11 26 12 27 15 28 16 29 27 30 28 31 29 32
REMARK SMILES IDX 13 33
REMARK H PARENT 13 34
REMARK Flexibility Score: inf
ROOT
ATOM      1  C   UNL     1       4.155   2.029  11.765  1.00  0.00     0.017 C 
ATOM      2  C   UNL     1       5.406   1.275  11.236  1.00  0.00     0.014 C 
ATOM      3  C   UNL     1       4.353   3.537  11.571  1.00  0.00     0.014 C 
ATOM      4  C   UNL     1       2.929   1.570  10.904  1.00  0.00     0.030 C 
ATOM      5  C   UNL     1       5.256  -0.249  11.397  1.00  0.00     0.004 C 
ATOM      6  C   UNL     1       3.183   4.316  12.183  1.00  0.00     0.013 C 
ATOM      7  C   UNL     1       1.716   2.545  10.951  1.00  0.00    -0.063 C 
ATOM      8  C   UNL     1       2.705   0.017  11.147  1.00  0.00    -0.003 C 
ATOM      9  C   UNL     1       3.976  -0.800  10.729  1.00  0.00    -0.011 C 
ATOM     10  C   UNL     1       1.748   3.957  11.612  1.00  0.00    -0.006 C 
ATOM     11  C   UNL     1       0.687   2.305  10.115  1.00  0.00    -0.027 C 
ATOM     12  C   UNL     1       1.439  -0.626  10.555  1.00  0.00     0.008 C 
ATOM     13  C   UNL     1       4.174  -0.932   9.204  1.00  0.00     0.008 C 
ATOM     14  C   UNL     1       0.803   3.892  12.853  1.00  0.00     0.017 C 
ATOM     15  C   UNL     1       1.251   5.093  10.548  1.00  0.00    -0.020 C 
ATOM     16  C   UNL     1      -0.482   3.223   9.984  1.00  0.00     0.032 C 
ATOM     17  C   UNL     1      -0.001   4.656   9.643  1.00  0.00     0.006 C 
ATOM     18  C   UNL     1       0.963   6.440  11.280  1.00  0.00     0.008 C 
ATOM     19  C   UNL     1       2.413   5.370   9.536  1.00  0.00     0.012 C 
ATOM     20  C   UNL     1      -1.187   5.716   9.451  1.00  0.00    -0.025 C 
ATOM     21  C   UNL     1      -0.469   6.665  11.784  1.00  0.00     0.005 C 
ATOM     22  C   UNL     1      -1.664   6.284  10.843  1.00  0.00     0.003 C 
ATOM     23  C   UNL     1      -0.743   6.897   8.527  1.00  0.00     0.010 C 
ATOM     24  C   UNL     1      -2.339   4.978   8.692  1.00  0.00     0.012 C 
ATOM     25  C   UNL     1      -2.747   7.456  10.749  1.00  0.00    -0.006 C 
ATOM     26  C   UNL     1      -1.776   8.038   8.415  1.00  0.00     0.033 C 
ATOM     27  C   UNL     1      -2.246   8.581   9.782  1.00  0.00     0.120 C 
ATOM     28  C   UNL     1      -3.047   8.069  12.157  1.00  0.00     0.014 C 
ATOM     29  C   UNL     1      -4.136   6.922  10.264  1.00  0.00     0.014 C 
ENDROOT
BRANCH   1  30
ATOM     30  C   UNL     1       4.032   1.749  13.269  1.00  0.00     0.048 C 
ATOM     31  O   UNL     1       2.967   1.304  13.769  1.00  0.00    -0.550 OA
ATOM     32  O   UNL     1       5.077   2.084  14.125  1.00  0.00    -0.550 OA
ENDBRANCH   1  30
BRANCH  27  33
ATOM     33  O   UNL     1      -1.198   9.314  10.367  1.00  0.00    -0.393 OA
ATOM     34  H   UNL     1      -0.779   9.854   9.647  1.00  0.00     0.210 HD
ENDBRANCH  27  33
TORSDOF 2
ENDMDL
MODEL 6
REMARK VINA RESULT:    -4.081      1.592      7.868
REMARK INTER + INTRA:          -4.349
REMARK INTER:                  -4.446
REMARK INTRA:                   0.097
REMARK UNBOUND:                 0.090
REMARK SMILES C[C@@H]1[C@H]2C3=CC[C@H]4[C@]5(C)CC[C@H](O)C(C)(C)[C@@H]5CC[C@@]4(C)[C@]3(C)CC[C@]2(C(=O)[O-])CC[C@@H]1C
REMARK SMILES IDX 26 1 30 2 25 3 3 4 31 5 24 6 4 7 2 8 32 9 22 10 5 11 1 12
REMARK SMILES IDX 33 13 23 14 20 15 6 16 7 17 19 18 21 19 8 20 18 21 17 22
REMARK SMILES IDX 10 23 9 24 14 25 11 26 12 27 15 28 16 29 27 30 28 31 29 32
REMARK SMILES IDX 13 33
REMARK H PARENT 13 34
REMARK Flexibility Score: inf
ROOT
ATOM      1  C   UNL     1      -3.766  -6.921   9.112  1.00  0.00     0.017 C 
ATOM      2  C   UNL     1      -3.167  -8.125   9.889  1.00  0.00     0.014 C 
ATOM      3  C   UNL     1      -5.290  -7.072   9.039  1.00  0.00     0.014 C 
ATOM      4  C   UNL     1      -3.429  -5.622   9.921  1.00  0.00     0.030 C 
ATOM      5  C   UNL     1      -1.635  -8.019  10.002  1.00  0.00     0.004 C 
ATOM      6  C   UNL     1      -5.901  -5.956   8.183  1.00  0.00     0.013 C 
ATOM      7  C   UNL     1      -4.335  -4.403   9.578  1.00  0.00    -0.063 C 
ATOM      8  C   UNL     1      -1.851  -5.452   9.952  1.00  0.00    -0.003 C 
ATOM      9  C   UNL     1      -1.171  -6.688  10.634  1.00  0.00    -0.011 C 
ATOM     10  C   UNL     1      -5.601  -4.478   8.671  1.00  0.00    -0.006 C 
ATOM     11  C   UNL     1      -4.215  -3.300  10.341  1.00  0.00    -0.027 C 
ATOM     12  C   UNL     1      -1.282  -4.144  10.529  1.00  0.00     0.008 C 
ATOM     13  C   UNL     1      -1.328  -6.733  12.169  1.00  0.00     0.008 C 
ATOM     14  C   UNL     1      -5.275  -3.664   7.379  1.00  0.00     0.017 C 
ATOM     15  C   UNL     1      -6.895  -3.856   9.452  1.00  0.00    -0.020 C 
ATOM     16  C   UNL     1      -5.099  -2.108  10.186  1.00  0.00     0.032 C 
ATOM     17  C   UNL     1      -6.587  -2.527  10.298  1.00  0.00     0.006 C 
ATOM     18  C   UNL     1      -8.074  -3.620   8.458  1.00  0.00     0.008 C 
ATOM     19  C   UNL     1      -7.395  -4.905  10.501  1.00  0.00     0.012 C 
ATOM     20  C   UNL     1      -7.621  -1.310  10.174  1.00  0.00    -0.025 C 
ATOM     21  C   UNL     1      -8.151  -2.243   7.785  1.00  0.00     0.005 C 
ATOM     22  C   UNL     1      -7.906  -0.965   8.662  1.00  0.00     0.003 C 
ATOM     23  C   UNL     1      -8.967  -1.637  10.900  1.00  0.00     0.010 C 
ATOM     24  C   UNL     1      -6.994  -0.099  10.943  1.00  0.00     0.012 C 
ATOM     25  C   UNL     1      -9.036   0.142   8.432  1.00  0.00    -0.006 C 
ATOM     26  C   UNL     1     -10.071  -0.578  10.698  1.00  0.00     0.033 C 
ATOM     27  C   UNL     1     -10.337  -0.239   9.215  1.00  0.00     0.120 C 
ATOM     28  C   UNL     1      -9.369   0.309   6.912  1.00  0.00     0.014 C 
ATOM     29  C   UNL     1      -8.551   1.563   8.871  1.00  0.00     0.014 C 
ENDROOT
BRANCH   1  30
ATOM     30  C   UNL     1      -3.210  -6.955   7.681  1.00  0.00     0.048 C 
ATOM     31  O   UNL     1      -2.656  -5.949   7.168  1.00  0.00    -0.550 OA
ATOM     32  O   UNL     1      -3.405  -8.082   6.889  1.00  0.00    -0.550 OA
ENDBRANCH   1  30
BRANCH  27  33
ATOM     33  O   UNL     1     -10.987  -1.328   8.608  1.00  0.00    -0.393 OA
ATOM     34  H   UNL     1     -11.895  -1.022   8.350  1.00  0.00     0.210 HD
ENDBRANCH  27  33
TORSDOF 2
ENDMDL
MODEL 7
REMARK VINA RESULT:    -4.003      8.089     12.167
REMARK INTER + INTRA:          -4.264
REMARK INTER:                  -4.359
REMARK INTRA:                   0.096
REMARK UNBOUND:                 0.090
REMARK SMILES C[C@@H]1[C@H]2C3=CC[C@H]4[C@]5(C)CC[C@H](O)C(C)(C)[C@@H]5CC[C@@]4(C)[C@]3(C)CC[C@]2(C(=O)[O-])CC[C@@H]1C
REMARK SMILES IDX 26 1 30 2 25 3 3 4 31 5 24 6 4 7 2 8 32 9 22 10 5 11 1 12
REMARK SMILES IDX 33 13 23 14 20 15 6 16 7 17 19 18 21 19 8 20 18 21 17 22
REMARK SMILES IDX 10 23 9 24 14 25 11 26 12 27 15 28 16 29 27 30 28 31 29 32
REMARK SMILES IDX 13 33
REMARK H PARENT 13 34
REMARK Flexibility Score: inf
ROOT
ATOM      1  C   UNL     1       3.237  -0.744  12.020  1.00  0.00     0.017 C 
ATOM      2  C   UNL     1       4.249  -1.447  12.965  1.00  0.00     0.014 C 
ATOM      3  C   UNL     1       2.071  -0.188  12.847  1.00  0.00     0.014 C 
ATOM      4  C   UNL     1       3.983   0.454  11.337  1.00  0.00     0.030 C 
ATOM      5  C   UNL     1       5.448  -2.016  12.186  1.00  0.00     0.004 C 
ATOM      6  C   UNL     1       1.001   0.416  11.930  1.00  0.00     0.013 C 
ATOM      7  C   UNL     1       3.037   1.543  10.751  1.00  0.00    -0.063 C 
ATOM      8  C   UNL     1       5.159  -0.135  10.448  1.00  0.00    -0.003 C 
ATOM      9  C   UNL     1       6.167  -0.950  11.329  1.00  0.00    -0.011 C 
ATOM     10  C   UNL     1       1.495   1.583  10.978  1.00  0.00    -0.006 C 
ATOM     11  C   UNL     1       3.599   2.678  10.292  1.00  0.00    -0.027 C 
ATOM     12  C   UNL     1       5.917   0.836   9.528  1.00  0.00     0.008 C 
ATOM     13  C   UNL     1       7.090  -0.080  12.208  1.00  0.00     0.008 C 
ATOM     14  C   UNL     1       0.831   1.308   9.592  1.00  0.00     0.017 C 
ATOM     15  C   UNL     1       1.047   3.039  11.571  1.00  0.00    -0.020 C 
ATOM     16  C   UNL     1       2.798   3.840   9.808  1.00  0.00     0.032 C 
ATOM     17  C   UNL     1       1.795   4.290  10.899  1.00  0.00     0.006 C 
ATOM     18  C   UNL     1      -0.502   3.209  11.490  1.00  0.00     0.008 C 
ATOM     19  C   UNL     1       1.428   3.097  13.088  1.00  0.00     0.012 C 
ATOM     20  C   UNL     1       0.903   5.556  10.488  1.00  0.00    -0.025 C 
ATOM     21  C   UNL     1      -1.065   3.851  10.215  1.00  0.00     0.005 C 
ATOM     22  C   UNL     1      -0.341   5.112   9.627  1.00  0.00     0.003 C 
ATOM     23  C   UNL     1       0.415   6.337  11.751  1.00  0.00     0.010 C 
ATOM     24  C   UNL     1       1.839   6.536   9.703  1.00  0.00     0.012 C 
ATOM     25  C   UNL     1      -1.371   6.287   9.288  1.00  0.00    -0.006 C 
ATOM     26  C   UNL     1      -0.574   7.482  11.448  1.00  0.00     0.033 C 
ATOM     27  C   UNL     1      -1.784   7.040  10.596  1.00  0.00     0.120 C 
ATOM     28  C   UNL     1      -2.649   5.736   8.573  1.00  0.00     0.014 C 
ATOM     29  C   UNL     1      -0.770   7.302   8.260  1.00  0.00     0.014 C 
ENDROOT
BRANCH   1  30
ATOM     30  C   UNL     1       2.681  -1.797  11.051  1.00  0.00     0.048 C 
ATOM     31  O   UNL     1       2.707  -1.623   9.806  1.00  0.00    -0.550 OA
ATOM     32  O   UNL     1       2.040  -2.927  11.550  1.00  0.00    -0.550 OA
ENDBRANCH   1  30
BRANCH  27  33
ATOM     33  O   UNL     1      -2.632   6.245  11.386  1.00  0.00    -0.393 OA
ATOM     34  H   UNL     1      -2.054   5.658  11.941  1.00  0.00     0.210 HD
ENDBRANCH  27  33
TORSDOF 2
ENDMDL
MODEL 8
REMARK VINA RESULT:    -3.969      1.566      2.144
REMARK INTER + INTRA:          -4.226
REMARK INTER:                  -4.322
REMARK INTRA:                   0.095
REMARK UNBOUND:                 0.090
REMARK SMILES C[C@@H]1[C@H]2C3=CC[C@H]4[C@]5(C)CC[C@H](O)C(C)(C)[C@@H]5CC[C@@]4(C)[C@]3(C)CC[C@]2(C(=O)[O-])CC[C@@H]1C
REMARK SMILES IDX 26 1 30 2 25 3 3 4 31 5 24 6 4 7 2 8 32 9 22 10 5 11 1 12
REMARK SMILES IDX 33 13 23 14 20 15 6 16 7 17 19 18 21 19 8 20 18 21 17 22
REMARK SMILES IDX 10 23 9 24 14 25 11 26 12 27 15 28 16 29 27 30 28 31 29 32
REMARK SMILES IDX 13 33
REMARK H PARENT 13 34
REMARK Flexibility Score: inf
ROOT
ATOM      1  C   UNL     1      -9.325  -0.886   9.653  1.00  0.00     0.017 C 
ATOM      2  C   UNL     1      -9.980   0.293   8.882  1.00  0.00     0.014 C 
ATOM      3  C   UNL     1      -9.203  -2.096   8.720  1.00  0.00     0.014 C 
ATOM      4  C   UNL     1      -7.886  -0.432  10.076  1.00  0.00     0.030 C 
ATOM      5  C   UNL     1     -10.117   1.542   9.772  1.00  0.00     0.004 C 
ATOM      6  C   UNL     1      -8.662  -3.311   9.482  1.00  0.00     0.013 C 
ATOM      7  C   UNL     1      -6.921  -1.606  10.414  1.00  0.00    -0.063 C 
ATOM      8  C   UNL     1      -8.025   0.792  11.077  1.00  0.00    -0.003 C 
ATOM      9  C   UNL     1      -8.774   1.987  10.393  1.00  0.00    -0.011 C 
ATOM     10  C   UNL     1      -7.249  -3.111  10.173  1.00  0.00    -0.006 C 
ATOM     11  C   UNL     1      -5.625  -1.308  10.630  1.00  0.00    -0.027 C 
ATOM     12  C   UNL     1      -6.751   1.292  11.779  1.00  0.00     0.008 C 
ATOM     13  C   UNL     1      -7.928   2.759   9.358  1.00  0.00     0.008 C 
ATOM     14  C   UNL     1      -7.369  -3.775  11.580  1.00  0.00     0.017 C 
ATOM     15  C   UNL     1      -6.069  -3.813   9.285  1.00  0.00    -0.020 C 
ATOM     16  C   UNL     1      -4.581  -2.350  10.855  1.00  0.00     0.032 C 
ATOM     17  C   UNL     1      -4.580  -3.368   9.686  1.00  0.00     0.006 C 
ATOM     18  C   UNL     1      -6.211  -5.366   9.317  1.00  0.00     0.008 C 
ATOM     19  C   UNL     1      -6.242  -3.376   7.792  1.00  0.00     0.012 C 
ATOM     20  C   UNL     1      -3.470  -4.515   9.817  1.00  0.00    -0.025 C 
ATOM     21  C   UNL     1      -5.455  -6.111  10.426  1.00  0.00     0.005 C 
ATOM     22  C   UNL     1      -3.979  -5.686  10.743  1.00  0.00     0.003 C 
ATOM     23  C   UNL     1      -3.080  -5.086   8.415  1.00  0.00     0.010 C 
ATOM     24  C   UNL     1      -2.179  -3.837  10.386  1.00  0.00     0.012 C 
ATOM     25  C   UNL     1      -2.999  -6.948  10.821  1.00  0.00    -0.006 C 
ATOM     26  C   UNL     1      -2.129  -6.300   8.465  1.00  0.00     0.033 C 
ATOM     27  C   UNL     1      -2.630  -7.438   9.381  1.00  0.00     0.120 C 
ATOM     28  C   UNL     1      -3.647  -8.123  11.626  1.00  0.00     0.014 C 
ATOM     29  C   UNL     1      -1.694  -6.617  11.619  1.00  0.00     0.014 C 
ENDROOT
BRANCH   1  30
ATOM     30  C   UNL     1     -10.252  -1.267  10.816  1.00  0.00     0.048 C 
ATOM     31  O   UNL     1      -9.827  -1.340  11.998  1.00  0.00    -0.550 OA
ATOM     32  O   UNL     1     -11.568  -1.639  10.560  1.00  0.00    -0.550 OA
ENDBRANCH   1  30
BRANCH  27  33
ATOM     33  O   UNL     1      -3.727  -8.067   8.769  1.00  0.00    -0.393 OA
ATOM     34  H   UNL     1      -4.498  -7.444   8.833  1.00  0.00     0.210 HD
ENDBRANCH  27  33
TORSDOF 2
ENDMDL
MODEL 9
REMARK VINA RESULT:    -3.858      2.758      4.365
REMARK INTER + INTRA:          -4.106
REMARK INTER:                  -4.199
REMARK INTRA:                   0.092
REMARK UNBOUND:                 0.090
REMARK SMILES C[C@@H]1[C@H]2C3=CC[C@H]4[C@]5(C)CC[C@H](O)C(C)(C)[C@@H]5CC[C@@]4(C)[C@]3(C)CC[C@]2(C(=O)[O-])CC[C@@H]1C
REMARK SMILES IDX 26 1 30 2 25 3 3 4 31 5 24 6 4 7 2 8 32 9 22 10 5 11 1 12
REMARK SMILES IDX 33 13 23 14 20 15 6 16 7 17 19 18 21 19 8 20 18 21 17 22
REMARK SMILES IDX 10 23 9 24 14 25 11 26 12 27 15 28 16 29 27 30 28 31 29 32
REMARK SMILES IDX 13 33
REMARK H PARENT 13 34
REMARK Flexibility Score: inf
ROOT
ATOM      1  C   UNL     1      -9.038   0.912  10.710  1.00  0.00     0.017 C 
ATOM      2  C   UNL     1      -9.230   2.423  10.405  1.00  0.00     0.014 C 
ATOM      3  C   UNL     1      -9.523   0.087   9.513  1.00  0.00     0.014 C 
ATOM      4  C   UNL     1      -7.503   0.661  10.903  1.00  0.00     0.030 C 
ATOM      5  C   UNL     1      -8.747   3.301  11.573  1.00  0.00     0.004 C 
ATOM      6  C   UNL     1      -9.449  -1.412   9.827  1.00  0.00     0.013 C 
ATOM      7  C   UNL     1      -7.074  -0.826  10.733  1.00  0.00    -0.063 C 
ATOM      8  C   UNL     1      -7.020   1.484  12.172  1.00  0.00    -0.003 C 
ATOM      9  C   UNL     1      -7.282   3.017  11.973  1.00  0.00    -0.011 C 
ATOM     10  C   UNL     1      -8.014  -1.959  10.219  1.00  0.00    -0.006 C 
ATOM     11  C   UNL     1      -5.755  -1.100  10.725  1.00  0.00    -0.027 C 
ATOM     12  C   UNL     1      -5.586   1.249  12.676  1.00  0.00     0.008 C 
ATOM     13  C   UNL     1      -6.310   3.705  10.991  1.00  0.00     0.008 C 
ATOM     14  C   UNL     1      -8.244  -2.929  11.420  1.00  0.00     0.017 C 
ATOM     15  C   UNL     1      -7.328  -2.734   8.954  1.00  0.00    -0.020 C 
ATOM     16  C   UNL     1      -5.212  -2.464  10.461  1.00  0.00     0.032 C 
ATOM     17  C   UNL     1      -5.753  -3.004   9.113  1.00  0.00     0.006 C 
ATOM     18  C   UNL     1      -8.089  -4.060   8.646  1.00  0.00     0.008 C 
ATOM     19  C   UNL     1      -7.465  -1.831   7.683  1.00  0.00     0.012 C 
ATOM     20  C   UNL     1      -5.204  -4.457   8.722  1.00  0.00    -0.025 C 
ATOM     21  C   UNL     1      -7.592  -5.328   9.353  1.00  0.00     0.005 C 
ATOM     22  C   UNL     1      -6.046  -5.586   9.431  1.00  0.00     0.003 C 
ATOM     23  C   UNL     1      -5.235  -4.674   7.173  1.00  0.00     0.010 C 
ATOM     24  C   UNL     1      -3.696  -4.502   9.139  1.00  0.00     0.012 C 
ATOM     25  C   UNL     1      -5.668  -7.076   8.991  1.00  0.00    -0.006 C 
ATOM     26  C   UNL     1      -4.865  -6.103   6.725  1.00  0.00     0.033 C 
ATOM     27  C   UNL     1      -5.688  -7.203   7.431  1.00  0.00     0.120 C 
ATOM     28  C   UNL     1      -6.650  -8.122   9.615  1.00  0.00     0.014 C 
ATOM     29  C   UNL     1      -4.265  -7.501   9.539  1.00  0.00     0.014 C 
ENDROOT
BRANCH   1  30
ATOM     30  C   UNL     1      -9.910   0.558  11.924  1.00  0.00     0.048 C 
ATOM     31  O   UNL     1      -9.427  -0.017  12.933  1.00  0.00    -0.550 OA
ATOM     32  O   UNL     1     -11.282   0.782  11.880  1.00  0.00    -0.550 OA
ENDBRANCH   1  30
BRANCH  27  33
ATOM     33  O   UNL     1      -7.005  -7.172   6.942  1.00  0.00    -0.393 OA
ATOM     34  H   UNL     1      -7.013  -7.672   6.084  1.00  0.00     0.210 HD
ENDBRANCH  27  33
TORSDOF 2
ENDMDL
