MODEL 1
REMARK VINA RESULT:    -6.742      0.000      0.000
REMARK INTER + INTRA:          -7.896
REMARK INTER:                  -8.121
REMARK INTRA:                   0.225
REMARK UNBOUND:                 0.225
REMARK SMILES O=c1c(O)c(-c2ccc(O)c(O)c2)oc2cc(O)cc(O)c12
REMARK SMILES IDX 5 1 3 2 2 3 1 4 22 5 20 6 19 7 17 8 16 9 15 10 14 11 6 12
REMARK SMILES IDX 7 13 8 14 9 15 13 16 11 17 10 18 12 20 4 22 21 24 18 26
REMARK H PARENT 10 19 12 21 4 23 21 25 18 27
REMARK Flexibility Score: inf
ROOT
ATOM      1  C   UNL     1       6.057  27.425  59.365  1.00  0.00     0.180 A 
ATOM      2  C   UNL     1       5.554  26.667  60.436  1.00  0.00     0.208 A 
ATOM      3  C   UNL     1       6.441  25.889  61.197  1.00  0.00     0.238 A 
ATOM      4  O   UNL     1       5.976  25.172  62.121  1.00  0.00    -0.285 OA
ATOM      5  C   UNL     1       7.823  25.891  60.888  1.00  0.00     0.111 A 
ATOM      6  C   UNL     1       8.817  25.172  61.617  1.00  0.00     0.134 A 
ATOM      7  C   UNL     1      10.134  25.144  61.142  1.00  0.00     0.093 A 
ATOM      8  C   UNL     1      10.506  25.859  60.004  1.00  0.00     0.123 A 
ATOM      9  C   UNL     1       9.554  26.613  59.318  1.00  0.00     0.094 A 
ATOM     10  C   UNL     1       8.224  26.633  59.746  1.00  0.00     0.146 A 
ATOM     11  O   UNL     1       7.347  27.354  59.059  1.00  0.00    -0.452 OA
ENDROOT
BRANCH   1  12
ATOM     12  C   UNL     1       5.187  28.288  58.533  1.00  0.00     0.025 A 
ATOM     13  C   UNL     1       5.643  29.517  58.030  1.00  0.00     0.016 A 
ATOM     14  C   UNL     1       4.813  30.302  57.227  1.00  0.00     0.051 A 
ATOM     15  C   UNL     1       3.523  29.874  56.901  1.00  0.00     0.157 A 
ATOM     16  C   UNL     1       3.901  27.846  58.189  1.00  0.00     0.062 A 
ATOM     17  C   UNL     1       3.060  28.628  57.386  1.00  0.00     0.158 A 
BRANCH  15  18
ATOM     18  O   UNL     1       2.742  30.708  56.099  1.00  0.00    -0.504 OA
ATOM     19  H   UNL     1       2.390  31.609  56.393  1.00  0.00     0.293 HD
ENDBRANCH  15  18
BRANCH  17  20
ATOM     20  O   UNL     1       1.789  28.129  57.095  1.00  0.00    -0.504 OA
ATOM     21  H   UNL     1       1.592  27.494  56.334  1.00  0.00     0.293 HD
ENDBRANCH  17  20
ENDBRANCH   1  12
BRANCH   2  22
ATOM     22  O   UNL     1       4.182  26.663  60.711  1.00  0.00    -0.502 OA
ATOM     23  H   UNL     1       3.484  26.526  59.990  1.00  0.00     0.293 HD
ENDBRANCH   2  22
BRANCH   6  24
ATOM     24  O   UNL     1       8.571  24.500  62.817  1.00  0.00    -0.507 OA
ATOM     25  H   UNL     1       9.039  24.690  63.689  1.00  0.00     0.293 HD
ENDBRANCH   6  24
BRANCH   8  26
ATOM     26  O   UNL     1      11.829  25.819  59.570  1.00  0.00    -0.508 OA
ATOM     27  H   UNL     1      12.455  25.070  59.843  1.00  0.00     0.293 HD
ENDBRANCH   8  26
TORSDOF 6
ENDMDL
MODEL 2
REMARK VINA RESULT:    -6.249      1.533      3.358
REMARK INTER + INTRA:          -7.302
REMARK INTER:                  -7.467
REMARK INTRA:                   0.164
REMARK UNBOUND:                 0.225
REMARK SMILES O=c1c(O)c(-c2ccc(O)c(O)c2)oc2cc(O)cc(O)c12
REMARK SMILES IDX 5 1 3 2 2 3 1 4 22 5 20 6 19 7 17 8 16 9 15 10 14 11 6 12
REMARK SMILES IDX 7 13 8 14 9 15 13 16 11 17 10 18 12 20 4 22 21 24 18 26
REMARK H PARENT 10 19 12 21 4 23 21 25 18 27
REMARK Flexibility Score: inf
ROOT
ATOM      1  C   UNL     1       5.648  27.102  59.689  1.00  0.00     0.180 A 
ATOM      2  C   UNL     1       7.025  26.839  59.576  1.00  0.00     0.208 A 
ATOM      3  C   UNL     1       7.610  25.891  60.430  1.00  0.00     0.238 A 
ATOM      4  O   UNL     1       8.852  25.699  60.360  1.00  0.00    -0.285 OA
ATOM      5  C   UNL     1       6.808  25.206  61.375  1.00  0.00     0.111 A 
ATOM      6  C   UNL     1       7.288  24.196  62.263  1.00  0.00     0.134 A 
ATOM      7  C   UNL     1       6.434  23.678  63.245  1.00  0.00     0.093 A 
ATOM      8  C   UNL     1       5.103  24.085  63.330  1.00  0.00     0.123 A 
ATOM      9  C   UNL     1       4.608  25.028  62.429  1.00  0.00     0.094 A 
ATOM     10  C   UNL     1       5.445  25.590  61.461  1.00  0.00     0.146 A 
ATOM     11  O   UNL     1       4.938  26.492  60.629  1.00  0.00    -0.452 OA
ENDROOT
BRANCH   1  12
ATOM     12  C   UNL     1       4.956  28.070  58.807  1.00  0.00     0.025 A 
ATOM     13  C   UNL     1       5.564  29.278  58.429  1.00  0.00     0.016 A 
ATOM     14  C   UNL     1       4.901  30.164  57.576  1.00  0.00     0.051 A 
ATOM     15  C   UNL     1       3.631  29.859  57.077  1.00  0.00     0.157 A 
ATOM     16  C   UNL     1       3.691  27.753  58.290  1.00  0.00     0.062 A 
ATOM     17  C   UNL     1       3.018  28.636  57.436  1.00  0.00     0.158 A 
BRANCH  15  18
ATOM     18  O   UNL     1       3.021  30.790  56.233  1.00  0.00    -0.504 OA
ATOM     19  H   UNL     1       2.461  30.543  55.429  1.00  0.00     0.293 HD
ENDBRANCH  15  18
BRANCH  17  20
ATOM     20  O   UNL     1       1.757  28.258  56.970  1.00  0.00    -0.504 OA
ATOM     21  H   UNL     1       1.539  28.101  55.997  1.00  0.00     0.293 HD
ENDBRANCH  17  20
ENDBRANCH   1  12
BRANCH   2  22
ATOM     22  O   UNL     1       7.801  27.543  58.650  1.00  0.00    -0.502 OA
ATOM     23  H   UNL     1       7.417  27.914  57.789  1.00  0.00     0.293 HD
ENDBRANCH   2  22
BRANCH   6  24
ATOM     24  O   UNL     1       8.574  23.652  62.203  1.00  0.00    -0.507 OA
ATOM     25  H   UNL     1       9.267  23.733  62.931  1.00  0.00     0.293 HD
ENDBRANCH   6  24
BRANCH   8  26
ATOM     26  O   UNL     1       4.278  23.538  64.310  1.00  0.00    -0.508 OA
ATOM     27  H   UNL     1       3.444  23.014  64.069  1.00  0.00     0.293 HD
ENDBRANCH   8  26
TORSDOF 6
ENDMDL
MODEL 3
REMARK VINA RESULT:    -6.177      1.375      6.709
REMARK INTER + INTRA:          -7.216
REMARK INTER:                  -7.001
REMARK INTRA:                  -0.214
REMARK UNBOUND:                 0.225
REMARK SMILES O=c1c(O)c(-c2ccc(O)c(O)c2)oc2cc(O)cc(O)c12
REMARK SMILES IDX 5 1 3 2 2 3 1 4 22 5 20 6 19 7 17 8 16 9 15 10 14 11 6 12
REMARK SMILES IDX 7 13 8 14 9 15 13 16 11 17 10 18 12 20 4 22 21 24 18 26
REMARK H PARENT 10 19 12 21 4 23 21 25 18 27
REMARK Flexibility Score: inf
ROOT
ATOM      1  C   UNL     1       7.251  26.858  60.030  1.00  0.00     0.180 A 
ATOM      2  C   UNL     1       6.247  26.185  60.748  1.00  0.00     0.208 A 
ATOM      3  C   UNL     1       4.902  26.490  60.486  1.00  0.00     0.238 A 
ATOM      4  O   UNL     1       4.009  25.924  61.169  1.00  0.00    -0.285 OA
ATOM      5  C   UNL     1       4.577  27.451  59.498  1.00  0.00     0.111 A 
ATOM      6  C   UNL     1       3.247  27.808  59.121  1.00  0.00     0.134 A 
ATOM      7  C   UNL     1       3.045  28.865  58.224  1.00  0.00     0.093 A 
ATOM      8  C   UNL     1       4.121  29.532  57.642  1.00  0.00     0.123 A 
ATOM      9  C   UNL     1       5.426  29.152  57.958  1.00  0.00     0.094 A 
ATOM     10  C   UNL     1       5.661  28.125  58.876  1.00  0.00     0.146 A 
ATOM     11  O   UNL     1       6.917  27.800  59.158  1.00  0.00    -0.452 OA
ENDROOT
BRANCH   1  12
ATOM     12  C   UNL     1       8.691  26.573  60.234  1.00  0.00     0.025 A 
ATOM     13  C   UNL     1       9.457  25.938  59.245  1.00  0.00     0.016 A 
ATOM     14  C   UNL     1      10.818  25.702  59.450  1.00  0.00     0.051 A 
ATOM     15  C   UNL     1      11.442  26.104  60.636  1.00  0.00     0.157 A 
ATOM     16  C   UNL     1       9.318  26.995  61.416  1.00  0.00     0.062 A 
ATOM     17  C   UNL     1      10.683  26.762  61.631  1.00  0.00     0.158 A 
BRANCH  15  18
ATOM     18  O   UNL     1      12.804  25.834  60.781  1.00  0.00    -0.504 OA
ATOM     19  H   UNL     1      13.375  25.408  60.064  1.00  0.00     0.293 HD
ENDBRANCH  15  18
BRANCH  17  20
ATOM     20  O   UNL     1      11.236  27.201  62.836  1.00  0.00    -0.504 OA
ATOM     21  H   UNL     1      10.991  26.823  63.740  1.00  0.00     0.293 HD
ENDBRANCH  17  20
ENDBRANCH   1  12
BRANCH   2  22
ATOM     22  O   UNL     1       6.590  25.256  61.735  1.00  0.00    -0.502 OA
ATOM     23  H   UNL     1       6.213  24.315  61.750  1.00  0.00     0.293 HD
ENDBRANCH   2  22
BRANCH   6  24
ATOM     24  O   UNL     1       2.103  27.144  59.573  1.00  0.00    -0.507 OA
ATOM     25  H   UNL     1       1.967  26.146  59.539  1.00  0.00     0.293 HD
ENDBRANCH   6  24
BRANCH   8  26
ATOM     26  O   UNL     1       3.882  30.569  56.742  1.00  0.00    -0.508 OA
ATOM     27  H   UNL     1       4.169  30.506  55.772  1.00  0.00     0.293 HD
ENDBRANCH   8  26
TORSDOF 6
ENDMDL
MODEL 4
REMARK VINA RESULT:    -5.845      0.950      1.584
REMARK INTER + INTRA:          -6.815
REMARK INTER:                  -7.125
REMARK INTRA:                   0.310
REMARK UNBOUND:                 0.225
REMARK SMILES O=c1c(O)c(-c2ccc(O)c(O)c2)oc2cc(O)cc(O)c12
REMARK SMILES IDX 5 1 3 2 2 3 1 4 22 5 20 6 19 7 17 8 16 9 15 10 14 11 6 12
REMARK SMILES IDX 7 13 8 14 9 15 13 16 11 17 10 18 12 20 4 22 21 24 18 26
REMARK H PARENT 10 19 12 21 4 23 21 25 18 27
REMARK Flexibility Score: inf
ROOT
ATOM      1  C   UNL     1       6.453  26.987  59.714  1.00  0.00     0.180 A 
ATOM      2  C   UNL     1       6.092  26.366  60.923  1.00  0.00     0.208 A 
ATOM      3  C   UNL     1       7.079  25.701  61.667  1.00  0.00     0.238 A 
ATOM      4  O   UNL     1       6.740  25.102  62.721  1.00  0.00    -0.285 OA
ATOM      5  C   UNL     1       8.416  25.676  61.202  1.00  0.00     0.111 A 
ATOM      6  C   UNL     1       9.504  25.066  61.895  1.00  0.00     0.134 A 
ATOM      7  C   UNL     1      10.759  24.989  61.278  1.00  0.00     0.093 A 
ATOM      8  C   UNL     1      10.982  25.558  60.025  1.00  0.00     0.123 A 
ATOM      9  C   UNL     1       9.940  26.209  59.364  1.00  0.00     0.094 A 
ATOM     10  C   UNL     1       8.667  26.271  59.937  1.00  0.00     0.146 A 
ATOM     11  O   UNL     1       7.700  26.891  59.272  1.00  0.00    -0.452 OA
ENDROOT
BRANCH   1  12
ATOM     12  C   UNL     1       5.473  27.729  58.887  1.00  0.00     0.025 A 
ATOM     13  C   UNL     1       4.106  27.411  58.911  1.00  0.00     0.016 A 
ATOM     14  C   UNL     1       3.198  28.140  58.141  1.00  0.00     0.051 A 
ATOM     15  C   UNL     1       3.631  29.206  57.345  1.00  0.00     0.157 A 
ATOM     16  C   UNL     1       5.907  28.811  58.105  1.00  0.00     0.062 A 
ATOM     17  C   UNL     1       5.004  29.548  57.329  1.00  0.00     0.158 A 
BRANCH  15  18
ATOM     18  O   UNL     1       2.674  29.892  56.596  1.00  0.00    -0.504 OA
ATOM     19  H   UNL     1       2.127  30.665  56.948  1.00  0.00     0.293 HD
ENDBRANCH  15  18
BRANCH  17  20
ATOM     20  O   UNL     1       5.510  30.604  56.567  1.00  0.00    -0.504 OA
ATOM     21  H   UNL     1       5.914  31.441  56.962  1.00  0.00     0.293 HD
ENDBRANCH  17  20
ENDBRANCH   1  12
BRANCH   2  22
ATOM     22  O   UNL     1       4.762  26.384  61.353  1.00  0.00    -0.502 OA
ATOM     23  H   UNL     1       4.475  26.002  62.247  1.00  0.00     0.293 HD
ENDBRANCH   2  22
BRANCH   6  24
ATOM     24  O   UNL     1       9.412  24.549  63.190  1.00  0.00    -0.507 OA
ATOM     25  H   UNL     1       8.954  25.008  63.961  1.00  0.00     0.293 HD
ENDBRANCH   6  24
BRANCH   8  26
ATOM     26  O   UNL     1      12.248  25.476  59.448  1.00  0.00    -0.508 OA
ATOM     27  H   UNL     1      13.089  25.634  59.991  1.00  0.00     0.293 HD
ENDBRANCH   8  26
TORSDOF 6
ENDMDL
MODEL 5
REMARK VINA RESULT:    -5.752      1.498      2.328
REMARK INTER + INTRA:          -6.704
REMARK INTER:                  -6.569
REMARK INTRA:                  -0.136
REMARK UNBOUND:                 0.225
REMARK SMILES O=c1c(O)c(-c2ccc(O)c(O)c2)oc2cc(O)cc(O)c12
REMARK SMILES IDX 5 1 3 2 2 3 1 4 22 5 20 6 19 7 17 8 16 9 15 10 14 11 6 12
REMARK SMILES IDX 7 13 8 14 9 15 13 16 11 17 10 18 12 20 4 22 21 24 18 26
REMARK H PARENT 10 19 12 21 4 23 21 25 18 27
REMARK Flexibility Score: inf
ROOT
ATOM      1  C   UNL     1       7.172  26.979  60.141  1.00  0.00     0.180 A 
ATOM      2  C   UNL     1       7.239  27.000  61.545  1.00  0.00     0.208 A 
ATOM      3  C   UNL     1       8.447  26.662  62.175  1.00  0.00     0.238 A 
ATOM      4  O   UNL     1       8.485  26.631  63.433  1.00  0.00    -0.285 OA
ATOM      5  C   UNL     1       9.578  26.324  61.393  1.00  0.00     0.111 A 
ATOM      6  C   UNL     1      10.865  26.006  61.924  1.00  0.00     0.134 A 
ATOM      7  C   UNL     1      11.875  25.559  61.063  1.00  0.00     0.093 A 
ATOM      8  C   UNL     1      11.668  25.484  59.687  1.00  0.00     0.123 A 
ATOM      9  C   UNL     1      10.433  25.850  59.151  1.00  0.00     0.094 A 
ATOM     10  C   UNL     1       9.394  26.264  59.987  1.00  0.00     0.146 A 
ATOM     11  O   UNL     1       8.230  26.595  59.438  1.00  0.00    -0.452 OA
ENDROOT
BRANCH   1  12
ATOM     12  C   UNL     1       5.940  27.346  59.405  1.00  0.00     0.025 A 
ATOM     13  C   UNL     1       4.755  26.610  59.552  1.00  0.00     0.016 A 
ATOM     14  C   UNL     1       3.598  26.989  58.867  1.00  0.00     0.051 A 
ATOM     15  C   UNL     1       3.599  28.114  58.035  1.00  0.00     0.157 A 
ATOM     16  C   UNL     1       5.937  28.487  58.588  1.00  0.00     0.062 A 
ATOM     17  C   UNL     1       4.783  28.875  57.896  1.00  0.00     0.158 A 
BRANCH  15  18
ATOM     18  O   UNL     1       2.411  28.437  57.375  1.00  0.00    -0.504 OA
ATOM     19  H   UNL     1       1.802  27.757  56.942  1.00  0.00     0.293 HD
ENDBRANCH  15  18
BRANCH  17  20
ATOM     20  O   UNL     1       4.857  30.015  57.092  1.00  0.00    -0.504 OA
ATOM     21  H   UNL     1       4.377  30.115  56.210  1.00  0.00     0.293 HD
ENDBRANCH  17  20
ENDBRANCH   1  12
BRANCH   2  22
ATOM     22  O   UNL     1       6.104  27.316  62.298  1.00  0.00    -0.502 OA
ATOM     23  H   UNL     1       6.160  27.641  63.256  1.00  0.00     0.293 HD
ENDBRANCH   2  22
BRANCH   6  24
ATOM     24  O   UNL     1      11.205  26.135  63.274  1.00  0.00    -0.507 OA
ATOM     25  H   UNL     1      12.067  25.811  63.682  1.00  0.00     0.293 HD
ENDBRANCH   6  24
BRANCH   8  26
ATOM     26  O   UNL     1      12.701  25.050  58.859  1.00  0.00    -0.508 OA
ATOM     27  H   UNL     1      12.639  25.125  57.850  1.00  0.00     0.293 HD
ENDBRANCH   8  26
TORSDOF 6
ENDMDL
MODEL 6
REMARK VINA RESULT:    -5.658      5.236      6.934
REMARK INTER + INTRA:          -6.590
REMARK INTER:                  -6.309
REMARK INTRA:                  -0.282
REMARK UNBOUND:                 0.225
REMARK SMILES O=c1c(O)c(-c2ccc(O)c(O)c2)oc2cc(O)cc(O)c12
REMARK SMILES IDX 5 1 3 2 2 3 1 4 22 5 20 6 19 7 17 8 16 9 15 10 14 11 6 12
REMARK SMILES IDX 7 13 8 14 9 15 13 16 11 17 10 18 12 20 4 22 21 24 18 26
REMARK H PARENT 10 19 12 21 4 23 21 25 18 27
REMARK Flexibility Score: inf
ROOT
ATOM      1  C   UNL     1       5.207  31.505  62.151  1.00  0.00     0.180 A 
ATOM      2  C   UNL     1       5.403  30.474  63.087  1.00  0.00     0.208 A 
ATOM      3  C   UNL     1       5.038  29.163  62.742  1.00  0.00     0.238 A 
ATOM      4  O   UNL     1       5.166  28.254  63.603  1.00  0.00    -0.285 OA
ATOM      5  C   UNL     1       4.497  28.897  61.461  1.00  0.00     0.111 A 
ATOM      6  C   UNL     1       4.130  27.600  60.990  1.00  0.00     0.134 A 
ATOM      7  C   UNL     1       3.483  27.472  59.755  1.00  0.00     0.093 A 
ATOM      8  C   UNL     1       3.249  28.582  58.945  1.00  0.00     0.123 A 
ATOM      9  C   UNL     1       3.658  29.847  59.369  1.00  0.00     0.094 A 
ATOM     10  C   UNL     1       4.273  30.012  60.613  1.00  0.00     0.146 A 
ATOM     11  O   UNL     1       4.637  31.234  60.984  1.00  0.00    -0.452 OA
ENDROOT
BRANCH   1  12
ATOM     12  C   UNL     1       5.590  32.908  62.433  1.00  0.00     0.025 A 
ATOM     13  C   UNL     1       4.796  33.733  63.246  1.00  0.00     0.016 A 
ATOM     14  C   UNL     1       5.190  35.045  63.518  1.00  0.00     0.051 A 
ATOM     15  C   UNL     1       6.384  35.554  62.997  1.00  0.00     0.157 A 
ATOM     16  C   UNL     1       6.798  33.410  61.927  1.00  0.00     0.062 A 
ATOM     17  C   UNL     1       7.201  34.725  62.193  1.00  0.00     0.158 A 
BRANCH  15  18
ATOM     18  O   UNL     1       6.718  36.875  63.302  1.00  0.00    -0.504 OA
ATOM     19  H   UNL     1       7.088  37.173  64.194  1.00  0.00     0.293 HD
ENDBRANCH  15  18
BRANCH  17  20
ATOM     20  O   UNL     1       8.411  35.159  61.646  1.00  0.00    -0.504 OA
ATOM     21  H   UNL     1       8.791  36.085  61.781  1.00  0.00     0.293 HD
ENDBRANCH  17  20
ENDBRANCH   1  12
BRANCH   2  22
ATOM     22  O   UNL     1       5.919  30.763  64.354  1.00  0.00    -0.502 OA
ATOM     23  H   UNL     1       6.038  31.712  64.688  1.00  0.00     0.293 HD
ENDBRANCH   2  22
BRANCH   6  24
ATOM     24  O   UNL     1       4.401  26.414  61.680  1.00  0.00    -0.507 OA
ATOM     25  H   UNL     1       5.299  25.957  61.705  1.00  0.00     0.293 HD
ENDBRANCH   6  24
BRANCH   8  26
ATOM     26  O   UNL     1       2.617  28.415  57.715  1.00  0.00    -0.508 OA
ATOM     27  H   UNL     1       2.898  27.687  57.069  1.00  0.00     0.293 HD
ENDBRANCH   8  26
TORSDOF 6
ENDMDL
MODEL 7
REMARK VINA RESULT:    -5.643      2.424      3.099
REMARK INTER + INTRA:          -6.573
REMARK INTER:                  -6.265
REMARK INTRA:                  -0.308
REMARK UNBOUND:                 0.225
REMARK SMILES O=c1c(O)c(-c2ccc(O)c(O)c2)oc2cc(O)cc(O)c12
REMARK SMILES IDX 5 1 3 2 2 3 1 4 22 5 20 6 19 7 17 8 16 9 15 10 14 11 6 12
REMARK SMILES IDX 7 13 8 14 9 15 13 16 11 17 10 18 12 20 4 22 21 24 18 26
REMARK H PARENT 10 19 12 21 4 23 21 25 18 27
REMARK Flexibility Score: inf
ROOT
ATOM      1  C   UNL     1       4.585  27.099  61.017  1.00  0.00     0.180 A 
ATOM      2  C   UNL     1       3.847  27.146  62.213  1.00  0.00     0.208 A 
ATOM      3  C   UNL     1       4.157  26.241  63.240  1.00  0.00     0.238 A 
ATOM      4  O   UNL     1       3.458  26.253  64.287  1.00  0.00    -0.285 OA
ATOM      5  C   UNL     1       5.210  25.311  63.066  1.00  0.00     0.111 A 
ATOM      6  C   UNL     1       5.637  24.375  64.056  1.00  0.00     0.134 A 
ATOM      7  C   UNL     1       6.603  23.416  63.727  1.00  0.00     0.093 A 
ATOM      8  C   UNL     1       7.203  23.399  62.469  1.00  0.00     0.123 A 
ATOM      9  C   UNL     1       6.836  24.347  61.514  1.00  0.00     0.094 A 
ATOM     10  C   UNL     1       5.850  25.295  61.799  1.00  0.00     0.146 A 
ATOM     11  O   UNL     1       5.522  26.173  60.859  1.00  0.00    -0.452 OA
ENDROOT
BRANCH   1  12
ATOM     12  C   UNL     1       4.333  28.037  59.899  1.00  0.00     0.025 A 
ATOM     13  C   UNL     1       5.118  29.186  59.718  1.00  0.00     0.016 A 
ATOM     14  C   UNL     1       4.878  30.043  58.641  1.00  0.00     0.051 A 
ATOM     15  C   UNL     1       3.861  29.766  57.722  1.00  0.00     0.157 A 
ATOM     16  C   UNL     1       3.327  27.746  58.965  1.00  0.00     0.062 A 
ATOM     17  C   UNL     1       3.077  28.599  57.883  1.00  0.00     0.158 A 
BRANCH  15  18
ATOM     18  O   UNL     1       3.669  30.665  56.671  1.00  0.00    -0.504 OA
ATOM     19  H   UNL     1       2.786  31.108  56.460  1.00  0.00     0.293 HD
ENDBRANCH  15  18
BRANCH  17  20
ATOM     20  O   UNL     1       2.052  28.251  57.002  1.00  0.00    -0.504 OA
ATOM     21  H   UNL     1       1.115  28.009  57.293  1.00  0.00     0.293 HD
ENDBRANCH  17  20
ENDBRANCH   1  12
BRANCH   2  22
ATOM     22  O   UNL     1       2.797  28.058  62.356  1.00  0.00    -0.502 OA
ATOM     23  H   UNL     1       1.825  27.773  62.348  1.00  0.00     0.293 HD
ENDBRANCH   2  22
BRANCH   6  24
ATOM     24  O   UNL     1       5.168  24.364  65.373  1.00  0.00    -0.507 OA
ATOM     25  H   UNL     1       4.452  23.747  65.722  1.00  0.00     0.293 HD
ENDBRANCH   6  24
BRANCH   8  26
ATOM     26  O   UNL     1       8.172  22.440  62.182  1.00  0.00    -0.508 OA
ATOM     27  H   UNL     1       8.613  22.388  61.271  1.00  0.00     0.293 HD
ENDBRANCH   8  26
TORSDOF 6
ENDMDL
MODEL 8
REMARK VINA RESULT:    -5.623      2.041      3.705
REMARK INTER + INTRA:          -6.548
REMARK INTER:                  -6.218
REMARK INTRA:                  -0.330
REMARK UNBOUND:                 0.225
REMARK SMILES O=c1c(O)c(-c2ccc(O)c(O)c2)oc2cc(O)cc(O)c12
REMARK SMILES IDX 5 1 3 2 2 3 1 4 22 5 20 6 19 7 17 8 16 9 15 10 14 11 6 12
REMARK SMILES IDX 7 13 8 14 9 15 13 16 11 17 10 18 12 20 4 22 21 24 18 26
REMARK H PARENT 10 19 12 21 4 23 21 25 18 27
REMARK Flexibility Score: inf
ROOT
ATOM      1  C   UNL     1       6.269  26.524  60.306  1.00  0.00     0.180 A 
ATOM      2  C   UNL     1       7.664  26.398  60.180  1.00  0.00     0.208 A 
ATOM      3  C   UNL     1       8.337  25.459  60.977  1.00  0.00     0.238 A 
ATOM      4  O   UNL     1       9.592  25.388  60.898  1.00  0.00    -0.285 OA
ATOM      5  C   UNL     1       7.607  24.646  61.878  1.00  0.00     0.111 A 
ATOM      6  C   UNL     1       8.182  23.634  62.705  1.00  0.00     0.134 A 
ATOM      7  C   UNL     1       7.384  22.982  63.653  1.00  0.00     0.093 A 
ATOM      8  C   UNL     1       6.021  23.257  63.759  1.00  0.00     0.123 A 
ATOM      9  C   UNL     1       5.437  24.202  62.915  1.00  0.00     0.094 A 
ATOM     10  C   UNL     1       6.214  24.896  61.984  1.00  0.00     0.146 A 
ATOM     11  O   UNL     1       5.622  25.794  61.207  1.00  0.00    -0.452 OA
ENDROOT
BRANCH   1  12
ATOM     12  C   UNL     1       5.486  27.474  59.483  1.00  0.00     0.025 A 
ATOM     13  C   UNL     1       4.936  27.091  58.250  1.00  0.00     0.016 A 
ATOM     14  C   UNL     1       4.181  27.997  57.502  1.00  0.00     0.051 A 
ATOM     15  C   UNL     1       3.950  29.294  57.974  1.00  0.00     0.157 A 
ATOM     16  C   UNL     1       5.238  28.767  59.968  1.00  0.00     0.062 A 
ATOM     17  C   UNL     1       4.483  29.684  59.225  1.00  0.00     0.158 A 
BRANCH  15  18
ATOM     18  O   UNL     1       3.191  30.153  57.176  1.00  0.00    -0.504 OA
ATOM     19  H   UNL     1       2.486  30.782  57.534  1.00  0.00     0.293 HD
ENDBRANCH  15  18
BRANCH  17  20
ATOM     20  O   UNL     1       4.287  30.956  59.765  1.00  0.00    -0.504 OA
ATOM     21  H   UNL     1       4.244  31.802  59.215  1.00  0.00     0.293 HD
ENDBRANCH  17  20
ENDBRANCH   1  12
BRANCH   2  22
ATOM     22  O   UNL     1       8.367  27.225  59.299  1.00  0.00    -0.502 OA
ATOM     23  H   UNL     1       9.332  27.492  59.458  1.00  0.00     0.293 HD
ENDBRANCH   2  22
BRANCH   6  24
ATOM     24  O   UNL     1       9.513  23.217  62.615  1.00  0.00    -0.507 OA
ATOM     25  H   UNL     1      10.069  22.899  63.393  1.00  0.00     0.293 HD
ENDBRANCH   6  24
BRANCH   8  26
ATOM     26  O   UNL     1       5.255  22.578  64.703  1.00  0.00    -0.508 OA
ATOM     27  H   UNL     1       4.904  21.643  64.529  1.00  0.00     0.293 HD
ENDBRANCH   8  26
TORSDOF 6
ENDMDL
MODEL 9
REMARK VINA RESULT:    -5.612      2.669      7.245
REMARK INTER + INTRA:          -6.535
REMARK INTER:                  -6.221
REMARK INTRA:                  -0.315
REMARK UNBOUND:                 0.225
REMARK SMILES O=c1c(O)c(-c2ccc(O)c(O)c2)oc2cc(O)cc(O)c12
REMARK SMILES IDX 5 1 3 2 2 3 1 4 22 5 20 6 19 7 17 8 16 9 15 10 14 11 6 12
REMARK SMILES IDX 7 13 8 14 9 15 13 16 11 17 10 18 12 20 4 22 21 24 18 26
REMARK H PARENT 10 19 12 21 4 23 21 25 18 27
REMARK Flexibility Score: inf
ROOT
ATOM      1  C   UNL     1       5.341  26.096  61.806  1.00  0.00     0.180 A 
ATOM      2  C   UNL     1       5.710  27.265  62.496  1.00  0.00     0.208 A 
ATOM      3  C   UNL     1       5.317  28.511  61.983  1.00  0.00     0.238 A 
ATOM      4  O   UNL     1       5.696  29.555  62.575  1.00  0.00    -0.285 OA
ATOM      5  C   UNL     1       4.546  28.572  60.796  1.00  0.00     0.111 A 
ATOM      6  C   UNL     1       4.058  29.779  60.209  1.00  0.00     0.134 A 
ATOM      7  C   UNL     1       3.418  29.730  58.965  1.00  0.00     0.093 A 
ATOM      8  C   UNL     1       3.189  28.516  58.318  1.00  0.00     0.123 A 
ATOM      9  C   UNL     1       3.609  27.326  58.912  1.00  0.00     0.094 A 
ATOM     10  C   UNL     1       4.283  27.344  60.136  1.00  0.00     0.146 A 
ATOM     11  O   UNL     1       4.675  26.190  60.662  1.00  0.00    -0.452 OA
ENDROOT
BRANCH   1  12
ATOM     12  C   UNL     1       5.698  24.745  62.299  1.00  0.00     0.025 A 
ATOM     13  C   UNL     1       4.794  23.979  63.051  1.00  0.00     0.016 A 
ATOM     14  C   UNL     1       5.143  22.698  63.483  1.00  0.00     0.051 A 
ATOM     15  C   UNL     1       6.391  22.153  63.165  1.00  0.00     0.157 A 
ATOM     16  C   UNL     1       6.942  24.192  61.960  1.00  0.00     0.062 A 
ATOM     17  C   UNL     1       7.303  22.909  62.390  1.00  0.00     0.158 A 
BRANCH  15  18
ATOM     18  O   UNL     1       6.681  20.869  63.632  1.00  0.00    -0.504 OA
ATOM     19  H   UNL     1       7.003  20.113  63.044  1.00  0.00     0.293 HD
ENDBRANCH  15  18
BRANCH  17  20
ATOM     20  O   UNL     1       8.562  22.429  62.025  1.00  0.00    -0.504 OA
ATOM     21  H   UNL     1       8.866  22.312  61.069  1.00  0.00     0.293 HD
ENDBRANCH  17  20
ENDBRANCH   1  12
BRANCH   2  22
ATOM     22  O   UNL     1       6.489  27.181  63.654  1.00  0.00    -0.502 OA
ATOM     23  H   UNL     1       6.121  27.396  64.573  1.00  0.00     0.293 HD
ENDBRANCH   2  22
BRANCH   6  24
ATOM     24  O   UNL     1       4.153  31.035  60.815  1.00  0.00    -0.507 OA
ATOM     25  H   UNL     1       3.369  31.565  61.163  1.00  0.00     0.293 HD
ENDBRANCH   6  24
BRANCH   8  26
ATOM     26  O   UNL     1       2.535  28.505  57.088  1.00  0.00    -0.508 OA
ATOM     27  H   UNL     1       2.642  29.262  56.424  1.00  0.00     0.293 HD
ENDBRANCH   8  26
TORSDOF 6
ENDMDL
