MODEL 1
REMARK VINA RESULT:    -2.942      0.000      0.000
REMARK INTER + INTRA:          -8.566
REMARK INTER:                  -5.522
REMARK INTRA:                  -3.045
REMARK UNBOUND:                -3.045
REMARK SMILES CCCCCCCCC=CCCCCCCCC(=O)[O-]
REMARK SMILES IDX 10 1 9 2 11 3 12 4 13 5 14 6 15 7 16 8 17 9 18 10 19 11
REMARK SMILES IDX 20 12 8 13 7 14 6 15 5 16 4 17 3 18 2 19 1 20
REMARK H PARENT
REMARK Flexibility Score: inf
ROOT
ATOM      1  C   UNL     1      23.855  55.752  80.964  1.00  0.00    -0.031 C 
ATOM      2  C   UNL     1      24.254  56.656  80.057  1.00  0.00    -0.031 C 
ENDROOT
BRANCH   1   3
ATOM      3  C   UNL     1      22.411  55.355  81.097  1.00  0.00     0.027 C 
BRANCH   3   4
ATOM      4  C   UNL     1      21.687  55.451  79.749  1.00  0.00     0.004 C 
BRANCH   4   5
ATOM      5  C   UNL     1      22.057  54.272  78.841  1.00  0.00     0.000 C 
BRANCH   5   6
ATOM      6  C   UNL     1      21.408  52.971  79.335  1.00  0.00     0.000 C 
BRANCH   6   7
ATOM      7  C   UNL     1      21.741  51.758  78.448  1.00  0.00     0.000 C 
BRANCH   7   8
ATOM      8  C   UNL     1      22.444  52.096  77.121  1.00  0.00     0.006 C 
BRANCH   8   9
ATOM      9  C   UNL     1      22.702  50.860  76.250  1.00  0.00     0.053 C 
BRANCH   9  10
ATOM     10  C   UNL     1      23.954  50.165  76.682  1.00  0.00     0.041 C 
ATOM     11  O   UNL     1      23.893  49.146  77.419  1.00  0.00    -0.550 OA
ATOM     12  O   UNL     1      25.190  50.634  76.255  1.00  0.00    -0.550 OA
ENDBRANCH   9  10
ENDBRANCH   8   9
ENDBRANCH   7   8
ENDBRANCH   6   7
ENDBRANCH   5   6
ENDBRANCH   4   5
ENDBRANCH   3   4
ENDBRANCH   1   3
BRANCH   2  13
ATOM     13  C   UNL     1      25.701  57.035  79.904  1.00  0.00     0.027 C 
BRANCH  13  14
ATOM     14  C   UNL     1      26.336  56.321  78.706  1.00  0.00     0.004 C 
BRANCH  14  15
ATOM     15  C   UNL     1      25.267  55.885  77.697  1.00  0.00     0.000 C 
BRANCH  15  16
ATOM     16  C   UNL     1      25.311  54.367  77.471  1.00  0.00     0.000 C 
BRANCH  16  17
ATOM     17  C   UNL     1      26.107  53.629  78.559  1.00  0.00    -0.000 C 
BRANCH  17  18
ATOM     18  C   UNL     1      25.287  52.528  79.249  1.00  0.00    -0.000 C 
BRANCH  18  19
ATOM     19  C   UNL     1      25.496  52.558  80.767  1.00  0.00    -0.003 C 
ATOM     20  C   UNL     1      24.260  52.053  81.506  1.00  0.00     0.004 C 
ENDBRANCH  18  19
ENDBRANCH  17  18
ENDBRANCH  16  17
ENDBRANCH  15  16
ENDBRANCH  14  15
ENDBRANCH  13  14
ENDBRANCH   2  13
TORSDOF 15
ENDMDL
MODEL 2
REMARK VINA RESULT:    -2.881      1.601      4.218
REMARK INTER + INTRA:          -8.452
REMARK INTER:                  -5.341
REMARK INTRA:                  -3.111
REMARK UNBOUND:                -3.045
REMARK SMILES CCCCCCCCC=CCCCCCCCC(=O)[O-]
REMARK SMILES IDX 10 1 9 2 11 3 12 4 13 5 14 6 15 7 16 8 17 9 18 10 19 11
REMARK SMILES IDX 20 12 8 13 7 14 6 15 5 16 4 17 3 18 2 19 1 20
REMARK H PARENT
REMARK Flexibility Score: inf
ROOT
ATOM      1  C   UNL     1      25.525  55.663  81.777  1.00  0.00    -0.031 C 
ATOM      2  C   UNL     1      25.304  54.362  81.537  1.00  0.00    -0.031 C 
ENDROOT
BRANCH   1   3
ATOM      3  C   UNL     1      26.261  56.530  80.794  1.00  0.00     0.027 C 
BRANCH   3   4
ATOM      4  C   UNL     1      26.491  55.790  79.471  1.00  0.00     0.004 C 
BRANCH   4   5
ATOM      5  C   UNL     1      25.714  56.453  78.327  1.00  0.00     0.000 C 
BRANCH   5   6
ATOM      6  C   UNL     1      25.316  55.421  77.262  1.00  0.00     0.000 C 
BRANCH   6   7
ATOM      7  C   UNL     1      25.114  54.008  77.839  1.00  0.00     0.000 C 
BRANCH   7   8
ATOM      8  C   UNL     1      24.515  52.984  76.858  1.00  0.00     0.006 C 
BRANCH   8   9
ATOM      9  C   UNL     1      23.052  52.645  77.167  1.00  0.00     0.053 C 
BRANCH   9  10
ATOM     10  C   UNL     1      22.692  51.309  76.599  1.00  0.00     0.041 C 
ATOM     11  O   UNL     1      23.280  50.875  75.574  1.00  0.00    -0.550 OA
ATOM     12  O   UNL     1      21.717  50.534  77.214  1.00  0.00    -0.550 OA
ENDBRANCH   9  10
ENDBRANCH   8   9
ENDBRANCH   7   8
ENDBRANCH   6   7
ENDBRANCH   5   6
ENDBRANCH   4   5
ENDBRANCH   3   4
ENDBRANCH   1   3
BRANCH   2  13
ATOM     13  C   UNL     1      24.545  53.499  82.507  1.00  0.00     0.027 C 
BRANCH  13  14
ATOM     14  C   UNL     1      23.032  53.642  82.308  1.00  0.00     0.004 C 
BRANCH  14  15
ATOM     15  C   UNL     1      22.642  53.372  80.850  1.00  0.00     0.000 C 
BRANCH  15  16
ATOM     16  C   UNL     1      21.617  54.403  80.355  1.00  0.00     0.000 C 
BRANCH  16  17
ATOM     17  C   UNL     1      22.232  55.436  79.397  1.00  0.00    -0.000 C 
BRANCH  17  18
ATOM     18  C   UNL     1      22.380  56.824  80.039  1.00  0.00    -0.000 C 
BRANCH  18  19
ATOM     19  C   UNL     1      21.562  56.919  81.332  1.00  0.00    -0.003 C 
ATOM     20  C   UNL     1      22.416  57.429  82.490  1.00  0.00     0.004 C 
ENDBRANCH  18  19
ENDBRANCH  17  18
ENDBRANCH  16  17
ENDBRANCH  15  16
ENDBRANCH  14  15
ENDBRANCH  13  14
ENDBRANCH   2  13
TORSDOF 15
ENDMDL
MODEL 3
REMARK VINA RESULT:    -2.872      3.231      6.439
REMARK INTER + INTRA:          -8.435
REMARK INTER:                  -5.719
REMARK INTRA:                  -2.717
REMARK UNBOUND:                -3.045
REMARK SMILES CCCCCCCCC=CCCCCCCCC(=O)[O-]
REMARK SMILES IDX 10 1 9 2 11 3 12 4 13 5 14 6 15 7 16 8 17 9 18 10 19 11
REMARK SMILES IDX 20 12 8 13 7 14 6 15 5 16 4 17 3 18 2 19 1 20
REMARK H PARENT
REMARK Flexibility Score: inf
ROOT
ATOM      1  C   UNL     1      25.746  55.111  78.340  1.00  0.00    -0.031 C 
ATOM      2  C   UNL     1      25.132  54.576  77.274  1.00  0.00    -0.031 C 
ENDROOT
BRANCH   1   3
ATOM      3  C   UNL     1      25.904  56.599  78.491  1.00  0.00     0.027 C 
BRANCH   3   4
ATOM      4  C   UNL     1      25.781  57.019  79.960  1.00  0.00     0.004 C 
BRANCH   4   5
ATOM      5  C   UNL     1      26.085  55.843  80.896  1.00  0.00     0.000 C 
BRANCH   5   6
ATOM      6  C   UNL     1      26.440  56.339  82.306  1.00  0.00     0.000 C 
BRANCH   6   7
ATOM      7  C   UNL     1      27.492  57.462  82.301  1.00  0.00     0.000 C 
BRANCH   7   8
ATOM      8  C   UNL     1      28.951  56.987  82.177  1.00  0.00     0.006 C 
BRANCH   8   9
ATOM      9  C   UNL     1      29.732  57.731  81.087  1.00  0.00     0.053 C 
BRANCH   9  10
ATOM     10  C   UNL     1      29.434  57.152  79.741  1.00  0.00     0.041 C 
ATOM     11  O   UNL     1      29.381  55.904  79.583  1.00  0.00    -0.550 OA
ATOM     12  O   UNL     1      29.195  57.993  78.661  1.00  0.00    -0.550 OA
ENDBRANCH   9  10
ENDBRANCH   8   9
ENDBRANCH   7   8
ENDBRANCH   6   7
ENDBRANCH   5   6
ENDBRANCH   4   5
ENDBRANCH   3   4
ENDBRANCH   1   3
BRANCH   2  13
ATOM     13  C   UNL     1      24.949  53.089  77.133  1.00  0.00     0.027 C 
BRANCH  13  14
ATOM     14  C   UNL     1      23.531  52.748  76.663  1.00  0.00     0.004 C 
BRANCH  14  15
ATOM     15  C   UNL     1      22.848  51.780  77.636  1.00  0.00     0.000 C 
BRANCH  15  16
ATOM     16  C   UNL     1      21.960  52.539  78.633  1.00  0.00     0.000 C 
BRANCH  16  17
ATOM     17  C   UNL     1      22.631  52.722  80.004  1.00  0.00    -0.000 C 
BRANCH  17  18
ATOM     18  C   UNL     1      22.776  54.199  80.400  1.00  0.00    -0.000 C 
BRANCH  18  19
ATOM     19  C   UNL     1      22.096  55.111  79.373  1.00  0.00    -0.003 C 
ATOM     20  C   UNL     1      22.323  56.583  79.705  1.00  0.00     0.004 C 
ENDBRANCH  18  19
ENDBRANCH  17  18
ENDBRANCH  16  17
ENDBRANCH  15  16
ENDBRANCH  14  15
ENDBRANCH  13  14
ENDBRANCH   2  13
TORSDOF 15
ENDMDL
MODEL 4
REMARK VINA RESULT:    -2.852      2.936      5.294
REMARK INTER + INTRA:          -8.397
REMARK INTER:                  -5.574
REMARK INTRA:                  -2.823
REMARK UNBOUND:                -3.045
REMARK SMILES CCCCCCCCC=CCCCCCCCC(=O)[O-]
REMARK SMILES IDX 10 1 9 2 11 3 12 4 13 5 14 6 15 7 16 8 17 9 18 10 19 11
REMARK SMILES IDX 20 12 8 13 7 14 6 15 5 16 4 17 3 18 2 19 1 20
REMARK H PARENT
REMARK Flexibility Score: inf
ROOT
ATOM      1  C   UNL     1      22.348  53.485  79.592  1.00  0.00    -0.031 C 
ATOM      2  C   UNL     1      22.549  53.563  78.268  1.00  0.00    -0.031 C 
ENDROOT
BRANCH   1   3
ATOM      3  C   UNL     1      22.561  54.671  80.491  1.00  0.00     0.027 C 
BRANCH   3   4
ATOM      4  C   UNL     1      22.716  55.959  79.676  1.00  0.00     0.004 C 
BRANCH   4   5
ATOM      5  C   UNL     1      24.166  56.458  79.706  1.00  0.00     0.000 C 
BRANCH   5   6
ATOM      6  C   UNL     1      24.861  56.214  78.358  1.00  0.00     0.000 C 
BRANCH   6   7
ATOM      7  C   UNL     1      26.368  55.937  78.500  1.00  0.00     0.000 C 
BRANCH   7   8
ATOM      8  C   UNL     1      26.876  55.830  79.949  1.00  0.00     0.006 C 
BRANCH   8   9
ATOM      9  C   UNL     1      27.856  56.949  80.323  1.00  0.00     0.053 C 
BRANCH   9  10
ATOM     10  C   UNL     1      29.047  56.927  79.420  1.00  0.00     0.041 C 
ATOM     11  O   UNL     1      29.287  57.902  78.659  1.00  0.00    -0.550 OA
ATOM     12  O   UNL     1      29.906  55.835  79.431  1.00  0.00    -0.550 OA
ENDBRANCH   9  10
ENDBRANCH   8   9
ENDBRANCH   7   8
ENDBRANCH   6   7
ENDBRANCH   5   6
ENDBRANCH   4   5
ENDBRANCH   3   4
ENDBRANCH   1   3
BRANCH   2  13
ATOM     13  C   UNL     1      22.311  52.385  77.364  1.00  0.00     0.027 C 
BRANCH  13  14
ATOM     14  C   UNL     1      23.423  52.258  76.316  1.00  0.00     0.004 C 
BRANCH  14  15
ATOM     15  C   UNL     1      24.645  53.096  76.709  1.00  0.00     0.000 C 
BRANCH  15  16
ATOM     16  C   UNL     1      25.839  52.195  77.060  1.00  0.00     0.000 C 
BRANCH  16  17
ATOM     17  C   UNL     1      26.087  52.105  78.575  1.00  0.00    -0.000 C 
BRANCH  17  18
ATOM     18  C   UNL     1      25.306  50.958  79.235  1.00  0.00    -0.000 C 
BRANCH  18  19
ATOM     19  C   UNL     1      25.066  51.245  80.722  1.00  0.00    -0.003 C 
ATOM     20  C   UNL     1      25.603  52.619  81.113  1.00  0.00     0.004 C 
ENDBRANCH  18  19
ENDBRANCH  17  18
ENDBRANCH  16  17
ENDBRANCH  15  16
ENDBRANCH  14  15
ENDBRANCH  13  14
ENDBRANCH   2  13
TORSDOF 15
ENDMDL
MODEL 5
REMARK VINA RESULT:    -2.828      2.812      5.111
REMARK INTER + INTRA:          -8.353
REMARK INTER:                  -5.354
REMARK INTRA:                  -2.999
REMARK UNBOUND:                -3.045
REMARK SMILES CCCCCCCCC=CCCCCCCCC(=O)[O-]
REMARK SMILES IDX 10 1 9 2 11 3 12 4 13 5 14 6 15 7 16 8 17 9 18 10 19 11
REMARK SMILES IDX 20 12 8 13 7 14 6 15 5 16 4 17 3 18 2 19 1 20
REMARK H PARENT
REMARK Flexibility Score: inf
ROOT
ATOM      1  C   UNL     1      21.730  50.673  79.346  1.00  0.00    -0.031 C 
ATOM      2  C   UNL     1      21.697  51.118  78.080  1.00  0.00    -0.031 C 
ENDROOT
BRANCH   1   3
ATOM      3  C   UNL     1      21.252  51.522  80.490  1.00  0.00     0.027 C 
BRANCH   3   4
ATOM      4  C   UNL     1      20.330  52.643  79.997  1.00  0.00     0.004 C 
BRANCH   4   5
ATOM      5  C   UNL     1      20.885  54.021  80.377  1.00  0.00     0.000 C 
BRANCH   5   6
ATOM      6  C   UNL     1      21.705  54.620  79.225  1.00  0.00     0.000 C 
BRANCH   6   7
ATOM      7  C   UNL     1      23.199  54.768  79.565  1.00  0.00     0.000 C 
BRANCH   7   8
ATOM      8  C   UNL     1      23.821  56.126  79.189  1.00  0.00     0.006 C 
BRANCH   8   9
ATOM      9  C   UNL     1      25.189  55.989  78.511  1.00  0.00     0.053 C 
BRANCH   9  10
ATOM     10  C   UNL     1      26.244  56.679  79.316  1.00  0.00     0.041 C 
ATOM     11  O   UNL     1      25.967  57.166  80.444  1.00  0.00    -0.550 OA
ATOM     12  O   UNL     1      27.542  56.769  78.828  1.00  0.00    -0.550 OA
ENDBRANCH   9  10
ENDBRANCH   8   9
ENDBRANCH   7   8
ENDBRANCH   6   7
ENDBRANCH   5   6
ENDBRANCH   4   5
ENDBRANCH   3   4
ENDBRANCH   1   3
BRANCH   2  13
ATOM     13  C   UNL     1      22.150  50.260  76.931  1.00  0.00     0.027 C 
BRANCH  13  14
ATOM     14  C   UNL     1      23.077  51.038  75.991  1.00  0.00     0.004 C 
BRANCH  14  15
ATOM     15  C   UNL     1      23.172  52.510  76.409  1.00  0.00     0.000 C 
BRANCH  15  16
ATOM     16  C   UNL     1      24.633  52.923  76.638  1.00  0.00     0.000 C 
BRANCH  16  17
ATOM     17  C   UNL     1      25.437  51.860  77.403  1.00  0.00    -0.000 C 
BRANCH  17  18
ATOM     18  C   UNL     1      25.269  51.974  78.927  1.00  0.00    -0.000 C 
BRANCH  18  19
ATOM     19  C   UNL     1      25.410  50.603  79.597  1.00  0.00    -0.003 C 
ATOM     20  C   UNL     1      25.377  49.478  78.567  1.00  0.00     0.004 C 
ENDBRANCH  18  19
ENDBRANCH  17  18
ENDBRANCH  16  17
ENDBRANCH  15  16
ENDBRANCH  14  15
ENDBRANCH  13  14
ENDBRANCH   2  13
TORSDOF 15
ENDMDL
MODEL 6
REMARK VINA RESULT:    -2.824      1.372      4.083
REMARK INTER + INTRA:          -8.346
REMARK INTER:                  -5.464
REMARK INTRA:                  -2.882
REMARK UNBOUND:                -3.045
REMARK SMILES CCCCCCCCC=CCCCCCCCC(=O)[O-]
REMARK SMILES IDX 10 1 9 2 11 3 12 4 13 5 14 6 15 7 16 8 17 9 18 10 19 11
REMARK SMILES IDX 20 12 8 13 7 14 6 15 5 16 4 17 3 18 2 19 1 20
REMARK H PARENT
REMARK Flexibility Score: inf
ROOT
ATOM      1  C   UNL     1      24.636  52.012  80.440  1.00  0.00    -0.031 C 
ATOM      2  C   UNL     1      23.670  52.942  80.478  1.00  0.00    -0.031 C 
ENDROOT
BRANCH   1   3
ATOM      3  C   UNL     1      26.090  52.386  80.509  1.00  0.00     0.027 C 
BRANCH   3   4
ATOM      4  C   UNL     1      26.711  52.446  79.108  1.00  0.00     0.004 C 
BRANCH   4   5
ATOM      5  C   UNL     1      26.137  51.348  78.205  1.00  0.00     0.000 C 
BRANCH   5   6
ATOM      6  C   UNL     1      25.791  51.904  76.815  1.00  0.00     0.000 C 
BRANCH   6   7
ATOM      7  C   UNL     1      24.591  52.868  76.835  1.00  0.00     0.000 C 
BRANCH   7   8
ATOM      8  C   UNL     1      23.319  52.337  76.151  1.00  0.00     0.006 C 
BRANCH   8   9
ATOM      9  C   UNL     1      22.525  51.367  77.035  1.00  0.00     0.053 C 
BRANCH   9  10
ATOM     10  C   UNL     1      22.608  49.976  76.493  1.00  0.00     0.041 C 
ATOM     11  O   UNL     1      23.399  49.140  77.007  1.00  0.00    -0.550 OA
ATOM     12  O   UNL     1      21.798  49.595  75.431  1.00  0.00    -0.550 OA
ENDBRANCH   9  10
ENDBRANCH   8   9
ENDBRANCH   7   8
ENDBRANCH   6   7
ENDBRANCH   5   6
ENDBRANCH   4   5
ENDBRANCH   3   4
ENDBRANCH   1   3
BRANCH   2  13
ATOM     13  C   UNL     1      22.213  52.567  80.436  1.00  0.00     0.027 C 
BRANCH  13  14
ATOM     14  C   UNL     1      21.362  53.719  79.891  1.00  0.00     0.004 C 
BRANCH  14  15
ATOM     15  C   UNL     1      22.200  54.650  79.006  1.00  0.00     0.000 C 
BRANCH  15  16
ATOM     16  C   UNL     1      22.374  56.026  79.666  1.00  0.00     0.000 C 
BRANCH  16  17
ATOM     17  C   UNL     1      23.791  56.593  79.488  1.00  0.00    -0.000 C 
BRANCH  17  18
ATOM     18  C   UNL     1      24.626  55.795  78.475  1.00  0.00    -0.000 C 
BRANCH  18  19
ATOM     19  C   UNL     1      26.094  56.235  78.507  1.00  0.00    -0.003 C 
ATOM     20  C   UNL     1      26.691  56.064  79.902  1.00  0.00     0.004 C 
ENDBRANCH  18  19
ENDBRANCH  17  18
ENDBRANCH  16  17
ENDBRANCH  15  16
ENDBRANCH  14  15
ENDBRANCH  13  14
ENDBRANCH   2  13
TORSDOF 15
ENDMDL
MODEL 7
REMARK VINA RESULT:    -2.797      1.072      3.125
REMARK INTER + INTRA:          -8.294
REMARK INTER:                  -5.116
REMARK INTRA:                  -3.178
REMARK UNBOUND:                -3.045
REMARK SMILES CCCCCCCCC=CCCCCCCCC(=O)[O-]
REMARK SMILES IDX 10 1 9 2 11 3 12 4 13 5 14 6 15 7 16 8 17 9 18 10 19 11
REMARK SMILES IDX 20 12 8 13 7 14 6 15 5 16 4 17 3 18 2 19 1 20
REMARK H PARENT
REMARK Flexibility Score: inf
ROOT
ATOM      1  C   UNL     1      24.808  52.513  80.548  1.00  0.00    -0.031 C 
ATOM      2  C   UNL     1      25.794  52.686  79.655  1.00  0.00    -0.031 C 
ENDROOT
BRANCH   1   3
ATOM      3  C   UNL     1      24.350  51.140  80.957  1.00  0.00     0.027 C 
BRANCH   3   4
ATOM      4  C   UNL     1      23.222  50.642  80.046  1.00  0.00     0.004 C 
BRANCH   4   5
ATOM      5  C   UNL     1      22.162  51.731  79.838  1.00  0.00     0.000 C 
BRANCH   5   6
ATOM      6  C   UNL     1      21.728  51.802  78.367  1.00  0.00     0.000 C 
BRANCH   6   7
ATOM      7  C   UNL     1      22.552  52.809  77.544  1.00  0.00     0.000 C 
BRANCH   7   8
ATOM      8  C   UNL     1      23.216  52.229  76.282  1.00  0.00     0.006 C 
BRANCH   8   9
ATOM      9  C   UNL     1      24.336  51.231  76.600  1.00  0.00     0.053 C 
BRANCH   9  10
ATOM     10  C   UNL     1      23.954  49.855  76.155  1.00  0.00     0.041 C 
ATOM     11  O   UNL     1      23.729  48.952  77.003  1.00  0.00    -0.550 OA
ATOM     12  O   UNL     1      23.829  49.574  74.800  1.00  0.00    -0.550 OA
ENDBRANCH   9  10
ENDBRANCH   8   9
ENDBRANCH   7   8
ENDBRANCH   6   7
ENDBRANCH   5   6
ENDBRANCH   4   5
ENDBRANCH   3   4
ENDBRANCH   1   3
BRANCH   2  13
ATOM     13  C   UNL     1      26.272  54.058  79.265  1.00  0.00     0.027 C 
BRANCH  13  14
ATOM     14  C   UNL     1      25.644  54.507  77.940  1.00  0.00     0.004 C 
BRANCH  14  15
ATOM     15  C   UNL     1      25.042  55.912  78.066  1.00  0.00     0.000 C 
BRANCH  15  16
ATOM     16  C   UNL     1      25.273  56.484  79.473  1.00  0.00     0.000 C 
BRANCH  16  17
ATOM     17  C   UNL     1      23.962  56.720  80.239  1.00  0.00    -0.000 C 
BRANCH  17  18
ATOM     18  C   UNL     1      22.718  56.379  79.404  1.00  0.00    -0.000 C 
BRANCH  18  19
ATOM     19  C   UNL     1      21.794  55.421  80.164  1.00  0.00    -0.003 C 
ATOM     20  C   UNL     1      22.374  55.060  81.529  1.00  0.00     0.004 C 
ENDBRANCH  18  19
ENDBRANCH  17  18
ENDBRANCH  16  17
ENDBRANCH  15  16
ENDBRANCH  14  15
ENDBRANCH  13  14
ENDBRANCH   2  13
TORSDOF 15
ENDMDL
MODEL 8
REMARK VINA RESULT:    -2.785      1.744      3.508
REMARK INTER + INTRA:          -8.272
REMARK INTER:                  -4.991
REMARK INTRA:                  -3.281
REMARK UNBOUND:                -3.045
REMARK SMILES CCCCCCCCC=CCCCCCCCC(=O)[O-]
REMARK SMILES IDX 10 1 9 2 11 3 12 4 13 5 14 6 15 7 16 8 17 9 18 10 19 11
REMARK SMILES IDX 20 12 8 13 7 14 6 15 5 16 4 17 3 18 2 19 1 20
REMARK H PARENT
REMARK Flexibility Score: inf
ROOT
ATOM      1  C   UNL     1      23.966  54.177  80.219  1.00  0.00    -0.031 C 
ATOM      2  C   UNL     1      23.398  54.972  79.300  1.00  0.00    -0.031 C 
ENDROOT
BRANCH   1   3
ATOM      3  C   UNL     1      23.336  52.875  80.629  1.00  0.00     0.027 C 
BRANCH   3   4
ATOM      4  C   UNL     1      24.320  51.711  80.465  1.00  0.00     0.004 C 
BRANCH   4   5
ATOM      5  C   UNL     1      25.770  52.200  80.556  1.00  0.00     0.000 C 
BRANCH   5   6
ATOM      6  C   UNL     1      26.532  51.908  79.255  1.00  0.00     0.000 C 
BRANCH   6   7
ATOM      7  C   UNL     1      25.625  51.363  78.137  1.00  0.00     0.000 C 
BRANCH   7   8
ATOM      8  C   UNL     1      25.547  52.242  76.875  1.00  0.00     0.006 C 
BRANCH   8   9
ATOM      9  C   UNL     1      24.154  52.842  76.651  1.00  0.00     0.053 C 
BRANCH   9  10
ATOM     10  C   UNL     1      23.128  51.760  76.546  1.00  0.00     0.041 C 
ATOM     11  O   UNL     1      23.167  50.936  75.594  1.00  0.00    -0.550 OA
ATOM     12  O   UNL     1      22.135  51.649  77.512  1.00  0.00    -0.550 OA
ENDBRANCH   9  10
ENDBRANCH   8   9
ENDBRANCH   7   8
ENDBRANCH   6   7
ENDBRANCH   5   6
ENDBRANCH   4   5
ENDBRANCH   3   4
ENDBRANCH   1   3
BRANCH   2  13
ATOM     13  C   UNL     1      24.041  56.262  78.869  1.00  0.00     0.027 C 
BRANCH  13  14
ATOM     14  C   UNL     1      25.326  56.002  78.075  1.00  0.00     0.004 C 
BRANCH  14  15
ATOM     15  C   UNL     1      26.544  56.596  78.792  1.00  0.00     0.000 C 
BRANCH  15  16
ATOM     16  C   UNL     1      27.300  55.515  79.578  1.00  0.00     0.000 C 
BRANCH  16  17
ATOM     17  C   UNL     1      27.381  55.823  81.082  1.00  0.00    -0.000 C 
BRANCH  17  18
ATOM     18  C   UNL     1      26.540  57.045  81.482  1.00  0.00    -0.000 C 
BRANCH  18  19
ATOM     19  C   UNL     1      25.438  56.650  82.472  1.00  0.00    -0.003 C 
ATOM     20  C   UNL     1      24.171  57.470  82.244  1.00  0.00     0.004 C 
ENDBRANCH  18  19
ENDBRANCH  17  18
ENDBRANCH  16  17
ENDBRANCH  15  16
ENDBRANCH  14  15
ENDBRANCH  13  14
ENDBRANCH   2  13
TORSDOF 15
ENDMDL
MODEL 9
REMARK VINA RESULT:    -2.758      1.823      3.884
REMARK INTER + INTRA:          -8.221
REMARK INTER:                  -4.791
REMARK INTRA:                  -3.430
REMARK UNBOUND:                -3.045
REMARK SMILES CCCCCCCCC=CCCCCCCCC(=O)[O-]
REMARK SMILES IDX 10 1 9 2 11 3 12 4 13 5 14 6 15 7 16 8 17 9 18 10 19 11
REMARK SMILES IDX 20 12 8 13 7 14 6 15 5 16 4 17 3 18 2 19 1 20
REMARK H PARENT
REMARK Flexibility Score: inf
ROOT
ATOM      1  C   UNL     1      25.317  53.039  80.763  1.00  0.00    -0.031 C 
ATOM      2  C   UNL     1      24.525  53.642  81.663  1.00  0.00    -0.031 C 
ENDROOT
BRANCH   1   3
ATOM      3  C   UNL     1      25.490  51.546  80.744  1.00  0.00     0.027 C 
BRANCH   3   4
ATOM      4  C   UNL     1      25.919  51.059  79.355  1.00  0.00     0.004 C 
BRANCH   4   5
ATOM      5  C   UNL     1      26.059  52.233  78.379  1.00  0.00     0.000 C 
BRANCH   5   6
ATOM      6  C   UNL     1      25.410  51.904  77.026  1.00  0.00     0.000 C 
BRANCH   6   7
ATOM      7  C   UNL     1      24.330  52.921  76.614  1.00  0.00     0.000 C 
BRANCH   7   8
ATOM      8  C   UNL     1      22.880  52.466  76.865  1.00  0.00     0.006 C 
BRANCH   8   9
ATOM      9  C   UNL     1      22.275  53.074  78.135  1.00  0.00     0.053 C 
BRANCH   9  10
ATOM     10  C   UNL     1      22.090  52.023  79.183  1.00  0.00     0.041 C 
ATOM     11  O   UNL     1      21.581  52.318  80.297  1.00  0.00    -0.550 OA
ATOM     12  O   UNL     1      22.464  50.711  78.923  1.00  0.00    -0.550 OA
ENDBRANCH   9  10
ENDBRANCH   8   9
ENDBRANCH   7   8
ENDBRANCH   6   7
ENDBRANCH   5   6
ENDBRANCH   4   5
ENDBRANCH   3   4
ENDBRANCH   1   3
BRANCH   2  13
ATOM     13  C   UNL     1      24.330  55.134  81.666  1.00  0.00     0.027 C 
BRANCH  13  14
ATOM     14  C   UNL     1      23.370  55.569  80.553  1.00  0.00     0.004 C 
BRANCH  14  15
ATOM     15  C   UNL     1      24.031  56.601  79.631  1.00  0.00     0.000 C 
BRANCH  15  16
ATOM     16  C   UNL     1      24.674  55.919  78.415  1.00  0.00     0.000 C 
BRANCH  16  17
ATOM     17  C   UNL     1      26.209  55.895  78.492  1.00  0.00    -0.000 C 
BRANCH  17  18
ATOM     18  C   UNL     1      26.772  56.974  79.430  1.00  0.00    -0.000 C 
BRANCH  18  19
ATOM     19  C   UNL     1      27.776  56.371  80.418  1.00  0.00    -0.003 C 
ATOM     20  C   UNL     1      28.203  54.970  79.986  1.00  0.00     0.004 C 
ENDBRANCH  18  19
ENDBRANCH  17  18
ENDBRANCH  16  17
ENDBRANCH  15  16
ENDBRANCH  14  15
ENDBRANCH  13  14
ENDBRANCH   2  13
TORSDOF 15
ENDMDL
