MODEL 1
REMARK VINA RESULT:    -5.871      0.000      0.000
REMARK INTER + INTRA:         -11.608
REMARK INTER:                 -10.676
REMARK INTRA:                  -0.932
REMARK UNBOUND:                -0.932
REMARK SMILES CCCCCCCCCCCCCCCC(=O)[O-]
REMARK SMILES IDX 9 1 10 2 11 3 12 4 13 5 14 6 15 7 16 8 17 9 18 10 8 11 7 12
REMARK SMILES IDX 6 13 5 14 4 15 3 16 2 17 1 18
REMARK H PARENT
REMARK Flexibility Score: inf
ROOT
ATOM      1  C   UNL     1      87.211 319.638 198.070  1.00  0.00     0.000 C 
ENDROOT
BRANCH   1   2
ATOM      2  C   UNL     1      87.325 320.513 199.336  1.00  0.00     0.000 C 
BRANCH   2   3
ATOM      3  C   UNL     1      88.124 319.849 200.470  1.00  0.00     0.000 C 
BRANCH   3   4
ATOM      4  C   UNL     1      88.054 320.634 201.790  1.00  0.00     0.000 C 
BRANCH   4   5
ATOM      5  C   UNL     1      89.439 321.053 202.304  1.00  0.00     0.000 C 
BRANCH   5   6
ATOM      6  C   UNL     1      89.413 321.503 203.773  1.00  0.00     0.006 C 
BRANCH   6   7
ATOM      7  C   UNL     1      88.061 321.187 204.418  1.00  0.00     0.053 C 
BRANCH   7   8
ATOM      8  C   UNL     1      88.178 321.188 205.911  1.00  0.00     0.041 C 
ATOM      9  O   UNL     1      89.276 321.471 206.459  1.00  0.00    -0.550 OA
ATOM     10  O   UNL     1      87.062 320.926 206.695  1.00  0.00    -0.550 OA
ENDBRANCH   7   8
ENDBRANCH   6   7
ENDBRANCH   5   6
ENDBRANCH   4   5
ENDBRANCH   3   4
ENDBRANCH   2   3
ENDBRANCH   1   2
BRANCH   1  11
ATOM     11  C   UNL     1      86.463 320.355 196.933  1.00  0.00     0.000 C 
BRANCH  11  12
ATOM     12  C   UNL     1      87.361 320.647 195.720  1.00  0.00    -0.000 C 
BRANCH  12  13
ATOM     13  C   UNL     1      86.555 320.937 194.442  1.00  0.00    -0.000 C 
BRANCH  13  14
ATOM     14  C   UNL     1      85.105 320.431 194.536  1.00  0.00    -0.000 C 
BRANCH  14  15
ATOM     15  C   UNL     1      84.766 319.415 193.431  1.00  0.00    -0.000 C 
BRANCH  15  16
ATOM     16  C   UNL     1      86.010 318.912 192.678  1.00  0.00    -0.000 C 
BRANCH  16  17
ATOM     17  C   UNL     1      86.396 317.451 192.965  1.00  0.00    -0.003 C 
ATOM     18  C   UNL     1      86.793 317.212 194.420  1.00  0.00     0.004 C 
ENDBRANCH  16  17
ENDBRANCH  15  16
ENDBRANCH  14  15
ENDBRANCH  13  14
ENDBRANCH  12  13
ENDBRANCH  11  12
ENDBRANCH   1  11
TORSDOF 14
ENDMDL
MODEL 2
REMARK VINA RESULT:    -5.851     19.390     20.355
REMARK INTER + INTRA:         -11.571
REMARK INTER:                 -10.932
REMARK INTRA:                  -0.639
REMARK UNBOUND:                -0.932
REMARK SMILES CCCCCCCCCCCCCCCC(=O)[O-]
REMARK SMILES IDX 9 1 10 2 11 3 12 4 13 5 14 6 15 7 16 8 17 9 18 10 8 11 7 12
REMARK SMILES IDX 6 13 5 14 4 15 3 16 2 17 1 18
REMARK H PARENT
REMARK Flexibility Score: inf
ROOT
ATOM      1  C   UNL     1     101.463 306.440 194.875  1.00  0.00     0.000 C 
ENDROOT
BRANCH   1   2
ATOM      2  C   UNL     1     102.525 306.262 195.981  1.00  0.00     0.000 C 
BRANCH   2   3
ATOM      3  C   UNL     1     101.991 305.550 197.235  1.00  0.00     0.000 C 
BRANCH   3   4
ATOM      4  C   UNL     1     101.562 306.529 198.341  1.00  0.00     0.000 C 
BRANCH   4   5
ATOM      5  C   UNL     1     101.361 305.838 199.698  1.00  0.00     0.000 C 
BRANCH   5   6
ATOM      6  C   UNL     1     102.497 306.138 200.688  1.00  0.00     0.006 C 
BRANCH   6   7
ATOM      7  C   UNL     1     101.940 306.580 202.044  1.00  0.00     0.053 C 
BRANCH   7   8
ATOM      8  C   UNL     1     101.539 305.392 202.860  1.00  0.00     0.041 C 
ATOM      9  O   UNL     1     100.333 305.030 202.901  1.00  0.00    -0.550 OA
ATOM     10  O   UNL     1     102.504 304.654 203.534  1.00  0.00    -0.550 OA
ENDBRANCH   7   8
ENDBRANCH   6   7
ENDBRANCH   5   6
ENDBRANCH   4   5
ENDBRANCH   3   4
ENDBRANCH   2   3
ENDBRANCH   1   2
BRANCH   1  11
ATOM     11  C   UNL     1     101.923 305.856 193.528  1.00  0.00     0.000 C 
BRANCH  11  12
ATOM     12  C   UNL     1     103.369 306.240 193.175  1.00  0.00    -0.000 C 
BRANCH  12  13
ATOM     13  C   UNL     1     103.458 307.566 192.401  1.00  0.00    -0.000 C 
BRANCH  13  14
ATOM     14  C   UNL     1     102.313 307.730 191.387  1.00  0.00    -0.000 C 
BRANCH  14  15
ATOM     15  C   UNL     1     102.102 309.197 190.973  1.00  0.00    -0.000 C 
BRANCH  15  16
ATOM     16  C   UNL     1     102.791 309.548 189.642  1.00  0.00    -0.000 C 
BRANCH  16  17
ATOM     17  C   UNL     1     101.844 310.029 188.528  1.00  0.00    -0.003 C 
ATOM     18  C   UNL     1     100.569 309.195 188.426  1.00  0.00     0.004 C 
ENDBRANCH  16  17
ENDBRANCH  15  16
ENDBRANCH  14  15
ENDBRANCH  13  14
ENDBRANCH  12  13
ENDBRANCH  11  12
ENDBRANCH   1  11
TORSDOF 14
ENDMDL
MODEL 3
REMARK VINA RESULT:    -5.840     20.366     22.780
REMARK INTER + INTRA:         -11.551
REMARK INTER:                 -11.050
REMARK INTRA:                  -0.501
REMARK UNBOUND:                -0.932
REMARK SMILES CCCCCCCCCCCCCCCC(=O)[O-]
REMARK SMILES IDX 9 1 10 2 11 3 12 4 13 5 14 6 15 7 16 8 17 9 18 10 8 11 7 12
REMARK SMILES IDX 6 13 5 14 4 15 3 16 2 17 1 18
REMARK H PARENT
REMARK Flexibility Score: inf
ROOT
ATOM      1  C   UNL     1     101.867 305.662 197.301  1.00  0.00     0.000 C 
ENDROOT
BRANCH   1   2
ATOM      2  C   UNL     1     102.488 306.345 196.064  1.00  0.00     0.000 C 
BRANCH   2   3
ATOM      3  C   UNL     1     101.489 306.555 194.914  1.00  0.00     0.000 C 
BRANCH   3   4
ATOM      4  C   UNL     1     101.907 305.835 193.621  1.00  0.00     0.000 C 
BRANCH   4   5
ATOM      5  C   UNL     1     103.379 306.078 193.257  1.00  0.00     0.000 C 
BRANCH   5   6
ATOM      6  C   UNL     1     103.572 307.316 192.369  1.00  0.00     0.006 C 
BRANCH   6   7
ATOM      7  C   UNL     1     102.290 307.642 191.597  1.00  0.00     0.053 C 
BRANCH   7   8
ATOM      8  C   UNL     1     102.444 308.923 190.840  1.00  0.00     0.041 C 
ATOM      9  O   UNL     1     103.103 309.876 191.334  1.00  0.00    -0.550 OA
ATOM     10  O   UNL     1     101.903 309.047 189.566  1.00  0.00    -0.550 OA
ENDBRANCH   7   8
ENDBRANCH   6   7
ENDBRANCH   5   6
ENDBRANCH   4   5
ENDBRANCH   3   4
ENDBRANCH   2   3
ENDBRANCH   1   2
BRANCH   1  11
ATOM     11  C   UNL     1     101.819 306.600 198.520  1.00  0.00     0.000 C 
BRANCH  11  12
ATOM     12  C   UNL     1     101.431 305.872 199.816  1.00  0.00    -0.000 C 
BRANCH  12  13
ATOM     13  C   UNL     1     102.471 306.059 200.935  1.00  0.00    -0.000 C 
BRANCH  13  14
ATOM     14  C   UNL     1     101.824 306.132 202.329  1.00  0.00    -0.000 C 
BRANCH  14  15
ATOM     15  C   UNL     1     102.136 304.894 203.187  1.00  0.00    -0.000 C 
BRANCH  15  16
ATOM     16  C   UNL     1     102.343 305.234 204.674  1.00  0.00    -0.000 C 
BRANCH  16  17
ATOM     17  C   UNL     1     103.481 306.228 204.961  1.00  0.00    -0.003 C 
ATOM     18  C   UNL     1     104.013 306.134 206.389  1.00  0.00     0.004 C 
ENDBRANCH  16  17
ENDBRANCH  15  16
ENDBRANCH  14  15
ENDBRANCH  13  14
ENDBRANCH  12  13
ENDBRANCH  11  12
ENDBRANCH   1  11
TORSDOF 14
ENDMDL
MODEL 4
REMARK VINA RESULT:    -5.829     19.651     20.521
REMARK INTER + INTRA:         -11.532
REMARK INTER:                 -11.038
REMARK INTRA:                  -0.494
REMARK UNBOUND:                -0.932
REMARK SMILES CCCCCCCCCCCCCCCC(=O)[O-]
REMARK SMILES IDX 9 1 10 2 11 3 12 4 13 5 14 6 15 7 16 8 17 9 18 10 8 11 7 12
REMARK SMILES IDX 6 13 5 14 4 15 3 16 2 17 1 18
REMARK H PARENT
REMARK Flexibility Score: inf
ROOT
ATOM      1  C   UNL     1     102.469 306.259 196.026  1.00  0.00     0.000 C 
ENDROOT
BRANCH   1   2
ATOM      2  C   UNL     1     101.867 305.533 197.248  1.00  0.00     0.000 C 
BRANCH   2   3
ATOM      3  C   UNL     1     101.977 306.338 198.554  1.00  0.00     0.000 C 
BRANCH   3   4
ATOM      4  C   UNL     1     101.181 305.711 199.710  1.00  0.00     0.000 C 
BRANCH   4   5
ATOM      5  C   UNL     1     101.500 306.357 201.067  1.00  0.00     0.000 C 
BRANCH   5   6
ATOM      6  C   UNL     1     101.052 305.490 202.254  1.00  0.00     0.006 C 
BRANCH   6   7
ATOM      7  C   UNL     1     102.244 305.115 203.139  1.00  0.00     0.053 C 
BRANCH   7   8
ATOM      8  C   UNL     1     101.839 305.079 204.579  1.00  0.00     0.041 C 
ATOM      9  O   UNL     1     102.657 305.416 205.475  1.00  0.00    -0.550 OA
ATOM     10  O   UNL     1     100.543 304.721 204.927  1.00  0.00    -0.550 OA
ENDBRANCH   7   8
ENDBRANCH   6   7
ENDBRANCH   5   6
ENDBRANCH   4   5
ENDBRANCH   3   4
ENDBRANCH   2   3
ENDBRANCH   1   2
BRANCH   1  11
ATOM     11  C   UNL     1     101.490 306.309 194.840  1.00  0.00     0.000 C 
BRANCH  11  12
ATOM     12  C   UNL     1     102.125 305.837 193.523  1.00  0.00    -0.000 C 
BRANCH  12  13
ATOM     13  C   UNL     1     103.620 306.186 193.427  1.00  0.00    -0.000 C 
BRANCH  13  14
ATOM     14  C   UNL     1     103.884 307.381 192.495  1.00  0.00    -0.000 C 
BRANCH  14  15
ATOM     15  C   UNL     1     102.629 307.804 191.713  1.00  0.00    -0.000 C 
BRANCH  15  16
ATOM     16  C   UNL     1     102.934 308.817 190.595  1.00  0.00    -0.000 C 
BRANCH  16  17
ATOM     17  C   UNL     1     101.726 309.208 189.726  1.00  0.00    -0.003 C 
ATOM     18  C   UNL     1     102.125 309.849 188.398  1.00  0.00     0.004 C 
ENDBRANCH  16  17
ENDBRANCH  15  16
ENDBRANCH  14  15
ENDBRANCH  13  14
ENDBRANCH  12  13
ENDBRANCH  11  12
ENDBRANCH   1  11
TORSDOF 14
ENDMDL
MODEL 5
REMARK VINA RESULT:    -5.799     19.109     20.360
REMARK INTER + INTRA:         -11.478
REMARK INTER:                 -10.219
REMARK INTRA:                  -1.259
REMARK UNBOUND:                -0.932
REMARK SMILES CCCCCCCCCCCCCCCC(=O)[O-]
REMARK SMILES IDX 9 1 10 2 11 3 12 4 13 5 14 6 15 7 16 8 17 9 18 10 8 11 7 12
REMARK SMILES IDX 6 13 5 14 4 15 3 16 2 17 1 18
REMARK H PARENT
REMARK Flexibility Score: inf
ROOT
ATOM      1  C   UNL     1     102.548 306.158 195.846  1.00  0.00     0.000 C 
ENDROOT
BRANCH   1   2
ATOM      2  C   UNL     1     102.001 305.835 197.253  1.00  0.00     0.000 C 
BRANCH   2   3
ATOM      3  C   UNL     1     101.529 307.078 198.027  1.00  0.00     0.000 C 
BRANCH   3   4
ATOM      4  C   UNL     1     101.173 306.771 199.490  1.00  0.00     0.000 C 
BRANCH   4   5
ATOM      5  C   UNL     1     102.231 305.902 200.187  1.00  0.00     0.000 C 
BRANCH   5   6
ATOM      6  C   UNL     1     102.240 306.092 201.712  1.00  0.00     0.006 C 
BRANCH   6   7
ATOM      7  C   UNL     1     101.036 305.402 202.358  1.00  0.00     0.053 C 
BRANCH   7   8
ATOM      8  C   UNL     1     101.354 304.996 203.762  1.00  0.00     0.041 C 
ATOM      9  O   UNL     1     102.540 305.046 204.183  1.00  0.00    -0.550 OA
ATOM     10  O   UNL     1     100.333 304.609 204.622  1.00  0.00    -0.550 OA
ENDBRANCH   7   8
ENDBRANCH   6   7
ENDBRANCH   5   6
ENDBRANCH   4   5
ENDBRANCH   3   4
ENDBRANCH   2   3
ENDBRANCH   1   2
BRANCH   1  11
ATOM     11  C   UNL     1     101.440 306.158 194.778  1.00  0.00     0.000 C 
BRANCH  11  12
ATOM     12  C   UNL     1     101.948 305.723 193.394  1.00  0.00    -0.000 C 
BRANCH  12  13
ATOM     13  C   UNL     1     103.460 305.948 193.219  1.00  0.00    -0.000 C 
BRANCH  13  14
ATOM     14  C   UNL     1     103.775 307.269 192.498  1.00  0.00    -0.000 C 
BRANCH  14  15
ATOM     15  C   UNL     1     102.581 307.792 191.682  1.00  0.00    -0.000 C 
BRANCH  15  16
ATOM     16  C   UNL     1     102.019 309.119 192.226  1.00  0.00    -0.000 C 
BRANCH  16  17
ATOM     17  C   UNL     1     102.692 309.629 193.512  1.00  0.00    -0.003 C 
ATOM     18  C   UNL     1     101.719 309.769 194.681  1.00  0.00     0.004 C 
ENDBRANCH  16  17
ENDBRANCH  15  16
ENDBRANCH  14  15
ENDBRANCH  13  14
ENDBRANCH  12  13
ENDBRANCH  11  12
ENDBRANCH   1  11
TORSDOF 14
ENDMDL
MODEL 6
REMARK VINA RESULT:    -5.798     19.268     20.477
REMARK INTER + INTRA:         -11.476
REMARK INTER:                 -10.437
REMARK INTRA:                  -1.039
REMARK UNBOUND:                -0.932
REMARK SMILES CCCCCCCCCCCCCCCC(=O)[O-]
REMARK SMILES IDX 9 1 10 2 11 3 12 4 13 5 14 6 15 7 16 8 17 9 18 10 8 11 7 12
REMARK SMILES IDX 6 13 5 14 4 15 3 16 2 17 1 18
REMARK H PARENT
REMARK Flexibility Score: inf
ROOT
ATOM      1  C   UNL     1     101.730 306.878 196.956  1.00  0.00     0.000 C 
ENDROOT
BRANCH   1   2
ATOM      2  C   UNL     1     101.896 306.027 198.233  1.00  0.00     0.000 C 
BRANCH   2   3
ATOM      3  C   UNL     1     101.862 306.856 199.529  1.00  0.00     0.000 C 
BRANCH   3   4
ATOM      4  C   UNL     1     102.025 305.995 200.792  1.00  0.00     0.000 C 
BRANCH   4   5
ATOM      5  C   UNL     1     100.678 305.576 201.401  1.00  0.00     0.000 C 
BRANCH   5   6
ATOM      6  C   UNL     1     100.798 305.170 202.878  1.00  0.00     0.006 C 
BRANCH   6   7
ATOM      7  C   UNL     1     102.266 305.035 203.291  1.00  0.00     0.053 C 
BRANCH   7   8
ATOM      8  C   UNL     1     102.518 305.754 204.579  1.00  0.00     0.041 C 
ATOM      9  O   UNL     1     101.585 305.910 205.410  1.00  0.00    -0.550 OA
ATOM     10  O   UNL     1     103.795 306.208 204.883  1.00  0.00    -0.550 OA
ENDBRANCH   7   8
ENDBRANCH   6   7
ENDBRANCH   5   6
ENDBRANCH   4   5
ENDBRANCH   3   4
ENDBRANCH   2   3
ENDBRANCH   1   2
BRANCH   1  11
ATOM     11  C   UNL     1     102.436 306.248 195.742  1.00  0.00     0.000 C 
BRANCH  11  12
ATOM     12  C   UNL     1     101.461 305.874 194.614  1.00  0.00    -0.000 C 
BRANCH  12  13
ATOM     13  C   UNL     1     102.162 305.715 193.254  1.00  0.00    -0.000 C 
BRANCH  13  14
ATOM     14  C   UNL     1     103.627 306.182 193.292  1.00  0.00    -0.000 C 
BRANCH  14  15
ATOM     15  C   UNL     1     103.891 307.364 192.343  1.00  0.00    -0.000 C 
BRANCH  15  16
ATOM     16  C   UNL     1     102.605 307.908 191.693  1.00  0.00    -0.000 C 
BRANCH  16  17
ATOM     17  C   UNL     1     102.221 309.337 192.113  1.00  0.00    -0.003 C 
ATOM     18  C   UNL     1     101.855 309.448 193.591  1.00  0.00     0.004 C 
ENDBRANCH  16  17
ENDBRANCH  15  16
ENDBRANCH  14  15
ENDBRANCH  13  14
ENDBRANCH  12  13
ENDBRANCH  11  12
ENDBRANCH   1  11
TORSDOF 14
ENDMDL
MODEL 7
REMARK VINA RESULT:    -5.745      6.144     10.624
REMARK INTER + INTRA:         -11.379
REMARK INTER:                 -10.606
REMARK INTRA:                  -0.773
REMARK UNBOUND:                -0.932
REMARK SMILES CCCCCCCCCCCCCCCC(=O)[O-]
REMARK SMILES IDX 9 1 10 2 11 3 12 4 13 5 14 6 15 7 16 8 17 9 18 10 8 11 7 12
REMARK SMILES IDX 6 13 5 14 4 15 3 16 2 17 1 18
REMARK H PARENT
REMARK Flexibility Score: inf
ROOT
ATOM      1  C   UNL     1      87.312 320.808 195.677  1.00  0.00     0.000 C 
ENDROOT
BRANCH   1   2
ATOM      2  C   UNL     1      86.486 320.928 194.379  1.00  0.00     0.000 C 
BRANCH   2   3
ATOM      3  C   UNL     1      85.030 320.456 194.533  1.00  0.00     0.000 C 
BRANCH   3   4
ATOM      4  C   UNL     1      84.643 319.371 193.516  1.00  0.00     0.000 C 
BRANCH   4   5
ATOM      5  C   UNL     1      85.816 318.443 193.164  1.00  0.00     0.000 C 
BRANCH   5   6
ATOM      6  C   UNL     1      86.243 318.564 191.694  1.00  0.00     0.006 C 
BRANCH   6   7
ATOM      7  C   UNL     1      86.380 317.182 191.048  1.00  0.00     0.053 C 
BRANCH   7   8
ATOM      8  C   UNL     1      86.564 317.309 189.568  1.00  0.00     0.041 C 
ATOM      9  O   UNL     1      85.704 316.834 188.780  1.00  0.00    -0.550 OA
ATOM     10  O   UNL     1      87.659 317.997 189.060  1.00  0.00    -0.550 OA
ENDBRANCH   7   8
ENDBRANCH   6   7
ENDBRANCH   5   6
ENDBRANCH   4   5
ENDBRANCH   3   4
ENDBRANCH   2   3
ENDBRANCH   1   2
BRANCH   1  11
ATOM     11  C   UNL     1      86.536 320.090 196.795  1.00  0.00     0.000 C 
BRANCH  11  12
ATOM     12  C   UNL     1      87.314 318.909 197.397  1.00  0.00    -0.000 C 
BRANCH  12  13
ATOM     13  C   UNL     1      87.505 319.038 198.918  1.00  0.00    -0.000 C 
BRANCH  13  14
ATOM     14  C   UNL     1      87.345 320.487 199.408  1.00  0.00    -0.000 C 
BRANCH  14  15
ATOM     15  C   UNL     1      88.252 320.804 200.609  1.00  0.00    -0.000 C 
BRANCH  15  16
ATOM     16  C   UNL     1      87.492 320.813 201.948  1.00  0.00    -0.000 C 
BRANCH  16  17
ATOM     17  C   UNL     1      88.384 320.768 203.200  1.00  0.00    -0.003 C 
ATOM     18  C   UNL     1      87.751 321.452 204.410  1.00  0.00     0.004 C 
ENDBRANCH  16  17
ENDBRANCH  15  16
ENDBRANCH  14  15
ENDBRANCH  13  14
ENDBRANCH  12  13
ENDBRANCH  11  12
ENDBRANCH   1  11
TORSDOF 14
ENDMDL
MODEL 8
REMARK VINA RESULT:    -5.609      5.359     10.300
REMARK INTER + INTRA:         -11.132
REMARK INTER:                 -10.387
REMARK INTRA:                  -0.744
REMARK UNBOUND:                -0.932
REMARK SMILES CCCCCCCCCCCCCCCC(=O)[O-]
REMARK SMILES IDX 9 1 10 2 11 3 12 4 13 5 14 6 15 7 16 8 17 9 18 10 8 11 7 12
REMARK SMILES IDX 6 13 5 14 4 15 3 16 2 17 1 18
REMARK H PARENT
REMARK Flexibility Score: inf
ROOT
ATOM      1  C   UNL     1      86.492 320.135 196.935  1.00  0.00     0.000 C 
ENDROOT
BRANCH   1   2
ATOM      2  C   UNL     1      87.349 320.499 195.703  1.00  0.00     0.000 C 
BRANCH   2   3
ATOM      3  C   UNL     1      86.515 320.869 194.465  1.00  0.00     0.000 C 
BRANCH   3   4
ATOM      4  C   UNL     1      85.072 320.347 194.539  1.00  0.00     0.000 C 
BRANCH   4   5
ATOM      5  C   UNL     1      84.747 319.343 193.423  1.00  0.00     0.000 C 
BRANCH   5   6
ATOM      6  C   UNL     1      85.991 318.922 192.626  1.00  0.00     0.006 C 
BRANCH   6   7
ATOM      7  C   UNL     1      86.178 317.403 192.665  1.00  0.00     0.053 C 
BRANCH   7   8
ATOM      8  C   UNL     1      85.035 316.715 191.986  1.00  0.00     0.041 C 
ATOM      9  O   UNL     1      84.747 316.994 190.792  1.00  0.00    -0.550 OA
ATOM     10  O   UNL     1      84.320 315.730 192.656  1.00  0.00    -0.550 OA
ENDBRANCH   7   8
ENDBRANCH   6   7
ENDBRANCH   5   6
ENDBRANCH   4   5
ENDBRANCH   3   4
ENDBRANCH   2   3
ENDBRANCH   1   2
BRANCH   1  11
ATOM     11  C   UNL     1      86.903 320.931 198.185  1.00  0.00     0.000 C 
BRANCH  11  12
ATOM     12  C   UNL     1      87.515 320.044 199.282  1.00  0.00    -0.000 C 
BRANCH  12  13
ATOM     13  C   UNL     1      88.005 320.854 200.494  1.00  0.00    -0.000 C 
BRANCH  13  14
ATOM     14  C   UNL     1      87.223 320.520 201.776  1.00  0.00    -0.000 C 
BRANCH  14  15
ATOM     15  C   UNL     1      88.138 320.022 202.908  1.00  0.00    -0.000 C 
BRANCH  15  16
ATOM     16  C   UNL     1      88.646 321.160 203.812  1.00  0.00    -0.000 C 
BRANCH  16  17
ATOM     17  C   UNL     1      87.631 321.663 204.854  1.00  0.00    -0.003 C 
ATOM     18  C   UNL     1      87.132 320.559 205.784  1.00  0.00     0.004 C 
ENDBRANCH  16  17
ENDBRANCH  15  16
ENDBRANCH  14  15
ENDBRANCH  13  14
ENDBRANCH  12  13
ENDBRANCH  11  12
ENDBRANCH   1  11
TORSDOF 14
ENDMDL
MODEL 9
REMARK VINA RESULT:    -5.521     19.070     21.543
REMARK INTER + INTRA:         -10.972
REMARK INTER:                  -8.903
REMARK INTRA:                  -2.068
REMARK UNBOUND:                -0.932
REMARK SMILES CCCCCCCCCCCCCCCC(=O)[O-]
REMARK SMILES IDX 9 1 10 2 11 3 12 4 13 5 14 6 15 7 16 8 17 9 18 10 8 11 7 12
REMARK SMILES IDX 6 13 5 14 4 15 3 16 2 17 1 18
REMARK H PARENT
REMARK Flexibility Score: inf
ROOT
ATOM      1  C   UNL     1     103.537 306.110 194.614  1.00  0.00     0.000 C 
ENDROOT
BRANCH   1   2
ATOM      2  C   UNL     1     103.554 306.644 193.166  1.00  0.00     0.000 C 
BRANCH   2   3
ATOM      3  C   UNL     1     102.168 307.076 192.656  1.00  0.00     0.000 C 
BRANCH   3   4
ATOM      4  C   UNL     1     102.231 307.814 191.309  1.00  0.00     0.000 C 
BRANCH   4   5
ATOM      5  C   UNL     1     103.546 308.584 191.116  1.00  0.00     0.000 C 
BRANCH   5   6
ATOM      6  C   UNL     1     103.448 309.657 190.021  1.00  0.00     0.006 C 
BRANCH   6   7
ATOM      7  C   UNL     1     102.101 309.578 189.297  1.00  0.00     0.053 C 
BRANCH   7   8
ATOM      8  C   UNL     1     102.091 310.485 188.106  1.00  0.00     0.041 C 
ATOM      9  O   UNL     1     102.998 310.399 187.237  1.00  0.00    -0.550 OA
ATOM     10  O   UNL     1     101.052 311.391 187.932  1.00  0.00    -0.550 OA
ENDBRANCH   7   8
ENDBRANCH   6   7
ENDBRANCH   5   6
ENDBRANCH   4   5
ENDBRANCH   3   4
ENDBRANCH   2   3
ENDBRANCH   1   2
BRANCH   1  11
ATOM     11  C   UNL     1     102.153 306.251 195.269  1.00  0.00     0.000 C 
BRANCH  11  12
ATOM     12  C   UNL     1     102.230 306.422 196.795  1.00  0.00    -0.000 C 
BRANCH  12  13
ATOM     13  C   UNL     1     101.982 307.873 197.242  1.00  0.00    -0.000 C 
BRANCH  13  14
ATOM     14  C   UNL     1     100.714 308.472 196.610  1.00  0.00    -0.000 C 
BRANCH  14  15
ATOM     15  C   UNL     1     101.018 309.702 195.737  1.00  0.00    -0.000 C 
BRANCH  15  16
ATOM     16  C   UNL     1     102.526 309.916 195.510  1.00  0.00    -0.000 C 
BRANCH  16  17
ATOM     17  C   UNL     1     102.901 310.469 194.125  1.00  0.00    -0.003 C 
ATOM     18  C   UNL     1     101.688 310.902 193.305  1.00  0.00     0.004 C 
ENDBRANCH  16  17
ENDBRANCH  15  16
ENDBRANCH  14  15
ENDBRANCH  13  14
ENDBRANCH  12  13
ENDBRANCH  11  12
ENDBRANCH   1  11
TORSDOF 14
ENDMDL
