MODEL 1
REMARK VINA RESULT:    -4.461      0.000      0.000
REMARK INTER + INTRA:         -14.920
REMARK INTER:                 -11.242
REMARK INTRA:                  -3.678
REMARK UNBOUND:                -3.678
REMARK SMILES CCCCCCCCCCCCCCCCCCCCCCCCCCCC(=O)[O-]
REMARK SMILES IDX 15 1 16 2 17 3 18 4 19 5 20 6 21 7 22 8 23 9 24 10 25 11
REMARK SMILES IDX 26 12 27 13 28 14 29 15 30 16 14 17 13 18 12 19 11 20 10 21
REMARK SMILES IDX 9 22 8 23 7 24 6 25 5 26 4 27 3 28 2 29 1 30
REMARK H PARENT
REMARK Flexibility Score: inf
ROOT
ATOM      1  C   UNL     1       2.574  -2.293   5.194  1.00  0.00     0.000 C 
ENDROOT
BRANCH   1   2
ATOM      2  C   UNL     1       3.864  -1.706   5.800  1.00  0.00     0.000 C 
BRANCH   2   3
ATOM      3  C   UNL     1       4.099  -2.031   7.285  1.00  0.00     0.000 C 
BRANCH   3   4
ATOM      4  C   UNL     1       3.802  -0.838   8.210  1.00  0.00     0.000 C 
BRANCH   4   5
ATOM      5  C   UNL     1       2.471  -0.988   8.969  1.00  0.00     0.000 C 
BRANCH   5   6
ATOM      6  C   UNL     1       1.452   0.152   8.752  1.00  0.00     0.000 C 
BRANCH   6   7
ATOM      7  C   UNL     1       1.881   1.228   7.739  1.00  0.00     0.000 C 
BRANCH   7   8
ATOM      8  C   UNL     1       1.165   2.568   7.956  1.00  0.00     0.000 C 
BRANCH   8   9
ATOM      9  C   UNL     1       0.440   2.596   9.308  1.00  0.00     0.000 C 
BRANCH   9  10
ATOM     10  C   UNL     1      -0.240   3.959   9.574  1.00  0.00     0.000 C 
BRANCH  10  11
ATOM     11  C   UNL     1       0.386   5.118   8.778  1.00  0.00     0.000 C 
BRANCH  11  12
ATOM     12  C   UNL     1      -0.504   5.678   7.652  1.00  0.00     0.006 C 
BRANCH  12  13
ATOM     13  C   UNL     1       0.278   6.101   6.393  1.00  0.00     0.053 C 
BRANCH  13  14
ATOM     14  C   UNL     1      -0.543   5.994   5.146  1.00  0.00     0.041 C 
ATOM     15  O   UNL     1      -1.661   6.567   5.069  1.00  0.00    -0.550 OA
ATOM     16  O   UNL     1      -0.078   5.248   4.071  1.00  0.00    -0.550 OA
ENDBRANCH  13  14
ENDBRANCH  12  13
ENDBRANCH  11  12
ENDBRANCH  10  11
ENDBRANCH   9  10
ENDBRANCH   8   9
ENDBRANCH   7   8
ENDBRANCH   6   7
ENDBRANCH   5   6
ENDBRANCH   4   5
ENDBRANCH   3   4
ENDBRANCH   2   3
ENDBRANCH   1   2
BRANCH   1  17
ATOM     17  C   UNL     1       1.358  -1.349   5.207  1.00  0.00     0.000 C 
BRANCH  17  18
ATOM     18  C   UNL     1       0.200  -1.879   6.066  1.00  0.00     0.000 C 
BRANCH  18  19
ATOM     19  C   UNL     1       0.566  -3.220   6.715  1.00  0.00     0.000 C 
BRANCH  19  20
ATOM     20  C   UNL     1      -0.670  -3.878   7.349  1.00  0.00     0.000 C 
BRANCH  20  21
ATOM     21  C   UNL     1      -1.642  -2.852   7.956  1.00  0.00     0.000 C 
BRANCH  21  22
ATOM     22  C   UNL     1      -3.059  -2.971   7.370  1.00  0.00    -0.000 C 
BRANCH  22  23
ATOM     23  C   UNL     1      -4.144  -2.399   8.302  1.00  0.00    -0.000 C 
BRANCH  23  24
ATOM     24  C   UNL     1      -5.211  -1.528   7.613  1.00  0.00    -0.000 C 
BRANCH  24  25
ATOM     25  C   UNL     1      -5.350  -1.824   6.111  1.00  0.00    -0.000 C 
BRANCH  25  26
ATOM     26  C   UNL     1      -4.784  -0.700   5.223  1.00  0.00    -0.000 C 
BRANCH  26  27
ATOM     27  C   UNL     1      -4.092  -1.171   3.928  1.00  0.00    -0.000 C 
BRANCH  27  28
ATOM     28  C   UNL     1      -2.613  -1.582   4.083  1.00  0.00    -0.000 C 
BRANCH  28  29
ATOM     29  C   UNL     1      -2.292  -3.021   3.639  1.00  0.00    -0.003 C 
ATOM     30  C   UNL     1      -3.544  -3.836   3.315  1.00  0.00     0.004 C 
ENDBRANCH  28  29
ENDBRANCH  27  28
ENDBRANCH  26  27
ENDBRANCH  25  26
ENDBRANCH  24  25
ENDBRANCH  23  24
ENDBRANCH  22  23
ENDBRANCH  21  22
ENDBRANCH  20  21
ENDBRANCH  19  20
ENDBRANCH  18  19
ENDBRANCH  17  18
ENDBRANCH   1  17
TORSDOF 26
ENDMDL
MODEL 2
REMARK VINA RESULT:    -4.426      1.109      2.164
REMARK INTER + INTRA:         -14.830
REMARK INTER:                 -10.947
REMARK INTRA:                  -3.883
REMARK UNBOUND:                -3.678
REMARK SMILES CCCCCCCCCCCCCCCCCCCCCCCCCCCC(=O)[O-]
REMARK SMILES IDX 15 1 16 2 17 3 18 4 19 5 20 6 21 7 22 8 23 9 24 10 25 11
REMARK SMILES IDX 26 12 27 13 28 14 29 15 30 16 14 17 13 18 12 19 11 20 10 21
REMARK SMILES IDX 9 22 8 23 7 24 6 25 5 26 4 27 3 28 2 29 1 30
REMARK H PARENT
REMARK Flexibility Score: inf
ROOT
ATOM      1  C   UNL     1       0.325  -1.521   5.221  1.00  0.00     0.000 C 
ENDROOT
BRANCH   1   2
ATOM      2  C   UNL     1       1.758  -1.074   5.572  1.00  0.00     0.000 C 
BRANCH   2   3
ATOM      3  C   UNL     1       2.869  -2.064   5.180  1.00  0.00     0.000 C 
BRANCH   3   4
ATOM      4  C   UNL     1       4.093  -1.984   6.108  1.00  0.00     0.000 C 
BRANCH   4   5
ATOM      5  C   UNL     1       3.818  -2.559   7.510  1.00  0.00     0.000 C 
BRANCH   5   6
ATOM      6  C   UNL     1       4.227  -1.652   8.690  1.00  0.00     0.000 C 
BRANCH   6   7
ATOM      7  C   UNL     1       3.091  -0.800   9.284  1.00  0.00     0.000 C 
BRANCH   7   8
ATOM      8  C   UNL     1       2.990   0.589   8.641  1.00  0.00     0.000 C 
BRANCH   8   9
ATOM      9  C   UNL     1       1.526   1.007   8.451  1.00  0.00     0.000 C 
BRANCH   9  10
ATOM     10  C   UNL     1       1.372   2.119   7.388  1.00  0.00     0.000 C 
BRANCH  10  11
ATOM     11  C   UNL     1       0.822   3.437   7.961  1.00  0.00     0.000 C 
BRANCH  11  12
ATOM     12  C   UNL     1       0.471   4.500   6.901  1.00  0.00     0.006 C 
BRANCH  12  13
ATOM     13  C   UNL     1       1.285   4.373   5.599  1.00  0.00     0.053 C 
BRANCH  13  14
ATOM     14  C   UNL     1       0.690   5.161   4.473  1.00  0.00     0.041 C 
ATOM     15  O   UNL     1      -0.491   5.588   4.549  1.00  0.00    -0.550 OA
ATOM     16  O   UNL     1       1.439   5.410   3.330  1.00  0.00    -0.550 OA
ENDBRANCH  13  14
ENDBRANCH  12  13
ENDBRANCH  11  12
ENDBRANCH  10  11
ENDBRANCH   9  10
ENDBRANCH   8   9
ENDBRANCH   7   8
ENDBRANCH   6   7
ENDBRANCH   5   6
ENDBRANCH   4   5
ENDBRANCH   3   4
ENDBRANCH   2   3
ENDBRANCH   1   2
BRANCH   1  17
ATOM     17  C   UNL     1      -0.240  -2.652   6.099  1.00  0.00     0.000 C 
BRANCH  17  18
ATOM     18  C   UNL     1       0.135  -2.501   7.581  1.00  0.00     0.000 C 
BRANCH  18  19
ATOM     19  C   UNL     1      -1.091  -2.695   8.482  1.00  0.00     0.000 C 
BRANCH  19  20
ATOM     20  C   UNL     1      -2.389  -2.637   7.661  1.00  0.00     0.000 C 
BRANCH  20  21
ATOM     21  C   UNL     1      -3.633  -2.989   8.495  1.00  0.00     0.000 C 
BRANCH  21  22
ATOM     22  C   UNL     1      -4.862  -2.156   8.094  1.00  0.00    -0.000 C 
BRANCH  22  23
ATOM     23  C   UNL     1      -5.612  -2.736   6.881  1.00  0.00    -0.000 C 
BRANCH  23  24
ATOM     24  C   UNL     1      -5.955  -1.724   5.772  1.00  0.00    -0.000 C 
BRANCH  24  25
ATOM     25  C   UNL     1      -4.816  -0.731   5.493  1.00  0.00    -0.000 C 
BRANCH  25  26
ATOM     26  C   UNL     1      -4.283  -0.820   4.051  1.00  0.00    -0.000 C 
BRANCH  26  27
ATOM     27  C   UNL     1      -3.081  -1.765   3.851  1.00  0.00    -0.000 C 
BRANCH  27  28
ATOM     28  C   UNL     1      -3.438  -3.204   3.424  1.00  0.00    -0.000 C 
BRANCH  28  29
ATOM     29  C   UNL     1      -2.440  -4.281   3.886  1.00  0.00    -0.003 C 
ATOM     30  C   UNL     1      -3.043  -5.255   4.899  1.00  0.00     0.004 C 
ENDBRANCH  28  29
ENDBRANCH  27  28
ENDBRANCH  26  27
ENDBRANCH  25  26
ENDBRANCH  24  25
ENDBRANCH  23  24
ENDBRANCH  22  23
ENDBRANCH  21  22
ENDBRANCH  20  21
ENDBRANCH  19  20
ENDBRANCH  18  19
ENDBRANCH  17  18
ENDBRANCH   1  17
TORSDOF 26
ENDMDL
MODEL 3
REMARK VINA RESULT:    -4.292      1.211      2.046
REMARK INTER + INTRA:         -14.493
REMARK INTER:                 -10.736
REMARK INTRA:                  -3.757
REMARK UNBOUND:                -3.678
REMARK SMILES CCCCCCCCCCCCCCCCCCCCCCCCCCCC(=O)[O-]
REMARK SMILES IDX 15 1 16 2 17 3 18 4 19 5 20 6 21 7 22 8 23 9 24 10 25 11
REMARK SMILES IDX 26 12 27 13 28 14 29 15 30 16 14 17 13 18 12 19 11 20 10 21
REMARK SMILES IDX 9 22 8 23 7 24 6 25 5 26 4 27 3 28 2 29 1 30
REMARK H PARENT
REMARK Flexibility Score: inf
ROOT
ATOM      1  C   UNL     1       4.512  -1.528   6.009  1.00  0.00     0.000 C 
ENDROOT
BRANCH   1   2
ATOM      2  C   UNL     1       4.507  -2.257   7.368  1.00  0.00     0.000 C 
BRANCH   2   3
ATOM      3  C   UNL     1       3.765  -1.529   8.501  1.00  0.00     0.000 C 
BRANCH   3   4
ATOM      4  C   UNL     1       2.605  -2.357   9.082  1.00  0.00     0.000 C 
BRANCH   4   5
ATOM      5  C   UNL     1       1.641  -1.516   9.939  1.00  0.00     0.000 C 
BRANCH   5   6
ATOM      6  C   UNL     1       1.915   0.003   9.946  1.00  0.00     0.000 C 
BRANCH   6   7
ATOM      7  C   UNL     1       0.662   0.893  10.010  1.00  0.00     0.000 C 
BRANCH   7   8
ATOM      8  C   UNL     1       0.709   2.059   9.013  1.00  0.00     0.000 C 
BRANCH   8   9
ATOM      9  C   UNL     1       1.560   1.705   7.786  1.00  0.00     0.000 C 
BRANCH   9  10
ATOM     10  C   UNL     1       2.198   2.957   7.141  1.00  0.00     0.000 C 
BRANCH  10  11
ATOM     11  C   UNL     1       1.427   3.468   5.912  1.00  0.00     0.000 C 
BRANCH  11  12
ATOM     12  C   UNL     1       0.537   4.698   6.178  1.00  0.00     0.006 C 
BRANCH  12  13
ATOM     13  C   UNL     1      -0.119   5.277   4.909  1.00  0.00     0.053 C 
BRANCH  13  14
ATOM     14  C   UNL     1      -1.067   6.395   5.213  1.00  0.00     0.041 C 
ATOM     15  O   UNL     1      -1.288   7.292   4.359  1.00  0.00    -0.550 OA
ATOM     16  O   UNL     1      -1.696   6.455   6.450  1.00  0.00    -0.550 OA
ENDBRANCH  13  14
ENDBRANCH  12  13
ENDBRANCH  11  12
ENDBRANCH  10  11
ENDBRANCH   9  10
ENDBRANCH   8   9
ENDBRANCH   7   8
ENDBRANCH   6   7
ENDBRANCH   5   6
ENDBRANCH   4   5
ENDBRANCH   3   4
ENDBRANCH   2   3
ENDBRANCH   1   2
BRANCH   1  17
ATOM     17  C   UNL     1       3.752  -2.246   4.880  1.00  0.00     0.000 C 
BRANCH  17  18
ATOM     18  C   UNL     1       2.285  -2.532   5.236  1.00  0.00     0.000 C 
BRANCH  18  19
ATOM     19  C   UNL     1       1.521  -1.230   5.509  1.00  0.00     0.000 C 
BRANCH  19  20
ATOM     20  C   UNL     1       0.325  -1.481   6.440  1.00  0.00     0.000 C 
BRANCH  20  21
ATOM     21  C   UNL     1      -0.196  -2.925   6.359  1.00  0.00     0.000 C 
BRANCH  21  22
ATOM     22  C   UNL     1      -0.737  -3.430   7.708  1.00  0.00    -0.000 C 
BRANCH  22  23
ATOM     23  C   UNL     1      -2.254  -3.691   7.689  1.00  0.00    -0.000 C 
BRANCH  23  24
ATOM     24  C   UNL     1      -3.133  -2.449   7.450  1.00  0.00    -0.000 C 
BRANCH  24  25
ATOM     25  C   UNL     1      -4.201  -2.670   6.366  1.00  0.00    -0.000 C 
BRANCH  25  26
ATOM     26  C   UNL     1      -4.487  -1.404   5.538  1.00  0.00    -0.000 C 
BRANCH  26  27
ATOM     27  C   UNL     1      -4.051  -1.473   4.060  1.00  0.00    -0.000 C 
BRANCH  27  28
ATOM     28  C   UNL     1      -2.561  -1.792   3.827  1.00  0.00    -0.000 C 
BRANCH  28  29
ATOM     29  C   UNL     1      -2.251  -3.278   3.567  1.00  0.00    -0.003 C 
ATOM     30  C   UNL     1      -3.078  -3.866   2.423  1.00  0.00     0.004 C 
ENDBRANCH  28  29
ENDBRANCH  27  28
ENDBRANCH  26  27
ENDBRANCH  25  26
ENDBRANCH  24  25
ENDBRANCH  23  24
ENDBRANCH  22  23
ENDBRANCH  21  22
ENDBRANCH  20  21
ENDBRANCH  19  20
ENDBRANCH  18  19
ENDBRANCH  17  18
ENDBRANCH   1  17
TORSDOF 26
ENDMDL
MODEL 4
REMARK VINA RESULT:    -4.261      0.981      2.396
REMARK INTER + INTRA:         -14.416
REMARK INTER:                 -11.075
REMARK INTRA:                  -3.340
REMARK UNBOUND:                -3.678
REMARK SMILES CCCCCCCCCCCCCCCCCCCCCCCCCCCC(=O)[O-]
REMARK SMILES IDX 15 1 16 2 17 3 18 4 19 5 20 6 21 7 22 8 23 9 24 10 25 11
REMARK SMILES IDX 26 12 27 13 28 14 29 15 30 16 14 17 13 18 12 19 11 20 10 21
REMARK SMILES IDX 9 22 8 23 7 24 6 25 5 26 4 27 3 28 2 29 1 30
REMARK H PARENT
REMARK Flexibility Score: inf
ROOT
ATOM      1  C   UNL     1       4.620  -1.666   6.019  1.00  0.00     0.000 C 
ENDROOT
BRANCH   1   2
ATOM      2  C   UNL     1       4.249  -2.058   7.463  1.00  0.00     0.000 C 
BRANCH   2   3
ATOM      3  C   UNL     1       3.789  -0.897   8.362  1.00  0.00     0.000 C 
BRANCH   3   4
ATOM      4  C   UNL     1       2.313  -1.016   8.781  1.00  0.00     0.000 C 
BRANCH   4   5
ATOM      5  C   UNL     1       1.551   0.317   8.671  1.00  0.00     0.000 C 
BRANCH   5   6
ATOM      6  C   UNL     1       1.762   1.093   7.354  1.00  0.00     0.000 C 
BRANCH   6   7
ATOM      7  C   UNL     1       1.394   2.587   7.409  1.00  0.00     0.000 C 
BRANCH   7   8
ATOM      8  C   UNL     1       0.942   3.038   8.804  1.00  0.00     0.000 C 
BRANCH   8   9
ATOM      9  C   UNL     1      -0.161   4.100   8.713  1.00  0.00     0.000 C 
BRANCH   9  10
ATOM     10  C   UNL     1       0.408   5.536   8.779  1.00  0.00     0.000 C 
BRANCH  10  11
ATOM     11  C   UNL     1      -0.676   6.625   8.706  1.00  0.00     0.000 C 
BRANCH  11  12
ATOM     12  C   UNL     1      -0.853   7.262   7.313  1.00  0.00     0.006 C 
BRANCH  12  13
ATOM     13  C   UNL     1      -1.638   6.382   6.322  1.00  0.00     0.053 C 
BRANCH  13  14
ATOM     14  C   UNL     1      -1.107   6.479   4.925  1.00  0.00     0.041 C 
ATOM     15  O   UNL     1      -1.352   7.494   4.221  1.00  0.00    -0.550 OA
ATOM     16  O   UNL     1      -0.354   5.440   4.395  1.00  0.00    -0.550 OA
ENDBRANCH  13  14
ENDBRANCH  12  13
ENDBRANCH  11  12
ENDBRANCH  10  11
ENDBRANCH   9  10
ENDBRANCH   8   9
ENDBRANCH   7   8
ENDBRANCH   6   7
ENDBRANCH   5   6
ENDBRANCH   4   5
ENDBRANCH   3   4
ENDBRANCH   2   3
ENDBRANCH   1   2
BRANCH   1  17
ATOM     17  C   UNL     1       3.715  -2.264   4.927  1.00  0.00     0.000 C 
BRANCH  17  18
ATOM     18  C   UNL     1       2.314  -2.624   5.444  1.00  0.00     0.000 C 
BRANCH  18  19
ATOM     19  C   UNL     1       1.314  -1.497   5.156  1.00  0.00     0.000 C 
BRANCH  19  20
ATOM     20  C   UNL     1      -0.109  -1.909   5.562  1.00  0.00     0.000 C 
BRANCH  20  21
ATOM     21  C   UNL     1      -0.127  -2.889   6.747  1.00  0.00     0.000 C 
BRANCH  21  22
ATOM     22  C   UNL     1      -1.468  -2.873   7.500  1.00  0.00    -0.000 C 
BRANCH  22  23
ATOM     23  C   UNL     1      -2.471  -3.911   6.964  1.00  0.00    -0.000 C 
BRANCH  23  24
ATOM     24  C   UNL     1      -1.875  -4.984   6.034  1.00  0.00    -0.000 C 
BRANCH  24  25
ATOM     25  C   UNL     1      -2.190  -4.734   4.550  1.00  0.00    -0.000 C 
BRANCH  25  26
ATOM     26  C   UNL     1      -3.462  -3.892   4.340  1.00  0.00    -0.000 C 
BRANCH  26  27
ATOM     27  C   UNL     1      -3.304  -2.686   3.392  1.00  0.00    -0.000 C 
BRANCH  27  28
ATOM     28  C   UNL     1      -3.654  -1.315   4.005  1.00  0.00    -0.000 C 
BRANCH  28  29
ATOM     29  C   UNL     1      -5.014  -1.258   4.726  1.00  0.00    -0.003 C 
ATOM     30  C   UNL     1      -4.878  -1.174   6.246  1.00  0.00     0.004 C 
ENDBRANCH  28  29
ENDBRANCH  27  28
ENDBRANCH  26  27
ENDBRANCH  25  26
ENDBRANCH  24  25
ENDBRANCH  23  24
ENDBRANCH  22  23
ENDBRANCH  21  22
ENDBRANCH  20  21
ENDBRANCH  19  20
ENDBRANCH  18  19
ENDBRANCH  17  18
ENDBRANCH   1  17
TORSDOF 26
ENDMDL
MODEL 5
REMARK VINA RESULT:    -4.252      1.420      3.014
REMARK INTER + INTRA:         -14.393
REMARK INTER:                 -10.811
REMARK INTRA:                  -3.581
REMARK UNBOUND:                -3.678
REMARK SMILES CCCCCCCCCCCCCCCCCCCCCCCCCCCC(=O)[O-]
REMARK SMILES IDX 15 1 16 2 17 3 18 4 19 5 20 6 21 7 22 8 23 9 24 10 25 11
REMARK SMILES IDX 26 12 27 13 28 14 29 15 30 16 14 17 13 18 12 19 11 20 10 21
REMARK SMILES IDX 9 22 8 23 7 24 6 25 5 26 4 27 3 28 2 29 1 30
REMARK H PARENT
REMARK Flexibility Score: inf
ROOT
ATOM      1  C   UNL     1       3.897  -2.398   7.808  1.00  0.00     0.000 C 
ENDROOT
BRANCH   1   2
ATOM      2  C   UNL     1       4.577  -1.895   6.519  1.00  0.00     0.000 C 
BRANCH   2   3
ATOM      3  C   UNL     1       3.722  -1.991   5.244  1.00  0.00     0.000 C 
BRANCH   3   4
ATOM      4  C   UNL     1       2.278  -2.440   5.529  1.00  0.00     0.000 C 
BRANCH   4   5
ATOM      5  C   UNL     1       1.242  -1.335   5.250  1.00  0.00     0.000 C 
BRANCH   5   6
ATOM      6  C   UNL     1       1.449  -0.021   6.033  1.00  0.00     0.000 C 
BRANCH   6   7
ATOM      7  C   UNL     1       1.241  -0.126   7.554  1.00  0.00     0.000 C 
BRANCH   7   8
ATOM      8  C   UNL     1       1.594   1.172   8.294  1.00  0.00     0.000 C 
BRANCH   8   9
ATOM      9  C   UNL     1       1.140   2.404   7.499  1.00  0.00     0.000 C 
BRANCH   9  10
ATOM     10  C   UNL     1       2.315   3.359   7.188  1.00  0.00     0.000 C 
BRANCH  10  11
ATOM     11  C   UNL     1       1.918   4.539   6.285  1.00  0.00     0.000 C 
BRANCH  11  12
ATOM     12  C   UNL     1       0.425   4.920   6.345  1.00  0.00     0.006 C 
BRANCH  12  13
ATOM     13  C   UNL     1      -0.152   5.386   4.995  1.00  0.00     0.053 C 
BRANCH  13  14
ATOM     14  C   UNL     1      -1.063   6.566   5.138  1.00  0.00     0.041 C 
ATOM     15  O   UNL     1      -1.173   7.402   4.203  1.00  0.00    -0.550 OA
ATOM     16  O   UNL     1      -1.780   6.751   6.313  1.00  0.00    -0.550 OA
ENDBRANCH  13  14
ENDBRANCH  12  13
ENDBRANCH  11  12
ENDBRANCH  10  11
ENDBRANCH   9  10
ENDBRANCH   8   9
ENDBRANCH   7   8
ENDBRANCH   6   7
ENDBRANCH   5   6
ENDBRANCH   4   5
ENDBRANCH   3   4
ENDBRANCH   2   3
ENDBRANCH   1   2
BRANCH   1  17
ATOM     17  C   UNL     1       4.482  -3.696   8.392  1.00  0.00     0.000 C 
BRANCH  17  18
ATOM     18  C   UNL     1       3.400  -4.668   8.887  1.00  0.00     0.000 C 
BRANCH  18  19
ATOM     19  C   UNL     1       1.996  -4.130   8.584  1.00  0.00     0.000 C 
BRANCH  19  20
ATOM     20  C   UNL     1       1.041  -5.272   8.206  1.00  0.00     0.000 C 
BRANCH  20  21
ATOM     21  C   UNL     1      -0.052  -4.828   7.218  1.00  0.00     0.000 C 
BRANCH  21  22
ATOM     22  C   UNL     1      -0.617  -3.437   7.555  1.00  0.00    -0.000 C 
BRANCH  22  23
ATOM     23  C   UNL     1      -1.826  -3.051   6.684  1.00  0.00    -0.000 C 
BRANCH  23  24
ATOM     24  C   UNL     1      -2.003  -3.881   5.398  1.00  0.00    -0.000 C 
BRANCH  24  25
ATOM     25  C   UNL     1      -2.011  -3.019   4.125  1.00  0.00    -0.000 C 
BRANCH  25  26
ATOM     26  C   UNL     1      -2.501  -1.581   4.376  1.00  0.00    -0.000 C 
BRANCH  26  27
ATOM     27  C   UNL     1      -3.909  -1.262   3.833  1.00  0.00    -0.000 C 
BRANCH  27  28
ATOM     28  C   UNL     1      -5.051  -2.116   4.419  1.00  0.00    -0.000 C 
BRANCH  28  29
ATOM     29  C   UNL     1      -5.859  -1.434   5.539  1.00  0.00    -0.003 C 
ATOM     30  C   UNL     1      -5.053  -1.248   6.824  1.00  0.00     0.004 C 
ENDBRANCH  28  29
ENDBRANCH  27  28
ENDBRANCH  26  27
ENDBRANCH  25  26
ENDBRANCH  24  25
ENDBRANCH  23  24
ENDBRANCH  22  23
ENDBRANCH  21  22
ENDBRANCH  20  21
ENDBRANCH  19  20
ENDBRANCH  18  19
ENDBRANCH  17  18
ENDBRANCH   1  17
TORSDOF 26
ENDMDL
MODEL 6
REMARK VINA RESULT:    -4.236      1.207      2.908
REMARK INTER + INTRA:         -14.352
REMARK INTER:                 -11.305
REMARK INTRA:                  -3.048
REMARK UNBOUND:                -3.678
REMARK SMILES CCCCCCCCCCCCCCCCCCCCCCCCCCCC(=O)[O-]
REMARK SMILES IDX 15 1 16 2 17 3 18 4 19 5 20 6 21 7 22 8 23 9 24 10 25 11
REMARK SMILES IDX 26 12 27 13 28 14 29 15 30 16 14 17 13 18 12 19 11 20 10 21
REMARK SMILES IDX 9 22 8 23 7 24 6 25 5 26 4 27 3 28 2 29 1 30
REMARK H PARENT
REMARK Flexibility Score: inf
ROOT
ATOM      1  C   UNL     1       3.879  -2.196   5.161  1.00  0.00     0.000 C 
ENDROOT
BRANCH   1   2
ATOM      2  C   UNL     1       4.207  -1.397   6.438  1.00  0.00     0.000 C 
BRANCH   2   3
ATOM      3  C   UNL     1       4.912  -2.194   7.548  1.00  0.00     0.000 C 
BRANCH   3   4
ATOM      4  C   UNL     1       3.976  -3.190   8.253  1.00  0.00     0.000 C 
BRANCH   4   5
ATOM      5  C   UNL     1       2.641  -2.554   8.683  1.00  0.00     0.000 C 
BRANCH   5   6
ATOM      6  C   UNL     1       2.759  -1.363   9.657  1.00  0.00     0.000 C 
BRANCH   6   7
ATOM      7  C   UNL     1       1.845  -0.166   9.342  1.00  0.00     0.000 C 
BRANCH   7   8
ATOM      8  C   UNL     1       2.509   0.863   8.418  1.00  0.00     0.000 C 
BRANCH   8   9
ATOM      9  C   UNL     1       1.464   1.617   7.585  1.00  0.00     0.000 C 
BRANCH   9  10
ATOM     10  C   UNL     1       1.597   3.150   7.736  1.00  0.00     0.000 C 
BRANCH  10  11
ATOM     11  C   UNL     1       0.290   3.836   8.168  1.00  0.00     0.000 C 
BRANCH  11  12
ATOM     12  C   UNL     1      -0.147   5.010   7.270  1.00  0.00     0.006 C 
BRANCH  12  13
ATOM     13  C   UNL     1       0.847   5.329   6.136  1.00  0.00     0.053 C 
BRANCH  13  14
ATOM     14  C   UNL     1       0.159   5.696   4.858  1.00  0.00     0.041 C 
ATOM     15  O   UNL     1       0.233   4.938   3.856  1.00  0.00    -0.550 OA
ATOM     16  O   UNL     1      -0.553   6.885   4.770  1.00  0.00    -0.550 OA
ENDBRANCH  13  14
ENDBRANCH  12  13
ENDBRANCH  11  12
ENDBRANCH  10  11
ENDBRANCH   9  10
ENDBRANCH   8   9
ENDBRANCH   7   8
ENDBRANCH   6   7
ENDBRANCH   5   6
ENDBRANCH   4   5
ENDBRANCH   3   4
ENDBRANCH   2   3
ENDBRANCH   1   2
BRANCH   1  17
ATOM     17  C   UNL     1       2.383  -2.467   4.925  1.00  0.00     0.000 C 
BRANCH  17  18
ATOM     18  C   UNL     1       1.486  -1.313   5.401  1.00  0.00     0.000 C 
BRANCH  18  19
ATOM     19  C   UNL     1       0.261  -1.844   6.157  1.00  0.00     0.000 C 
BRANCH  19  20
ATOM     20  C   UNL     1      -0.800  -2.374   5.179  1.00  0.00     0.000 C 
BRANCH  20  21
ATOM     21  C   UNL     1      -1.748  -3.395   5.831  1.00  0.00     0.000 C 
BRANCH  21  22
ATOM     22  C   UNL     1      -2.467  -4.272   4.792  1.00  0.00    -0.000 C 
BRANCH  22  23
ATOM     23  C   UNL     1      -2.885  -3.491   3.532  1.00  0.00    -0.000 C 
BRANCH  23  24
ATOM     24  C   UNL     1      -4.183  -2.673   3.664  1.00  0.00    -0.000 C 
BRANCH  24  25
ATOM     25  C   UNL     1      -3.928  -1.168   3.849  1.00  0.00    -0.000 C 
BRANCH  25  26
ATOM     26  C   UNL     1      -4.676  -0.576   5.058  1.00  0.00    -0.000 C 
BRANCH  26  27
ATOM     27  C   UNL     1      -4.738  -1.486   6.302  1.00  0.00    -0.000 C 
BRANCH  27  28
ATOM     28  C   UNL     1      -5.921  -1.219   7.254  1.00  0.00    -0.000 C 
BRANCH  28  29
ATOM     29  C   UNL     1      -6.835  -0.051   6.839  1.00  0.00    -0.003 C 
ATOM     30  C   UNL     1      -6.689   1.169   7.748  1.00  0.00     0.004 C 
ENDBRANCH  28  29
ENDBRANCH  27  28
ENDBRANCH  26  27
ENDBRANCH  25  26
ENDBRANCH  24  25
ENDBRANCH  23  24
ENDBRANCH  22  23
ENDBRANCH  21  22
ENDBRANCH  20  21
ENDBRANCH  19  20
ENDBRANCH  18  19
ENDBRANCH  17  18
ENDBRANCH   1  17
TORSDOF 26
ENDMDL
MODEL 7
REMARK VINA RESULT:    -4.221      1.288      3.015
REMARK INTER + INTRA:         -14.314
REMARK INTER:                 -10.445
REMARK INTRA:                  -3.869
REMARK UNBOUND:                -3.678
REMARK SMILES CCCCCCCCCCCCCCCCCCCCCCCCCCCC(=O)[O-]
REMARK SMILES IDX 15 1 16 2 17 3 18 4 19 5 20 6 21 7 22 8 23 9 24 10 25 11
REMARK SMILES IDX 26 12 27 13 28 14 29 15 30 16 14 17 13 18 12 19 11 20 10 21
REMARK SMILES IDX 9 22 8 23 7 24 6 25 5 26 4 27 3 28 2 29 1 30
REMARK H PARENT
REMARK Flexibility Score: inf
ROOT
ATOM      1  C   UNL     1       1.429  -4.087   8.144  1.00  0.00     0.000 C 
ENDROOT
BRANCH   1   2
ATOM      2  C   UNL     1       2.101  -3.851   6.777  1.00  0.00     0.000 C 
BRANCH   2   3
ATOM      3  C   UNL     1       3.370  -2.982   6.810  1.00  0.00     0.000 C 
BRANCH   3   4
ATOM      4  C   UNL     1       3.315  -1.811   5.814  1.00  0.00     0.000 C 
BRANCH   4   5
ATOM      5  C   UNL     1       1.878  -1.445   5.400  1.00  0.00     0.000 C 
BRANCH   5   6
ATOM      6  C   UNL     1       1.307  -0.167   6.049  1.00  0.00     0.000 C 
BRANCH   6   7
ATOM      7  C   UNL     1       2.205   0.483   7.117  1.00  0.00     0.000 C 
BRANCH   7   8
ATOM      8  C   UNL     1       1.419   1.355   8.105  1.00  0.00     0.000 C 
BRANCH   8   9
ATOM      9  C   UNL     1       1.197   2.766   7.544  1.00  0.00     0.000 C 
BRANCH   9  10
ATOM     10  C   UNL     1       0.849   3.784   8.654  1.00  0.00     0.000 C 
BRANCH  10  11
ATOM     11  C   UNL     1      -0.352   4.679   8.304  1.00  0.00     0.000 C 
BRANCH  11  12
ATOM     12  C   UNL     1       0.008   5.967   7.536  1.00  0.00     0.006 C 
BRANCH  12  13
ATOM     13  C   UNL     1      -0.616   6.047   6.129  1.00  0.00     0.053 C 
BRANCH  13  14
ATOM     14  C   UNL     1       0.399   5.881   5.042  1.00  0.00     0.041 C 
ATOM     15  O   UNL     1       1.477   6.530   5.074  1.00  0.00    -0.550 OA
ATOM     16  O   UNL     1       0.148   5.018   3.983  1.00  0.00    -0.550 OA
ENDBRANCH  13  14
ENDBRANCH  12  13
ENDBRANCH  11  12
ENDBRANCH  10  11
ENDBRANCH   9  10
ENDBRANCH   8   9
ENDBRANCH   7   8
ENDBRANCH   6   7
ENDBRANCH   5   6
ENDBRANCH   4   5
ENDBRANCH   3   4
ENDBRANCH   2   3
ENDBRANCH   1   2
BRANCH   1  17
ATOM     17  C   UNL     1       1.208  -2.821   8.990  1.00  0.00     0.000 C 
BRANCH  17  18
ATOM     18  C   UNL     1      -0.093  -2.085   8.634  1.00  0.00     0.000 C 
BRANCH  18  19
ATOM     19  C   UNL     1      -1.225  -3.079   8.341  1.00  0.00     0.000 C 
BRANCH  19  20
ATOM     20  C   UNL     1      -2.040  -2.636   7.117  1.00  0.00     0.000 C 
BRANCH  20  21
ATOM     21  C   UNL     1      -1.754  -3.495   5.873  1.00  0.00     0.000 C 
BRANCH  21  22
ATOM     22  C   UNL     1      -1.285  -2.652   4.675  1.00  0.00    -0.000 C 
BRANCH  22  23
ATOM     23  C   UNL     1      -2.388  -1.736   4.114  1.00  0.00    -0.000 C 
BRANCH  23  24
ATOM     24  C   UNL     1      -3.726  -2.432   3.803  1.00  0.00    -0.000 C 
BRANCH  24  25
ATOM     25  C   UNL     1      -4.948  -1.584   4.194  1.00  0.00    -0.000 C 
BRANCH  25  26
ATOM     26  C   UNL     1      -4.645  -0.575   5.316  1.00  0.00    -0.000 C 
BRANCH  26  27
ATOM     27  C   UNL     1      -5.696  -0.508   6.443  1.00  0.00    -0.000 C 
BRANCH  27  28
ATOM     28  C   UNL     1      -5.692  -1.702   7.419  1.00  0.00    -0.000 C 
BRANCH  28  29
ATOM     29  C   UNL     1      -5.100  -1.400   8.807  1.00  0.00    -0.003 C 
ATOM     30  C   UNL     1      -4.788  -2.663   9.609  1.00  0.00     0.004 C 
ENDBRANCH  28  29
ENDBRANCH  27  28
ENDBRANCH  26  27
ENDBRANCH  25  26
ENDBRANCH  24  25
ENDBRANCH  23  24
ENDBRANCH  22  23
ENDBRANCH  21  22
ENDBRANCH  20  21
ENDBRANCH  19  20
ENDBRANCH  18  19
ENDBRANCH  17  18
ENDBRANCH   1  17
TORSDOF 26
ENDMDL
MODEL 8
REMARK VINA RESULT:    -4.198      3.330      8.433
REMARK INTER + INTRA:         -14.257
REMARK INTER:                  -9.881
REMARK INTRA:                  -4.376
REMARK UNBOUND:                -3.678
REMARK SMILES CCCCCCCCCCCCCCCCCCCCCCCCCCCC(=O)[O-]
REMARK SMILES IDX 15 1 16 2 17 3 18 4 19 5 20 6 21 7 22 8 23 9 24 10 25 11
REMARK SMILES IDX 26 12 27 13 28 14 29 15 30 16 14 17 13 18 12 19 11 20 10 21
REMARK SMILES IDX 9 22 8 23 7 24 6 25 5 26 4 27 3 28 2 29 1 30
REMARK H PARENT
REMARK Flexibility Score: inf
ROOT
ATOM      1  C   UNL     1      -0.028  -3.241   6.181  1.00  0.00     0.000 C 
ENDROOT
BRANCH   1   2
ATOM      2  C   UNL     1      -1.102  -3.708   7.184  1.00  0.00     0.000 C 
BRANCH   2   3
ATOM      3  C   UNL     1      -2.364  -2.831   7.251  1.00  0.00     0.000 C 
BRANCH   3   4
ATOM      4  C   UNL     1      -3.663  -3.646   7.129  1.00  0.00     0.000 C 
BRANCH   4   5
ATOM      5  C   UNL     1      -4.841  -2.815   6.589  1.00  0.00     0.000 C 
BRANCH   5   6
ATOM      6  C   UNL     1      -4.476  -1.409   6.068  1.00  0.00     0.000 C 
BRANCH   6   7
ATOM      7  C   UNL     1      -4.480  -1.257   4.537  1.00  0.00     0.000 C 
BRANCH   7   8
ATOM      8  C   UNL     1      -3.092  -1.463   3.916  1.00  0.00     0.000 C 
BRANCH   8   9
ATOM      9  C   UNL     1      -2.919  -2.900   3.407  1.00  0.00     0.000 C 
BRANCH   9  10
ATOM     10  C   UNL     1      -4.261  -3.522   2.958  1.00  0.00     0.000 C 
BRANCH  10  11
ATOM     11  C   UNL     1      -4.122  -4.461   1.747  1.00  0.00     0.000 C 
BRANCH  11  12
ATOM     12  C   UNL     1      -2.982  -5.492   1.862  1.00  0.00     0.006 C 
BRANCH  12  13
ATOM     13  C   UNL     1      -2.628  -6.178   0.528  1.00  0.00     0.053 C 
BRANCH  13  14
ATOM     14  C   UNL     1      -2.565  -5.213  -0.614  1.00  0.00     0.041 C 
ATOM     15  O   UNL     1      -1.584  -4.433  -0.735  1.00  0.00    -0.550 OA
ATOM     16  O   UNL     1      -3.599  -5.163  -1.540  1.00  0.00    -0.550 OA
ENDBRANCH  13  14
ENDBRANCH  12  13
ENDBRANCH  11  12
ENDBRANCH  10  11
ENDBRANCH   9  10
ENDBRANCH   8   9
ENDBRANCH   7   8
ENDBRANCH   6   7
ENDBRANCH   5   6
ENDBRANCH   4   5
ENDBRANCH   3   4
ENDBRANCH   2   3
ENDBRANCH   1   2
BRANCH   1  17
ATOM     17  C   UNL     1      -0.130  -1.765   5.755  1.00  0.00     0.000 C 
BRANCH  17  18
ATOM     18  C   UNL     1       1.203  -1.200   5.239  1.00  0.00     0.000 C 
BRANCH  18  19
ATOM     19  C   UNL     1       2.297  -2.275   5.250  1.00  0.00     0.000 C 
BRANCH  19  20
ATOM     20  C   UNL     1       3.657  -1.669   5.631  1.00  0.00     0.000 C 
BRANCH  20  21
ATOM     21  C   UNL     1       4.160  -2.157   7.000  1.00  0.00     0.000 C 
BRANCH  21  22
ATOM     22  C   UNL     1       3.372  -3.373   7.515  1.00  0.00    -0.000 C 
BRANCH  22  23
ATOM     23  C   UNL     1       2.548  -3.066   8.779  1.00  0.00    -0.000 C 
BRANCH  23  24
ATOM     24  C   UNL     1       2.513  -1.585   9.198  1.00  0.00    -0.000 C 
BRANCH  24  25
ATOM     25  C   UNL     1       1.110  -0.964   9.092  1.00  0.00    -0.000 C 
BRANCH  25  26
ATOM     26  C   UNL     1       1.143   0.555   8.845  1.00  0.00    -0.000 C 
BRANCH  26  27
ATOM     27  C   UNL     1       2.136   1.024   7.761  1.00  0.00    -0.000 C 
BRANCH  27  28
ATOM     28  C   UNL     1       1.769   2.348   7.060  1.00  0.00    -0.000 C 
BRANCH  28  29
ATOM     29  C   UNL     1       0.788   3.242   7.840  1.00  0.00    -0.003 C 
ATOM     30  C   UNL     1       0.421   4.520   7.086  1.00  0.00     0.004 C 
ENDBRANCH  28  29
ENDBRANCH  27  28
ENDBRANCH  26  27
ENDBRANCH  25  26
ENDBRANCH  24  25
ENDBRANCH  23  24
ENDBRANCH  22  23
ENDBRANCH  21  22
ENDBRANCH  20  21
ENDBRANCH  19  20
ENDBRANCH  18  19
ENDBRANCH  17  18
ENDBRANCH   1  17
TORSDOF 26
ENDMDL
MODEL 9
REMARK VINA RESULT:    -4.123      4.323      9.055
REMARK INTER + INTRA:         -14.069
REMARK INTER:                  -9.647
REMARK INTRA:                  -4.421
REMARK UNBOUND:                -3.678
REMARK SMILES CCCCCCCCCCCCCCCCCCCCCCCCCCCC(=O)[O-]
REMARK SMILES IDX 15 1 16 2 17 3 18 4 19 5 20 6 21 7 22 8 23 9 24 10 25 11
REMARK SMILES IDX 26 12 27 13 28 14 29 15 30 16 14 17 13 18 12 19 11 20 10 21
REMARK SMILES IDX 9 22 8 23 7 24 6 25 5 26 4 27 3 28 2 29 1 30
REMARK H PARENT
REMARK Flexibility Score: inf
ROOT
ATOM      1  C   UNL     1      -2.952  -4.035   6.695  1.00  0.00     0.000 C 
ENDROOT
BRANCH   1   2
ATOM      2  C   UNL     1      -3.633  -2.754   7.216  1.00  0.00     0.000 C 
BRANCH   2   3
ATOM      3  C   UNL     1      -4.838  -2.269   6.391  1.00  0.00     0.000 C 
BRANCH   3   4
ATOM      4  C   UNL     1      -4.553  -0.959   5.635  1.00  0.00     0.000 C 
BRANCH   4   5
ATOM      5  C   UNL     1      -4.613  -1.127   4.106  1.00  0.00     0.000 C 
BRANCH   5   6
ATOM      6  C   UNL     1      -3.466  -1.952   3.485  1.00  0.00     0.000 C 
BRANCH   6   7
ATOM      7  C   UNL     1      -3.858  -3.359   3.001  1.00  0.00     0.000 C 
BRANCH   7   8
ATOM      8  C   UNL     1      -2.648  -4.196   2.563  1.00  0.00     0.000 C 
BRANCH   8   9
ATOM      9  C   UNL     1      -3.090  -5.445   1.790  1.00  0.00     0.000 C 
BRANCH   9  10
ATOM     10  C   UNL     1      -2.367  -5.573   0.429  1.00  0.00     0.000 C 
BRANCH  10  11
ATOM     11  C   UNL     1      -3.204  -5.063  -0.756  1.00  0.00     0.000 C 
BRANCH  11  12
ATOM     12  C   UNL     1      -2.416  -4.879  -2.068  1.00  0.00     0.006 C 
BRANCH  12  13
ATOM     13  C   UNL     1      -1.157  -4.002  -1.919  1.00  0.00     0.053 C 
BRANCH  13  14
ATOM     14  C   UNL     1       0.031  -4.581  -2.623  1.00  0.00     0.041 C 
ATOM     15  O   UNL     1       0.076  -4.602  -3.881  1.00  0.00    -0.550 OA
ATOM     16  O   UNL     1       1.083  -5.111  -1.889  1.00  0.00    -0.550 OA
ENDBRANCH  13  14
ENDBRANCH  12  13
ENDBRANCH  11  12
ENDBRANCH  10  11
ENDBRANCH   9  10
ENDBRANCH   8   9
ENDBRANCH   7   8
ENDBRANCH   6   7
ENDBRANCH   5   6
ENDBRANCH   4   5
ENDBRANCH   3   4
ENDBRANCH   2   3
ENDBRANCH   1   2
BRANCH   1  17
ATOM     17  C   UNL     1      -1.567  -3.825   6.057  1.00  0.00     0.000 C 
BRANCH  17  18
ATOM     18  C   UNL     1      -1.046  -2.389   6.222  1.00  0.00     0.000 C 
BRANCH  18  19
ATOM     19  C   UNL     1      -0.297  -1.928   4.965  1.00  0.00     0.000 C 
BRANCH  19  20
ATOM     20  C   UNL     1       1.211  -1.813   5.236  1.00  0.00     0.000 C 
BRANCH  20  21
ATOM     21  C   UNL     1       1.573  -0.558   6.049  1.00  0.00     0.000 C 
BRANCH  21  22
ATOM     22  C   UNL     1       2.806  -0.775   6.943  1.00  0.00    -0.000 C 
BRANCH  22  23
ATOM     23  C   UNL     1       2.505  -0.582   8.440  1.00  0.00    -0.000 C 
BRANCH  23  24
ATOM     24  C   UNL     1       1.104  -0.031   8.765  1.00  0.00    -0.000 C 
BRANCH  24  25
ATOM     25  C   UNL     1       0.191  -1.069   9.438  1.00  0.00    -0.000 C 
BRANCH  25  26
ATOM     26  C   UNL     1       0.911  -2.397   9.736  1.00  0.00    -0.000 C 
BRANCH  26  27
ATOM     27  C   UNL     1       0.117  -3.670   9.378  1.00  0.00    -0.000 C 
BRANCH  27  28
ATOM     28  C   UNL     1       0.951  -4.822   8.781  1.00  0.00    -0.000 C 
BRANCH  28  29
ATOM     29  C   UNL     1       1.811  -4.433   7.565  1.00  0.00    -0.003 C 
ATOM     30  C   UNL     1       3.305  -4.379   7.886  1.00  0.00     0.004 C 
ENDBRANCH  28  29
ENDBRANCH  27  28
ENDBRANCH  26  27
ENDBRANCH  25  26
ENDBRANCH  24  25
ENDBRANCH  23  24
ENDBRANCH  22  23
ENDBRANCH  21  22
ENDBRANCH  20  21
ENDBRANCH  19  20
ENDBRANCH  18  19
ENDBRANCH  17  18
ENDBRANCH   1  17
TORSDOF 26
ENDMDL
