MODEL 1
REMARK VINA RESULT:    -5.031      0.000      0.000
REMARK INTER + INTRA:         -14.805
REMARK INTER:                 -12.679
REMARK INTRA:                  -2.126
REMARK UNBOUND:                -2.126
REMARK SMILES CCCCCCCCCCCCCCCCCCCCCCCCCCCC(=O)[O-]
REMARK SMILES IDX 15 1 16 2 17 3 18 4 19 5 20 6 21 7 22 8 23 9 24 10 25 11
REMARK SMILES IDX 26 12 27 13 28 14 29 15 30 16 14 17 13 18 12 19 11 20 10 21
REMARK SMILES IDX 9 22 8 23 7 24 6 25 5 26 4 27 3 28 2 29 1 30
REMARK H PARENT
REMARK Flexibility Score: inf
ROOT
ATOM      1  C   UNL     1      -5.741  -4.217  29.630  1.00  0.00     0.000 C 
ENDROOT
BRANCH   1   2
ATOM      2  C   UNL     1      -5.009  -2.875  29.788  1.00  0.00     0.000 C 
BRANCH   2   3
ATOM      3  C   UNL     1      -4.230  -2.401  28.544  1.00  0.00     0.000 C 
BRANCH   3   4
ATOM      4  C   UNL     1      -4.595  -0.976  28.080  1.00  0.00     0.000 C 
BRANCH   4   5
ATOM      5  C   UNL     1      -5.545  -0.265  29.058  1.00  0.00     0.000 C 
BRANCH   5   6
ATOM      6  C   UNL     1      -4.925   1.000  29.677  1.00  0.00     0.000 C 
BRANCH   6   7
ATOM      7  C   UNL     1      -3.381   0.991  29.685  1.00  0.00     0.000 C 
BRANCH   7   8
ATOM      8  C   UNL     1      -2.792   2.413  29.691  1.00  0.00     0.000 C 
BRANCH   8   9
ATOM      9  C   UNL     1      -1.632   2.578  28.697  1.00  0.00     0.000 C 
BRANCH   9  10
ATOM     10  C   UNL     1      -0.322   1.958  29.207  1.00  0.00     0.000 C 
BRANCH  10  11
ATOM     11  C   UNL     1       0.357   1.129  28.106  1.00  0.00     0.000 C 
BRANCH  11  12
ATOM     12  C   UNL     1      -0.642   0.586  27.073  1.00  0.00     0.006 C 
BRANCH  12  13
ATOM     13  C   UNL     1      -1.115  -0.836  27.398  1.00  0.00     0.053 C 
BRANCH  13  14
ATOM     14  C   UNL     1       0.046  -1.780  27.434  1.00  0.00     0.041 C 
ATOM     15  O   UNL     1       0.699  -2.018  26.383  1.00  0.00    -0.550 OA
ATOM     16  O   UNL     1       0.424  -2.376  28.630  1.00  0.00    -0.550 OA
ENDBRANCH  13  14
ENDBRANCH  12  13
ENDBRANCH  11  12
ENDBRANCH  10  11
ENDBRANCH   9  10
ENDBRANCH   8   9
ENDBRANCH   7   8
ENDBRANCH   6   7
ENDBRANCH   5   6
ENDBRANCH   4   5
ENDBRANCH   3   4
ENDBRANCH   2   3
ENDBRANCH   1   2
BRANCH   1  17
ATOM     17  C   UNL     1      -5.596  -4.894  28.252  1.00  0.00     0.000 C 
BRANCH  17  18
ATOM     18  C   UNL     1      -5.980  -6.389  28.234  1.00  0.00     0.000 C 
BRANCH  18  19
ATOM     19  C   UNL     1      -5.581  -7.117  29.530  1.00  0.00     0.000 C 
BRANCH  19  20
ATOM     20  C   UNL     1      -6.371  -8.421  29.732  1.00  0.00     0.000 C 
BRANCH  20  21
ATOM     21  C   UNL     1      -5.512  -9.666  29.455  1.00  0.00     0.000 C 
BRANCH  21  22
ATOM     22  C   UNL     1      -5.354  -9.965  27.954  1.00  0.00    -0.000 C 
BRANCH  22  23
ATOM     23  C   UNL     1      -4.301 -11.036  27.599  1.00  0.00    -0.000 C 
BRANCH  23  24
ATOM     24  C   UNL     1      -4.704 -12.017  26.482  1.00  0.00    -0.000 C 
BRANCH  24  25
ATOM     25  C   UNL     1      -4.280 -11.541  25.084  1.00  0.00    -0.000 C 
BRANCH  25  26
ATOM     26  C   UNL     1      -3.040 -12.284  24.554  1.00  0.00    -0.000 C 
BRANCH  26  27
ATOM     27  C   UNL     1      -3.117 -13.817  24.709  1.00  0.00    -0.000 C 
BRANCH  27  28
ATOM     28  C   UNL     1      -3.509 -14.515  23.392  1.00  0.00    -0.000 C 
BRANCH  28  29
ATOM     29  C   UNL     1      -3.369 -13.596  22.171  1.00  0.00    -0.003 C 
ATOM     30  C   UNL     1      -4.006 -14.187  20.913  1.00  0.00     0.004 C 
ENDBRANCH  28  29
ENDBRANCH  27  28
ENDBRANCH  26  27
ENDBRANCH  25  26
ENDBRANCH  24  25
ENDBRANCH  23  24
ENDBRANCH  22  23
ENDBRANCH  21  22
ENDBRANCH  20  21
ENDBRANCH  19  20
ENDBRANCH  18  19
ENDBRANCH  17  18
ENDBRANCH   1  17
TORSDOF 26
ENDMDL
MODEL 2
REMARK VINA RESULT:    -5.028      1.751      2.381
REMARK INTER + INTRA:         -14.797
REMARK INTER:                 -12.453
REMARK INTRA:                  -2.344
REMARK UNBOUND:                -2.126
REMARK SMILES CCCCCCCCCCCCCCCCCCCCCCCCCCCC(=O)[O-]
REMARK SMILES IDX 15 1 16 2 17 3 18 4 19 5 20 6 21 7 22 8 23 9 24 10 25 11
REMARK SMILES IDX 26 12 27 13 28 14 29 15 30 16 14 17 13 18 12 19 11 20 10 21
REMARK SMILES IDX 9 22 8 23 7 24 6 25 5 26 4 27 3 28 2 29 1 30
REMARK H PARENT
REMARK Flexibility Score: inf
ROOT
ATOM      1  C   UNL     1      -5.740  -4.217  29.584  1.00  0.00     0.000 C 
ENDROOT
BRANCH   1   2
ATOM      2  C   UNL     1      -5.093  -2.828  29.700  1.00  0.00     0.000 C 
BRANCH   2   3
ATOM      3  C   UNL     1      -4.190  -2.423  28.518  1.00  0.00     0.000 C 
BRANCH   3   4
ATOM      4  C   UNL     1      -4.362  -0.957  28.069  1.00  0.00     0.000 C 
BRANCH   4   5
ATOM      5  C   UNL     1      -5.358  -0.186  28.952  1.00  0.00     0.000 C 
BRANCH   5   6
ATOM      6  C   UNL     1      -4.720   1.029  29.648  1.00  0.00     0.000 C 
BRANCH   6   7
ATOM      7  C   UNL     1      -3.187   0.919  29.802  1.00  0.00     0.000 C 
BRANCH   7   8
ATOM      8  C   UNL     1      -2.502   2.296  29.785  1.00  0.00     0.000 C 
BRANCH   8   9
ATOM      9  C   UNL     1      -1.665   2.526  28.517  1.00  0.00     0.000 C 
BRANCH   9  10
ATOM     10  C   UNL     1      -0.571   1.464  28.328  1.00  0.00     0.000 C 
BRANCH  10  11
ATOM     11  C   UNL     1      -0.797   0.668  27.034  1.00  0.00     0.000 C 
BRANCH  11  12
ATOM     12  C   UNL     1      -0.453  -0.822  27.186  1.00  0.00     0.006 C 
BRANCH  12  13
ATOM     13  C   UNL     1      -0.618  -1.323  28.626  1.00  0.00     0.053 C 
BRANCH  13  14
ATOM     14  C   UNL     1      -0.088  -2.716  28.762  1.00  0.00     0.041 C 
ATOM     15  O   UNL     1       1.150  -2.931  28.678  1.00  0.00    -0.550 OA
ATOM     16  O   UNL     1      -0.956  -3.772  29.007  1.00  0.00    -0.550 OA
ENDBRANCH  13  14
ENDBRANCH  12  13
ENDBRANCH  11  12
ENDBRANCH  10  11
ENDBRANCH   9  10
ENDBRANCH   8   9
ENDBRANCH   7   8
ENDBRANCH   6   7
ENDBRANCH   5   6
ENDBRANCH   4   5
ENDBRANCH   3   4
ENDBRANCH   2   3
ENDBRANCH   1   2
BRANCH   1  17
ATOM     17  C   UNL     1      -5.345  -5.031  28.334  1.00  0.00     0.000 C 
BRANCH  17  18
ATOM     18  C   UNL     1      -5.960  -6.445  28.276  1.00  0.00     0.000 C 
BRANCH  18  19
ATOM     19  C   UNL     1      -5.727  -7.246  29.569  1.00  0.00     0.000 C 
BRANCH  19  20
ATOM     20  C   UNL     1      -6.386  -8.634  29.521  1.00  0.00     0.000 C 
BRANCH  20  21
ATOM     21  C   UNL     1      -5.348  -9.760  29.368  1.00  0.00     0.000 C 
BRANCH  21  22
ATOM     22  C   UNL     1      -5.159 -10.208  27.908  1.00  0.00    -0.000 C 
BRANCH  22  23
ATOM     23  C   UNL     1      -4.275 -11.458  27.708  1.00  0.00    -0.000 C 
BRANCH  23  24
ATOM     24  C   UNL     1      -3.956 -11.815  26.245  1.00  0.00    -0.000 C 
BRANCH  24  25
ATOM     25  C   UNL     1      -2.686 -12.668  26.099  1.00  0.00    -0.000 C 
BRANCH  25  26
ATOM     26  C   UNL     1      -1.557 -12.222  27.045  1.00  0.00    -0.000 C 
BRANCH  26  27
ATOM     27  C   UNL     1      -0.145 -12.358  26.438  1.00  0.00    -0.000 C 
BRANCH  27  28
ATOM     28  C   UNL     1       0.695 -11.080  26.629  1.00  0.00    -0.000 C 
BRANCH  28  29
ATOM     29  C   UNL     1       1.165 -10.477  25.298  1.00  0.00    -0.003 C 
ATOM     30  C   UNL     1       0.689 -11.281  24.087  1.00  0.00     0.004 C 
ENDBRANCH  28  29
ENDBRANCH  27  28
ENDBRANCH  26  27
ENDBRANCH  25  26
ENDBRANCH  24  25
ENDBRANCH  23  24
ENDBRANCH  22  23
ENDBRANCH  21  22
ENDBRANCH  20  21
ENDBRANCH  19  20
ENDBRANCH  18  19
ENDBRANCH  17  18
ENDBRANCH   1  17
TORSDOF 26
ENDMDL
MODEL 3
REMARK VINA RESULT:    -5.008      1.740      2.693
REMARK INTER + INTRA:         -14.745
REMARK INTER:                 -12.870
REMARK INTRA:                  -1.875
REMARK UNBOUND:                -2.126
REMARK SMILES CCCCCCCCCCCCCCCCCCCCCCCCCCCC(=O)[O-]
REMARK SMILES IDX 15 1 16 2 17 3 18 4 19 5 20 6 21 7 22 8 23 9 24 10 25 11
REMARK SMILES IDX 26 12 27 13 28 14 29 15 30 16 14 17 13 18 12 19 11 20 10 21
REMARK SMILES IDX 9 22 8 23 7 24 6 25 5 26 4 27 3 28 2 29 1 30
REMARK H PARENT
REMARK Flexibility Score: inf
ROOT
ATOM      1  C   UNL     1      -5.901  -6.424  28.261  1.00  0.00     0.000 C 
ENDROOT
BRANCH   1   2
ATOM      2  C   UNL     1      -5.027  -5.160  28.280  1.00  0.00     0.000 C 
BRANCH   2   3
ATOM      3  C   UNL     1      -5.798  -3.826  28.212  1.00  0.00     0.000 C 
BRANCH   3   4
ATOM      4  C   UNL     1      -5.454  -2.843  29.348  1.00  0.00     0.000 C 
BRANCH   4   5
ATOM      5  C   UNL     1      -4.255  -1.943  29.004  1.00  0.00     0.000 C 
BRANCH   5   6
ATOM      6  C   UNL     1      -4.677  -0.587  28.414  1.00  0.00     0.000 C 
BRANCH   6   7
ATOM      7  C   UNL     1      -5.521   0.272  29.382  1.00  0.00     0.000 C 
BRANCH   7   8
ATOM      8  C   UNL     1      -4.787   1.553  29.812  1.00  0.00     0.000 C 
BRANCH   8   9
ATOM      9  C   UNL     1      -3.280   1.331  30.021  1.00  0.00     0.000 C 
BRANCH   9  10
ATOM     10  C   UNL     1      -2.430   2.496  29.491  1.00  0.00     0.000 C 
BRANCH  10  11
ATOM     11  C   UNL     1      -1.452   2.012  28.409  1.00  0.00     0.000 C 
BRANCH  11  12
ATOM     12  C   UNL     1      -1.021   0.551  28.611  1.00  0.00     0.006 C 
BRANCH  12  13
ATOM     13  C   UNL     1      -1.182  -0.293  27.340  1.00  0.00     0.053 C 
BRANCH  13  14
ATOM     14  C   UNL     1      -0.381  -1.553  27.442  1.00  0.00     0.041 C 
ATOM     15  O   UNL     1       0.753  -1.626  26.898  1.00  0.00    -0.550 OA
ATOM     16  O   UNL     1      -0.872  -2.636  28.159  1.00  0.00    -0.550 OA
ENDBRANCH  13  14
ENDBRANCH  12  13
ENDBRANCH  11  12
ENDBRANCH  10  11
ENDBRANCH   9  10
ENDBRANCH   8   9
ENDBRANCH   7   8
ENDBRANCH   6   7
ENDBRANCH   5   6
ENDBRANCH   4   5
ENDBRANCH   3   4
ENDBRANCH   2   3
ENDBRANCH   1   2
BRANCH   1  17
ATOM     17  C   UNL     1      -5.725  -7.370  29.467  1.00  0.00     0.000 C 
BRANCH  17  18
ATOM     18  C   UNL     1      -6.145  -8.831  29.196  1.00  0.00     0.000 C 
BRANCH  18  19
ATOM     19  C   UNL     1      -5.267  -9.848  29.945  1.00  0.00     0.000 C 
BRANCH  19  20
ATOM     20  C   UNL     1      -4.547 -10.813  28.988  1.00  0.00     0.000 C 
BRANCH  20  21
ATOM     21  C   UNL     1      -4.987 -10.612  27.528  1.00  0.00     0.000 C 
BRANCH  21  22
ATOM     22  C   UNL     1      -4.611 -11.797  26.620  1.00  0.00    -0.000 C 
BRANCH  22  23
ATOM     23  C   UNL     1      -4.209 -11.423  25.177  1.00  0.00    -0.000 C 
BRANCH  23  24
ATOM     24  C   UNL     1      -3.056 -12.248  24.576  1.00  0.00    -0.000 C 
BRANCH  24  25
ATOM     25  C   UNL     1      -1.942 -12.549  25.591  1.00  0.00    -0.000 C 
BRANCH  25  26
ATOM     26  C   UNL     1      -0.628 -12.988  24.919  1.00  0.00    -0.000 C 
BRANCH  26  27
ATOM     27  C   UNL     1      -0.600 -12.756  23.394  1.00  0.00    -0.000 C 
BRANCH  27  28
ATOM     28  C   UNL     1       0.381 -11.637  22.994  1.00  0.00    -0.000 C 
BRANCH  28  29
ATOM     29  C   UNL     1       0.534 -11.500  21.473  1.00  0.00    -0.003 C 
ATOM     30  C   UNL     1       1.492 -12.536  20.882  1.00  0.00     0.004 C 
ENDBRANCH  28  29
ENDBRANCH  27  28
ENDBRANCH  26  27
ENDBRANCH  25  26
ENDBRANCH  24  25
ENDBRANCH  23  24
ENDBRANCH  22  23
ENDBRANCH  21  22
ENDBRANCH  20  21
ENDBRANCH  19  20
ENDBRANCH  18  19
ENDBRANCH  17  18
ENDBRANCH   1  17
TORSDOF 26
ENDMDL
MODEL 4
REMARK VINA RESULT:    -5.007      2.745     11.433
REMARK INTER + INTRA:         -14.744
REMARK INTER:                 -12.489
REMARK INTRA:                  -2.255
REMARK UNBOUND:                -2.126
REMARK SMILES CCCCCCCCCCCCCCCCCCCCCCCCCCCC(=O)[O-]
REMARK SMILES IDX 15 1 16 2 17 3 18 4 19 5 20 6 21 7 22 8 23 9 24 10 25 11
REMARK SMILES IDX 26 12 27 13 28 14 29 15 30 16 14 17 13 18 12 19 11 20 10 21
REMARK SMILES IDX 9 22 8 23 7 24 6 25 5 26 4 27 3 28 2 29 1 30
REMARK H PARENT
REMARK Flexibility Score: inf
ROOT
ATOM      1  C   UNL     1      -5.423  -6.026  29.393  1.00  0.00     0.000 C 
ENDROOT
BRANCH   1   2
ATOM      2  C   UNL     1      -6.086  -7.170  28.609  1.00  0.00     0.000 C 
BRANCH   2   3
ATOM      3  C   UNL     1      -6.120  -8.531  29.334  1.00  0.00     0.000 C 
BRANCH   3   4
ATOM      4  C   UNL     1      -5.713  -9.725  28.447  1.00  0.00     0.000 C 
BRANCH   4   5
ATOM      5  C   UNL     1      -4.625 -10.597  29.096  1.00  0.00     0.000 C 
BRANCH   5   6
ATOM      6  C   UNL     1      -3.856 -11.451  28.073  1.00  0.00     0.000 C 
BRANCH   6   7
ATOM      7  C   UNL     1      -4.423 -11.357  26.639  1.00  0.00     0.000 C 
BRANCH   7   8
ATOM      8  C   UNL     1      -4.734 -12.743  26.047  1.00  0.00     0.000 C 
BRANCH   8   9
ATOM      9  C   UNL     1      -3.583 -13.293  25.190  1.00  0.00     0.000 C 
BRANCH   9  10
ATOM     10  C   UNL     1      -3.074 -12.275  24.158  1.00  0.00     0.000 C 
BRANCH  10  11
ATOM     11  C   UNL     1      -1.764 -12.755  23.515  1.00  0.00     0.000 C 
BRANCH  11  12
ATOM     12  C   UNL     1      -0.599 -12.811  24.516  1.00  0.00     0.006 C 
BRANCH  12  13
ATOM     13  C   UNL     1      -0.005 -11.428  24.810  1.00  0.00     0.053 C 
BRANCH  13  14
ATOM     14  C   UNL     1       0.405 -11.326  26.245  1.00  0.00     0.041 C 
ATOM     15  O   UNL     1      -0.471 -11.259  27.148  1.00  0.00    -0.550 OA
ATOM     16  O   UNL     1       1.750 -11.333  26.589  1.00  0.00    -0.550 OA
ENDBRANCH  13  14
ENDBRANCH  12  13
ENDBRANCH  11  12
ENDBRANCH  10  11
ENDBRANCH   9  10
ENDBRANCH   8   9
ENDBRANCH   7   8
ENDBRANCH   6   7
ENDBRANCH   5   6
ENDBRANCH   4   5
ENDBRANCH   3   4
ENDBRANCH   2   3
ENDBRANCH   1   2
BRANCH   1  17
ATOM     17  C   UNL     1      -5.095  -4.762  28.572  1.00  0.00     0.000 C 
BRANCH  17  18
ATOM     18  C   UNL     1      -5.539  -3.441  29.235  1.00  0.00     0.000 C 
BRANCH  18  19
ATOM     19  C   UNL     1      -5.348  -2.223  28.313  1.00  0.00     0.000 C 
BRANCH  19  20
ATOM     20  C   UNL     1      -4.486  -1.130  28.965  1.00  0.00     0.000 C 
BRANCH  20  21
ATOM     21  C   UNL     1      -5.253   0.195  29.119  1.00  0.00     0.000 C 
BRANCH  21  22
ATOM     22  C   UNL     1      -4.436   1.281  29.841  1.00  0.00    -0.000 C 
BRANCH  22  23
ATOM     23  C   UNL     1      -2.911   1.047  29.878  1.00  0.00    -0.000 C 
BRANCH  23  24
ATOM     24  C   UNL     1      -2.068   2.049  29.067  1.00  0.00    -0.000 C 
BRANCH  24  25
ATOM     25  C   UNL     1      -0.758   1.444  28.540  1.00  0.00    -0.000 C 
BRANCH  25  26
ATOM     26  C   UNL     1      -0.861   0.987  27.074  1.00  0.00    -0.000 C 
BRANCH  26  27
ATOM     27  C   UNL     1      -1.457  -0.425  26.901  1.00  0.00    -0.000 C 
BRANCH  27  28
ATOM     28  C   UNL     1      -0.479  -1.528  27.351  1.00  0.00    -0.000 C 
BRANCH  28  29
ATOM     29  C   UNL     1      -0.845  -2.121  28.719  1.00  0.00    -0.003 C 
ATOM     30  C   UNL     1      -1.403  -3.541  28.614  1.00  0.00     0.004 C 
ENDBRANCH  28  29
ENDBRANCH  27  28
ENDBRANCH  26  27
ENDBRANCH  25  26
ENDBRANCH  24  25
ENDBRANCH  23  24
ENDBRANCH  22  23
ENDBRANCH  21  22
ENDBRANCH  20  21
ENDBRANCH  19  20
ENDBRANCH  18  19
ENDBRANCH  17  18
ENDBRANCH   1  17
TORSDOF 26
ENDMDL
MODEL 5
REMARK VINA RESULT:    -4.993      2.201      5.541
REMARK INTER + INTRA:         -14.708
REMARK INTER:                 -12.124
REMARK INTRA:                  -2.584
REMARK UNBOUND:                -2.126
REMARK SMILES CCCCCCCCCCCCCCCCCCCCCCCCCCCC(=O)[O-]
REMARK SMILES IDX 15 1 16 2 17 3 18 4 19 5 20 6 21 7 22 8 23 9 24 10 25 11
REMARK SMILES IDX 26 12 27 13 28 14 29 15 30 16 14 17 13 18 12 19 11 20 10 21
REMARK SMILES IDX 9 22 8 23 7 24 6 25 5 26 4 27 3 28 2 29 1 30
REMARK H PARENT
REMARK Flexibility Score: inf
ROOT
ATOM      1  C   UNL     1      -4.623 -10.803  29.657  1.00  0.00     0.000 C 
ENDROOT
BRANCH   1   2
ATOM      2  C   UNL     1      -5.430  -9.581  30.125  1.00  0.00     0.000 C 
BRANCH   2   3
ATOM      3  C   UNL     1      -6.091  -8.760  28.999  1.00  0.00     0.000 C 
BRANCH   3   4
ATOM      4  C   UNL     1      -6.094  -7.239  29.250  1.00  0.00     0.000 C 
BRANCH   4   5
ATOM      5  C   UNL     1      -5.756  -6.433  27.985  1.00  0.00     0.000 C 
BRANCH   5   6
ATOM      6  C   UNL     1      -5.852  -4.913  28.202  1.00  0.00     0.000 C 
BRANCH   6   7
ATOM      7  C   UNL     1      -4.539  -4.278  28.713  1.00  0.00     0.000 C 
BRANCH   7   8
ATOM      8  C   UNL     1      -4.797  -3.131  29.704  1.00  0.00     0.000 C 
BRANCH   8   9
ATOM      9  C   UNL     1      -5.413  -1.893  29.032  1.00  0.00     0.000 C 
BRANCH   9  10
ATOM     10  C   UNL     1      -4.521  -1.317  27.922  1.00  0.00     0.000 C 
BRANCH  10  11
ATOM     11  C   UNL     1      -3.230  -0.726  28.508  1.00  0.00     0.000 C 
BRANCH  11  12
ATOM     12  C   UNL     1      -2.147  -0.492  27.443  1.00  0.00     0.006 C 
BRANCH  12  13
ATOM     13  C   UNL     1      -0.726  -0.610  28.008  1.00  0.00     0.053 C 
BRANCH  13  14
ATOM     14  C   UNL     1       0.158   0.449  27.430  1.00  0.00     0.041 C 
ATOM     15  O   UNL     1       1.399   0.253  27.334  1.00  0.00    -0.550 OA
ATOM     16  O   UNL     1      -0.389   1.641  26.972  1.00  0.00    -0.550 OA
ENDBRANCH  13  14
ENDBRANCH  12  13
ENDBRANCH  11  12
ENDBRANCH  10  11
ENDBRANCH   9  10
ENDBRANCH   8   9
ENDBRANCH   7   8
ENDBRANCH   6   7
ENDBRANCH   5   6
ENDBRANCH   4   5
ENDBRANCH   3   4
ENDBRANCH   2   3
ENDBRANCH   1   2
BRANCH   1  17
ATOM     17  C   UNL     1      -4.355 -10.879  28.139  1.00  0.00     0.000 C 
BRANCH  17  18
ATOM     18  C   UNL     1      -4.272 -12.316  27.580  1.00  0.00     0.000 C 
BRANCH  18  19
ATOM     19  C   UNL     1      -4.796 -12.420  26.137  1.00  0.00     0.000 C 
BRANCH  19  20
ATOM     20  C   UNL     1      -4.085 -11.441  25.188  1.00  0.00     0.000 C 
BRANCH  20  21
ATOM     21  C   UNL     1      -3.366 -12.170  24.039  1.00  0.00     0.000 C 
BRANCH  21  22
ATOM     22  C   UNL     1      -2.605 -13.424  24.508  1.00  0.00    -0.000 C 
BRANCH  22  23
ATOM     23  C   UNL     1      -1.246 -13.670  23.818  1.00  0.00    -0.000 C 
BRANCH  23  24
ATOM     24  C   UNL     1      -0.928 -12.740  22.632  1.00  0.00    -0.000 C 
BRANCH  24  25
ATOM     25  C   UNL     1       0.038 -11.604  23.002  1.00  0.00    -0.000 C 
BRANCH  25  26
ATOM     26  C   UNL     1       0.813 -11.881  24.303  1.00  0.00    -0.000 C 
BRANCH  26  27
ATOM     27  C   UNL     1       0.966 -10.644  25.213  1.00  0.00    -0.000 C 
BRANCH  27  28
ATOM     28  C   UNL     1       0.885 -11.009  26.708  1.00  0.00    -0.000 C 
BRANCH  28  29
ATOM     29  C   UNL     1      -0.529 -11.425  27.139  1.00  0.00    -0.003 C 
ATOM     30  C   UNL     1      -0.600 -12.882  27.598  1.00  0.00     0.004 C 
ENDBRANCH  28  29
ENDBRANCH  27  28
ENDBRANCH  26  27
ENDBRANCH  25  26
ENDBRANCH  24  25
ENDBRANCH  23  24
ENDBRANCH  22  23
ENDBRANCH  21  22
ENDBRANCH  20  21
ENDBRANCH  19  20
ENDBRANCH  18  19
ENDBRANCH  17  18
ENDBRANCH   1  17
TORSDOF 26
ENDMDL
MODEL 6
REMARK VINA RESULT:    -4.988      2.909     11.430
REMARK INTER + INTRA:         -14.695
REMARK INTER:                 -12.430
REMARK INTRA:                  -2.265
REMARK UNBOUND:                -2.126
REMARK SMILES CCCCCCCCCCCCCCCCCCCCCCCCCCCC(=O)[O-]
REMARK SMILES IDX 15 1 16 2 17 3 18 4 19 5 20 6 21 7 22 8 23 9 24 10 25 11
REMARK SMILES IDX 26 12 27 13 28 14 29 15 30 16 14 17 13 18 12 19 11 20 10 21
REMARK SMILES IDX 9 22 8 23 7 24 6 25 5 26 4 27 3 28 2 29 1 30
REMARK H PARENT
REMARK Flexibility Score: inf
ROOT
ATOM      1  C   UNL     1      -6.100  -3.824  28.248  1.00  0.00     0.000 C 
ENDROOT
BRANCH   1   2
ATOM      2  C   UNL     1      -5.312  -5.143  28.184  1.00  0.00     0.000 C 
BRANCH   2   3
ATOM      3  C   UNL     1      -5.706  -6.195  29.240  1.00  0.00     0.000 C 
BRANCH   3   4
ATOM      4  C   UNL     1      -6.003  -7.591  28.654  1.00  0.00     0.000 C 
BRANCH   4   5
ATOM      5  C   UNL     1      -6.141  -8.668  29.743  1.00  0.00     0.000 C 
BRANCH   5   6
ATOM      6  C   UNL     1      -5.326  -9.936  29.434  1.00  0.00     0.000 C 
BRANCH   6   7
ATOM      7  C   UNL     1      -5.165 -10.213  27.922  1.00  0.00     0.000 C 
BRANCH   7   8
ATOM      8  C   UNL     1      -4.207 -11.385  27.647  1.00  0.00     0.000 C 
BRANCH   8   9
ATOM      9  C   UNL     1      -4.256 -11.860  26.186  1.00  0.00     0.000 C 
BRANCH   9  10
ATOM     10  C   UNL     1      -4.100 -13.383  26.053  1.00  0.00     0.000 C 
BRANCH  10  11
ATOM     11  C   UNL     1      -3.566 -13.759  24.662  1.00  0.00     0.000 C 
BRANCH  11  12
ATOM     12  C   UNL     1      -2.988 -12.553  23.904  1.00  0.00     0.006 C 
BRANCH  12  13
ATOM     13  C   UNL     1      -1.799 -12.932  23.011  1.00  0.00     0.053 C 
BRANCH  13  14
ATOM     14  C   UNL     1      -0.580 -12.158  23.405  1.00  0.00     0.041 C 
ATOM     15  O   UNL     1       0.289 -11.867  22.540  1.00  0.00    -0.550 OA
ATOM     16  O   UNL     1      -0.416 -11.734  24.717  1.00  0.00    -0.550 OA
ENDBRANCH  13  14
ENDBRANCH  12  13
ENDBRANCH  11  12
ENDBRANCH  10  11
ENDBRANCH   9  10
ENDBRANCH   8   9
ENDBRANCH   7   8
ENDBRANCH   6   7
ENDBRANCH   5   6
ENDBRANCH   4   5
ENDBRANCH   3   4
ENDBRANCH   2   3
ENDBRANCH   1   2
BRANCH   1  17
ATOM     17  C   UNL     1      -5.423  -2.685  29.039  1.00  0.00     0.000 C 
BRANCH  17  18
ATOM     18  C   UNL     1      -5.001  -1.476  28.177  1.00  0.00     0.000 C 
BRANCH  18  19
ATOM     19  C   UNL     1      -4.937  -0.168  28.983  1.00  0.00     0.000 C 
BRANCH  19  20
ATOM     20  C   UNL     1      -3.504   0.172  29.428  1.00  0.00     0.000 C 
BRANCH  20  21
ATOM     21  C   UNL     1      -3.353   1.656  29.804  1.00  0.00     0.000 C 
BRANCH  21  22
ATOM     22  C   UNL     1      -1.885   2.113  29.866  1.00  0.00    -0.000 C 
BRANCH  22  23
ATOM     23  C   UNL     1      -1.345   2.782  28.583  1.00  0.00    -0.000 C 
BRANCH  23  24
ATOM     24  C   UNL     1      -0.286   1.974  27.811  1.00  0.00    -0.000 C 
BRANCH  24  25
ATOM     25  C   UNL     1      -0.889   0.829  26.983  1.00  0.00    -0.000 C 
BRANCH  25  26
ATOM     26  C   UNL     1      -0.097  -0.484  27.116  1.00  0.00    -0.000 C 
BRANCH  26  27
ATOM     27  C   UNL     1       0.071  -0.966  28.572  1.00  0.00    -0.000 C 
BRANCH  27  28
ATOM     28  C   UNL     1      -0.191  -2.477  28.717  1.00  0.00    -0.000 C 
BRANCH  28  29
ATOM     29  C   UNL     1      -1.683  -2.829  28.636  1.00  0.00    -0.003 C 
ATOM     30  C   UNL     1      -1.986  -4.235  29.155  1.00  0.00     0.004 C 
ENDBRANCH  28  29
ENDBRANCH  27  28
ENDBRANCH  26  27
ENDBRANCH  25  26
ENDBRANCH  24  25
ENDBRANCH  23  24
ENDBRANCH  22  23
ENDBRANCH  21  22
ENDBRANCH  20  21
ENDBRANCH  19  20
ENDBRANCH  18  19
ENDBRANCH  17  18
ENDBRANCH   1  17
TORSDOF 26
ENDMDL
MODEL 7
REMARK VINA RESULT:    -4.975      3.490     11.478
REMARK INTER + INTRA:         -14.663
REMARK INTER:                 -12.709
REMARK INTRA:                  -1.954
REMARK UNBOUND:                -2.126
REMARK SMILES CCCCCCCCCCCCCCCCCCCCCCCCCCCC(=O)[O-]
REMARK SMILES IDX 15 1 16 2 17 3 18 4 19 5 20 6 21 7 22 8 23 9 24 10 25 11
REMARK SMILES IDX 26 12 27 13 28 14 29 15 30 16 14 17 13 18 12 19 11 20 10 21
REMARK SMILES IDX 9 22 8 23 7 24 6 25 5 26 4 27 3 28 2 29 1 30
REMARK H PARENT
REMARK Flexibility Score: inf
ROOT
ATOM      1  C   UNL     1      -5.553  -5.859  29.250  1.00  0.00     0.000 C 
ENDROOT
BRANCH   1   2
ATOM      2  C   UNL     1      -6.145  -7.124  28.607  1.00  0.00     0.000 C 
BRANCH   2   3
ATOM      3  C   UNL     1      -6.053  -8.402  29.466  1.00  0.00     0.000 C 
BRANCH   3   4
ATOM      4  C   UNL     1      -5.782  -9.685  28.654  1.00  0.00     0.000 C 
BRANCH   4   5
ATOM      5  C   UNL     1      -4.708 -10.575  29.302  1.00  0.00     0.000 C 
BRANCH   5   6
ATOM      6  C   UNL     1      -4.013 -11.503  28.291  1.00  0.00     0.000 C 
BRANCH   6   7
ATOM      7  C   UNL     1      -4.426 -11.239  26.826  1.00  0.00     0.000 C 
BRANCH   7   8
ATOM      8  C   UNL     1      -4.930 -12.514  26.127  1.00  0.00     0.000 C 
BRANCH   8   9
ATOM      9  C   UNL     1      -3.810 -13.272  25.396  1.00  0.00     0.000 C 
BRANCH   9  10
ATOM     10  C   UNL     1      -3.091 -12.404  24.352  1.00  0.00     0.000 C 
BRANCH  10  11
ATOM     11  C   UNL     1      -2.105 -13.245  23.528  1.00  0.00     0.000 C 
BRANCH  11  12
ATOM     12  C   UNL     1      -0.830 -12.470  23.158  1.00  0.00     0.006 C 
BRANCH  12  13
ATOM     13  C   UNL     1       0.181 -13.328  22.387  1.00  0.00     0.053 C 
BRANCH  13  14
ATOM     14  C   UNL     1       0.684 -12.592  21.185  1.00  0.00     0.041 C 
ATOM     15  O   UNL     1       1.247 -11.473  21.320  1.00  0.00    -0.550 OA
ATOM     16  O   UNL     1       0.558 -13.153  19.920  1.00  0.00    -0.550 OA
ENDBRANCH  13  14
ENDBRANCH  12  13
ENDBRANCH  11  12
ENDBRANCH  10  11
ENDBRANCH   9  10
ENDBRANCH   8   9
ENDBRANCH   7   8
ENDBRANCH   6   7
ENDBRANCH   5   6
ENDBRANCH   4   5
ENDBRANCH   3   4
ENDBRANCH   2   3
ENDBRANCH   1   2
BRANCH   1  17
ATOM     17  C   UNL     1      -5.074  -4.776  28.261  1.00  0.00     0.000 C 
BRANCH  17  18
ATOM     18  C   UNL     1      -5.827  -3.433  28.376  1.00  0.00     0.000 C 
BRANCH  18  19
ATOM     19  C   UNL     1      -5.149  -2.457  29.353  1.00  0.00     0.000 C 
BRANCH  19  20
ATOM     20  C   UNL     1      -4.971  -1.055  28.746  1.00  0.00     0.000 C 
BRANCH  20  21
ATOM     21  C   UNL     1      -3.659  -0.932  27.951  1.00  0.00     0.000 C 
BRANCH  21  22
ATOM     22  C   UNL     1      -2.601  -0.074  28.668  1.00  0.00    -0.000 C 
BRANCH  22  23
ATOM     23  C   UNL     1      -1.396   0.350  27.802  1.00  0.00    -0.000 C 
BRANCH  23  24
ATOM     24  C   UNL     1      -0.029   0.316  28.508  1.00  0.00    -0.000 C 
BRANCH  24  25
ATOM     25  C   UNL     1       1.118  -0.106  27.576  1.00  0.00    -0.000 C 
BRANCH  25  26
ATOM     26  C   UNL     1       1.163  -1.626  27.338  1.00  0.00    -0.000 C 
BRANCH  26  27
ATOM     27  C   UNL     1       1.656  -2.434  28.558  1.00  0.00    -0.000 C 
BRANCH  27  28
ATOM     28  C   UNL     1       0.491  -3.060  29.349  1.00  0.00    -0.000 C 
BRANCH  28  29
ATOM     29  C   UNL     1      -0.740  -3.332  28.472  1.00  0.00    -0.003 C 
ATOM     30  C   UNL     1      -1.847  -4.071  29.225  1.00  0.00     0.004 C 
ENDBRANCH  28  29
ENDBRANCH  27  28
ENDBRANCH  26  27
ENDBRANCH  25  26
ENDBRANCH  24  25
ENDBRANCH  23  24
ENDBRANCH  22  23
ENDBRANCH  21  22
ENDBRANCH  20  21
ENDBRANCH  19  20
ENDBRANCH  18  19
ENDBRANCH  17  18
ENDBRANCH   1  17
TORSDOF 26
ENDMDL
MODEL 8
REMARK VINA RESULT:    -4.932      2.078      5.699
REMARK INTER + INTRA:         -14.555
REMARK INTER:                 -11.450
REMARK INTRA:                  -3.105
REMARK UNBOUND:                -2.126
REMARK SMILES CCCCCCCCCCCCCCCCCCCCCCCCCCCC(=O)[O-]
REMARK SMILES IDX 15 1 16 2 17 3 18 4 19 5 20 6 21 7 22 8 23 9 24 10 25 11
REMARK SMILES IDX 26 12 27 13 28 14 29 15 30 16 14 17 13 18 12 19 11 20 10 21
REMARK SMILES IDX 9 22 8 23 7 24 6 25 5 26 4 27 3 28 2 29 1 30
REMARK H PARENT
REMARK Flexibility Score: inf
ROOT
ATOM      1  C   UNL     1      -4.148 -11.353  27.891  1.00  0.00     0.000 C 
ENDROOT
BRANCH   1   2
ATOM      2  C   UNL     1      -5.222 -10.253  27.882  1.00  0.00     0.000 C 
BRANCH   2   3
ATOM      3  C   UNL     1      -5.467  -9.564  29.240  1.00  0.00     0.000 C 
BRANCH   3   4
ATOM      4  C   UNL     1      -6.455  -8.381  29.174  1.00  0.00     0.000 C 
BRANCH   4   5
ATOM      5  C   UNL     1      -5.746  -7.018  29.252  1.00  0.00     0.000 C 
BRANCH   5   6
ATOM      6  C   UNL     1      -5.796  -6.243  27.925  1.00  0.00     0.000 C 
BRANCH   6   7
ATOM      7  C   UNL     1      -5.659  -4.714  28.096  1.00  0.00     0.000 C 
BRANCH   7   8
ATOM      8  C   UNL     1      -5.489  -4.308  29.570  1.00  0.00     0.000 C 
BRANCH   8   9
ATOM      9  C   UNL     1      -5.051  -2.845  29.736  1.00  0.00     0.000 C 
BRANCH   9  10
ATOM     10  C   UNL     1      -5.180  -2.036  28.436  1.00  0.00     0.000 C 
BRANCH  10  11
ATOM     11  C   UNL     1      -4.967  -0.538  28.699  1.00  0.00     0.000 C 
BRANCH  11  12
ATOM     12  C   UNL     1      -3.492  -0.183  28.943  1.00  0.00     0.006 C 
BRANCH  12  13
ATOM     13  C   UNL     1      -2.573  -0.664  27.812  1.00  0.00     0.053 C 
BRANCH  13  14
ATOM     14  C   UNL     1      -1.444  -1.477  28.363  1.00  0.00     0.041 C 
ATOM     15  O   UNL     1      -1.629  -2.683  28.676  1.00  0.00    -0.550 OA
ATOM     16  O   UNL     1      -0.183  -0.913  28.504  1.00  0.00    -0.550 OA
ENDBRANCH  13  14
ENDBRANCH  12  13
ENDBRANCH  11  12
ENDBRANCH  10  11
ENDBRANCH   9  10
ENDBRANCH   8   9
ENDBRANCH   7   8
ENDBRANCH   6   7
ENDBRANCH   5   6
ENDBRANCH   4   5
ENDBRANCH   3   4
ENDBRANCH   2   3
ENDBRANCH   1   2
BRANCH   1  17
ATOM     17  C   UNL     1      -3.522 -11.658  29.268  1.00  0.00     0.000 C 
BRANCH  17  18
ATOM     18  C   UNL     1      -1.981 -11.562  29.300  1.00  0.00     0.000 C 
BRANCH  18  19
ATOM     19  C   UNL     1      -1.338 -11.911  27.946  1.00  0.00     0.000 C 
BRANCH  19  20
ATOM     20  C   UNL     1      -0.326 -13.063  28.063  1.00  0.00     0.000 C 
BRANCH  20  21
ATOM     21  C   UNL     1      -0.751 -14.290  27.236  1.00  0.00     0.000 C 
BRANCH  21  22
ATOM     22  C   UNL     1      -2.066 -14.919  27.728  1.00  0.00    -0.000 C 
BRANCH  22  23
ATOM     23  C   UNL     1      -3.212 -14.950  26.695  1.00  0.00    -0.000 C 
BRANCH  23  24
ATOM     24  C   UNL     1      -2.852 -14.430  25.291  1.00  0.00    -0.000 C 
BRANCH  24  25
ATOM     25  C   UNL     1      -3.496 -13.072  24.969  1.00  0.00    -0.000 C 
BRANCH  25  26
ATOM     26  C   UNL     1      -2.951 -12.448  23.672  1.00  0.00    -0.000 C 
BRANCH  26  27
ATOM     27  C   UNL     1      -1.669 -13.125  23.145  1.00  0.00    -0.000 C 
BRANCH  27  28
ATOM     28  C   UNL     1      -0.455 -12.178  23.180  1.00  0.00    -0.000 C 
BRANCH  28  29
ATOM     29  C   UNL     1       0.276 -12.204  24.530  1.00  0.00    -0.003 C 
ATOM     30  C   UNL     1       0.924 -10.862  24.875  1.00  0.00     0.004 C 
ENDBRANCH  28  29
ENDBRANCH  27  28
ENDBRANCH  26  27
ENDBRANCH  25  26
ENDBRANCH  24  25
ENDBRANCH  23  24
ENDBRANCH  22  23
ENDBRANCH  21  22
ENDBRANCH  20  21
ENDBRANCH  19  20
ENDBRANCH  18  19
ENDBRANCH  17  18
ENDBRANCH   1  17
TORSDOF 26
ENDMDL
MODEL 9
REMARK VINA RESULT:    -4.927      3.082     11.820
REMARK INTER + INTRA:         -14.542
REMARK INTER:                 -12.051
REMARK INTRA:                  -2.491
REMARK UNBOUND:                -2.126
REMARK SMILES CCCCCCCCCCCCCCCCCCCCCCCCCCCC(=O)[O-]
REMARK SMILES IDX 15 1 16 2 17 3 18 4 19 5 20 6 21 7 22 8 23 9 24 10 25 11
REMARK SMILES IDX 26 12 27 13 28 14 29 15 30 16 14 17 13 18 12 19 11 20 10 21
REMARK SMILES IDX 9 22 8 23 7 24 6 25 5 26 4 27 3 28 2 29 1 30
REMARK H PARENT
REMARK Flexibility Score: inf
ROOT
ATOM      1  C   UNL     1      -4.907  -4.708  28.317  1.00  0.00     0.000 C 
ENDROOT
BRANCH   1   2
ATOM      2  C   UNL     1      -5.441  -5.800  29.258  1.00  0.00     0.000 C 
BRANCH   2   3
ATOM      3  C   UNL     1      -6.061  -7.026  28.557  1.00  0.00     0.000 C 
BRANCH   3   4
ATOM      4  C   UNL     1      -5.981  -8.327  29.382  1.00  0.00     0.000 C 
BRANCH   4   5
ATOM      5  C   UNL     1      -5.776  -9.571  28.500  1.00  0.00     0.000 C 
BRANCH   5   6
ATOM      6  C   UNL     1      -4.764 -10.564  29.097  1.00  0.00     0.000 C 
BRANCH   6   7
ATOM      7  C   UNL     1      -3.943 -11.324  28.031  1.00  0.00     0.000 C 
BRANCH   7   8
ATOM      8  C   UNL     1      -4.620 -11.297  26.650  1.00  0.00     0.000 C 
BRANCH   8   9
ATOM      9  C   UNL     1      -4.223 -12.494  25.772  1.00  0.00     0.000 C 
BRANCH   9  10
ATOM     10  C   UNL     1      -3.471 -12.073  24.500  1.00  0.00     0.000 C 
BRANCH  10  11
ATOM     11  C   UNL     1      -2.611 -13.229  23.964  1.00  0.00     0.000 C 
BRANCH  11  12
ATOM     12  C   UNL     1      -1.392 -12.740  23.167  1.00  0.00     0.006 C 
BRANCH  12  13
ATOM     13  C   UNL     1      -0.540 -11.731  23.949  1.00  0.00     0.053 C 
BRANCH  13  14
ATOM     14  C   UNL     1      -0.042 -12.339  25.222  1.00  0.00     0.041 C 
ATOM     15  O   UNL     1      -0.326 -11.808  26.329  1.00  0.00    -0.550 OA
ATOM     16  O   UNL     1       0.711 -13.506  25.190  1.00  0.00    -0.550 OA
ENDBRANCH  13  14
ENDBRANCH  12  13
ENDBRANCH  11  12
ENDBRANCH  10  11
ENDBRANCH   9  10
ENDBRANCH   8   9
ENDBRANCH   7   8
ENDBRANCH   6   7
ENDBRANCH   5   6
ENDBRANCH   4   5
ENDBRANCH   3   4
ENDBRANCH   2   3
ENDBRANCH   1   2
BRANCH   1  17
ATOM     17  C   UNL     1      -5.698  -3.383  28.322  1.00  0.00     0.000 C 
BRANCH  17  18
ATOM     18  C   UNL     1      -5.205  -2.353  29.361  1.00  0.00     0.000 C 
BRANCH  18  19
ATOM     19  C   UNL     1      -5.126  -0.927  28.789  1.00  0.00     0.000 C 
BRANCH  19  20
ATOM     20  C   UNL     1      -3.726  -0.311  28.952  1.00  0.00     0.000 C 
BRANCH  20  21
ATOM     21  C   UNL     1      -2.840  -0.556  27.719  1.00  0.00     0.000 C 
BRANCH  21  22
ATOM     22  C   UNL     1      -1.648  -1.484  28.011  1.00  0.00    -0.000 C 
BRANCH  22  23
ATOM     23  C   UNL     1      -0.400  -1.257  27.131  1.00  0.00    -0.000 C 
BRANCH  23  24
ATOM     24  C   UNL     1       0.950  -1.316  27.868  1.00  0.00    -0.000 C 
BRANCH  24  25
ATOM     25  C   UNL     1       0.834  -0.973  29.362  1.00  0.00    -0.000 C 
BRANCH  25  26
ATOM     26  C   UNL     1       0.911   0.539  29.633  1.00  0.00    -0.000 C 
BRANCH  26  27
ATOM     27  C   UNL     1      -0.417   1.153  30.125  1.00  0.00    -0.000 C 
BRANCH  27  28
ATOM     28  C   UNL     1      -0.971   2.203  29.142  1.00  0.00    -0.000 C 
BRANCH  28  29
ATOM     29  C   UNL     1       0.045   2.593  28.059  1.00  0.00    -0.003 C 
ATOM     30  C   UNL     1      -0.527   2.476  26.646  1.00  0.00     0.004 C 
ENDBRANCH  28  29
ENDBRANCH  27  28
ENDBRANCH  26  27
ENDBRANCH  25  26
ENDBRANCH  24  25
ENDBRANCH  23  24
ENDBRANCH  22  23
ENDBRANCH  21  22
ENDBRANCH  20  21
ENDBRANCH  19  20
ENDBRANCH  18  19
ENDBRANCH  17  18
ENDBRANCH   1  17
TORSDOF 26
ENDMDL
