MODEL 1
REMARK VINA RESULT:    -8.034      0.000      0.000
REMARK INTER + INTRA:         -15.908
REMARK INTER:                 -13.200
REMARK INTRA:                  -2.708
REMARK UNBOUND:                -2.708
REMARK SMILES C[C@@H]1O[C@H](OC[C@H]2O[C@@H](Oc3c(-c4ccc(O)c(O)c4)oc4cc(O)cc(O)c4c3=O)[C@@H](O)[C@H](O)[C@@H]2O)[C@H](O)[C@@H](O)[C@H]1O
REMARK SMILES IDX 7 1 36 2 34 3 32 4 9 5 8 6 6 7 5 8 4 9 1 10 2 11 42 12 3 13
REMARK SMILES IDX 40 14 38 15 43 16 41 18 39 20 37 22 35 24 10 26 11 27 12 28
REMARK SMILES IDX 30 29 21 30 29 31 31 32 22 33 27 34 23 35 26 36 24 37 13 38
REMARK SMILES IDX 20 39 14 40 18 41 15 42 16 43 19 44 17 46 28 48 25 50 33 52
REMARK H PARENT 43 17 41 19 39 21 37 23 35 25 19 45 17 47 28 49 25 51 33 53
REMARK Flexibility Score: inf
ROOT
ATOM      1  C   UNL     1     141.776 141.619 139.444  1.00  0.00     0.180 C 
ATOM      2  C   UNL     1     141.696 142.710 138.349  1.00  0.00     0.177 C 
ATOM      3  C   UNL     1     140.641 143.778 138.723  1.00  0.00     0.180 C 
ATOM      4  C   UNL     1     140.787 144.225 140.197  1.00  0.00     0.214 C 
ATOM      5  C   UNL     1     140.936 142.999 141.118  1.00  0.00     0.339 C 
ATOM      6  O   UNL     1     142.035 142.209 140.706  1.00  0.00    -0.332 OA
ENDROOT
BRANCH   1   7
ATOM      7  C   UNL     1     142.889 140.588 139.154  1.00  0.00     0.198 C 
BRANCH   7   8
ATOM      8  O   UNL     1     142.553 139.802 138.015  1.00  0.00    -0.347 OA
BRANCH   8   9
ATOM      9  C   UNL     1     141.910 138.570 138.338  1.00  0.00     0.281 C 
ATOM     10  C   UNL     1     142.199 136.340 141.238  1.00  0.00     0.041 C 
ATOM     11  C   UNL     1     141.515 137.028 140.057  1.00  0.00     0.150 C 
ATOM     12  C   UNL     1     140.122 137.582 140.468  1.00  0.00     0.174 C 
ATOM     13  O   UNL     1     142.345 138.079 139.605  1.00  0.00    -0.344 OA
ATOM     14  C   UNL     1     139.673 138.757 139.557  1.00  0.00     0.179 C 
ATOM     15  C   UNL     1     140.355 138.658 138.184  1.00  0.00     0.202 C 
BRANCH  12  16
ATOM     16  O   UNL     1     139.173 136.545 140.486  1.00  0.00    -0.388 OA
ATOM     17  H   UNL     1     139.161 136.119 139.590  1.00  0.00     0.211 HD
ENDBRANCH  12  16
BRANCH  14  18
ATOM     18  O   UNL     1     138.277 138.757 139.405  1.00  0.00    -0.387 OA
ATOM     19  H   UNL     1     138.066 138.092 138.701  1.00  0.00     0.211 HD
ENDBRANCH  14  18
BRANCH  15  20
ATOM     20  O   UNL     1     139.972 139.742 137.381  1.00  0.00    -0.385 OA
ATOM     21  H   UNL     1     140.299 139.545 136.465  1.00  0.00     0.211 HD
ENDBRANCH  15  20
ENDBRANCH   8   9
ENDBRANCH   7   8
ENDBRANCH   1   7
BRANCH   2  22
ATOM     22  O   UNL     1     141.353 142.109 137.122  1.00  0.00    -0.387 OA
ATOM     23  H   UNL     1     140.659 141.426 137.318  1.00  0.00     0.211 HD
ENDBRANCH   2  22
BRANCH   3  24
ATOM     24  O   UNL     1     139.349 143.257 138.516  1.00  0.00    -0.387 OA
ATOM     25  H   UNL     1     139.246 142.481 139.127  1.00  0.00     0.211 HD
ENDBRANCH   3  24
BRANCH   5  26
ATOM     26  O   UNL     1     141.151 143.424 142.459  1.00  0.00    -0.454 OA
BRANCH  26  27
ATOM     27  C   UNL     1     140.677 142.668 143.534  1.00  0.00     0.214 A 
ATOM     28  C   UNL     1     141.528 141.800 144.248  1.00  0.00     0.180 A 
ATOM     29  C   UNL     1     139.322 142.731 143.883  1.00  0.00     0.239 A 
ATOM     30  O   UNL     1     141.023 141.037 145.217  1.00  0.00    -0.452 OA
ATOM     31  C   UNL     1     138.826 141.909 144.913  1.00  0.00     0.111 A 
ATOM     32  O   UNL     1     138.563 143.519 143.257  1.00  0.00    -0.285 OA
ATOM     33  C   UNL     1     139.742 141.052 145.567  1.00  0.00     0.146 A 
ATOM     34  C   UNL     1     137.464 141.883 145.295  1.00  0.00     0.134 A 
ATOM     35  C   UNL     1     139.304 140.198 146.581  1.00  0.00     0.094 A 
ATOM     36  C   UNL     1     137.045 141.014 146.313  1.00  0.00     0.093 A 
ATOM     37  C   UNL     1     137.957 140.176 146.955  1.00  0.00     0.123 A 
BRANCH  28  38
ATOM     38  C   UNL     1     142.970 141.654 143.929  1.00  0.00     0.025 A 
ATOM     39  C   UNL     1     143.366 140.675 143.004  1.00  0.00     0.062 A 
ATOM     40  C   UNL     1     143.958 142.443 144.547  1.00  0.00     0.016 A 
ATOM     41  C   UNL     1     144.717 140.511 142.664  1.00  0.00     0.158 A 
ATOM     42  C   UNL     1     145.304 142.286 144.205  1.00  0.00     0.051 A 
ATOM     43  C   UNL     1     145.690 141.326 143.264  1.00  0.00     0.157 A 
BRANCH  41  44
ATOM     44  O   UNL     1     145.090 139.542 141.734  1.00  0.00    -0.504 OA
ATOM     45  H   UNL     1     145.696 139.764 140.952  1.00  0.00     0.293 HD
ENDBRANCH  41  44
BRANCH  43  46
ATOM     46  O   UNL     1     147.042 141.191 142.943  1.00  0.00    -0.504 OA
ATOM     47  H   UNL     1     147.749 141.021 143.648  1.00  0.00     0.293 HD
ENDBRANCH  43  46
ENDBRANCH  28  38
BRANCH  34  48
ATOM     48  O   UNL     1     136.528 142.709 144.670  1.00  0.00    -0.507 OA
ATOM     49  H   UNL     1     136.589 143.719 144.723  1.00  0.00     0.293 HD
ENDBRANCH  34  48
BRANCH  37  50
ATOM     50  O   UNL     1     137.516 139.321 147.964  1.00  0.00    -0.508 OA
ATOM     51  H   UNL     1     136.547 139.026 148.023  1.00  0.00     0.293 HD
ENDBRANCH  37  50
ENDBRANCH  26  27
ENDBRANCH   5  26
BRANCH   4  52
ATOM     52  O   UNL     1     141.863 145.120 140.349  1.00  0.00    -0.384 OA
ATOM     53  H   UNL     1     141.993 145.293 141.316  1.00  0.00     0.211 HD
ENDBRANCH   4  52
TORSDOF 16
ENDMDL
MODEL 2
REMARK VINA RESULT:    -7.670      1.378      2.318
REMARK INTER + INTRA:         -15.310
REMARK INTER:                 -12.643
REMARK INTRA:                  -2.667
REMARK UNBOUND:                -2.708
REMARK SMILES C[C@@H]1O[C@H](OC[C@H]2O[C@@H](Oc3c(-c4ccc(O)c(O)c4)oc4cc(O)cc(O)c4c3=O)[C@@H](O)[C@H](O)[C@@H]2O)[C@H](O)[C@@H](O)[C@H]1O
REMARK SMILES IDX 7 1 36 2 34 3 32 4 9 5 8 6 6 7 5 8 4 9 1 10 2 11 42 12 3 13
REMARK SMILES IDX 40 14 38 15 43 16 41 18 39 20 37 22 35 24 10 26 11 27 12 28
REMARK SMILES IDX 30 29 21 30 29 31 31 32 22 33 27 34 23 35 26 36 24 37 13 38
REMARK SMILES IDX 20 39 14 40 18 41 15 42 16 43 19 44 17 46 28 48 25 50 33 52
REMARK H PARENT 43 17 41 19 39 21 37 23 35 25 19 45 17 47 28 49 25 51 33 53
REMARK Flexibility Score: inf
ROOT
ATOM      1  C   UNL     1     138.804 142.007 140.651  1.00  0.00     0.180 C 
ATOM      2  C   UNL     1     139.776 142.408 139.515  1.00  0.00     0.177 C 
ATOM      3  C   UNL     1     140.307 143.844 139.737  1.00  0.00     0.180 C 
ATOM      4  C   UNL     1     140.758 144.059 141.200  1.00  0.00     0.214 C 
ATOM      5  C   UNL     1     139.694 143.521 142.176  1.00  0.00     0.339 C 
ATOM      6  O   UNL     1     139.434 142.157 141.911  1.00  0.00    -0.332 OA
ENDROOT
BRANCH   1   7
ATOM      7  C   UNL     1     138.329 140.543 140.517  1.00  0.00     0.198 C 
BRANCH   7   8
ATOM      8  O   UNL     1     139.380 139.647 140.864  1.00  0.00    -0.347 OA
BRANCH   8   9
ATOM      9  C   UNL     1     139.810 138.821 139.783  1.00  0.00     0.281 C 
ATOM     10  C   UNL     1     142.881 138.816 137.773  1.00  0.00     0.041 C 
ATOM     11  C   UNL     1     141.655 138.224 138.468  1.00  0.00     0.150 C 
ATOM     12  C   UNL     1     142.033 136.949 139.272  1.00  0.00     0.174 C 
ATOM     13  O   UNL     1     141.108 139.201 139.330  1.00  0.00    -0.344 OA
ATOM     14  C   UNL     1     141.033 136.673 140.428  1.00  0.00     0.179 C 
ATOM     15  C   UNL     1     139.666 137.297 140.111  1.00  0.00     0.202 C 
BRANCH  12  16
ATOM     16  O   UNL     1     142.146 135.845 138.408  1.00  0.00    -0.388 OA
ATOM     17  H   UNL     1     141.279 135.725 137.942  1.00  0.00     0.211 HD
ENDBRANCH  12  16
BRANCH  14  18
ATOM     18  O   UNL     1     140.897 135.293 140.643  1.00  0.00    -0.387 OA
ATOM     19  H   UNL     1     140.461 135.182 141.527  1.00  0.00     0.211 HD
ENDBRANCH  14  18
BRANCH  15  20
ATOM     20  O   UNL     1     138.781 137.076 141.175  1.00  0.00    -0.385 OA
ATOM     21  H   UNL     1     139.176 137.520 141.970  1.00  0.00     0.211 HD
ENDBRANCH  15  20
ENDBRANCH   8   9
ENDBRANCH   7   8
ENDBRANCH   1   7
BRANCH   2  22
ATOM     22  O   UNL     1     139.100 142.333 138.281  1.00  0.00    -0.387 OA
ATOM     23  H   UNL     1     139.789 142.175 137.583  1.00  0.00     0.211 HD
ENDBRANCH   2  22
BRANCH   3  24
ATOM     24  O   UNL     1     139.301 144.774 139.414  1.00  0.00    -0.387 OA
ATOM     25  H   UNL     1     138.552 144.626 140.049  1.00  0.00     0.211 HD
ENDBRANCH   3  24
BRANCH   5  26
ATOM     26  O   UNL     1     140.155 143.651 143.516  1.00  0.00    -0.454 OA
BRANCH  26  27
ATOM     27  C   UNL     1     139.783 142.725 144.494  1.00  0.00     0.214 A 
ATOM     28  C   UNL     1     140.617 141.636 144.823  1.00  0.00     0.180 A 
ATOM     29  C   UNL     1     138.540 142.845 145.127  1.00  0.00     0.239 A 
ATOM     30  O   UNL     1     140.195 140.731 145.704  1.00  0.00    -0.452 OA
ATOM     31  C   UNL     1     138.129 141.867 146.053  1.00  0.00     0.111 A 
ATOM     32  O   UNL     1     137.801 143.827 144.846  1.00  0.00    -0.285 OA
ATOM     33  C   UNL     1     139.016 140.797 146.313  1.00  0.00     0.146 A 
ATOM     34  C   UNL     1     136.872 141.895 146.702  1.00  0.00     0.134 A 
ATOM     35  C   UNL     1     138.654 139.785 147.206  1.00  0.00     0.094 A 
ATOM     36  C   UNL     1     136.527 140.866 147.591  1.00  0.00     0.093 A 
ATOM     37  C   UNL     1     137.411 139.816 147.845  1.00  0.00     0.123 A 
BRANCH  28  38
ATOM     38  C   UNL     1     141.938 141.420 144.183  1.00  0.00     0.025 A 
ATOM     39  C   UNL     1     142.038 140.507 143.122  1.00  0.00     0.062 A 
ATOM     40  C   UNL     1     143.102 142.076 144.626  1.00  0.00     0.016 A 
ATOM     41  C   UNL     1     143.265 140.281 142.480  1.00  0.00     0.158 A 
ATOM     42  C   UNL     1     144.324 141.857 143.984  1.00  0.00     0.051 A 
ATOM     43  C   UNL     1     144.412 140.965 142.911  1.00  0.00     0.157 A 
BRANCH  41  44
ATOM     44  O   UNL     1     143.343 139.380 141.420  1.00  0.00    -0.504 OA
ATOM     45  H   UNL     1     144.225 138.962 141.143  1.00  0.00     0.293 HD
ENDBRANCH  41  44
BRANCH  43  46
ATOM     46  O   UNL     1     145.647 140.766 142.290  1.00  0.00    -0.504 OA
ATOM     47  H   UNL     1     145.726 140.537 141.306  1.00  0.00     0.293 HD
ENDBRANCH  43  46
ENDBRANCH  28  38
BRANCH  34  48
ATOM     48  O   UNL     1     135.967 142.931 146.467  1.00  0.00    -0.507 OA
ATOM     49  H   UNL     1     134.965 142.775 146.473  1.00  0.00     0.293 HD
ENDBRANCH  34  48
BRANCH  37  50
ATOM     50  O   UNL     1     137.045 138.807 148.732  1.00  0.00    -0.508 OA
ATOM     51  H   UNL     1     137.720 138.382 149.360  1.00  0.00     0.293 HD
ENDBRANCH  37  50
ENDBRANCH  26  27
ENDBRANCH   5  26
BRANCH   4  52
ATOM     52  O   UNL     1     142.017 143.473 141.433  1.00  0.00    -0.384 OA
ATOM     53  H   UNL     1     142.708 144.181 141.382  1.00  0.00     0.211 HD
ENDBRANCH   4  52
TORSDOF 16
ENDMDL
MODEL 3
REMARK VINA RESULT:    -7.636      1.946      5.765
REMARK INTER + INTRA:         -15.254
REMARK INTER:                 -12.559
REMARK INTRA:                  -2.695
REMARK UNBOUND:                -2.708
REMARK SMILES C[C@@H]1O[C@H](OC[C@H]2O[C@@H](Oc3c(-c4ccc(O)c(O)c4)oc4cc(O)cc(O)c4c3=O)[C@@H](O)[C@H](O)[C@@H]2O)[C@H](O)[C@@H](O)[C@H]1O
REMARK SMILES IDX 7 1 36 2 34 3 32 4 9 5 8 6 6 7 5 8 4 9 1 10 2 11 42 12 3 13
REMARK SMILES IDX 40 14 38 15 43 16 41 18 39 20 37 22 35 24 10 26 11 27 12 28
REMARK SMILES IDX 30 29 21 30 29 31 31 32 22 33 27 34 23 35 26 36 24 37 13 38
REMARK SMILES IDX 20 39 14 40 18 41 15 42 16 43 19 44 17 46 28 48 25 50 33 52
REMARK H PARENT 43 17 41 19 39 21 37 23 35 25 19 45 17 47 28 49 25 51 33 53
REMARK Flexibility Score: inf
ROOT
ATOM      1  C   UNL     1     143.501 142.320 142.344  1.00  0.00     0.180 C 
ATOM      2  C   UNL     1     143.962 142.841 143.727  1.00  0.00     0.177 C 
ATOM      3  C   UNL     1     143.593 144.334 143.896  1.00  0.00     0.180 C 
ATOM      4  C   UNL     1     142.137 144.610 143.454  1.00  0.00     0.214 C 
ATOM      5  C   UNL     1     141.851 143.942 142.096  1.00  0.00     0.339 C 
ATOM      6  O   UNL     1     142.114 142.554 142.169  1.00  0.00    -0.332 OA
ENDROOT
BRANCH   1   7
ATOM      7  C   UNL     1     143.762 140.807 142.178  1.00  0.00     0.198 C 
BRANCH   7   8
ATOM      8  O   UNL     1     142.617 140.163 141.627  1.00  0.00    -0.347 OA
BRANCH   8   9
ATOM      9  C   UNL     1     142.921 138.965 140.914  1.00  0.00     0.281 C 
ATOM     10  C   UNL     1     142.081 135.451 141.555  1.00  0.00     0.041 C 
ATOM     11  C   UNL     1     142.402 136.689 140.718  1.00  0.00     0.150 C 
ATOM     12  C   UNL     1     141.394 136.843 139.545  1.00  0.00     0.174 C 
ATOM     13  O   UNL     1     142.353 137.826 141.557  1.00  0.00    -0.344 OA
ATOM     14  C   UNL     1     141.285 138.316 139.063  1.00  0.00     0.179 C 
ATOM     15  C   UNL     1     142.576 139.082 139.392  1.00  0.00     0.202 C 
BRANCH  12  16
ATOM     16  O   UNL     1     141.737 135.975 138.493  1.00  0.00    -0.388 OA
ATOM     17  H   UNL     1     141.293 136.298 137.667  1.00  0.00     0.211 HD
ENDBRANCH  12  16
BRANCH  14  18
ATOM     18  O   UNL     1     141.032 138.365 137.683  1.00  0.00    -0.387 OA
ATOM     19  H   UNL     1     141.639 137.706 137.257  1.00  0.00     0.211 HD
ENDBRANCH  14  18
BRANCH  15  20
ATOM     20  O   UNL     1     142.455 140.418 138.987  1.00  0.00    -0.385 OA
ATOM     21  H   UNL     1     142.316 140.406 138.005  1.00  0.00     0.211 HD
ENDBRANCH  15  20
ENDBRANCH   8   9
ENDBRANCH   7   8
ENDBRANCH   1   7
BRANCH   2  22
ATOM     22  O   UNL     1     145.356 142.676 143.842  1.00  0.00    -0.387 OA
ATOM     23  H   UNL     1     145.656 142.178 143.036  1.00  0.00     0.211 HD
ENDBRANCH   2  22
BRANCH   3  24
ATOM     24  O   UNL     1     144.474 145.125 143.133  1.00  0.00    -0.387 OA
ATOM     25  H   UNL     1     144.104 145.167 142.212  1.00  0.00     0.211 HD
ENDBRANCH   3  24
BRANCH   5  26
ATOM     26  O   UNL     1     140.487 144.134 141.739  1.00  0.00    -0.454 OA
BRANCH  26  27
ATOM     27  C   UNL     1     139.830 143.225 140.905  1.00  0.00     0.214 A 
ATOM     28  C   UNL     1     138.926 142.277 141.426  1.00  0.00     0.180 A 
ATOM     29  C   UNL     1     140.107 143.218 139.532  1.00  0.00     0.239 A 
ATOM     30  O   UNL     1     138.379 141.377 140.611  1.00  0.00    -0.452 OA
ATOM     31  C   UNL     1     139.509 142.250 138.703  1.00  0.00     0.111 A 
ATOM     32  O   UNL     1     140.902 144.076 139.062  1.00  0.00    -0.285 OA
ATOM     33  C   UNL     1     138.628 141.323 139.307  1.00  0.00     0.146 A 
ATOM     34  C   UNL     1     139.770 142.150 137.316  1.00  0.00     0.134 A 
ATOM     35  C   UNL     1     138.022 140.326 138.539  1.00  0.00     0.094 A 
ATOM     36  C   UNL     1     139.154 141.139 136.564  1.00  0.00     0.093 A 
ATOM     37  C   UNL     1     138.283 140.231 137.169  1.00  0.00     0.123 A 
BRANCH  28  38
ATOM     38  C   UNL     1     138.594 142.199 142.870  1.00  0.00     0.025 A 
ATOM     39  C   UNL     1     139.272 141.269 143.674  1.00  0.00     0.062 A 
ATOM     40  C   UNL     1     137.600 143.005 143.455  1.00  0.00     0.016 A 
ATOM     41  C   UNL     1     138.999 141.171 145.046  1.00  0.00     0.158 A 
ATOM     42  C   UNL     1     137.330 142.914 144.824  1.00  0.00     0.051 A 
ATOM     43  C   UNL     1     138.027 142.002 145.624  1.00  0.00     0.157 A 
BRANCH  41  44
ATOM     44  O   UNL     1     139.690 140.250 145.832  1.00  0.00    -0.504 OA
ATOM     45  H   UNL     1     140.658 140.398 146.094  1.00  0.00     0.293 HD
ENDBRANCH  41  44
BRANCH  43  46
ATOM     46  O   UNL     1     137.735 141.932 146.988  1.00  0.00    -0.504 OA
ATOM     47  H   UNL     1     138.390 141.551 147.661  1.00  0.00     0.293 HD
ENDBRANCH  43  46
ENDBRANCH  28  38
BRANCH  34  48
ATOM     48  O   UNL     1     140.637 143.043 136.684  1.00  0.00    -0.507 OA
ATOM     49  H   UNL     1     140.791 143.979 137.040  1.00  0.00     0.293 HD
ENDBRANCH  34  48
BRANCH  37  50
ATOM     50  O   UNL     1     137.683 139.236 136.402  1.00  0.00    -0.508 OA
ATOM     51  H   UNL     1     137.325 138.384 136.823  1.00  0.00     0.293 HD
ENDBRANCH  37  50
ENDBRANCH  26  27
ENDBRANCH   5  26
BRANCH   4  52
ATOM     52  O   UNL     1     141.222 144.192 144.439  1.00  0.00    -0.384 OA
ATOM     53  H   UNL     1     140.331 144.092 144.018  1.00  0.00     0.211 HD
ENDBRANCH   4  52
TORSDOF 16
ENDMDL
MODEL 4
REMARK VINA RESULT:    -7.483      1.414      2.464
REMARK INTER + INTRA:         -15.003
REMARK INTER:                 -12.835
REMARK INTRA:                  -2.167
REMARK UNBOUND:                -2.708
REMARK SMILES C[C@@H]1O[C@H](OC[C@H]2O[C@@H](Oc3c(-c4ccc(O)c(O)c4)oc4cc(O)cc(O)c4c3=O)[C@@H](O)[C@H](O)[C@@H]2O)[C@H](O)[C@@H](O)[C@H]1O
REMARK SMILES IDX 7 1 36 2 34 3 32 4 9 5 8 6 6 7 5 8 4 9 1 10 2 11 42 12 3 13
REMARK SMILES IDX 40 14 38 15 43 16 41 18 39 20 37 22 35 24 10 26 11 27 12 28
REMARK SMILES IDX 30 29 21 30 29 31 31 32 22 33 27 34 23 35 26 36 24 37 13 38
REMARK SMILES IDX 20 39 14 40 18 41 15 42 16 43 19 44 17 46 28 48 25 50 33 52
REMARK H PARENT 43 17 41 19 39 21 37 23 35 25 19 45 17 47 28 49 25 51 33 53
REMARK Flexibility Score: inf
ROOT
ATOM      1  C   UNL     1     139.304 141.790 138.923  1.00  0.00     0.180 C 
ATOM      2  C   UNL     1     140.422 141.670 137.859  1.00  0.00     0.177 C 
ATOM      3  C   UNL     1     141.320 142.929 137.872  1.00  0.00     0.180 C 
ATOM      4  C   UNL     1     141.717 143.327 139.312  1.00  0.00     0.214 C 
ATOM      5  C   UNL     1     140.483 143.307 140.234  1.00  0.00     0.339 C 
ATOM      6  O   UNL     1     139.867 142.035 140.200  1.00  0.00    -0.332 OA
ENDROOT
BRANCH   1   7
ATOM      7  C   UNL     1     138.446 140.508 139.010  1.00  0.00     0.198 C 
BRANCH   7   8
ATOM      8  O   UNL     1     139.027 139.583 139.924  1.00  0.00    -0.347 OA
BRANCH   8   9
ATOM      9  C   UNL     1     139.751 138.529 139.292  1.00  0.00     0.281 C 
ATOM     10  C   UNL     1     143.079 138.422 137.749  1.00  0.00     0.041 C 
ATOM     11  C   UNL     1     141.857 137.885 138.494  1.00  0.00     0.150 C 
ATOM     12  C   UNL     1     142.284 137.090 139.760  1.00  0.00     0.174 C 
ATOM     13  O   UNL     1     141.034 138.975 138.857  1.00  0.00    -0.344 OA
ATOM     14  C   UNL     1     141.158 137.053 140.829  1.00  0.00     0.179 C 
ATOM     15  C   UNL     1     139.785 137.230 140.164  1.00  0.00     0.202 C 
BRANCH  12  16
ATOM     16  O   UNL     1     142.705 135.797 139.402  1.00  0.00    -0.388 OA
ATOM     17  H   UNL     1     142.321 135.580 138.514  1.00  0.00     0.211 HD
ENDBRANCH  12  16
BRANCH  14  18
ATOM     18  O   UNL     1     141.198 135.846 141.544  1.00  0.00    -0.387 OA
ATOM     19  H   UNL     1     141.851 135.260 141.081  1.00  0.00     0.211 HD
ENDBRANCH  14  18
BRANCH  15  20
ATOM     20  O   UNL     1     138.778 137.233 141.140  1.00  0.00    -0.385 OA
ATOM     21  H   UNL     1     138.384 136.322 141.143  1.00  0.00     0.211 HD
ENDBRANCH  15  20
ENDBRANCH   8   9
ENDBRANCH   7   8
ENDBRANCH   1   7
BRANCH   2  22
ATOM     22  O   UNL     1     139.835 141.513 136.588  1.00  0.00    -0.387 OA
ATOM     23  H   UNL     1     140.330 142.107 135.966  1.00  0.00     0.211 HD
ENDBRANCH   2  22
BRANCH   3  24
ATOM     24  O   UNL     1     140.639 143.999 137.259  1.00  0.00    -0.387 OA
ATOM     25  H   UNL     1     140.554 144.718 137.940  1.00  0.00     0.211 HD
ENDBRANCH   3  24
BRANCH   5  26
ATOM     26  O   UNL     1     140.873 143.596 141.573  1.00  0.00    -0.454 OA
BRANCH  26  27
ATOM     27  C   UNL     1     140.190 143.032 142.654  1.00  0.00     0.214 A 
ATOM     28  C   UNL     1     140.743 141.964 143.390  1.00  0.00     0.180 A 
ATOM     29  C   UNL     1     138.914 143.499 142.988  1.00  0.00     0.239 A 
ATOM     30  O   UNL     1     140.031 141.402 144.365  1.00  0.00    -0.452 OA
ATOM     31  C   UNL     1     138.191 142.878 144.025  1.00  0.00     0.111 A 
ATOM     32  O   UNL     1     138.425 144.465 142.342  1.00  0.00    -0.285 OA
ATOM     33  C   UNL     1     138.809 141.801 144.701  1.00  0.00     0.146 A 
ATOM     34  C   UNL     1     136.880 143.263 144.394  1.00  0.00     0.134 A 
ATOM     35  C   UNL     1     138.132 141.132 145.724  1.00  0.00     0.094 A 
ATOM     36  C   UNL     1     136.217 142.574 145.420  1.00  0.00     0.093 A 
ATOM     37  C   UNL     1     136.837 141.516 146.085  1.00  0.00     0.123 A 
BRANCH  28  38
ATOM     38  C   UNL     1     142.079 141.393 143.088  1.00  0.00     0.025 A 
ATOM     39  C   UNL     1     143.224 142.059 143.553  1.00  0.00     0.062 A 
ATOM     40  C   UNL     1     142.239 140.222 142.324  1.00  0.00     0.016 A 
ATOM     41  C   UNL     1     144.506 141.548 143.302  1.00  0.00     0.158 A 
ATOM     42  C   UNL     1     143.515 139.708 142.077  1.00  0.00     0.051 A 
ATOM     43  C   UNL     1     144.651 140.363 142.565  1.00  0.00     0.157 A 
BRANCH  41  44
ATOM     44  O   UNL     1     145.631 142.217 143.781  1.00  0.00    -0.504 OA
ATOM     45  H   UNL     1     145.554 143.107 144.261  1.00  0.00     0.293 HD
ENDBRANCH  41  44
BRANCH  43  46
ATOM     46  O   UNL     1     145.912 139.826 142.302  1.00  0.00    -0.504 OA
ATOM     47  H   UNL     1     146.167 139.469 141.388  1.00  0.00     0.293 HD
ENDBRANCH  43  46
ENDBRANCH  28  38
BRANCH  34  48
ATOM     48  O   UNL     1     136.234 144.318 143.746  1.00  0.00    -0.507 OA
ATOM     49  H   UNL     1     135.940 144.249 142.779  1.00  0.00     0.293 HD
ENDBRANCH  34  48
BRANCH  37  50
ATOM     50  O   UNL     1     136.158 140.848 147.101  1.00  0.00    -0.508 OA
ATOM     51  H   UNL     1     135.152 140.717 147.070  1.00  0.00     0.293 HD
ENDBRANCH  37  50
ENDBRANCH  26  27
ENDBRANCH   5  26
BRANCH   4  52
ATOM     52  O   UNL     1     142.741 142.495 139.803  1.00  0.00    -0.384 OA
ATOM     53  H   UNL     1     142.397 142.004 140.591  1.00  0.00     0.211 HD
ENDBRANCH   4  52
TORSDOF 16
ENDMDL
MODEL 5
REMARK VINA RESULT:    -7.423      1.551      6.380
REMARK INTER + INTRA:         -14.905
REMARK INTER:                 -12.370
REMARK INTRA:                  -2.535
REMARK UNBOUND:                -2.708
REMARK SMILES C[C@@H]1O[C@H](OC[C@H]2O[C@@H](Oc3c(-c4ccc(O)c(O)c4)oc4cc(O)cc(O)c4c3=O)[C@@H](O)[C@H](O)[C@@H]2O)[C@H](O)[C@@H](O)[C@H]1O
REMARK SMILES IDX 7 1 36 2 34 3 32 4 9 5 8 6 6 7 5 8 4 9 1 10 2 11 42 12 3 13
REMARK SMILES IDX 40 14 38 15 43 16 41 18 39 20 37 22 35 24 10 26 11 27 12 28
REMARK SMILES IDX 30 29 21 30 29 31 31 32 22 33 27 34 23 35 26 36 24 37 13 38
REMARK SMILES IDX 20 39 14 40 18 41 15 42 16 43 19 44 17 46 28 48 25 50 33 52
REMARK H PARENT 43 17 41 19 39 21 37 23 35 25 19 45 17 47 28 49 25 51 33 53
REMARK Flexibility Score: inf
ROOT
ATOM      1  C   UNL     1     139.618 140.460 139.068  1.00  0.00     0.180 C 
ATOM      2  C   UNL     1     139.237 139.069 138.506  1.00  0.00     0.177 C 
ATOM      3  C   UNL     1     139.983 137.951 139.272  1.00  0.00     0.180 C 
ATOM      4  C   UNL     1     139.913 138.170 140.802  1.00  0.00     0.214 C 
ATOM      5  C   UNL     1     140.244 139.634 141.151  1.00  0.00     0.339 C 
ATOM      6  O   UNL     1     139.372 140.509 140.463  1.00  0.00    -0.332 OA
ENDROOT
BRANCH   1   7
ATOM      7  C   UNL     1     138.817 141.596 138.394  1.00  0.00     0.198 C 
BRANCH   7   8
ATOM      8  O   UNL     1     139.677 142.407 137.600  1.00  0.00    -0.347 OA
BRANCH   8   9
ATOM      9  C   UNL     1     140.351 143.424 138.340  1.00  0.00     0.281 C 
ATOM     10  C   UNL     1     139.522 145.125 141.485  1.00  0.00     0.041 C 
ATOM     11  C   UNL     1     140.425 144.541 140.398  1.00  0.00     0.150 C 
ATOM     12  C   UNL     1     141.558 143.678 141.021  1.00  0.00     0.174 C 
ATOM     13  O   UNL     1     139.635 143.756 139.528  1.00  0.00    -0.344 OA
ATOM     14  C   UNL     1     142.098 142.620 140.021  1.00  0.00     0.179 C 
ATOM     15  C   UNL     1     141.860 143.082 138.575  1.00  0.00     0.202 C 
BRANCH  12  16
ATOM     16  O   UNL     1     142.586 144.505 141.509  1.00  0.00    -0.388 OA
ATOM     17  H   UNL     1     142.656 144.368 142.489  1.00  0.00     0.211 HD
ENDBRANCH  12  16
BRANCH  14  18
ATOM     18  O   UNL     1     143.467 142.391 140.236  1.00  0.00    -0.387 OA
ATOM     19  H   UNL     1     143.720 141.616 139.672  1.00  0.00     0.211 HD
ENDBRANCH  14  18
BRANCH  15  20
ATOM     20  O   UNL     1     142.317 142.104 137.679  1.00  0.00    -0.385 OA
ATOM     21  H   UNL     1     142.746 142.588 136.927  1.00  0.00     0.211 HD
ENDBRANCH  15  20
ENDBRANCH   8   9
ENDBRANCH   7   8
ENDBRANCH   1   7
BRANCH   2  22
ATOM     22  O   UNL     1     139.570 139.016 137.138  1.00  0.00    -0.387 OA
ATOM     23  H   UNL     1     138.820 139.436 136.641  1.00  0.00     0.211 HD
ENDBRANCH   2  22
BRANCH   3  24
ATOM     24  O   UNL     1     141.330 137.919 138.864  1.00  0.00    -0.387 OA
ATOM     25  H   UNL     1     141.411 137.201 138.183  1.00  0.00     0.211 HD
ENDBRANCH   3  24
BRANCH   5  26
ATOM     26  O   UNL     1     140.097 139.843 142.551  1.00  0.00    -0.454 OA
BRANCH  26  27
ATOM     27  C   UNL     1     140.986 140.666 143.249  1.00  0.00     0.214 A 
ATOM     28  C   UNL     1     140.528 141.571 144.228  1.00  0.00     0.180 A 
ATOM     29  C   UNL     1     142.351 140.631 142.940  1.00  0.00     0.239 A 
ATOM     30  O   UNL     1     141.394 142.393 144.817  1.00  0.00    -0.452 OA
ATOM     31  C   UNL     1     143.236 141.517 143.585  1.00  0.00     0.111 A 
ATOM     32  O   UNL     1     142.765 139.810 142.077  1.00  0.00    -0.285 OA
ATOM     33  C   UNL     1     142.694 142.406 144.541  1.00  0.00     0.146 A 
ATOM     34  C   UNL     1     144.621 141.573 143.298  1.00  0.00     0.134 A 
ATOM     35  C   UNL     1     143.519 143.323 145.196  1.00  0.00     0.094 A 
ATOM     36  C   UNL     1     145.431 142.504 143.964  1.00  0.00     0.093 A 
ATOM     37  C   UNL     1     144.886 143.375 144.909  1.00  0.00     0.123 A 
BRANCH  28  38
ATOM     38  C   UNL     1     139.096 141.689 144.598  1.00  0.00     0.025 A 
ATOM     39  C   UNL     1     138.604 140.923 145.667  1.00  0.00     0.062 A 
ATOM     40  C   UNL     1     138.205 142.521 143.894  1.00  0.00     0.016 A 
ATOM     41  C   UNL     1     137.261 141.013 146.059  1.00  0.00     0.158 A 
ATOM     42  C   UNL     1     136.867 142.617 144.287  1.00  0.00     0.051 A 
ATOM     43  C   UNL     1     136.390 141.870 145.369  1.00  0.00     0.157 A 
BRANCH  41  44
ATOM     44  O   UNL     1     136.793 140.254 147.131  1.00  0.00    -0.504 OA
ATOM     45  H   UNL     1     136.946 139.252 147.177  1.00  0.00     0.293 HD
ENDBRANCH  41  44
BRANCH  43  46
ATOM     46  O   UNL     1     135.048 141.985 145.737  1.00  0.00    -0.504 OA
ATOM     47  H   UNL     1     134.590 142.884 145.832  1.00  0.00     0.293 HD
ENDBRANCH  43  46
ENDBRANCH  28  38
BRANCH  34  48
ATOM     48  O   UNL     1     145.193 140.715 142.356  1.00  0.00    -0.507 OA
ATOM     49  H   UNL     1     145.721 141.068 141.566  1.00  0.00     0.293 HD
ENDBRANCH  34  48
BRANCH  37  50
ATOM     50  O   UNL     1     145.711 144.291 145.558  1.00  0.00    -0.508 OA
ATOM     51  H   UNL     1     146.421 144.815 145.055  1.00  0.00     0.293 HD
ENDBRANCH  37  50
ENDBRANCH  26  27
ENDBRANCH   5  26
BRANCH   4  52
ATOM     52  O   UNL     1     138.657 137.789 141.310  1.00  0.00    -0.384 OA
ATOM     53  H   UNL     1     138.744 137.644 142.286  1.00  0.00     0.211 HD
ENDBRANCH   4  52
TORSDOF 16
ENDMDL
MODEL 6
REMARK VINA RESULT:    -7.396      1.970      5.608
REMARK INTER + INTRA:         -14.860
REMARK INTER:                 -12.130
REMARK INTRA:                  -2.730
REMARK UNBOUND:                -2.708
REMARK SMILES C[C@@H]1O[C@H](OC[C@H]2O[C@@H](Oc3c(-c4ccc(O)c(O)c4)oc4cc(O)cc(O)c4c3=O)[C@@H](O)[C@H](O)[C@@H]2O)[C@H](O)[C@@H](O)[C@H]1O
REMARK SMILES IDX 7 1 36 2 34 3 32 4 9 5 8 6 6 7 5 8 4 9 1 10 2 11 42 12 3 13
REMARK SMILES IDX 40 14 38 15 43 16 41 18 39 20 37 22 35 24 10 26 11 27 12 28
REMARK SMILES IDX 30 29 21 30 29 31 31 32 22 33 27 34 23 35 26 36 24 37 13 38
REMARK SMILES IDX 20 39 14 40 18 41 15 42 16 43 19 44 17 46 28 48 25 50 33 52
REMARK H PARENT 43 17 41 19 39 21 37 23 35 25 19 45 17 47 28 49 25 51 33 53
REMARK Flexibility Score: inf
ROOT
ATOM      1  C   UNL     1     142.057 138.080 141.589  1.00  0.00     0.180 C 
ATOM      2  C   UNL     1     142.115 136.906 140.582  1.00  0.00     0.177 C 
ATOM      3  C   UNL     1     140.693 136.533 140.100  1.00  0.00     0.180 C 
ATOM      4  C   UNL     1     139.878 137.790 139.717  1.00  0.00     0.214 C 
ATOM      5  C   UNL     1     140.014 138.872 140.806  1.00  0.00     0.339 C 
ATOM      6  O   UNL     1     141.377 139.184 141.016  1.00  0.00    -0.332 OA
ENDROOT
BRANCH   1   7
ATOM      7  C   UNL     1     143.466 138.547 142.017  1.00  0.00     0.198 C 
BRANCH   7   8
ATOM      8  O   UNL     1     143.642 139.928 141.720  1.00  0.00    -0.347 OA
BRANCH   8   9
ATOM      9  C   UNL     1     144.177 140.684 142.805  1.00  0.00     0.281 C 
ATOM     10  C   UNL     1     146.820 143.226 142.956  1.00  0.00     0.041 C 
ATOM     11  C   UNL     1     145.527 142.517 143.359  1.00  0.00     0.150 C 
ATOM     12  C   UNL     1     144.368 143.536 143.541  1.00  0.00     0.174 C 
ATOM     13  O   UNL     1     145.198 141.575 142.359  1.00  0.00    -0.344 OA
ATOM     14  C   UNL     1     142.976 142.871 143.351  1.00  0.00     0.179 C 
ATOM     15  C   UNL     1     143.056 141.368 143.657  1.00  0.00     0.202 C 
BRANCH  12  16
ATOM     16  O   UNL     1     144.473 144.174 144.790  1.00  0.00    -0.388 OA
ATOM     17  H   UNL     1     145.435 144.273 145.009  1.00  0.00     0.211 HD
ENDBRANCH  12  16
BRANCH  14  18
ATOM     18  O   UNL     1     142.021 143.484 144.178  1.00  0.00    -0.387 OA
ATOM     19  H   UNL     1     141.545 142.755 144.653  1.00  0.00     0.211 HD
ENDBRANCH  14  18
BRANCH  15  20
ATOM     20  O   UNL     1     141.806 140.770 143.447  1.00  0.00    -0.385 OA
ATOM     21  H   UNL     1     141.930 139.796 143.590  1.00  0.00     0.211 HD
ENDBRANCH  15  20
ENDBRANCH   8   9
ENDBRANCH   7   8
ENDBRANCH   1   7
BRANCH   2  22
ATOM     22  O   UNL     1     142.717 135.794 141.203  1.00  0.00    -0.387 OA
ATOM     23  H   UNL     1     142.783 136.004 142.172  1.00  0.00     0.211 HD
ENDBRANCH   2  22
BRANCH   3  24
ATOM     24  O   UNL     1     140.020 135.829 141.118  1.00  0.00    -0.387 OA
ATOM     25  H   UNL     1     140.154 136.337 141.961  1.00  0.00     0.211 HD
ENDBRANCH   3  24
BRANCH   5  26
ATOM     26  O   UNL     1     139.327 140.052 140.404  1.00  0.00    -0.454 OA
BRANCH  26  27
ATOM     27  C   UNL     1     139.045 141.064 141.326  1.00  0.00     0.214 A 
ATOM     28  C   UNL     1     139.681 142.320 141.250  1.00  0.00     0.180 A 
ATOM     29  C   UNL     1     138.152 140.816 142.376  1.00  0.00     0.239 A 
ATOM     30  O   UNL     1     139.444 143.232 142.191  1.00  0.00    -0.452 OA
ATOM     31  C   UNL     1     137.928 141.806 143.352  1.00  0.00     0.111 A 
ATOM     32  O   UNL     1     137.569 139.699 142.436  1.00  0.00    -0.285 OA
ATOM     33  C   UNL     1     138.620 143.032 143.213  1.00  0.00     0.146 A 
ATOM     34  C   UNL     1     137.075 141.618 144.465  1.00  0.00     0.134 A 
ATOM     35  C   UNL     1     138.455 144.044 144.162  1.00  0.00     0.094 A 
ATOM     36  C   UNL     1     136.928 142.645 145.409  1.00  0.00     0.093 A 
ATOM     37  C   UNL     1     137.611 143.853 145.260  1.00  0.00     0.123 A 
BRANCH  28  38
ATOM     38  C   UNL     1     140.657 142.657 140.185  1.00  0.00     0.025 A 
ATOM     39  C   UNL     1     141.963 142.150 140.275  1.00  0.00     0.062 A 
ATOM     40  C   UNL     1     140.328 143.494 139.103  1.00  0.00     0.016 A 
ATOM     41  C   UNL     1     142.915 142.433 139.284  1.00  0.00     0.158 A 
ATOM     42  C   UNL     1     141.272 143.773 138.111  1.00  0.00     0.051 A 
ATOM     43  C   UNL     1     142.565 143.244 138.193  1.00  0.00     0.157 A 
BRANCH  41  44
ATOM     44  O   UNL     1     144.204 141.911 139.384  1.00  0.00    -0.504 OA
ATOM     45  H   UNL     1     144.365 140.920 139.522  1.00  0.00     0.293 HD
ENDBRANCH  41  44
BRANCH  43  46
ATOM     46  O   UNL     1     143.487 143.541 137.189  1.00  0.00    -0.504 OA
ATOM     47  H   UNL     1     143.721 144.493 136.934  1.00  0.00     0.293 HD
ENDBRANCH  43  46
ENDBRANCH  28  38
BRANCH  34  48
ATOM     48  O   UNL     1     136.379 140.420 144.640  1.00  0.00    -0.507 OA
ATOM     49  H   UNL     1     136.836 139.585 144.990  1.00  0.00     0.293 HD
ENDBRANCH  34  48
BRANCH  37  50
ATOM     50  O   UNL     1     137.448 144.858 146.211  1.00  0.00    -0.508 OA
ATOM     51  H   UNL     1     137.887 144.801 147.124  1.00  0.00     0.293 HD
ENDBRANCH  37  50
ENDBRANCH  26  27
ENDBRANCH   5  26
BRANCH   4  52
ATOM     52  O   UNL     1     140.263 138.276 138.454  1.00  0.00    -0.384 OA
ATOM     53  H   UNL     1     140.845 139.067 138.585  1.00  0.00     0.211 HD
ENDBRANCH   4  52
TORSDOF 16
ENDMDL
MODEL 7
REMARK VINA RESULT:    -7.198      1.781      3.889
REMARK INTER + INTRA:         -14.534
REMARK INTER:                 -13.045
REMARK INTRA:                  -1.489
REMARK UNBOUND:                -2.708
REMARK SMILES C[C@@H]1O[C@H](OC[C@H]2O[C@@H](Oc3c(-c4ccc(O)c(O)c4)oc4cc(O)cc(O)c4c3=O)[C@@H](O)[C@H](O)[C@@H]2O)[C@H](O)[C@@H](O)[C@H]1O
REMARK SMILES IDX 7 1 36 2 34 3 32 4 9 5 8 6 6 7 5 8 4 9 1 10 2 11 42 12 3 13
REMARK SMILES IDX 40 14 38 15 43 16 41 18 39 20 37 22 35 24 10 26 11 27 12 28
REMARK SMILES IDX 30 29 21 30 29 31 31 32 22 33 27 34 23 35 26 36 24 37 13 38
REMARK SMILES IDX 20 39 14 40 18 41 15 42 16 43 19 44 17 46 28 48 25 50 33 52
REMARK H PARENT 43 17 41 19 39 21 37 23 35 25 19 45 17 47 28 49 25 51 33 53
REMARK Flexibility Score: inf
ROOT
ATOM      1  C   UNL     1     141.266 138.576 140.545  1.00  0.00     0.180 C 
ATOM      2  C   UNL     1     140.080 138.019 139.720  1.00  0.00     0.177 C 
ATOM      3  C   UNL     1     138.767 138.101 140.534  1.00  0.00     0.180 C 
ATOM      4  C   UNL     1     138.607 139.483 141.211  1.00  0.00     0.214 C 
ATOM      5  C   UNL     1     139.918 139.895 141.907  1.00  0.00     0.339 C 
ATOM      6  O   UNL     1     140.985 139.896 140.978  1.00  0.00    -0.332 OA
ENDROOT
BRANCH   1   7
ATOM      7  C   UNL     1     142.577 138.603 139.729  1.00  0.00     0.198 C 
BRANCH   7   8
ATOM      8  O   UNL     1     143.054 139.938 139.599  1.00  0.00    -0.347 OA
BRANCH   8   9
ATOM      9  C   UNL     1     142.616 140.591 138.409  1.00  0.00     0.281 C 
ATOM     10  C   UNL     1     139.264 141.251 137.068  1.00  0.00     0.041 C 
ATOM     11  C   UNL     1     140.751 141.498 137.319  1.00  0.00     0.150 C 
ATOM     12  C   UNL     1     141.005 142.972 137.742  1.00  0.00     0.174 C 
ATOM     13  O   UNL     1     141.192 140.616 138.331  1.00  0.00    -0.344 OA
ATOM     14  C   UNL     1     142.316 143.123 138.562  1.00  0.00     0.179 C 
ATOM     15  C   UNL     1     143.294 141.988 138.218  1.00  0.00     0.202 C 
BRANCH  12  16
ATOM     16  O   UNL     1     140.999 143.810 136.612  1.00  0.00    -0.388 OA
ATOM     17  H   UNL     1     140.069 143.867 136.273  1.00  0.00     0.211 HD
ENDBRANCH  12  16
BRANCH  14  18
ATOM     18  O   UNL     1     142.914 144.369 138.311  1.00  0.00    -0.387 OA
ATOM     19  H   UNL     1     143.707 144.429 138.903  1.00  0.00     0.211 HD
ENDBRANCH  14  18
BRANCH  15  20
ATOM     20  O   UNL     1     144.458 142.111 138.989  1.00  0.00    -0.385 OA
ATOM     21  H   UNL     1     144.784 141.189 139.159  1.00  0.00     0.211 HD
ENDBRANCH  15  20
ENDBRANCH   8   9
ENDBRANCH   7   8
ENDBRANCH   1   7
BRANCH   2  22
ATOM     22  O   UNL     1     140.346 136.679 139.375  1.00  0.00    -0.387 OA
ATOM     23  H   UNL     1     140.264 136.144 140.207  1.00  0.00     0.211 HD
ENDBRANCH   2  22
BRANCH   3  24
ATOM     24  O   UNL     1     138.758 137.093 141.517  1.00  0.00    -0.387 OA
ATOM     25  H   UNL     1     137.911 137.189 142.027  1.00  0.00     0.211 HD
ENDBRANCH   3  24
BRANCH   5  26
ATOM     26  O   UNL     1     139.785 141.202 142.456  1.00  0.00    -0.454 OA
BRANCH  26  27
ATOM     27  C   UNL     1     139.784 141.399 143.840  1.00  0.00     0.214 A 
ATOM     28  C   UNL     1     140.972 141.709 144.534  1.00  0.00     0.180 A 
ATOM     29  C   UNL     1     138.595 141.241 144.562  1.00  0.00     0.239 A 
ATOM     30  O   UNL     1     140.946 141.814 145.861  1.00  0.00    -0.452 OA
ATOM     31  C   UNL     1     138.609 141.359 145.966  1.00  0.00     0.111 A 
ATOM     32  O   UNL     1     137.529 140.981 143.942  1.00  0.00    -0.285 OA
ATOM     33  C   UNL     1     139.845 141.653 146.587  1.00  0.00     0.146 A 
ATOM     34  C   UNL     1     137.460 141.171 146.770  1.00  0.00     0.134 A 
ATOM     35  C   UNL     1     139.925 141.761 147.977  1.00  0.00     0.094 A 
ATOM     36  C   UNL     1     137.564 141.279 148.165  1.00  0.00     0.093 A 
ATOM     37  C   UNL     1     138.787 141.574 148.768  1.00  0.00     0.123 A 
BRANCH  28  38
ATOM     38  C   UNL     1     142.278 141.871 143.849  1.00  0.00     0.025 A 
ATOM     39  C   UNL     1     142.921 140.734 143.334  1.00  0.00     0.062 A 
ATOM     40  C   UNL     1     142.910 143.122 143.725  1.00  0.00     0.016 A 
ATOM     41  C   UNL     1     144.151 140.843 142.669  1.00  0.00     0.158 A 
ATOM     42  C   UNL     1     144.132 143.234 143.057  1.00  0.00     0.051 A 
ATOM     43  C   UNL     1     144.756 142.101 142.524  1.00  0.00     0.157 A 
BRANCH  41  44
ATOM     44  O   UNL     1     144.770 139.705 142.153  1.00  0.00    -0.504 OA
ATOM     45  H   UNL     1     144.263 138.835 142.032  1.00  0.00     0.293 HD
ENDBRANCH  41  44
BRANCH  43  46
ATOM     46  O   UNL     1     145.977 142.244 141.863  1.00  0.00    -0.504 OA
ATOM     47  H   UNL     1     146.747 141.601 142.006  1.00  0.00     0.293 HD
ENDBRANCH  43  46
ENDBRANCH  28  38
BRANCH  34  48
ATOM     48  O   UNL     1     136.223 140.875 146.195  1.00  0.00    -0.507 OA
ATOM     49  H   UNL     1     136.147 140.520 145.249  1.00  0.00     0.293 HD
ENDBRANCH  34  48
BRANCH  37  50
ATOM     50  O   UNL     1     138.865 141.676 150.155  1.00  0.00    -0.508 OA
ATOM     51  H   UNL     1     138.196 141.209 150.760  1.00  0.00     0.293 HD
ENDBRANCH  37  50
ENDBRANCH  26  27
ENDBRANCH   5  26
BRANCH   4  52
ATOM     52  O   UNL     1     138.186 140.454 140.284  1.00  0.00    -0.384 OA
ATOM     53  H   UNL     1     137.218 140.326 140.112  1.00  0.00     0.211 HD
ENDBRANCH   4  52
TORSDOF 16
ENDMDL
MODEL 8
REMARK VINA RESULT:    -7.177      1.762      5.879
REMARK INTER + INTRA:         -14.500
REMARK INTER:                 -13.130
REMARK INTRA:                  -1.370
REMARK UNBOUND:                -2.708
REMARK SMILES C[C@@H]1O[C@H](OC[C@H]2O[C@@H](Oc3c(-c4ccc(O)c(O)c4)oc4cc(O)cc(O)c4c3=O)[C@@H](O)[C@H](O)[C@@H]2O)[C@H](O)[C@@H](O)[C@H]1O
REMARK SMILES IDX 7 1 36 2 34 3 32 4 9 5 8 6 6 7 5 8 4 9 1 10 2 11 42 12 3 13
REMARK SMILES IDX 40 14 38 15 43 16 41 18 39 20 37 22 35 24 10 26 11 27 12 28
REMARK SMILES IDX 30 29 21 30 29 31 31 32 22 33 27 34 23 35 26 36 24 37 13 38
REMARK SMILES IDX 20 39 14 40 18 41 15 42 16 43 19 44 17 46 28 48 25 50 33 52
REMARK H PARENT 43 17 41 19 39 21 37 23 35 25 19 45 17 47 28 49 25 51 33 53
REMARK Flexibility Score: inf
ROOT
ATOM      1  C   UNL     1     139.349 143.677 142.777  1.00  0.00     0.180 C 
ATOM      2  C   UNL     1     138.683 143.879 144.160  1.00  0.00     0.177 C 
ATOM      3  C   UNL     1     138.537 142.526 144.895  1.00  0.00     0.180 C 
ATOM      4  C   UNL     1     139.841 141.698 144.822  1.00  0.00     0.214 C 
ATOM      5  C   UNL     1     140.389 141.686 143.381  1.00  0.00     0.339 C 
ATOM      6  O   UNL     1     140.590 143.009 142.924  1.00  0.00    -0.332 OA
ENDROOT
BRANCH   1   7
ATOM      7  C   UNL     1     139.603 145.019 142.055  1.00  0.00     0.198 C 
BRANCH   7   8
ATOM      8  O   UNL     1     139.506 144.850 140.645  1.00  0.00    -0.347 OA
BRANCH   8   9
ATOM      9  C   UNL     1     139.941 143.570 140.190  1.00  0.00     0.281 C 
ATOM     10  C   UNL     1     138.308 141.018 138.119  1.00  0.00     0.041 C 
ATOM     11  C   UNL     1     139.469 141.822 138.703  1.00  0.00     0.150 C 
ATOM     12  C   UNL     1     140.445 142.280 137.583  1.00  0.00     0.174 C 
ATOM     13  O   UNL     1     138.945 142.944 139.384  1.00  0.00    -0.344 OA
ATOM     14  C   UNL     1     141.252 143.542 137.997  1.00  0.00     0.179 C 
ATOM     15  C   UNL     1     141.358 143.629 139.528  1.00  0.00     0.202 C 
BRANCH  12  16
ATOM     16  O   UNL     1     141.292 141.221 137.213  1.00  0.00    -0.388 OA
ATOM     17  H   UNL     1     141.492 141.306 136.245  1.00  0.00     0.211 HD
ENDBRANCH  12  16
BRANCH  14  18
ATOM     18  O   UNL     1     142.533 143.518 137.424  1.00  0.00    -0.387 OA
ATOM     19  H   UNL     1     143.120 144.059 138.012  1.00  0.00     0.211 HD
ENDBRANCH  14  18
BRANCH  15  20
ATOM     20  O   UNL     1     142.055 144.789 139.893  1.00  0.00    -0.385 OA
ATOM     21  H   UNL     1     142.843 144.847 139.294  1.00  0.00     0.211 HD
ENDBRANCH  15  20
ENDBRANCH   8   9
ENDBRANCH   7   8
ENDBRANCH   1   7
BRANCH   2  22
ATOM     22  O   UNL     1     137.415 144.467 143.982  1.00  0.00    -0.387 OA
ATOM     23  H   UNL     1     136.954 144.432 144.861  1.00  0.00     0.211 HD
ENDBRANCH   2  22
BRANCH   3  24
ATOM     24  O   UNL     1     137.481 141.791 144.322  1.00  0.00    -0.387 OA
ATOM     25  H   UNL     1     136.862 142.446 143.905  1.00  0.00     0.211 HD
ENDBRANCH   3  24
BRANCH   5  26
ATOM     26  O   UNL     1     141.630 140.990 143.341  1.00  0.00    -0.454 OA
BRANCH  26  27
ATOM     27  C   UNL     1     141.958 140.174 142.255  1.00  0.00     0.214 A 
ATOM     28  C   UNL     1     143.292 140.046 141.814  1.00  0.00     0.180 A 
ATOM     29  C   UNL     1     140.944 139.508 141.557  1.00  0.00     0.239 A 
ATOM     30  O   UNL     1     143.556 139.321 140.729  1.00  0.00    -0.452 OA
ATOM     31  C   UNL     1     141.264 138.750 140.414  1.00  0.00     0.111 A 
ATOM     32  O   UNL     1     139.754 139.607 141.960  1.00  0.00    -0.285 OA
ATOM     33  C   UNL     1     142.623 138.688 140.027  1.00  0.00     0.146 A 
ATOM     34  C   UNL     1     140.293 138.083 139.631  1.00  0.00     0.134 A 
ATOM     35  C   UNL     1     142.998 137.970 138.889  1.00  0.00     0.094 A 
ATOM     36  C   UNL     1     140.691 137.372 138.488  1.00  0.00     0.093 A 
ATOM     37  C   UNL     1     142.035 137.313 138.118  1.00  0.00     0.123 A 
BRANCH  28  38
ATOM     38  C   UNL     1     144.423 140.737 142.481  1.00  0.00     0.025 A 
ATOM     39  C   UNL     1     144.460 142.141 142.478  1.00  0.00     0.062 A 
ATOM     40  C   UNL     1     145.478 140.032 143.091  1.00  0.00     0.016 A 
ATOM     41  C   UNL     1     145.504 142.834 143.107  1.00  0.00     0.158 A 
ATOM     42  C   UNL     1     146.516 140.721 143.724  1.00  0.00     0.051 A 
ATOM     43  C   UNL     1     146.534 142.120 143.739  1.00  0.00     0.157 A 
BRANCH  41  44
ATOM     44  O   UNL     1     145.518 144.228 143.104  1.00  0.00    -0.504 OA
ATOM     45  H   UNL     1     146.179 144.753 143.666  1.00  0.00     0.293 HD
ENDBRANCH  41  44
BRANCH  43  46
ATOM     46  O   UNL     1     147.585 142.781 144.378  1.00  0.00    -0.504 OA
ATOM     47  H   UNL     1     148.193 142.314 145.040  1.00  0.00     0.293 HD
ENDBRANCH  43  46
ENDBRANCH  28  38
BRANCH  34  48
ATOM     48  O   UNL     1     138.941 138.125 139.976  1.00  0.00    -0.507 OA
ATOM     49  H   UNL     1     138.219 138.286 139.283  1.00  0.00     0.293 HD
ENDBRANCH  34  48
BRANCH  37  50
ATOM     50  O   UNL     1     142.405 136.600 136.980  1.00  0.00    -0.508 OA
ATOM     51  H   UNL     1     142.724 135.638 137.037  1.00  0.00     0.293 HD
ENDBRANCH  37  50
ENDBRANCH  26  27
ENDBRANCH   5  26
BRANCH   4  52
ATOM     52  O   UNL     1     140.798 142.180 145.734  1.00  0.00    -0.384 OA
ATOM     53  H   UNL     1     140.427 142.979 146.186  1.00  0.00     0.211 HD
ENDBRANCH   4  52
TORSDOF 16
ENDMDL
MODEL 9
REMARK VINA RESULT:    -7.039      2.126      6.078
REMARK INTER + INTRA:         -14.273
REMARK INTER:                 -11.888
REMARK INTRA:                  -2.386
REMARK UNBOUND:                -2.708
REMARK SMILES C[C@@H]1O[C@H](OC[C@H]2O[C@@H](Oc3c(-c4ccc(O)c(O)c4)oc4cc(O)cc(O)c4c3=O)[C@@H](O)[C@H](O)[C@@H]2O)[C@H](O)[C@@H](O)[C@H]1O
REMARK SMILES IDX 7 1 36 2 34 3 32 4 9 5 8 6 6 7 5 8 4 9 1 10 2 11 42 12 3 13
REMARK SMILES IDX 40 14 38 15 43 16 41 18 39 20 37 22 35 24 10 26 11 27 12 28
REMARK SMILES IDX 30 29 21 30 29 31 31 32 22 33 27 34 23 35 26 36 24 37 13 38
REMARK SMILES IDX 20 39 14 40 18 41 15 42 16 43 19 44 17 46 28 48 25 50 33 52
REMARK H PARENT 43 17 41 19 39 21 37 23 35 25 19 45 17 47 28 49 25 51 33 53
REMARK Flexibility Score: inf
ROOT
ATOM      1  C   UNL     1     140.348 139.979 141.724  1.00  0.00     0.180 C 
ATOM      2  C   UNL     1     138.912 140.475 141.428  1.00  0.00     0.177 C 
ATOM      3  C   UNL     1     138.400 141.374 142.578  1.00  0.00     0.180 C 
ATOM      4  C   UNL     1     139.464 142.415 142.998  1.00  0.00     0.214 C 
ATOM      5  C   UNL     1     140.840 141.741 143.162  1.00  0.00     0.339 C 
ATOM      6  O   UNL     1     141.206 141.081 141.967  1.00  0.00    -0.332 OA
ENDROOT
BRANCH   1   7
ATOM      7  C   UNL     1     140.931 139.160 140.552  1.00  0.00     0.198 C 
BRANCH   7   8
ATOM      8  O   UNL     1     142.170 139.717 140.124  1.00  0.00    -0.347 OA
BRANCH   8   9
ATOM      9  C   UNL     1     142.079 140.445 138.901  1.00  0.00     0.281 C 
ATOM     10  C   UNL     1     139.275 141.056 136.613  1.00  0.00     0.041 C 
ATOM     11  C   UNL     1     140.588 141.351 137.338  1.00  0.00     0.150 C 
ATOM     12  C   UNL     1     140.591 142.795 137.914  1.00  0.00     0.174 C 
ATOM     13  O   UNL     1     140.753 140.409 138.378  1.00  0.00    -0.344 OA
ATOM     14  C   UNL     1     141.567 142.939 139.115  1.00  0.00     0.179 C 
ATOM     15  C   UNL     1     142.681 141.885 139.026  1.00  0.00     0.202 C 
BRANCH  12  16
ATOM     16  O   UNL     1     140.878 143.724 136.897  1.00  0.00    -0.388 OA
ATOM     17  H   UNL     1     140.383 144.561 137.092  1.00  0.00     0.211 HD
ENDBRANCH  12  16
BRANCH  14  18
ATOM     18  O   UNL     1     142.121 144.228 139.147  1.00  0.00    -0.387 OA
ATOM     19  H   UNL     1     141.449 144.818 139.576  1.00  0.00     0.211 HD
ENDBRANCH  14  18
BRANCH  15  20
ATOM     20  O   UNL     1     143.535 141.997 140.132  1.00  0.00    -0.385 OA
ATOM     21  H   UNL     1     143.577 141.099 140.550  1.00  0.00     0.211 HD
ENDBRANCH  15  20
ENDBRANCH   8   9
ENDBRANCH   7   8
ENDBRANCH   1   7
BRANCH   2  22
ATOM     22  O   UNL     1     138.062 139.362 141.276  1.00  0.00    -0.387 OA
ATOM     23  H   UNL     1     137.202 139.702 140.913  1.00  0.00     0.211 HD
ENDBRANCH   2  22
BRANCH   3  24
ATOM     24  O   UNL     1     138.062 140.574 143.687  1.00  0.00    -0.387 OA
ATOM     25  H   UNL     1     138.887 140.095 143.964  1.00  0.00     0.211 HD
ENDBRANCH   3  24
BRANCH   5  26
ATOM     26  O   UNL     1     141.826 142.720 143.470  1.00  0.00    -0.454 OA
BRANCH  26  27
ATOM     27  C   UNL     1     142.820 142.462 144.417  1.00  0.00     0.214 A 
ATOM     28  C   UNL     1     142.500 142.263 145.776  1.00  0.00     0.180 A 
ATOM     29  C   UNL     1     144.164 142.447 144.026  1.00  0.00     0.239 A 
ATOM     30  O   UNL     1     143.480 142.096 146.662  1.00  0.00    -0.452 OA
ATOM     31  C   UNL     1     145.172 142.268 144.993  1.00  0.00     0.111 A 
ATOM     32  O   UNL     1     144.452 142.608 142.809  1.00  0.00    -0.285 OA
ATOM     33  C   UNL     1     144.768 142.094 146.338  1.00  0.00     0.146 A 
ATOM     34  C   UNL     1     146.553 142.284 144.685  1.00  0.00     0.134 A 
ATOM     35  C   UNL     1     145.723 141.934 147.344  1.00  0.00     0.094 A 
ATOM     36  C   UNL     1     147.496 142.126 145.712  1.00  0.00     0.093 A 
ATOM     37  C   UNL     1     147.086 141.950 147.035  1.00  0.00     0.123 A 
BRANCH  28  38
ATOM     38  C   UNL     1     141.104 142.286 146.279  1.00  0.00     0.025 A 
ATOM     39  C   UNL     1     140.464 141.070 146.564  1.00  0.00     0.062 A 
ATOM     40  C   UNL     1     140.389 143.486 146.451  1.00  0.00     0.016 A 
ATOM     41  C   UNL     1     139.150 141.045 147.054  1.00  0.00     0.158 A 
ATOM     42  C   UNL     1     139.081 143.465 146.944  1.00  0.00     0.051 A 
ATOM     43  C   UNL     1     138.458 142.251 147.250  1.00  0.00     0.157 A 
BRANCH  41  44
ATOM     44  O   UNL     1     138.534 139.829 147.342  1.00  0.00    -0.504 OA
ATOM     45  H   UNL     1     137.524 139.739 147.370  1.00  0.00     0.293 HD
ENDBRANCH  41  44
BRANCH  43  46
ATOM     46  O   UNL     1     137.151 142.261 147.740  1.00  0.00    -0.504 OA
ATOM     47  H   UNL     1     136.444 142.891 147.380  1.00  0.00     0.293 HD
ENDBRANCH  43  46
ENDBRANCH  28  38
BRANCH  34  48
ATOM     48  O   UNL     1     146.992 142.459 143.372  1.00  0.00    -0.507 OA
ATOM     49  H   UNL     1     147.045 143.377 142.945  1.00  0.00     0.293 HD
ENDBRANCH  34  48
BRANCH  37  50
ATOM     50  O   UNL     1     148.041 141.795 148.036  1.00  0.00    -0.508 OA
ATOM     51  H   UNL     1     147.778 141.727 149.015  1.00  0.00     0.293 HD
ENDBRANCH  37  50
ENDBRANCH  26  27
ENDBRANCH   5  26
BRANCH   4  52
ATOM     52  O   UNL     1     139.517 143.482 142.082  1.00  0.00    -0.384 OA
ATOM     53  H   UNL     1     138.613 143.880 142.010  1.00  0.00     0.211 HD
ENDBRANCH   4  52
TORSDOF 16
ENDMDL
