MODEL 1
REMARK VINA RESULT:    -4.713      0.000      0.000
REMARK INTER + INTRA:         -10.585
REMARK INTER:                  -8.294
REMARK INTRA:                  -2.291
REMARK UNBOUND:                -2.291
REMARK SMILES COc1cc(-c2[o+]c3cc(O)cc(O[C@H]4O[C@@H](CO)[C@@H](O)[C@H](O)[C@@H]4O)c3cc2O[C@H]2O[C@@H](CO)[C@@H](O)[C@@H](O)[C@H]2O)ccc1O
REMARK SMILES IDX 6 1 28 2 27 3 26 4 13 5 12 6 10 7 9 8 8 9 7 10 5 11 3 12
REMARK SMILES IDX 43 13 4 14 42 15 41 16 2 17 1 18 44 19 29 21 30 22 39 23
REMARK SMILES IDX 31 24 37 25 32 26 35 27 40 28 38 30 33 32 34 33 36 35 14 37
REMARK SMILES IDX 15 38 24 39 16 40 22 41 17 42 20 43 25 44 23 46 18 48 19 49
REMARK SMILES IDX 21 51 11 53
REMARK H PARENT 44 20 40 29 38 31 34 34 36 36 25 45 23 47 19 50 21 52 11 54
REMARK Flexibility Score: inf
ROOT
ATOM      1  C   UNL     1      15.002  44.614  74.891  1.00  0.00     0.402 A 
ATOM      2  C   UNL     1      16.360  44.958  75.168  1.00  0.00     0.229 A 
ATOM      3  C   UNL     1      17.316  43.929  75.038  1.00  0.00     0.079 A 
ATOM      4  C   UNL     1      16.942  42.620  74.725  1.00  0.00     0.126 A 
ATOM      5  C   UNL     1      17.884  41.548  74.654  1.00  0.00     0.143 A 
ATOM      6  C   UNL     1      17.452  40.322  74.145  1.00  0.00     0.094 A 
ATOM      7  C   UNL     1      16.077  40.082  73.887  1.00  0.00     0.128 A 
ATOM      8  C   UNL     1      15.157  41.105  74.105  1.00  0.00     0.162 A 
ATOM      9  C   UNL     1      15.588  42.378  74.485  1.00  0.00     0.368 A 
ATOM     10  O   UNL     1      14.702  43.362  74.576  1.00  0.00    -0.202 OA
ENDROOT
BRANCH   1  11
ATOM     11  C   UNL     1      13.894  45.570  74.733  1.00  0.00     0.087 A 
ATOM     12  C   UNL     1      13.025  47.393  73.349  1.00  0.00     0.161 A 
ATOM     13  C   UNL     1      11.749  47.208  73.900  1.00  0.00     0.157 A 
ATOM     14  C   UNL     1      14.103  46.601  73.814  1.00  0.00     0.068 A 
ATOM     15  C   UNL     1      11.536  46.173  74.831  1.00  0.00     0.051 A 
ATOM     16  C   UNL     1      12.582  45.314  75.185  1.00  0.00     0.022 A 
BRANCH  12  17
ATOM     17  O   UNL     1      13.201  48.321  72.306  1.00  0.00    -0.493 OA
ATOM     18  C   UNL     1      13.859  49.572  72.480  1.00  0.00     0.278 C 
ENDBRANCH  12  17
BRANCH  13  19
ATOM     19  O   UNL     1      10.665  47.998  73.488  1.00  0.00    -0.504 OA
ATOM     20  H   UNL     1       9.815  47.584  73.132  1.00  0.00     0.293 HD
ENDBRANCH  13  19
ENDBRANCH   1  11
BRANCH   2  21
ATOM     21  O   UNL     1      16.856  46.250  75.469  1.00  0.00    -0.452 OA
BRANCH  21  22
ATOM     22  C   UNL     1      17.885  47.017  74.822  1.00  0.00     0.339 C 
ATOM     23  C   UNL     1      17.789  48.514  75.187  1.00  0.00     0.214 C 
ATOM     24  O   UNL     1      17.732  46.890  73.410  1.00  0.00    -0.332 OA
ATOM     25  C   UNL     1      18.532  49.401  74.169  1.00  0.00     0.180 C 
ATOM     26  C   UNL     1      18.915  47.297  72.723  1.00  0.00     0.179 C 
ATOM     27  C   UNL     1      19.545  48.586  73.322  1.00  0.00     0.177 C 
BRANCH  23  28
ATOM     28  O   UNL     1      16.422  48.857  75.273  1.00  0.00    -0.384 OA
ATOM     29  H   UNL     1      16.260  49.638  74.669  1.00  0.00     0.211 HD
ENDBRANCH  23  28
BRANCH  25  30
ATOM     30  O   UNL     1      17.635  50.115  73.343  1.00  0.00    -0.387 OA
ATOM     31  H   UNL     1      17.249  50.847  73.901  1.00  0.00     0.211 HD
ENDBRANCH  25  30
BRANCH  26  32
ATOM     32  C   UNL     1      18.565  47.417  71.220  1.00  0.00     0.191 C 
BRANCH  32  33
ATOM     33  O   UNL     1      17.507  48.325  71.040  1.00  0.00    -0.394 OA
ATOM     34  H   UNL     1      17.564  48.994  71.782  1.00  0.00     0.210 HD
ENDBRANCH  32  33
ENDBRANCH  26  32
BRANCH  27  35
ATOM     35  O   UNL     1      20.123  49.410  72.332  1.00  0.00    -0.387 OA
ATOM     36  H   UNL     1      20.835  48.876  71.898  1.00  0.00     0.211 HD
ENDBRANCH  27  35
ENDBRANCH  21  22
ENDBRANCH   2  21
BRANCH   5  37
ATOM     37  O   UNL     1      19.215  41.668  75.130  1.00  0.00    -0.461 OA
BRANCH  37  38
ATOM     38  C   UNL     1      19.609  41.375  76.470  1.00  0.00     0.339 C 
ATOM     39  C   UNL     1      18.701  40.278  77.093  1.00  0.00     0.214 C 
ATOM     40  O   UNL     1      19.585  42.590  77.210  1.00  0.00    -0.332 OA
ATOM     41  C   UNL     1      18.919  40.145  78.621  1.00  0.00     0.180 C 
ATOM     42  C   UNL     1      19.995  42.382  78.544  1.00  0.00     0.179 C 
ATOM     43  C   UNL     1      18.921  41.549  79.271  1.00  0.00     0.177 C 
BRANCH  39  44
ATOM     44  O   UNL     1      18.946  39.034  76.488  1.00  0.00    -0.384 OA
ATOM     45  H   UNL     1      19.296  39.218  75.585  1.00  0.00     0.211 HD
ENDBRANCH  39  44
BRANCH  41  46
ATOM     46  O   UNL     1      20.117  39.453  78.877  1.00  0.00    -0.387 OA
ATOM     47  H   UNL     1      20.759  40.118  79.243  1.00  0.00     0.211 HD
ENDBRANCH  41  46
BRANCH  42  48
ATOM     48  C   UNL     1      20.125  43.764  79.205  1.00  0.00     0.191 C 
BRANCH  48  49
ATOM     49  O   UNL     1      19.030  44.572  78.852  1.00  0.00    -0.394 OA
ATOM     50  H   UNL     1      18.377  44.517  79.605  1.00  0.00     0.210 HD
ENDBRANCH  48  49
ENDBRANCH  42  48
BRANCH  43  51
ATOM     51  O   UNL     1      17.654  42.137  79.122  1.00  0.00    -0.387 OA
ATOM     52  H   UNL     1      17.296  41.831  78.242  1.00  0.00     0.211 HD
ENDBRANCH  43  51
ENDBRANCH  37  38
ENDBRANCH   5  37
BRANCH   7  53
ATOM     53  O   UNL     1      15.633  38.862  73.410  1.00  0.00    -0.507 OA
ATOM     54  H   UNL     1      14.768  38.457  73.745  1.00  0.00     0.293 HD
ENDBRANCH   7  53
TORSDOF 18
ENDMDL
MODEL 2
REMARK VINA RESULT:    -4.644      1.748      3.125
REMARK INTER + INTRA:         -10.464
REMARK INTER:                  -8.907
REMARK INTRA:                  -1.557
REMARK UNBOUND:                -2.291
REMARK SMILES COc1cc(-c2[o+]c3cc(O)cc(O[C@H]4O[C@@H](CO)[C@@H](O)[C@H](O)[C@@H]4O)c3cc2O[C@H]2O[C@@H](CO)[C@@H](O)[C@@H](O)[C@H]2O)ccc1O
REMARK SMILES IDX 6 1 28 2 27 3 26 4 13 5 12 6 10 7 9 8 8 9 7 10 5 11 3 12
REMARK SMILES IDX 43 13 4 14 42 15 41 16 2 17 1 18 44 19 29 21 30 22 39 23
REMARK SMILES IDX 31 24 37 25 32 26 35 27 40 28 38 30 33 32 34 33 36 35 14 37
REMARK SMILES IDX 15 38 24 39 16 40 22 41 17 42 20 43 25 44 23 46 18 48 19 49
REMARK SMILES IDX 21 51 11 53
REMARK H PARENT 44 20 40 29 38 31 34 34 36 36 25 45 23 47 19 50 21 52 11 54
REMARK Flexibility Score: inf
ROOT
ATOM      1  C   UNL     1      16.739  45.669  74.057  1.00  0.00     0.402 A 
ATOM      2  C   UNL     1      18.132  45.564  74.353  1.00  0.00     0.229 A 
ATOM      3  C   UNL     1      18.664  44.262  74.458  1.00  0.00     0.079 A 
ATOM      4  C   UNL     1      17.851  43.130  74.352  1.00  0.00     0.126 A 
ATOM      5  C   UNL     1      18.354  41.804  74.523  1.00  0.00     0.143 A 
ATOM      6  C   UNL     1      17.516  40.734  74.205  1.00  0.00     0.094 A 
ATOM      7  C   UNL     1      16.144  40.944  73.909  1.00  0.00     0.128 A 
ATOM      8  C   UNL     1      15.644  42.244  73.894  1.00  0.00     0.162 A 
ATOM      9  C   UNL     1      16.497  43.334  74.076  1.00  0.00     0.368 A 
ATOM     10  O   UNL     1      16.016  44.564  73.943  1.00  0.00    -0.202 OA
ENDROOT
BRANCH   1  11
ATOM     11  C   UNL     1      16.038  46.904  73.671  1.00  0.00     0.087 A 
ATOM     12  C   UNL     1      16.088  48.825  72.154  1.00  0.00     0.161 A 
ATOM     13  C   UNL     1      14.729  49.066  72.407  1.00  0.00     0.157 A 
ATOM     14  C   UNL     1      16.745  47.772  72.835  1.00  0.00     0.068 A 
ATOM     15  C   UNL     1      14.016  48.196  73.255  1.00  0.00     0.051 A 
ATOM     16  C   UNL     1      14.647  47.082  73.819  1.00  0.00     0.022 A 
BRANCH  12  17
ATOM     17  O   UNL     1      16.759  49.598  71.188  1.00  0.00    -0.493 OA
ATOM     18  C   UNL     1      18.178  49.696  71.119  1.00  0.00     0.278 C 
ENDBRANCH  12  17
BRANCH  13  19
ATOM     19  O   UNL     1      14.055  50.122  71.777  1.00  0.00    -0.504 OA
ATOM     20  H   UNL     1      14.122  51.070  72.118  1.00  0.00     0.293 HD
ENDBRANCH  13  19
ENDBRANCH   1  11
BRANCH   2  21
ATOM     21  O   UNL     1      19.053  46.635  74.458  1.00  0.00    -0.452 OA
BRANCH  21  22
ATOM     22  C   UNL     1      19.247  47.583  75.521  1.00  0.00     0.339 C 
ATOM     23  C   UNL     1      20.122  46.997  76.650  1.00  0.00     0.214 C 
ATOM     24  O   UNL     1      17.976  47.923  76.070  1.00  0.00    -0.332 OA
ATOM     25  C   UNL     1      19.948  47.771  77.971  1.00  0.00     0.180 C 
ATOM     26  C   UNL     1      18.052  49.116  76.849  1.00  0.00     0.179 C 
ATOM     27  C   UNL     1      19.323  49.172  77.742  1.00  0.00     0.177 C 
BRANCH  23  28
ATOM     28  O   UNL     1      19.788  45.633  76.799  1.00  0.00    -0.384 OA
ATOM     29  H   UNL     1      20.463  45.213  77.407  1.00  0.00     0.211 HD
ENDBRANCH  23  28
BRANCH  25  30
ATOM     30  O   UNL     1      19.206  47.030  78.918  1.00  0.00    -0.387 OA
ATOM     31  H   UNL     1      18.244  47.245  78.763  1.00  0.00     0.211 HD
ENDBRANCH  25  30
BRANCH  26  32
ATOM     32  C   UNL     1      16.729  49.242  77.642  1.00  0.00     0.191 C 
BRANCH  32  33
ATOM     33  O   UNL     1      15.640  49.326  76.757  1.00  0.00    -0.394 OA
ATOM     34  H   UNL     1      15.852  50.046  76.096  1.00  0.00     0.210 HD
ENDBRANCH  32  33
ENDBRANCH  26  32
BRANCH  27  35
ATOM     35  O   UNL     1      19.080  49.804  78.982  1.00  0.00    -0.387 OA
ATOM     36  H   UNL     1      18.270  49.381  79.362  1.00  0.00     0.211 HD
ENDBRANCH  27  35
ENDBRANCH  21  22
ENDBRANCH   2  21
BRANCH   5  37
ATOM     37  O   UNL     1      19.644  41.538  75.051  1.00  0.00    -0.461 OA
BRANCH  37  38
ATOM     38  C   UNL     1      19.885  41.159  76.405  1.00  0.00     0.339 C 
ATOM     39  C   UNL     1      18.916  40.027  76.849  1.00  0.00     0.214 C 
ATOM     40  O   UNL     1      19.774  42.324  77.214  1.00  0.00    -0.332 OA
ATOM     41  C   UNL     1      18.960  39.796  78.381  1.00  0.00     0.180 C 
ATOM     42  C   UNL     1      20.031  42.029  78.570  1.00  0.00     0.179 C 
ATOM     43  C   UNL     1      18.885  41.155  79.116  1.00  0.00     0.177 C 
BRANCH  39  44
ATOM     44  O   UNL     1      19.232  38.824  76.197  1.00  0.00    -0.384 OA
ATOM     45  H   UNL     1      19.992  38.426  76.682  1.00  0.00     0.211 HD
ENDBRANCH  39  44
BRANCH  41  46
ATOM     46  O   UNL     1      20.125  39.084  78.725  1.00  0.00    -0.387 OA
ATOM     47  H   UNL     1      20.540  39.568  79.488  1.00  0.00     0.211 HD
ENDBRANCH  41  46
BRANCH  42  48
ATOM     48  C   UNL     1      20.081  43.365  79.329  1.00  0.00     0.191 C 
BRANCH  48  49
ATOM     49  O   UNL     1      19.000  44.178  78.945  1.00  0.00    -0.394 OA
ATOM     50  H   UNL     1      19.391  45.020  78.575  1.00  0.00     0.210 HD
ENDBRANCH  48  49
ENDBRANCH  42  48
BRANCH  43  51
ATOM     51  O   UNL     1      17.641  41.756  78.863  1.00  0.00    -0.387 OA
ATOM     52  H   UNL     1      17.170  41.824  79.740  1.00  0.00     0.211 HD
ENDBRANCH  43  51
ENDBRANCH  37  38
ENDBRANCH   5  37
BRANCH   7  53
ATOM     53  O   UNL     1      15.296  39.889  73.623  1.00  0.00    -0.507 OA
ATOM     54  H   UNL     1      14.771  39.430  74.355  1.00  0.00     0.293 HD
ENDBRANCH   7  53
TORSDOF 18
ENDMDL
MODEL 3
REMARK VINA RESULT:    -4.562      1.678      2.983
REMARK INTER + INTRA:         -10.321
REMARK INTER:                  -8.984
REMARK INTRA:                  -1.337
REMARK UNBOUND:                -2.291
REMARK SMILES COc1cc(-c2[o+]c3cc(O)cc(O[C@H]4O[C@@H](CO)[C@@H](O)[C@H](O)[C@@H]4O)c3cc2O[C@H]2O[C@@H](CO)[C@@H](O)[C@@H](O)[C@H]2O)ccc1O
REMARK SMILES IDX 6 1 28 2 27 3 26 4 13 5 12 6 10 7 9 8 8 9 7 10 5 11 3 12
REMARK SMILES IDX 43 13 4 14 42 15 41 16 2 17 1 18 44 19 29 21 30 22 39 23
REMARK SMILES IDX 31 24 37 25 32 26 35 27 40 28 38 30 33 32 34 33 36 35 14 37
REMARK SMILES IDX 15 38 24 39 16 40 22 41 17 42 20 43 25 44 23 46 18 48 19 49
REMARK SMILES IDX 21 51 11 53
REMARK H PARENT 44 20 40 29 38 31 34 34 36 36 25 45 23 47 19 50 21 52 11 54
REMARK Flexibility Score: inf
ROOT
ATOM      1  C   UNL     1      16.491  45.245  73.883  1.00  0.00     0.402 A 
ATOM      2  C   UNL     1      17.890  45.193  74.166  1.00  0.00     0.229 A 
ATOM      3  C   UNL     1      18.461  43.913  74.319  1.00  0.00     0.079 A 
ATOM      4  C   UNL     1      17.681  42.755  74.270  1.00  0.00     0.126 A 
ATOM      5  C   UNL     1      18.225  41.452  74.489  1.00  0.00     0.143 A 
ATOM      6  C   UNL     1      17.416  40.346  74.227  1.00  0.00     0.094 A 
ATOM      7  C   UNL     1      16.035  40.503  73.939  1.00  0.00     0.128 A 
ATOM      8  C   UNL     1      15.497  41.785  73.876  1.00  0.00     0.162 A 
ATOM      9  C   UNL     1      16.318  42.907  74.002  1.00  0.00     0.368 A 
ATOM     10  O   UNL     1      15.799  44.115  73.824  1.00  0.00    -0.202 OA
ENDROOT
BRANCH   1  11
ATOM     11  C   UNL     1      15.749  46.442  73.455  1.00  0.00     0.087 A 
ATOM     12  C   UNL     1      13.816  47.862  73.946  1.00  0.00     0.161 A 
ATOM     13  C   UNL     1      14.372  48.893  73.175  1.00  0.00     0.157 A 
ATOM     14  C   UNL     1      14.490  46.620  74.035  1.00  0.00     0.068 A 
ATOM     15  C   UNL     1      15.638  48.714  72.585  1.00  0.00     0.051 A 
ATOM     16  C   UNL     1      16.352  47.528  72.788  1.00  0.00     0.022 A 
BRANCH  12  17
ATOM     17  O   UNL     1      12.628  48.098  74.663  1.00  0.00    -0.493 OA
ATOM     18  C   UNL     1      11.334  47.802  74.145  1.00  0.00     0.278 C 
ENDBRANCH  12  17
BRANCH  13  19
ATOM     19  O   UNL     1      13.715  50.125  73.038  1.00  0.00    -0.504 OA
ATOM     20  H   UNL     1      12.787  50.272  73.409  1.00  0.00     0.293 HD
ENDBRANCH  13  19
ENDBRANCH   1  11
BRANCH   2  21
ATOM     21  O   UNL     1      18.779  46.294  74.215  1.00  0.00    -0.452 OA
BRANCH  21  22
ATOM     22  C   UNL     1      19.087  47.184  75.302  1.00  0.00     0.339 C 
ATOM     23  C   UNL     1      19.865  46.461  76.422  1.00  0.00     0.214 C 
ATOM     24  O   UNL     1      17.867  47.676  75.850  1.00  0.00    -0.332 OA
ATOM     25  C   UNL     1      19.782  47.220  77.760  1.00  0.00     0.180 C 
ATOM     26  C   UNL     1      18.092  48.831  76.658  1.00  0.00     0.179 C 
ATOM     27  C   UNL     1      19.350  48.697  77.561  1.00  0.00     0.177 C 
BRANCH  23  28
ATOM     28  O   UNL     1      19.352  45.150  76.536  1.00  0.00    -0.384 OA
ATOM     29  H   UNL     1      18.644  45.033  75.839  1.00  0.00     0.211 HD
ENDBRANCH  23  28
BRANCH  25  30
ATOM     30  O   UNL     1      18.939  46.563  78.684  1.00  0.00    -0.387 OA
ATOM     31  H   UNL     1      19.253  45.618  78.741  1.00  0.00     0.211 HD
ENDBRANCH  25  30
BRANCH  26  32
ATOM     32  C   UNL     1      16.789  49.112  77.445  1.00  0.00     0.191 C 
BRANCH  32  33
ATOM     33  O   UNL     1      15.688  49.125  76.571  1.00  0.00    -0.394 OA
ATOM     34  H   UNL     1      16.038  49.350  75.661  1.00  0.00     0.210 HD
ENDBRANCH  32  33
ENDBRANCH  26  32
BRANCH  27  35
ATOM     35  O   UNL     1      19.181  49.327  78.813  1.00  0.00    -0.387 OA
ATOM     36  H   UNL     1      20.048  49.259  79.286  1.00  0.00     0.211 HD
ENDBRANCH  27  35
ENDBRANCH  21  22
ENDBRANCH   2  21
BRANCH   5  37
ATOM     37  O   UNL     1      19.528  41.247  75.012  1.00  0.00    -0.461 OA
BRANCH  37  38
ATOM     38  C   UNL     1      19.792  40.869  76.363  1.00  0.00     0.339 C 
ATOM     39  C   UNL     1      18.869  39.700  76.807  1.00  0.00     0.214 C 
ATOM     40  O   UNL     1      19.641  42.026  77.179  1.00  0.00    -0.332 OA
ATOM     41  C   UNL     1      18.931  39.463  78.337  1.00  0.00     0.180 C 
ATOM     42  C   UNL     1      19.919  41.733  78.531  1.00  0.00     0.179 C 
ATOM     43  C   UNL     1      18.809  40.815  79.079  1.00  0.00     0.177 C 
BRANCH  39  44
ATOM     44  O   UNL     1      19.226  38.513  76.147  1.00  0.00    -0.384 OA
ATOM     45  H   UNL     1      19.452  38.757  75.219  1.00  0.00     0.211 HD
ENDBRANCH  39  44
BRANCH  41  46
ATOM     46  O   UNL     1      20.124  38.794  78.671  1.00  0.00    -0.387 OA
ATOM     47  H   UNL     1      20.020  38.476  79.607  1.00  0.00     0.211 HD
ENDBRANCH  41  46
BRANCH  42  48
ATOM     48  C   UNL     1      19.922  43.067  79.297  1.00  0.00     0.191 C 
BRANCH  48  49
ATOM     49  O   UNL     1      18.799  43.832  78.938  1.00  0.00    -0.394 OA
ATOM     50  H   UNL     1      18.900  44.720  79.385  1.00  0.00     0.210 HD
ENDBRANCH  48  49
ENDBRANCH  42  48
BRANCH  43  51
ATOM     51  O   UNL     1      17.542  41.370  78.837  1.00  0.00    -0.387 OA
ATOM     52  H   UNL     1      17.502  41.585  77.863  1.00  0.00     0.211 HD
ENDBRANCH  43  51
ENDBRANCH  37  38
ENDBRANCH   5  37
BRANCH   7  53
ATOM     53  O   UNL     1      15.216  39.412  73.707  1.00  0.00    -0.507 OA
ATOM     54  H   UNL     1      15.598  38.535  73.378  1.00  0.00     0.293 HD
ENDBRANCH   7  53
TORSDOF 18
ENDMDL
MODEL 4
REMARK VINA RESULT:    -3.287      2.053      8.345
REMARK INTER + INTRA:          -8.076
REMARK INTER:                  -7.051
REMARK INTRA:                  -1.025
REMARK UNBOUND:                -2.291
REMARK SMILES COc1cc(-c2[o+]c3cc(O)cc(O[C@H]4O[C@@H](CO)[C@@H](O)[C@H](O)[C@@H]4O)c3cc2O[C@H]2O[C@@H](CO)[C@@H](O)[C@@H](O)[C@H]2O)ccc1O
REMARK SMILES IDX 6 1 28 2 27 3 26 4 13 5 12 6 10 7 9 8 8 9 7 10 5 11 3 12
REMARK SMILES IDX 43 13 4 14 42 15 41 16 2 17 1 18 44 19 29 21 30 22 39 23
REMARK SMILES IDX 31 24 37 25 32 26 35 27 40 28 38 30 33 32 34 33 36 35 14 37
REMARK SMILES IDX 15 38 24 39 16 40 22 41 17 42 20 43 25 44 23 46 18 48 19 49
REMARK SMILES IDX 21 51 11 53
REMARK H PARENT 44 20 40 29 38 31 34 34 36 36 25 45 23 47 19 50 21 52 11 54
REMARK Flexibility Score: inf
ROOT
ATOM      1  C   UNL     1      18.120  40.392  75.105  1.00  0.00     0.402 A 
ATOM      2  C   UNL     1      18.536  41.565  75.807  1.00  0.00     0.229 A 
ATOM      3  C   UNL     1      17.665  42.673  75.765  1.00  0.00     0.079 A 
ATOM      4  C   UNL     1      16.487  42.649  75.013  1.00  0.00     0.126 A 
ATOM      5  C   UNL     1      15.624  43.781  74.901  1.00  0.00     0.143 A 
ATOM      6  C   UNL     1      14.379  43.605  74.295  1.00  0.00     0.094 A 
ATOM      7  C   UNL     1      14.054  42.392  73.634  1.00  0.00     0.128 A 
ATOM      8  C   UNL     1      14.978  41.351  73.633  1.00  0.00     0.162 A 
ATOM      9  C   UNL     1      16.172  41.461  74.349  1.00  0.00     0.368 A 
ATOM     10  O   UNL     1      16.982  40.413  74.425  1.00  0.00    -0.202 OA
ENDROOT
BRANCH   1  11
ATOM     11  C   UNL     1      18.748  39.065  75.212  1.00  0.00     0.087 A 
ATOM     12  C   UNL     1      19.495  37.342  76.782  1.00  0.00     0.161 A 
ATOM     13  C   UNL     1      19.508  36.397  75.746  1.00  0.00     0.157 A 
ATOM     14  C   UNL     1      19.163  38.687  76.491  1.00  0.00     0.068 A 
ATOM     15  C   UNL     1      19.095  36.776  74.454  1.00  0.00     0.051 A 
ATOM     16  C   UNL     1      18.646  38.078  74.209  1.00  0.00     0.022 A 
BRANCH  12  17
ATOM     17  O   UNL     1      19.755  36.925  78.101  1.00  0.00    -0.493 OA
ATOM     18  C   UNL     1      20.027  37.833  79.165  1.00  0.00     0.278 C 
ENDBRANCH  12  17
BRANCH  13  19
ATOM     19  O   UNL     1      19.864  35.062  75.992  1.00  0.00    -0.504 OA
ATOM     20  H   UNL     1      20.256  34.479  75.267  1.00  0.00     0.293 HD
ENDBRANCH  13  19
ENDBRANCH   1  11
BRANCH   2  21
ATOM     21  O   UNL     1      19.690  41.695  76.617  1.00  0.00    -0.452 OA
BRANCH  21  22
ATOM     22  C   UNL     1      19.974  42.626  77.675  1.00  0.00     0.339 C 
ATOM     23  C   UNL     1      19.370  42.159  79.017  1.00  0.00     0.214 C 
ATOM     24  O   UNL     1      19.400  43.888  77.341  1.00  0.00    -0.332 OA
ATOM     25  C   UNL     1      19.234  43.320  80.020  1.00  0.00     0.180 C 
ATOM     26  C   UNL     1      19.954  44.934  78.138  1.00  0.00     0.179 C 
ATOM     27  C   UNL     1      20.125  44.529  79.629  1.00  0.00     0.177 C 
BRANCH  23  28
ATOM     28  O   UNL     1      18.122  41.555  78.749  1.00  0.00    -0.384 OA
ATOM     29  H   UNL     1      17.451  41.936  79.385  1.00  0.00     0.211 HD
ENDBRANCH  23  28
BRANCH  25  30
ATOM     30  O   UNL     1      17.887  43.713  80.187  1.00  0.00    -0.387 OA
ATOM     31  H   UNL     1      17.830  44.672  79.917  1.00  0.00     0.211 HD
ENDBRANCH  25  30
BRANCH  26  32
ATOM     32  C   UNL     1      19.077  46.193  77.932  1.00  0.00     0.191 C 
BRANCH  32  33
ATOM     33  O   UNL     1      19.783  47.160  77.194  1.00  0.00    -0.394 OA
ATOM     34  H   UNL     1      19.676  46.926  76.227  1.00  0.00     0.210 HD
ENDBRANCH  32  33
ENDBRANCH  26  32
BRANCH  27  35
ATOM     35  O   UNL     1      19.890  45.609  80.508  1.00  0.00    -0.387 OA
ATOM     36  H   UNL     1      19.152  46.140  80.116  1.00  0.00     0.211 HD
ENDBRANCH  27  35
ENDBRANCH  21  22
ENDBRANCH   2  21
BRANCH   5  37
ATOM     37  O   UNL     1      16.006  45.079  75.331  1.00  0.00    -0.461 OA
BRANCH  37  38
ATOM     38  C   UNL     1      15.813  46.261  74.555  1.00  0.00     0.339 C 
ATOM     39  C   UNL     1      16.840  47.360  74.948  1.00  0.00     0.214 C 
ATOM     40  O   UNL     1      14.465  46.684  74.728  1.00  0.00    -0.332 OA
ATOM     41  C   UNL     1      16.477  48.736  74.333  1.00  0.00     0.180 C 
ATOM     42  C   UNL     1      14.192  47.837  73.961  1.00  0.00     0.179 C 
ATOM     43  C   UNL     1      14.974  49.026  74.554  1.00  0.00     0.177 C 
BRANCH  39  44
ATOM     44  O   UNL     1      18.131  47.000  74.529  1.00  0.00    -0.384 OA
ATOM     45  H   UNL     1      18.158  47.115  73.550  1.00  0.00     0.211 HD
ENDBRANCH  39  44
BRANCH  41  46
ATOM     46  O   UNL     1      16.814  48.755  72.966  1.00  0.00    -0.387 OA
ATOM     47  H   UNL     1      16.306  49.505  72.558  1.00  0.00     0.211 HD
ENDBRANCH  41  46
BRANCH  42  48
ATOM     48  C   UNL     1      12.681  48.103  74.056  1.00  0.00     0.191 C 
BRANCH  48  49
ATOM     49  O   UNL     1      12.232  47.873  75.368  1.00  0.00    -0.394 OA
ATOM     50  H   UNL     1      11.387  48.395  75.479  1.00  0.00     0.210 HD
ENDBRANCH  48  49
ENDBRANCH  42  48
BRANCH  43  51
ATOM     51  O   UNL     1      14.718  49.150  75.930  1.00  0.00    -0.387 OA
ATOM     52  H   UNL     1      14.256  48.312  76.214  1.00  0.00     0.211 HD
ENDBRANCH  43  51
ENDBRANCH  37  38
ENDBRANCH   5  37
BRANCH   7  53
ATOM     53  O   UNL     1      12.835  42.216  73.004  1.00  0.00    -0.507 OA
ATOM     54  H   UNL     1      12.628  42.687  72.132  1.00  0.00     0.293 HD
ENDBRANCH   7  53
TORSDOF 18
ENDMDL
MODEL 5
REMARK VINA RESULT:    -3.166      2.187      7.783
REMARK INTER + INTRA:          -7.863
REMARK INTER:                  -7.245
REMARK INTRA:                  -0.619
REMARK UNBOUND:                -2.291
REMARK SMILES COc1cc(-c2[o+]c3cc(O)cc(O[C@H]4O[C@@H](CO)[C@@H](O)[C@H](O)[C@@H]4O)c3cc2O[C@H]2O[C@@H](CO)[C@@H](O)[C@@H](O)[C@H]2O)ccc1O
REMARK SMILES IDX 6 1 28 2 27 3 26 4 13 5 12 6 10 7 9 8 8 9 7 10 5 11 3 12
REMARK SMILES IDX 43 13 4 14 42 15 41 16 2 17 1 18 44 19 29 21 30 22 39 23
REMARK SMILES IDX 31 24 37 25 32 26 35 27 40 28 38 30 33 32 34 33 36 35 14 37
REMARK SMILES IDX 15 38 24 39 16 40 22 41 17 42 20 43 25 44 23 46 18 48 19 49
REMARK SMILES IDX 21 51 11 53
REMARK H PARENT 44 20 40 29 38 31 34 34 36 36 25 45 23 47 19 50 21 52 11 54
REMARK Flexibility Score: inf
ROOT
ATOM      1  C   UNL     1      16.917  44.478  75.423  1.00  0.00     0.402 A 
ATOM      2  C   UNL     1      17.632  45.702  75.601  1.00  0.00     0.229 A 
ATOM      3  C   UNL     1      16.921  46.895  75.359  1.00  0.00     0.079 A 
ATOM      4  C   UNL     1      15.602  46.879  74.896  1.00  0.00     0.126 A 
ATOM      5  C   UNL     1      14.884  48.073  74.579  1.00  0.00     0.143 A 
ATOM      6  C   UNL     1      13.518  47.971  74.314  1.00  0.00     0.094 A 
ATOM      7  C   UNL     1      12.895  46.704  74.169  1.00  0.00     0.128 A 
ATOM      8  C   UNL     1      13.655  45.550  74.339  1.00  0.00     0.162 A 
ATOM      9  C   UNL     1      14.991  45.633  74.737  1.00  0.00     0.368 A 
ATOM     10  O   UNL     1      15.659  44.518  75.003  1.00  0.00    -0.202 OA
ENDROOT
BRANCH   1  11
ATOM     11  C   UNL     1      17.382  43.147  75.844  1.00  0.00     0.087 A 
ATOM     12  C   UNL     1      17.714  40.835  75.110  1.00  0.00     0.161 A 
ATOM     13  C   UNL     1      18.589  40.616  76.184  1.00  0.00     0.157 A 
ATOM     14  C   UNL     1      17.074  42.091  74.982  1.00  0.00     0.068 A 
ATOM     15  C   UNL     1      18.897  41.676  77.058  1.00  0.00     0.051 A 
ATOM     16  C   UNL     1      18.357  42.949  76.843  1.00  0.00     0.022 A 
BRANCH  12  17
ATOM     17  O   UNL     1      17.531  39.823  74.149  1.00  0.00    -0.493 OA
ATOM     18  C   UNL     1      16.334  39.057  74.044  1.00  0.00     0.278 C 
ENDBRANCH  12  17
BRANCH  13  19
ATOM     19  O   UNL     1      19.214  39.372  76.362  1.00  0.00    -0.504 OA
ATOM     20  H   UNL     1      18.909  38.725  77.075  1.00  0.00     0.293 HD
ENDBRANCH  13  19
ENDBRANCH   1  11
BRANCH   2  21
ATOM     21  O   UNL     1      18.954  45.839  76.087  1.00  0.00    -0.452 OA
BRANCH  21  22
ATOM     22  C   UNL     1      19.474  46.694  77.120  1.00  0.00     0.339 C 
ATOM     23  C   UNL     1      20.018  45.877  78.311  1.00  0.00     0.214 C 
ATOM     24  O   UNL     1      18.422  47.531  77.595  1.00  0.00    -0.332 OA
ATOM     25  C   UNL     1      20.123  46.728  79.591  1.00  0.00     0.180 C 
ATOM     26  C   UNL     1      18.935  48.641  78.328  1.00  0.00     0.179 C 
ATOM     27  C   UNL     1      20.102  48.248  79.278  1.00  0.00     0.177 C 
BRANCH  23  28
ATOM     28  O   UNL     1      19.174  44.760  78.498  1.00  0.00    -0.384 OA
ATOM     29  H   UNL     1      18.561  44.960  79.264  1.00  0.00     0.211 HD
ENDBRANCH  23  28
BRANCH  25  30
ATOM     30  O   UNL     1      19.124  46.388  80.530  1.00  0.00    -0.387 OA
ATOM     31  H   UNL     1      19.220  47.020  81.297  1.00  0.00     0.211 HD
ENDBRANCH  25  30
BRANCH  26  32
ATOM     32  C   UNL     1      17.745  49.315  79.053  1.00  0.00     0.191 C 
BRANCH  32  33
ATOM     33  O   UNL     1      17.527  48.703  80.299  1.00  0.00    -0.394 OA
ATOM     34  H   UNL     1      18.426  48.484  80.681  1.00  0.00     0.210 HD
ENDBRANCH  32  33
ENDBRANCH  26  32
BRANCH  27  35
ATOM     35  O   UNL     1      20.089  48.991  80.479  1.00  0.00    -0.387 OA
ATOM     36  H   UNL     1      20.926  49.519  80.495  1.00  0.00     0.211 HD
ENDBRANCH  27  35
ENDBRANCH  21  22
ENDBRANCH   2  21
BRANCH   5  37
ATOM     37  O   UNL     1      15.517  49.339  74.471  1.00  0.00    -0.461 OA
BRANCH  37  38
ATOM     38  C   UNL     1      16.487  49.660  73.475  1.00  0.00     0.339 C 
ATOM     39  C   UNL     1      16.314  48.764  72.217  1.00  0.00     0.214 C 
ATOM     40  O   UNL     1      17.777  49.537  74.063  1.00  0.00    -0.332 OA
ATOM     41  C   UNL     1      17.515  48.891  71.247  1.00  0.00     0.180 C 
ATOM     42  C   UNL     1      18.791  49.871  73.139  1.00  0.00     0.179 C 
ATOM     43  C   UNL     1      18.840  48.791  72.041  1.00  0.00     0.177 C 
BRANCH  39  44
ATOM     44  O   UNL     1      15.136  49.100  71.531  1.00  0.00    -0.384 OA
ATOM     45  H   UNL     1      15.077  48.501  70.751  1.00  0.00     0.211 HD
ENDBRANCH  39  44
BRANCH  41  46
ATOM     46  O   UNL     1      17.429  50.100  70.532  1.00  0.00    -0.387 OA
ATOM     47  H   UNL     1      18.209  50.124  69.916  1.00  0.00     0.211 HD
ENDBRANCH  41  46
BRANCH  42  48
ATOM     48  C   UNL     1      20.121  49.899  73.910  1.00  0.00     0.191 C 
BRANCH  48  49
ATOM     49  O   UNL     1      20.029  49.096  75.059  1.00  0.00    -0.394 OA
ATOM     50  H   UNL     1      20.224  49.687  75.840  1.00  0.00     0.210 HD
ENDBRANCH  48  49
ENDBRANCH  42  48
BRANCH  43  51
ATOM     51  O   UNL     1      18.950  47.512  72.610  1.00  0.00    -0.387 OA
ATOM     52  H   UNL     1      18.081  47.049  72.449  1.00  0.00     0.211 HD
ENDBRANCH  43  51
ENDBRANCH  37  38
ENDBRANCH   5  37
BRANCH   7  53
ATOM     53  O   UNL     1      11.548  46.590  73.876  1.00  0.00    -0.507 OA
ATOM     54  H   UNL     1      10.851  46.627  74.609  1.00  0.00     0.293 HD
ENDBRANCH   7  53
TORSDOF 18
ENDMDL
MODEL 6
REMARK VINA RESULT:    -3.098      1.781      7.682
REMARK INTER + INTRA:          -7.744
REMARK INTER:                  -6.241
REMARK INTRA:                  -1.503
REMARK UNBOUND:                -2.291
REMARK SMILES COc1cc(-c2[o+]c3cc(O)cc(O[C@H]4O[C@@H](CO)[C@@H](O)[C@H](O)[C@@H]4O)c3cc2O[C@H]2O[C@@H](CO)[C@@H](O)[C@@H](O)[C@H]2O)ccc1O
REMARK SMILES IDX 6 1 28 2 27 3 26 4 13 5 12 6 10 7 9 8 8 9 7 10 5 11 3 12
REMARK SMILES IDX 43 13 4 14 42 15 41 16 2 17 1 18 44 19 29 21 30 22 39 23
REMARK SMILES IDX 31 24 37 25 32 26 35 27 40 28 38 30 33 32 34 33 36 35 14 37
REMARK SMILES IDX 15 38 24 39 16 40 22 41 17 42 20 43 25 44 23 46 18 48 19 49
REMARK SMILES IDX 21 51 11 53
REMARK H PARENT 44 20 40 29 38 31 34 34 36 36 25 45 23 47 19 50 21 52 11 54
REMARK Flexibility Score: inf
ROOT
ATOM      1  C   UNL     1      15.522  43.944  74.451  1.00  0.00     0.402 A 
ATOM      2  C   UNL     1      16.141  45.231  74.467  1.00  0.00     0.229 A 
ATOM      3  C   UNL     1      15.332  46.321  74.849  1.00  0.00     0.079 A 
ATOM      4  C   UNL     1      13.972  46.159  75.126  1.00  0.00     0.126 A 
ATOM      5  C   UNL     1      13.118  47.258  75.448  1.00  0.00     0.143 A 
ATOM      6  C   UNL     1      11.827  46.981  75.901  1.00  0.00     0.094 A 
ATOM      7  C   UNL     1      11.307  45.661  75.858  1.00  0.00     0.128 A 
ATOM      8  C   UNL     1      12.117  44.626  75.399  1.00  0.00     0.162 A 
ATOM      9  C   UNL     1      13.454  44.864  75.070  1.00  0.00     0.368 A 
ATOM     10  O   UNL     1      14.234  43.841  74.745  1.00  0.00    -0.202 OA
ENDROOT
BRANCH   1  11
ATOM     11  C   UNL     1      16.227  42.658  74.320  1.00  0.00     0.087 A 
ATOM     12  C   UNL     1      18.092  41.319  75.171  1.00  0.00     0.161 A 
ATOM     13  C   UNL     1      17.514  40.162  74.629  1.00  0.00     0.157 A 
ATOM     14  C   UNL     1      17.464  42.571  74.964  1.00  0.00     0.068 A 
ATOM     15  C   UNL     1      16.269  40.248  73.975  1.00  0.00     0.051 A 
ATOM     16  C   UNL     1      15.598  41.472  73.890  1.00  0.00     0.022 A 
BRANCH  12  17
ATOM     17  O   UNL     1      19.253  41.209  75.959  1.00  0.00    -0.493 OA
ATOM     18  C   UNL     1      19.257  41.403  77.371  1.00  0.00     0.278 C 
ENDBRANCH  12  17
BRANCH  13  19
ATOM     19  O   UNL     1      18.126  38.910  74.786  1.00  0.00    -0.504 OA
ATOM     20  H   UNL     1      17.586  38.056  74.799  1.00  0.00     0.293 HD
ENDBRANCH  13  19
ENDBRANCH   1  11
BRANCH   2  21
ATOM     21  O   UNL     1      17.509  45.510  74.229  1.00  0.00    -0.452 OA
BRANCH  21  22
ATOM     22  C   UNL     1      18.353  46.531  74.786  1.00  0.00     0.339 C 
ATOM     23  C   UNL     1      19.341  45.949  75.820  1.00  0.00     0.214 C 
ATOM     24  O   UNL     1      17.533  47.495  75.444  1.00  0.00    -0.332 OA
ATOM     25  C   UNL     1      19.897  47.037  76.758  1.00  0.00     0.180 C 
ATOM     26  C   UNL     1      18.249  48.706  75.681  1.00  0.00     0.179 C 
ATOM     27  C   UNL     1      19.703  48.460  76.172  1.00  0.00     0.177 C 
BRANCH  23  28
ATOM     28  O   UNL     1      18.673  44.934  76.539  1.00  0.00    -0.384 OA
ATOM     29  H   UNL     1      17.776  45.285  76.809  1.00  0.00     0.211 HD
ENDBRANCH  23  28
BRANCH  25  30
ATOM     30  O   UNL     1      19.347  46.941  78.056  1.00  0.00    -0.387 OA
ATOM     31  H   UNL     1      18.505  46.411  77.975  1.00  0.00     0.211 HD
ENDBRANCH  25  30
BRANCH  26  32
ATOM     32  C   UNL     1      17.403  49.567  76.650  1.00  0.00     0.191 C 
BRANCH  32  33
ATOM     33  O   UNL     1      16.074  49.108  76.672  1.00  0.00    -0.394 OA
ATOM     34  H   UNL     1      15.569  49.700  77.301  1.00  0.00     0.210 HD
ENDBRANCH  32  33
ENDBRANCH  26  32
BRANCH  27  35
ATOM     35  O   UNL     1      20.125  49.431  77.107  1.00  0.00    -0.387 OA
ATOM     36  H   UNL     1      20.664  50.093  76.606  1.00  0.00     0.211 HD
ENDBRANCH  27  35
ENDBRANCH  21  22
ENDBRANCH   2  21
BRANCH   5  37
ATOM     37  O   UNL     1      13.513  48.610  75.273  1.00  0.00    -0.461 OA
BRANCH  37  38
ATOM     38  C   UNL     1      13.777  49.203  74.002  1.00  0.00     0.339 C 
ATOM     39  C   UNL     1      13.095  48.400  72.859  1.00  0.00     0.214 C 
ATOM     40  O   UNL     1      15.189  49.290  73.844  1.00  0.00    -0.332 OA
ATOM     41  C   UNL     1      13.594  48.847  71.462  1.00  0.00     0.180 C 
ATOM     42  C   UNL     1      15.526  49.898  72.615  1.00  0.00     0.179 C 
ATOM     43  C   UNL     1      15.138  48.947  71.467  1.00  0.00     0.177 C 
BRANCH  39  44
ATOM     44  O   UNL     1      11.700  48.551  72.915  1.00  0.00    -0.384 OA
ATOM     45  H   UNL     1      11.410  48.869  72.029  1.00  0.00     0.211 HD
ENDBRANCH  39  44
BRANCH  41  46
ATOM     46  O   UNL     1      12.996  50.071  71.107  1.00  0.00    -0.387 OA
ATOM     47  H   UNL     1      12.953  50.618  71.936  1.00  0.00     0.211 HD
ENDBRANCH  41  46
BRANCH  42  48
ATOM     48  C   UNL     1      17.046  50.125  72.619  1.00  0.00     0.191 C 
BRANCH  48  49
ATOM     49  O   UNL     1      17.593  49.752  71.379  1.00  0.00    -0.394 OA
ATOM     50  H   UNL     1      17.377  48.785  71.248  1.00  0.00     0.210 HD
ENDBRANCH  48  49
ENDBRANCH  42  48
BRANCH  43  51
ATOM     51  O   UNL     1      15.690  47.671  71.672  1.00  0.00    -0.387 OA
ATOM     52  H   UNL     1      16.626  47.704  71.329  1.00  0.00     0.211 HD
ENDBRANCH  43  51
ENDBRANCH  37  38
ENDBRANCH   5  37
BRANCH   7  53
ATOM     53  O   UNL     1      10.019  45.378  76.276  1.00  0.00    -0.507 OA
ATOM     54  H   UNL     1       9.654  45.765  77.137  1.00  0.00     0.293 HD
ENDBRANCH   7  53
TORSDOF 18
ENDMDL
