MODEL 1
REMARK VINA RESULT:     8.283      0.000      0.000
REMARK INTER + INTRA:          12.788
REMARK INTER:                  11.915
REMARK INTRA:                   0.873
REMARK UNBOUND:                 0.873
REMARK SMILES O=c1c(O[C@@H]2O[C@@H](CO)[C@@H](O)[C@H](O)[C@H]2O)c(-c2ccc(O)cc2)oc2cc(O)cc(O)c12
REMARK SMILES IDX 4 1 3 2 16 3 24 4 2 5 25 6 1 7 32 8 26 9 30 10 27 11 29 12
REMARK SMILES IDX 17 13 18 14 19 15 20 16 23 17 22 18 21 19 31 21 28 23 5 25
REMARK SMILES IDX 14 26 6 27 12 28 7 29 10 30 15 31 13 33 8 35 9 36 11 38
REMARK H PARENT 21 20 31 22 28 24 15 32 13 34 9 37 11 39
REMARK Flexibility Score: inf
ROOT
ATOM      1  O   UNL     1     -23.831  24.255 -31.400  1.00  0.00    -0.454 OA
ENDROOT
BRANCH   1   2
ATOM      2  C   UNL     1     -24.213  25.009 -32.518  1.00  0.00     0.214 A 
ATOM      3  C   UNL     1     -25.457  24.824 -33.148  1.00  0.00     0.180 A 
ATOM      4  O   UNL     1     -25.730  25.478 -34.270  1.00  0.00    -0.452 OA
ATOM      5  C   UNL     1     -23.322  25.955 -33.036  1.00  0.00     0.239 A 
ATOM      6  C   UNL     1     -24.905  26.366 -34.815  1.00  0.00     0.146 A 
ATOM      7  O   UNL     1     -22.202  26.091 -32.477  1.00  0.00    -0.285 OA
ATOM      8  C   UNL     1     -23.670  26.691 -34.193  1.00  0.00     0.111 A 
ATOM      9  C   UNL     1     -25.278  26.976 -36.015  1.00  0.00     0.094 A 
ATOM     10  C   UNL     1     -22.850  27.694 -34.794  1.00  0.00     0.134 A 
ATOM     11  C   UNL     1     -24.444  27.910 -36.623  1.00  0.00     0.123 A 
ATOM     12  C   UNL     1     -23.237  28.263 -36.014  1.00  0.00     0.093 A 
BRANCH   3  13
ATOM     13  C   UNL     1     -26.491  23.921 -32.599  1.00  0.00     0.021 A 
ATOM     14  C   UNL     1     -26.929  24.045 -31.268  1.00  0.00     0.016 A 
ATOM     15  C   UNL     1     -27.908  23.185 -30.764  1.00  0.00     0.047 A 
ATOM     16  C   UNL     1     -28.474  22.205 -31.585  1.00  0.00     0.115 A 
ATOM     17  C   UNL     1     -27.080  22.950 -33.426  1.00  0.00     0.016 A 
ATOM     18  C   UNL     1     -28.060  22.092 -32.920  1.00  0.00     0.047 A 
BRANCH  16  19
ATOM     19  O   UNL     1     -29.447  21.352 -31.068  1.00  0.00    -0.508 OA
ATOM     20  H   UNL     1     -29.211  20.429 -30.721  1.00  0.00     0.293 HD
ENDBRANCH  16  19
ENDBRANCH   3  13
BRANCH  10  21
ATOM     21  O   UNL     1     -21.671  28.182 -34.222  1.00  0.00    -0.507 OA
ATOM     22  H   UNL     1     -20.741  27.921 -34.512  1.00  0.00     0.293 HD
ENDBRANCH  10  21
BRANCH  11  23
ATOM     23  O   UNL     1     -24.827  28.492 -37.830  1.00  0.00    -0.508 OA
ATOM     24  H   UNL     1     -24.747  27.992 -38.707  1.00  0.00     0.293 HD
ENDBRANCH  11  23
ENDBRANCH   1   2
BRANCH   1  25
ATOM     25  C   UNL     1     -24.186  24.614 -30.059  1.00  0.00     0.339 C 
ATOM     26  C   UNL     1     -23.198  23.988 -29.052  1.00  0.00     0.214 C 
ATOM     27  O   UNL     1     -24.258  26.024 -29.914  1.00  0.00    -0.332 OA
ATOM     28  C   UNL     1     -21.817  24.664 -29.140  1.00  0.00     0.180 C 
ATOM     29  C   UNL     1     -23.005  26.637 -30.169  1.00  0.00     0.179 C 
ATOM     30  C   UNL     1     -21.955  26.199 -29.121  1.00  0.00     0.177 C 
BRANCH  26  31
ATOM     31  O   UNL     1     -23.699  24.121 -27.746  1.00  0.00    -0.384 OA
ATOM     32  H   UNL     1     -22.946  24.431 -27.177  1.00  0.00     0.211 HD
ENDBRANCH  26  31
BRANCH  28  33
ATOM     33  O   UNL     1     -21.170  24.249 -30.318  1.00  0.00    -0.387 OA
ATOM     34  H   UNL     1     -21.711  23.508 -30.699  1.00  0.00     0.211 HD
ENDBRANCH  28  33
BRANCH  29  35
ATOM     35  C   UNL     1     -23.185  28.164 -30.208  1.00  0.00     0.191 C 
BRANCH  35  36
ATOM     36  O   UNL     1     -22.324  28.758 -31.144  1.00  0.00    -0.394 OA
ATOM     37  H   UNL     1     -22.396  29.741 -31.018  1.00  0.00     0.210 HD
ENDBRANCH  35  36
ENDBRANCH  29  35
BRANCH  30  38
ATOM     38  O   UNL     1     -22.339  26.610 -27.833  1.00  0.00    -0.387 OA
ATOM     39  H   UNL     1     -22.213  27.594 -27.787  1.00  0.00     0.211 HD
ENDBRANCH  30  38
ENDBRANCH   1  25
TORSDOF 11
ENDMDL
MODEL 2
REMARK VINA RESULT:     8.422      1.636      5.825
REMARK INTER + INTRA:          12.988
REMARK INTER:                  13.062
REMARK INTRA:                  -0.074
REMARK UNBOUND:                 0.873
REMARK SMILES O=c1c(O[C@@H]2O[C@@H](CO)[C@@H](O)[C@H](O)[C@H]2O)c(-c2ccc(O)cc2)oc2cc(O)cc(O)c12
REMARK SMILES IDX 4 1 3 2 16 3 24 4 2 5 25 6 1 7 32 8 26 9 30 10 27 11 29 12
REMARK SMILES IDX 17 13 18 14 19 15 20 16 23 17 22 18 21 19 31 21 28 23 5 25
REMARK SMILES IDX 14 26 6 27 12 28 7 29 10 30 15 31 13 33 8 35 9 36 11 38
REMARK H PARENT 21 20 31 22 28 24 15 32 13 34 9 37 11 39
REMARK Flexibility Score: inf
ROOT
ATOM      1  O   UNL     1     -23.976  27.772 -31.663  1.00  0.00    -0.454 OA
ENDROOT
BRANCH   1   2
ATOM      2  C   UNL     1     -24.626  26.627 -32.141  1.00  0.00     0.214 A 
ATOM      3  C   UNL     1     -24.588  26.265 -33.500  1.00  0.00     0.180 A 
ATOM      4  O   UNL     1     -25.311  25.237 -33.928  1.00  0.00    -0.452 OA
ATOM      5  C   UNL     1     -25.354  25.834 -31.247  1.00  0.00     0.239 A 
ATOM      6  C   UNL     1     -26.039  24.473 -33.122  1.00  0.00     0.146 A 
ATOM      7  O   UNL     1     -25.401  26.185 -30.039  1.00  0.00    -0.285 OA
ATOM      8  C   UNL     1     -26.058  24.701 -31.720  1.00  0.00     0.111 A 
ATOM      9  C   UNL     1     -26.787  23.434 -33.681  1.00  0.00     0.094 A 
ATOM     10  C   UNL     1     -26.812  23.812 -30.896  1.00  0.00     0.134 A 
ATOM     11  C   UNL     1     -27.566  22.608 -32.874  1.00  0.00     0.123 A 
ATOM     12  C   UNL     1     -27.577  22.801 -31.490  1.00  0.00     0.093 A 
BRANCH   3  13
ATOM     13  C   UNL     1     -23.757  26.990 -34.485  1.00  0.00     0.021 A 
ATOM     14  C   UNL     1     -24.200  28.195 -35.060  1.00  0.00     0.016 A 
ATOM     15  C   UNL     1     -23.402  28.869 -35.988  1.00  0.00     0.047 A 
ATOM     16  C   UNL     1     -22.147  28.361 -36.339  1.00  0.00     0.115 A 
ATOM     17  C   UNL     1     -22.486  26.497 -34.822  1.00  0.00     0.016 A 
ATOM     18  C   UNL     1     -21.689  27.174 -35.749  1.00  0.00     0.047 A 
BRANCH  16  19
ATOM     19  O   UNL     1     -21.364  29.042 -37.268  1.00  0.00    -0.508 OA
ATOM     20  H   UNL     1     -21.212  28.676 -38.200  1.00  0.00     0.293 HD
ENDBRANCH  16  19
ENDBRANCH   3  13
BRANCH  10  21
ATOM     21  O   UNL     1     -26.820  23.863 -29.499  1.00  0.00    -0.507 OA
ATOM     22  H   UNL     1     -27.595  24.185 -28.940  1.00  0.00     0.293 HD
ENDBRANCH  10  21
BRANCH  11  23
ATOM     23  O   UNL     1     -28.319  21.591 -33.456  1.00  0.00    -0.508 OA
ATOM     24  H   UNL     1     -27.920  20.963 -34.144  1.00  0.00     0.293 HD
ENDBRANCH  11  23
ENDBRANCH   1   2
BRANCH   1  25
ATOM     25  C   UNL     1     -22.575  27.807 -31.369  1.00  0.00     0.339 C 
ATOM     26  C   UNL     1     -22.263  28.924 -30.350  1.00  0.00     0.214 C 
ATOM     27  O   UNL     1     -22.120  26.542 -30.913  1.00  0.00    -0.332 OA
ATOM     28  C   UNL     1     -22.809  28.567 -28.955  1.00  0.00     0.180 C 
ATOM     29  C   UNL     1     -22.768  26.161 -29.710  1.00  0.00     0.179 C 
ATOM     30  C   UNL     1     -22.409  27.132 -28.560  1.00  0.00     0.177 C 
BRANCH  26  31
ATOM     31  O   UNL     1     -20.875  29.125 -30.270  1.00  0.00    -0.384 OA
ATOM     32  H   UNL     1     -20.647  29.194 -29.306  1.00  0.00     0.211 HD
ENDBRANCH  26  31
BRANCH  28  33
ATOM     33  O   UNL     1     -24.209  28.699 -28.954  1.00  0.00    -0.387 OA
ATOM     34  H   UNL     1     -24.455  29.160 -28.109  1.00  0.00     0.211 HD
ENDBRANCH  28  33
BRANCH  29  35
ATOM     35  C   UNL     1     -22.402  24.704 -29.376  1.00  0.00     0.191 C 
BRANCH  35  36
ATOM     36  O   UNL     1     -21.137  24.364 -29.879  1.00  0.00    -0.394 OA
ATOM     37  H   UNL     1     -21.115  23.374 -29.954  1.00  0.00     0.210 HD
ENDBRANCH  35  36
ENDBRANCH  29  35
BRANCH  30  38
ATOM     38  O   UNL     1     -21.029  27.095 -28.293  1.00  0.00    -0.387 OA
ATOM     39  H   UNL     1     -20.558  27.201 -29.161  1.00  0.00     0.211 HD
ENDBRANCH  30  38
ENDBRANCH   1  25
TORSDOF 11
ENDMDL
MODEL 3
REMARK VINA RESULT:     8.627      1.212      2.542
REMARK INTER + INTRA:          13.283
REMARK INTER:                  13.911
REMARK INTRA:                  -0.628
REMARK UNBOUND:                 0.873
REMARK SMILES O=c1c(O[C@@H]2O[C@@H](CO)[C@@H](O)[C@H](O)[C@H]2O)c(-c2ccc(O)cc2)oc2cc(O)cc(O)c12
REMARK SMILES IDX 4 1 3 2 16 3 24 4 2 5 25 6 1 7 32 8 26 9 30 10 27 11 29 12
REMARK SMILES IDX 17 13 18 14 19 15 20 16 23 17 22 18 21 19 31 21 28 23 5 25
REMARK SMILES IDX 14 26 6 27 12 28 7 29 10 30 15 31 13 33 8 35 9 36 11 38
REMARK H PARENT 21 20 31 22 28 24 15 32 13 34 9 37 11 39
REMARK Flexibility Score: inf
ROOT
ATOM      1  O   UNL     1     -24.177  24.782 -30.561  1.00  0.00    -0.454 OA
ENDROOT
BRANCH   1   2
ATOM      2  C   UNL     1     -24.306  25.407 -31.808  1.00  0.00     0.214 A 
ATOM      3  C   UNL     1     -25.296  25.025 -32.731  1.00  0.00     0.180 A 
ATOM      4  O   UNL     1     -25.309  25.567 -33.943  1.00  0.00    -0.452 OA
ATOM      5  C   UNL     1     -23.410  26.426 -32.153  1.00  0.00     0.239 A 
ATOM      6  C   UNL     1     -24.463  26.516 -34.326  1.00  0.00     0.146 A 
ATOM      7  O   UNL     1     -22.514  26.739 -31.327  1.00  0.00    -0.285 OA
ATOM      8  C   UNL     1     -23.495  27.036 -33.427  1.00  0.00     0.111 A 
ATOM      9  C   UNL     1     -24.546  26.996 -35.636  1.00  0.00     0.094 A 
ATOM     10  C   UNL     1     -22.650  28.096 -33.876  1.00  0.00     0.134 A 
ATOM     11  C   UNL     1     -23.678  27.990 -36.082  1.00  0.00     0.123 A 
ATOM     12  C   UNL     1     -22.735  28.532 -35.204  1.00  0.00     0.093 A 
BRANCH   3  13
ATOM     13  C   UNL     1     -26.341  24.034 -32.399  1.00  0.00     0.021 A 
ATOM     14  C   UNL     1     -26.864  23.941 -31.097  1.00  0.00     0.016 A 
ATOM     15  C   UNL     1     -27.854  23.000 -30.799  1.00  0.00     0.047 A 
ATOM     16  C   UNL     1     -28.345  22.154 -31.799  1.00  0.00     0.115 A 
ATOM     17  C   UNL     1     -26.855  23.199 -33.405  1.00  0.00     0.016 A 
ATOM     18  C   UNL     1     -27.846  22.259 -33.105  1.00  0.00     0.047 A 
BRANCH  16  19
ATOM     19  O   UNL     1     -29.328  21.218 -31.487  1.00  0.00    -0.508 OA
ATOM     20  H   UNL     1     -30.310  21.408 -31.653  1.00  0.00     0.293 HD
ENDBRANCH  16  19
ENDBRANCH   3  13
BRANCH  10  21
ATOM     21  O   UNL     1     -21.737  28.766 -33.055  1.00  0.00    -0.507 OA
ATOM     22  H   UNL     1     -21.936  29.612 -32.545  1.00  0.00     0.293 HD
ENDBRANCH  10  21
BRANCH  11  23
ATOM     23  O   UNL     1     -23.765  28.440 -37.397  1.00  0.00    -0.508 OA
ATOM     24  H   UNL     1     -22.951  28.475 -38.000  1.00  0.00     0.293 HD
ENDBRANCH  11  23
ENDBRANCH   1   2
BRANCH   1  25
ATOM     25  C   UNL     1     -23.210  23.757 -30.299  1.00  0.00     0.339 C 
ATOM     26  C   UNL     1     -21.894  24.376 -29.780  1.00  0.00     0.214 C 
ATOM     27  O   UNL     1     -23.726  22.792 -29.396  1.00  0.00    -0.332 OA
ATOM     28  C   UNL     1     -22.069  24.932 -28.356  1.00  0.00     0.180 C 
ATOM     29  C   UNL     1     -24.039  23.372 -28.140  1.00  0.00     0.179 C 
ATOM     30  C   UNL     1     -22.762  23.900 -27.444  1.00  0.00     0.177 C 
BRANCH  26  31
ATOM     31  O   UNL     1     -20.878  23.405 -29.780  1.00  0.00    -0.384 OA
ATOM     32  H   UNL     1     -21.233  22.615 -30.266  1.00  0.00     0.211 HD
ENDBRANCH  26  31
BRANCH  28  33
ATOM     33  O   UNL     1     -22.823  26.118 -28.408  1.00  0.00    -0.387 OA
ATOM     34  H   UNL     1     -23.463  26.087 -27.649  1.00  0.00     0.211 HD
ENDBRANCH  28  33
BRANCH  29  35
ATOM     35  C   UNL     1     -24.786  22.341 -27.277  1.00  0.00     0.191 C 
BRANCH  35  36
ATOM     36  O   UNL     1     -24.698  22.654 -25.911  1.00  0.00    -0.394 OA
ATOM     37  H   UNL     1     -24.879  21.815 -25.412  1.00  0.00     0.210 HD
ENDBRANCH  35  36
ENDBRANCH  29  35
BRANCH  30  38
ATOM     38  O   UNL     1     -21.869  22.846 -27.180  1.00  0.00    -0.387 OA
ATOM     39  H   UNL     1     -21.221  22.814 -27.932  1.00  0.00     0.211 HD
ENDBRANCH  30  38
ENDBRANCH   1  25
TORSDOF 11
ENDMDL
