MODEL 1
REMARK VINA RESULT:     5.816      0.000      0.000
REMARK INTER + INTRA:           8.069
REMARK INTER:                   9.555
REMARK INTRA:                  -1.487
REMARK UNBOUND:                -1.487
REMARK SMILES C[C@@H]1O[C@H](OC[C@H]2O[C@@H](Oc3c(-c4ccc(O)c(O)c4)oc4cc(O)cc(O)c4c3=O)[C@@H](O)[C@@H](O)[C@H]2O)[C@H](O)[C@H](O)[C@H]1O
REMARK SMILES IDX 7 1 36 2 34 3 32 4 9 5 8 6 6 7 5 8 4 9 1 10 2 11 42 12 3 13
REMARK SMILES IDX 40 14 38 15 43 16 41 18 39 20 37 22 35 24 10 26 11 27 12 28
REMARK SMILES IDX 30 29 21 30 29 31 31 32 22 33 27 34 23 35 26 36 24 37 13 38
REMARK SMILES IDX 20 39 14 40 18 41 15 42 16 43 19 44 17 46 28 48 25 50 33 52
REMARK H PARENT 43 17 41 19 39 21 37 23 35 25 19 45 17 47 28 49 25 51 33 53
REMARK Flexibility Score: inf
ROOT
ATOM      1  C   UNL     1     123.556 115.513 119.705  1.00  0.00     0.180 C 
ATOM      2  C   UNL     1     123.549 114.003 119.176  1.00  0.00     0.177 C 
ATOM      3  C   UNL     1     122.104 113.342 119.116  1.00  0.00     0.180 C 
ATOM      4  C   UNL     1     121.010 114.294 119.679  1.00  0.00     0.214 C 
ATOM      5  C   UNL     1     121.661 114.830 121.002  1.00  0.00     0.339 C 
ATOM      6  O   UNL     1     122.486 115.943 120.664  1.00  0.00    -0.332 OA
ENDROOT
BRANCH   1   7
ATOM      7  C   UNL     1     123.808 116.624 118.608  1.00  0.00     0.198 C 
BRANCH   7   8
ATOM      8  O   UNL     1     124.959 117.447 119.000  1.00  0.00    -0.347 OA
BRANCH   8   9
ATOM      9  C   UNL     1     126.254 116.927 118.684  1.00  0.00     0.281 C 
ATOM     10  C   UNL     1     126.265 119.988 119.133  1.00  0.00     0.041 C 
ATOM     11  C   UNL     1     127.363 119.051 118.573  1.00  0.00     0.150 C 
ATOM     12  C   UNL     1     128.381 118.743 119.687  1.00  0.00     0.174 C 
ATOM     13  O   UNL     1     126.906 117.886 117.876  1.00  0.00    -0.344 OA
ATOM     14  C   UNL     1     127.776 117.763 120.710  1.00  0.00     0.179 C 
ATOM     15  C   UNL     1     127.121 116.545 120.019  1.00  0.00     0.202 C 
BRANCH  12  16
ATOM     16  O   UNL     1     129.554 118.175 119.152  1.00  0.00    -0.388 OA
ATOM     17  H   UNL     1     130.215 118.055 119.894  1.00  0.00     0.211 HD
ENDBRANCH  12  16
BRANCH  14  18
ATOM     18  O   UNL     1     126.903 118.395 121.605  1.00  0.00    -0.387 OA
ATOM     19  H   UNL     1     126.071 118.607 121.113  1.00  0.00     0.211 HD
ENDBRANCH  14  18
BRANCH  15  20
ATOM     20  O   UNL     1     126.369 115.834 120.959  1.00  0.00    -0.385 OA
ATOM     21  H   UNL     1     125.810 115.158 120.494  1.00  0.00     0.211 HD
ENDBRANCH  15  20
ENDBRANCH   8   9
ENDBRANCH   7   8
ENDBRANCH   1   7
BRANCH   2  22
ATOM     22  O   UNL     1     124.315 113.882 118.005  1.00  0.00    -0.387 OA
ATOM     23  H   UNL     1     123.789 114.306 117.271  1.00  0.00     0.211 HD
ENDBRANCH   2  22
BRANCH   3  24
ATOM     24  O   UNL     1     121.790 112.779 117.875  1.00  0.00    -0.387 OA
ATOM     25  H   UNL     1     122.637 112.467 117.459  1.00  0.00     0.211 HD
ENDBRANCH   3  24
BRANCH   5  26
ATOM     26  O   UNL     1     120.819 114.596 122.317  1.00  0.00    -0.454 OA
BRANCH  26  27
ATOM     27  C   UNL     1     119.476 114.221 121.911  1.00  0.00     0.214 A 
ATOM     28  C   UNL     1     118.338 115.219 121.885  1.00  0.00     0.180 A 
ATOM     29  C   UNL     1     119.075 112.835 122.025  1.00  0.00     0.239 A 
ATOM     30  O   UNL     1     117.101 114.784 121.660  1.00  0.00    -0.452 OA
ATOM     31  C   UNL     1     117.695 112.494 121.845  1.00  0.00     0.111 A 
ATOM     32  O   UNL     1     119.918 111.910 122.199  1.00  0.00    -0.285 OA
ATOM     33  C   UNL     1     116.771 113.531 121.621  1.00  0.00     0.146 A 
ATOM     34  C   UNL     1     117.189 111.151 121.816  1.00  0.00     0.134 A 
ATOM     35  C   UNL     1     115.424 113.259 121.344  1.00  0.00     0.094 A 
ATOM     36  C   UNL     1     115.773 110.945 121.796  1.00  0.00     0.093 A 
ATOM     37  C   UNL     1     114.920 111.993 121.479  1.00  0.00     0.123 A 
BRANCH  28  38
ATOM     38  C   UNL     1     118.392 116.749 121.830  1.00  0.00     0.025 A 
ATOM     39  C   UNL     1     117.052 117.177 121.661  1.00  0.00     0.062 A 
ATOM     40  C   UNL     1     119.305 117.283 120.942  1.00  0.00     0.016 A 
ATOM     41  C   UNL     1     116.708 118.069 120.596  1.00  0.00     0.158 A 
ATOM     42  C   UNL     1     119.010 118.146 119.881  1.00  0.00     0.051 A 
ATOM     43  C   UNL     1     117.676 118.473 119.667  1.00  0.00     0.157 A 
BRANCH  41  44
ATOM     44  O   UNL     1     115.396 118.532 120.504  1.00  0.00    -0.504 OA
ATOM     45  H   UNL     1     115.212 119.517 120.348  1.00  0.00     0.293 HD
ENDBRANCH  41  44
BRANCH  43  46
ATOM     46  O   UNL     1     117.308 119.180 118.503  1.00  0.00    -0.504 OA
ATOM     47  H   UNL     1     118.003 119.620 117.914  1.00  0.00     0.293 HD
ENDBRANCH  43  46
ENDBRANCH  28  38
BRANCH  34  48
ATOM     48  O   UNL     1     118.030 110.027 121.726  1.00  0.00    -0.507 OA
ATOM     49  H   UNL     1     119.028 110.177 121.913  1.00  0.00     0.293 HD
ENDBRANCH  34  48
BRANCH  37  50
ATOM     50  O   UNL     1     113.548 111.765 121.298  1.00  0.00    -0.508 OA
ATOM     51  H   UNL     1     113.151 110.906 120.921  1.00  0.00     0.293 HD
ENDBRANCH  37  50
ENDBRANCH  26  27
ENDBRANCH   5  26
BRANCH   4  52
ATOM     52  O   UNL     1     120.768 115.337 118.778  1.00  0.00    -0.384 OA
ATOM     53  H   UNL     1     119.940 115.808 119.077  1.00  0.00     0.211 HD
ENDBRANCH   4  52
TORSDOF 16
ENDMDL
MODEL 2
REMARK VINA RESULT:     7.604      2.850      8.379
REMARK INTER + INTRA:          11.008
REMARK INTER:                  10.895
REMARK INTRA:                   0.113
REMARK UNBOUND:                -1.487
REMARK SMILES C[C@@H]1O[C@H](OC[C@H]2O[C@@H](Oc3c(-c4ccc(O)c(O)c4)oc4cc(O)cc(O)c4c3=O)[C@@H](O)[C@@H](O)[C@H]2O)[C@H](O)[C@H](O)[C@H]1O
REMARK SMILES IDX 7 1 36 2 34 3 32 4 9 5 8 6 6 7 5 8 4 9 1 10 2 11 42 12 3 13
REMARK SMILES IDX 40 14 38 15 43 16 41 18 39 20 37 22 35 24 10 26 11 27 12 28
REMARK SMILES IDX 30 29 21 30 29 31 31 32 22 33 27 34 23 35 26 36 24 37 13 38
REMARK SMILES IDX 20 39 14 40 18 41 15 42 16 43 19 44 17 46 28 48 25 50 33 52
REMARK H PARENT 43 17 41 19 39 21 37 23 35 25 19 45 17 47 28 49 25 51 33 53
REMARK Flexibility Score: inf
ROOT
ATOM      1  C   UNL     1     115.538 115.831 120.459  1.00  0.00     0.180 C 
ATOM      2  C   UNL     1     115.136 114.444 119.770  1.00  0.00     0.177 C 
ATOM      3  C   UNL     1     115.134 113.203 120.762  1.00  0.00     0.180 C 
ATOM      4  C   UNL     1     115.618 113.600 122.185  1.00  0.00     0.214 C 
ATOM      5  C   UNL     1     116.891 114.468 121.891  1.00  0.00     0.339 C 
ATOM      6  O   UNL     1     116.461 115.804 121.641  1.00  0.00    -0.332 OA
ENDROOT
BRANCH   1   7
ATOM      7  C   UNL     1     114.353 116.852 120.693  1.00  0.00     0.198 C 
BRANCH   7   8
ATOM      8  O   UNL     1     114.793 118.205 120.332  1.00  0.00    -0.347 OA
BRANCH   8   9
ATOM      9  C   UNL     1     116.034 118.645 120.894  1.00  0.00     0.281 C 
ATOM     10  C   UNL     1     116.300 117.749 117.945  1.00  0.00     0.041 C 
ATOM     11  C   UNL     1     117.387 118.086 118.995  1.00  0.00     0.150 C 
ATOM     12  C   UNL     1     117.898 119.519 118.752  1.00  0.00     0.174 C 
ATOM     13  O   UNL     1     117.051 117.822 120.362  1.00  0.00    -0.344 OA
ATOM     14  C   UNL     1     116.846 120.548 119.208  1.00  0.00     0.179 C 
ATOM     15  C   UNL     1     116.316 120.236 120.626  1.00  0.00     0.202 C 
BRANCH  12  16
ATOM     16  O   UNL     1     119.095 119.751 119.457  1.00  0.00    -0.388 OA
ATOM     17  H   UNL     1     118.934 120.481 120.122  1.00  0.00     0.211 HD
ENDBRANCH  12  16
BRANCH  14  18
ATOM     18  O   UNL     1     115.808 120.699 118.279  1.00  0.00    -0.387 OA
ATOM     19  H   UNL     1     115.902 121.593 117.866  1.00  0.00     0.211 HD
ENDBRANCH  14  18
BRANCH  15  20
ATOM     20  O   UNL     1     115.193 121.028 120.882  1.00  0.00    -0.385 OA
ATOM     21  H   UNL     1     114.509 120.870 120.180  1.00  0.00     0.211 HD
ENDBRANCH  15  20
ENDBRANCH   8   9
ENDBRANCH   7   8
ENDBRANCH   1   7
BRANCH   2  22
ATOM     22  O   UNL     1     113.977 114.594 118.990  1.00  0.00    -0.387 OA
ATOM     23  H   UNL     1     114.161 114.157 118.112  1.00  0.00     0.211 HD
ENDBRANCH   2  22
BRANCH   3  24
ATOM     24  O   UNL     1     113.944 112.467 120.746  1.00  0.00    -0.387 OA
ATOM     25  H   UNL     1     114.108 111.631 120.235  1.00  0.00     0.211 HD
ENDBRANCH   3  24
BRANCH   5  26
ATOM     26  O   UNL     1     118.223 113.979 122.584  1.00  0.00    -0.454 OA
BRANCH  26  27
ATOM     27  C   UNL     1     119.242 113.895 121.554  1.00  0.00     0.214 A 
ATOM     28  C   UNL     1     119.934 112.592 121.215  1.00  0.00     0.180 A 
ATOM     29  C   UNL     1     119.979 115.090 121.203  1.00  0.00     0.239 A 
ATOM     30  O   UNL     1     120.968 112.607 120.377  1.00  0.00    -0.452 OA
ATOM     31  C   UNL     1     121.132 114.974 120.360  1.00  0.00     0.111 A 
ATOM     32  O   UNL     1     119.588 116.240 121.553  1.00  0.00    -0.285 OA
ATOM     33  C   UNL     1     121.538 113.691 119.951  1.00  0.00     0.146 A 
ATOM     34  C   UNL     1     121.875 116.089 119.845  1.00  0.00     0.134 A 
ATOM     35  C   UNL     1     122.598 113.514 119.051  1.00  0.00     0.094 A 
ATOM     36  C   UNL     1     123.103 115.841 119.152  1.00  0.00     0.093 A 
ATOM     37  C   UNL     1     123.401 114.564 118.696  1.00  0.00     0.123 A 
BRANCH  28  38
ATOM     38  C   UNL     1     119.480 111.154 121.488  1.00  0.00     0.025 A 
ATOM     39  C   UNL     1     118.638 110.802 120.404  1.00  0.00     0.062 A 
ATOM     40  C   UNL     1     118.962 110.920 122.746  1.00  0.00     0.016 A 
ATOM     41  C   UNL     1     117.326 110.284 120.648  1.00  0.00     0.158 A 
ATOM     42  C   UNL     1     117.683 110.429 123.029  1.00  0.00     0.051 A 
ATOM     43  C   UNL     1     116.833 110.187 121.956  1.00  0.00     0.157 A 
BRANCH  41  44
ATOM     44  O   UNL     1     116.553 109.875 119.563  1.00  0.00    -0.504 OA
ATOM     45  H   UNL     1     116.881 110.028 118.616  1.00  0.00     0.293 HD
ENDBRANCH  41  44
BRANCH  43  46
ATOM     46  O   UNL     1     115.478 109.876 122.194  1.00  0.00    -0.504 OA
ATOM     47  H   UNL     1     115.156 109.601 123.112  1.00  0.00     0.293 HD
ENDBRANCH  43  46
ENDBRANCH  28  38
BRANCH  34  48
ATOM     48  O   UNL     1     121.408 117.413 119.926  1.00  0.00    -0.507 OA
ATOM     49  H   UNL     1     121.755 117.981 120.708  1.00  0.00     0.293 HD
ENDBRANCH  34  48
BRANCH  37  50
ATOM     50  O   UNL     1     124.517 114.344 117.877  1.00  0.00    -0.508 OA
ATOM     51  H   UNL     1     125.167 113.568 117.984  1.00  0.00     0.293 HD
ENDBRANCH  37  50
ENDBRANCH  26  27
ENDBRANCH   5  26
BRANCH   4  52
ATOM     52  O   UNL     1     114.635 114.352 122.838  1.00  0.00    -0.384 OA
ATOM     53  H   UNL     1     113.960 113.715 123.203  1.00  0.00     0.211 HD
ENDBRANCH   4  52
TORSDOF 16
ENDMDL
MODEL 3
REMARK VINA RESULT:     8.750      1.214      1.749
REMARK INTER + INTRA:          12.889
REMARK INTER:                  13.340
REMARK INTRA:                  -0.451
REMARK UNBOUND:                -1.487
REMARK SMILES C[C@@H]1O[C@H](OC[C@H]2O[C@@H](Oc3c(-c4ccc(O)c(O)c4)oc4cc(O)cc(O)c4c3=O)[C@@H](O)[C@@H](O)[C@H]2O)[C@H](O)[C@H](O)[C@H]1O
REMARK SMILES IDX 7 1 36 2 34 3 32 4 9 5 8 6 6 7 5 8 4 9 1 10 2 11 42 12 3 13
REMARK SMILES IDX 40 14 38 15 43 16 41 18 39 20 37 22 35 24 10 26 11 27 12 28
REMARK SMILES IDX 30 29 21 30 29 31 31 32 22 33 27 34 23 35 26 36 24 37 13 38
REMARK SMILES IDX 20 39 14 40 18 41 15 42 16 43 19 44 17 46 28 48 25 50 33 52
REMARK H PARENT 43 17 41 19 39 21 37 23 35 25 19 45 17 47 28 49 25 51 33 53
REMARK Flexibility Score: inf
ROOT
ATOM      1  C   UNL     1     122.947 115.884 119.890  1.00  0.00     0.180 C 
ATOM      2  C   UNL     1     122.658 114.312 119.825  1.00  0.00     0.177 C 
ATOM      3  C   UNL     1     121.204 113.941 119.300  1.00  0.00     0.180 C 
ATOM      4  C   UNL     1     120.339 115.208 119.048  1.00  0.00     0.214 C 
ATOM      5  C   UNL     1     120.599 116.069 120.333  1.00  0.00     0.339 C 
ATOM      6  O   UNL     1     121.795 116.817 120.123  1.00  0.00    -0.332 OA
ENDROOT
BRANCH   1   7
ATOM      7  C   UNL     1     123.914 116.453 118.776  1.00  0.00     0.198 C 
BRANCH   7   8
ATOM      8  O   UNL     1     125.154 116.931 119.399  1.00  0.00    -0.347 OA
BRANCH   8   9
ATOM      9  C   UNL     1     126.343 116.843 118.608  1.00  0.00     0.281 C 
ATOM     10  C   UNL     1     125.836 119.692 119.702  1.00  0.00     0.041 C 
ATOM     11  C   UNL     1     126.853 119.186 118.649  1.00  0.00     0.150 C 
ATOM     12  C   UNL     1     128.232 119.025 119.316  1.00  0.00     0.174 C 
ATOM     13  O   UNL     1     126.452 118.048 117.878  1.00  0.00    -0.344 OA
ATOM     14  C   UNL     1     128.245 117.783 120.228  1.00  0.00     0.179 C 
ATOM     15  C   UNL     1     127.676 116.538 119.508  1.00  0.00     0.202 C 
BRANCH  12  16
ATOM     16  O   UNL     1     129.244 118.887 118.346  1.00  0.00    -0.388 OA
ATOM     17  H   UNL     1     129.991 119.512 118.577  1.00  0.00     0.211 HD
ENDBRANCH  12  16
BRANCH  14  18
ATOM     18  O   UNL     1     127.615 118.016 121.457  1.00  0.00    -0.387 OA
ATOM     19  H   UNL     1     126.709 117.620 121.410  1.00  0.00     0.211 HD
ENDBRANCH  14  18
BRANCH  15  20
ATOM     20  O   UNL     1     127.467 115.522 120.446  1.00  0.00    -0.385 OA
ATOM     21  H   UNL     1     126.977 114.772 120.019  1.00  0.00     0.211 HD
ENDBRANCH  15  20
ENDBRANCH   8   9
ENDBRANCH   7   8
ENDBRANCH   1   7
BRANCH   2  22
ATOM     22  O   UNL     1     123.716 113.637 119.194  1.00  0.00    -0.387 OA
ATOM     23  H   UNL     1     123.306 112.937 118.614  1.00  0.00     0.211 HD
ENDBRANCH   2  22
BRANCH   3  24
ATOM     24  O   UNL     1     121.201 113.025 118.242  1.00  0.00    -0.387 OA
ATOM     25  H   UNL     1     120.312 113.073 117.801  1.00  0.00     0.211 HD
ENDBRANCH   3  24
BRANCH   5  26
ATOM     26  O   UNL     1     119.311 116.486 121.145  1.00  0.00    -0.454 OA
BRANCH  26  27
ATOM     27  C   UNL     1     118.412 115.347 121.147  1.00  0.00     0.214 A 
ATOM     28  C   UNL     1     116.923 115.500 120.919  1.00  0.00     0.180 A 
ATOM     29  C   UNL     1     118.803 114.150 121.859  1.00  0.00     0.239 A 
ATOM     30  O   UNL     1     116.130 114.445 121.089  1.00  0.00    -0.452 OA
ATOM     31  C   UNL     1     117.837 113.111 122.058  1.00  0.00     0.111 A 
ATOM     32  O   UNL     1     119.994 113.961 122.240  1.00  0.00    -0.285 OA
ATOM     33  C   UNL     1     116.523 113.321 121.601  1.00  0.00     0.146 A 
ATOM     34  C   UNL     1     118.130 111.832 122.641  1.00  0.00     0.134 A 
ATOM     35  C   UNL     1     115.555 112.309 121.679  1.00  0.00     0.094 A 
ATOM     36  C   UNL     1     117.047 110.943 122.938  1.00  0.00     0.093 A 
ATOM     37  C   UNL     1     115.794 111.159 122.380  1.00  0.00     0.123 A 
BRANCH  28  38
ATOM     38  C   UNL     1     116.157 116.652 120.260  1.00  0.00     0.025 A 
ATOM     39  C   UNL     1     117.142 117.492 119.684  1.00  0.00     0.062 A 
ATOM     40  C   UNL     1     115.226 117.285 121.059  1.00  0.00     0.016 A 
ATOM     41  C   UNL     1     117.158 118.892 119.979  1.00  0.00     0.158 A 
ATOM     42  C   UNL     1     115.212 118.646 121.382  1.00  0.00     0.051 A 
ATOM     43  C   UNL     1     116.246 119.436 120.893  1.00  0.00     0.157 A 
BRANCH  41  44
ATOM     44  O   UNL     1     118.092 119.703 119.336  1.00  0.00    -0.504 OA
ATOM     45  H   UNL     1     118.418 119.468 118.406  1.00  0.00     0.293 HD
ENDBRANCH  41  44
BRANCH  43  46
ATOM     46  O   UNL     1     116.384 120.765 121.345  1.00  0.00    -0.504 OA
ATOM     47  H   UNL     1     115.604 121.409 121.330  1.00  0.00     0.293 HD
ENDBRANCH  43  46
ENDBRANCH  28  38
BRANCH  34  48
ATOM     48  O   UNL     1     119.444 111.383 122.862  1.00  0.00    -0.507 OA
ATOM     49  H   UNL     1     120.010 111.915 123.533  1.00  0.00     0.293 HD
ENDBRANCH  34  48
BRANCH  37  50
ATOM     50  O   UNL     1     114.775 110.208 122.531  1.00  0.00    -0.508 OA
ATOM     51  H   UNL     1     114.289 110.018 123.405  1.00  0.00     0.293 HD
ENDBRANCH  37  50
ENDBRANCH  26  27
ENDBRANCH   5  26
BRANCH   4  52
ATOM     52  O   UNL     1     120.780 115.873 117.898  1.00  0.00    -0.384 OA
ATOM     53  H   UNL     1     120.004 116.377 117.525  1.00  0.00     0.211 HD
ENDBRANCH   4  52
TORSDOF 16
ENDMDL
