MODEL 1
REMARK VINA RESULT:    -7.873      0.000      0.000
REMARK INTER + INTRA:          -9.334
REMARK INTER:                  -9.484
REMARK INTRA:                   0.151
REMARK UNBOUND:                 0.151
REMARK SMILES O=c1c(O)c(-c2ccc(O)cc2O)oc2cc(O)cc(O)c12
REMARK SMILES IDX 5 1 3 2 2 3 1 4 22 5 20 6 19 7 17 8 16 9 15 10 14 11 6 12
REMARK SMILES IDX 8 13 7 14 9 15 11 16 12 17 10 18 13 20 4 22 21 24 18 26
REMARK H PARENT 10 19 13 21 4 23 21 25 18 27
REMARK Flexibility Score: inf
ROOT
ATOM      1  C   UNL     1      15.572   7.273  16.141  1.00  0.00     0.184 A 
ATOM      2  C   UNL     1      14.394   6.853  15.501  1.00  0.00     0.208 A 
ATOM      3  C   UNL     1      14.307   5.530  15.041  1.00  0.00     0.238 A 
ATOM      4  O   UNL     1      13.256   5.141  14.463  1.00  0.00    -0.285 OA
ATOM      5  C   UNL     1      15.395   4.653  15.236  1.00  0.00     0.111 A 
ATOM      6  C   UNL     1      15.388   3.303  14.807  1.00  0.00     0.134 A 
ATOM      7  C   UNL     1      16.509   2.493  15.042  1.00  0.00     0.093 A 
ATOM      8  C   UNL     1      17.633   3.004  15.695  1.00  0.00     0.123 A 
ATOM      9  C   UNL     1      17.646   4.335  16.123  1.00  0.00     0.094 A 
ATOM     10  C   UNL     1      16.539   5.159  15.897  1.00  0.00     0.146 A 
ATOM     11  O   UNL     1      16.578   6.421  16.311  1.00  0.00    -0.451 OA
ENDROOT
BRANCH   1  12
ATOM     12  C   UNL     1      15.728   8.660  16.630  1.00  0.00     0.063 A 
ATOM     13  C   UNL     1      15.230  11.029  16.376  1.00  0.00     0.047 A 
ATOM     14  C   UNL     1      15.057   9.705  15.969  1.00  0.00     0.020 A 
ATOM     15  C   UNL     1      16.083  11.330  17.444  1.00  0.00     0.119 A 
ATOM     16  C   UNL     1      16.757  10.300  18.105  1.00  0.00     0.093 A 
ATOM     17  C   UNL     1      16.584   8.967  17.715  1.00  0.00     0.130 A 
BRANCH  15  18
ATOM     18  O   UNL     1      16.267  12.648  17.855  1.00  0.00    -0.508 OA
ATOM     19  H   UNL     1      16.258  13.416  17.193  1.00  0.00     0.293 HD
ENDBRANCH  15  18
BRANCH  17  20
ATOM     20  O   UNL     1      17.255   7.976  18.434  1.00  0.00    -0.507 OA
ATOM     21  H   UNL     1      17.582   8.107  19.382  1.00  0.00     0.293 HD
ENDBRANCH  17  20
ENDBRANCH   1  12
BRANCH   2  22
ATOM     22  O   UNL     1      13.326   7.740  15.344  1.00  0.00    -0.502 OA
ATOM     23  H   UNL     1      13.462   8.740  15.256  1.00  0.00     0.293 HD
ENDBRANCH   2  22
BRANCH   6  24
ATOM     24  O   UNL     1      14.281   2.764  14.151  1.00  0.00    -0.507 OA
ATOM     25  H   UNL     1      13.762   1.983  14.535  1.00  0.00     0.293 HD
ENDBRANCH   6  24
BRANCH   8  26
ATOM     26  O   UNL     1      18.732   2.177  15.917  1.00  0.00    -0.508 OA
ATOM     27  H   UNL     1      19.360   1.917  15.165  1.00  0.00     0.293 HD
ENDBRANCH   8  26
TORSDOF 6
ENDMDL
MODEL 2
REMARK VINA RESULT:    -7.128      1.442      7.212
REMARK INTER + INTRA:          -8.436
REMARK INTER:                  -8.511
REMARK INTRA:                   0.075
REMARK UNBOUND:                 0.151
REMARK SMILES O=c1c(O)c(-c2ccc(O)cc2O)oc2cc(O)cc(O)c12
REMARK SMILES IDX 5 1 3 2 2 3 1 4 22 5 20 6 19 7 17 8 16 9 15 10 14 11 6 12
REMARK SMILES IDX 8 13 7 14 9 15 11 16 12 17 10 18 13 20 4 22 21 24 18 26
REMARK H PARENT 10 19 13 21 4 23 21 25 18 27
REMARK Flexibility Score: inf
ROOT
ATOM      1  C   UNL     1      15.640   7.658  16.347  1.00  0.00     0.184 A 
ATOM      2  C   UNL     1      16.554   8.084  17.327  1.00  0.00     0.208 A 
ATOM      3  C   UNL     1      16.587   9.443  17.677  1.00  0.00     0.238 A 
ATOM      4  O   UNL     1      17.405   9.838  18.552  1.00  0.00    -0.285 OA
ATOM      5  C   UNL     1      15.704  10.346  17.048  1.00  0.00     0.111 A 
ATOM      6  C   UNL     1      15.670  11.730  17.345  1.00  0.00     0.134 A 
ATOM      7  C   UNL     1      14.760  12.563  16.678  1.00  0.00     0.093 A 
ATOM      8  C   UNL     1      13.884  12.040  15.723  1.00  0.00     0.123 A 
ATOM      9  C   UNL     1      13.911  10.674  15.426  1.00  0.00     0.094 A 
ATOM     10  C   UNL     1      14.813   9.828  16.078  1.00  0.00     0.146 A 
ATOM     11  O   UNL     1      14.820   8.534  15.776  1.00  0.00    -0.451 OA
ENDROOT
BRANCH   1  12
ATOM     12  C   UNL     1      15.572   6.243  15.924  1.00  0.00     0.063 A 
ATOM     13  C   UNL     1      16.722   4.153  15.440  1.00  0.00     0.047 A 
ATOM     14  C   UNL     1      16.750   5.476  15.887  1.00  0.00     0.020 A 
ATOM     15  C   UNL     1      15.519   3.581  15.015  1.00  0.00     0.119 A 
ATOM     16  C   UNL     1      14.343   4.335  15.045  1.00  0.00     0.093 A 
ATOM     17  C   UNL     1      14.355   5.658  15.501  1.00  0.00     0.130 A 
BRANCH  15  18
ATOM     18  O   UNL     1      15.480   2.264  14.561  1.00  0.00    -0.508 OA
ATOM     19  H   UNL     1      14.604   1.766  14.455  1.00  0.00     0.293 HD
ENDBRANCH  15  18
BRANCH  17  20
ATOM     20  O   UNL     1      13.144   6.353  15.542  1.00  0.00    -0.507 OA
ATOM     21  H   UNL     1      12.553   6.481  14.732  1.00  0.00     0.293 HD
ENDBRANCH  17  20
ENDBRANCH   1  12
BRANCH   2  22
ATOM     22  O   UNL     1      17.399   7.161  17.946  1.00  0.00    -0.502 OA
ATOM     23  H   UNL     1      18.129   7.442  18.590  1.00  0.00     0.293 HD
ENDBRANCH   2  22
BRANCH   6  24
ATOM     24  O   UNL     1      16.533  12.282  18.293  1.00  0.00    -0.507 OA
ATOM     25  H   UNL     1      17.297  11.750  18.692  1.00  0.00     0.293 HD
ENDBRANCH   6  24
BRANCH   8  26
ATOM     26  O   UNL     1      12.988  12.889  15.076  1.00  0.00    -0.508 OA
ATOM     27  H   UNL     1      12.467  12.588  14.261  1.00  0.00     0.293 HD
ENDBRANCH   8  26
TORSDOF 6
ENDMDL
MODEL 3
REMARK VINA RESULT:    -7.023      1.429      7.206
REMARK INTER + INTRA:          -8.309
REMARK INTER:                  -8.393
REMARK INTRA:                   0.084
REMARK UNBOUND:                 0.151
REMARK SMILES O=c1c(O)c(-c2ccc(O)cc2O)oc2cc(O)cc(O)c12
REMARK SMILES IDX 5 1 3 2 2 3 1 4 22 5 20 6 19 7 17 8 16 9 15 10 14 11 6 12
REMARK SMILES IDX 8 13 7 14 9 15 11 16 12 17 10 18 13 20 4 22 21 24 18 26
REMARK H PARENT 10 19 13 21 4 23 21 25 18 27
REMARK Flexibility Score: inf
ROOT
ATOM      1  C   UNL     1      15.541   7.573  16.262  1.00  0.00     0.184 A 
ATOM      2  C   UNL     1      16.482   7.956  17.233  1.00  0.00     0.208 A 
ATOM      3  C   UNL     1      16.548   9.304  17.620  1.00  0.00     0.238 A 
ATOM      4  O   UNL     1      17.390   9.660  18.489  1.00  0.00    -0.285 OA
ATOM      5  C   UNL     1      15.668  10.239  17.035  1.00  0.00     0.111 A 
ATOM      6  C   UNL     1      15.666  11.615  17.371  1.00  0.00     0.134 A 
ATOM      7  C   UNL     1      14.757  12.481  16.747  1.00  0.00     0.093 A 
ATOM      8  C   UNL     1      13.852  12.002  15.796  1.00  0.00     0.123 A 
ATOM      9  C   UNL     1      13.848  10.644  15.461  1.00  0.00     0.094 A 
ATOM     10  C   UNL     1      14.748   9.764  16.071  1.00  0.00     0.146 A 
ATOM     11  O   UNL     1      14.725   8.479  15.733  1.00  0.00    -0.451 OA
ENDROOT
BRANCH   1  12
ATOM     12  C   UNL     1      15.438   6.172  15.802  1.00  0.00     0.063 A 
ATOM     13  C   UNL     1      16.539   4.072  15.250  1.00  0.00     0.047 A 
ATOM     14  C   UNL     1      16.599   5.381  15.733  1.00  0.00     0.020 A 
ATOM     15  C   UNL     1      15.319   3.537  14.821  1.00  0.00     0.119 A 
ATOM     16  C   UNL     1      14.160   4.315  14.883  1.00  0.00     0.093 A 
ATOM     17  C   UNL     1      14.205   5.625  15.375  1.00  0.00     0.130 A 
BRANCH  15  18
ATOM     18  O   UNL     1      15.248   2.235  14.333  1.00  0.00    -0.508 OA
ATOM     19  H   UNL     1      14.671   1.532  14.780  1.00  0.00     0.293 HD
ENDBRANCH  15  18
BRANCH  17  20
ATOM     20  O   UNL     1      13.010   6.345  15.446  1.00  0.00    -0.507 OA
ATOM     21  H   UNL     1      12.890   7.160  16.033  1.00  0.00     0.293 HD
ENDBRANCH  17  20
ENDBRANCH   1  12
BRANCH   2  22
ATOM     22  O   UNL     1      17.323   7.001  17.809  1.00  0.00    -0.502 OA
ATOM     23  H   UNL     1      18.253   6.813  17.454  1.00  0.00     0.293 HD
ENDBRANCH   2  22
BRANCH   6  24
ATOM     24  O   UNL     1      16.557  12.125  18.315  1.00  0.00    -0.507 OA
ATOM     25  H   UNL     1      17.432  11.659  18.528  1.00  0.00     0.293 HD
ENDBRANCH   6  24
BRANCH   8  26
ATOM     26  O   UNL     1      12.959  12.884  15.193  1.00  0.00    -0.508 OA
ATOM     27  H   UNL     1      13.281  13.694  14.676  1.00  0.00     0.293 HD
ENDBRANCH   8  26
TORSDOF 6
ENDMDL
MODEL 4
REMARK VINA RESULT:    -5.902      1.472      3.380
REMARK INTER + INTRA:          -6.959
REMARK INTER:                  -7.074
REMARK INTRA:                   0.114
REMARK UNBOUND:                 0.151
REMARK SMILES O=c1c(O)c(-c2ccc(O)cc2O)oc2cc(O)cc(O)c12
REMARK SMILES IDX 5 1 3 2 2 3 1 4 22 5 20 6 19 7 17 8 16 9 15 10 14 11 6 12
REMARK SMILES IDX 8 13 7 14 9 15 11 16 12 17 10 18 13 20 4 22 21 24 18 26
REMARK H PARENT 10 19 13 21 4 23 21 25 18 27
REMARK Flexibility Score: inf
ROOT
ATOM      1  C   UNL     1      15.427   8.463  16.393  1.00  0.00     0.184 A 
ATOM      2  C   UNL     1      16.416   8.038  17.296  1.00  0.00     0.208 A 
ATOM      3  C   UNL     1      16.798   6.687  17.298  1.00  0.00     0.238 A 
ATOM      4  O   UNL     1      17.682   6.294  18.107  1.00  0.00    -0.285 OA
ATOM      5  C   UNL     1      16.190   5.791  16.394  1.00  0.00     0.111 A 
ATOM      6  C   UNL     1      16.520   4.416  16.327  1.00  0.00     0.134 A 
ATOM      7  C   UNL     1      15.873   3.589  15.397  1.00  0.00     0.093 A 
ATOM      8  C   UNL     1      14.906   4.110  14.533  1.00  0.00     0.123 A 
ATOM      9  C   UNL     1      14.577   5.467  14.592  1.00  0.00     0.094 A 
ATOM     10  C   UNL     1      15.209   6.308  15.514  1.00  0.00     0.146 A 
ATOM     11  O   UNL     1      14.877   7.593  15.552  1.00  0.00    -0.451 OA
ENDROOT
BRANCH   1  12
ATOM     12  C   UNL     1      14.971   9.869  16.357  1.00  0.00     0.063 A 
ATOM     13  C   UNL     1      15.464  12.230  16.684  1.00  0.00     0.047 A 
ATOM     14  C   UNL     1      15.882  10.898  16.657  1.00  0.00     0.020 A 
ATOM     15  C   UNL     1      14.129  12.553  16.421  1.00  0.00     0.119 A 
ATOM     16  C   UNL     1      13.214  11.538  16.125  1.00  0.00     0.093 A 
ATOM     17  C   UNL     1      13.622  10.199  16.083  1.00  0.00     0.130 A 
BRANCH  15  18
ATOM     18  O   UNL     1      13.699  13.877  16.450  1.00  0.00    -0.508 OA
ATOM     19  H   UNL     1      14.215  14.590  16.954  1.00  0.00     0.293 HD
ENDBRANCH  15  18
BRANCH  17  20
ATOM     20  O   UNL     1      12.674   9.230  15.748  1.00  0.00    -0.507 OA
ATOM     21  H   UNL     1      12.508   8.926  14.798  1.00  0.00     0.293 HD
ENDBRANCH  17  20
ENDBRANCH   1  12
BRANCH   2  22
ATOM     22  O   UNL     1      17.014   8.956  18.164  1.00  0.00    -0.502 OA
ATOM     23  H   UNL     1      16.908   8.898  19.169  1.00  0.00     0.293 HD
ENDBRANCH   2  22
BRANCH   6  24
ATOM     24  O   UNL     1      17.480   3.866  17.177  1.00  0.00    -0.507 OA
ATOM     25  H   UNL     1      17.391   3.916  18.185  1.00  0.00     0.293 HD
ENDBRANCH   6  24
BRANCH   8  26
ATOM     26  O   UNL     1      14.279   3.267  13.617  1.00  0.00    -0.508 OA
ATOM     27  H   UNL     1      14.661   3.114  12.691  1.00  0.00     0.293 HD
ENDBRANCH   8  26
TORSDOF 6
ENDMDL
MODEL 5
REMARK VINA RESULT:    -5.522      1.538      6.508
REMARK INTER + INTRA:          -6.502
REMARK INTER:                  -6.578
REMARK INTRA:                   0.076
REMARK UNBOUND:                 0.151
REMARK SMILES O=c1c(O)c(-c2ccc(O)cc2O)oc2cc(O)cc(O)c12
REMARK SMILES IDX 5 1 3 2 2 3 1 4 22 5 20 6 19 7 17 8 16 9 15 10 14 11 6 12
REMARK SMILES IDX 8 13 7 14 9 15 11 16 12 17 10 18 13 20 4 22 21 24 18 26
REMARK H PARENT 10 19 13 21 4 23 21 25 18 27
REMARK Flexibility Score: inf
ROOT
ATOM      1  C   UNL     1      15.785   7.744  16.307  1.00  0.00     0.184 A 
ATOM      2  C   UNL     1      14.474   7.957  15.848  1.00  0.00     0.208 A 
ATOM      3  C   UNL     1      13.933   9.250  15.918  1.00  0.00     0.238 A 
ATOM      4  O   UNL     1      12.756   9.453  15.512  1.00  0.00    -0.285 OA
ATOM      5  C   UNL     1      14.714  10.304  16.436  1.00  0.00     0.111 A 
ATOM      6  C   UNL     1      14.247  11.637  16.538  1.00  0.00     0.134 A 
ATOM      7  C   UNL     1      15.087  12.630  17.062  1.00  0.00     0.093 A 
ATOM      8  C   UNL     1      16.381  12.319  17.485  1.00  0.00     0.123 A 
ATOM      9  C   UNL     1      16.849  11.005  17.386  1.00  0.00     0.094 A 
ATOM     10  C   UNL     1      16.027  10.000  16.868  1.00  0.00     0.146 A 
ATOM     11  O   UNL     1      16.495   8.759  16.787  1.00  0.00    -0.451 OA
ENDROOT
BRANCH   1  12
ATOM     12  C   UNL     1      16.401   6.400  16.276  1.00  0.00     0.063 A 
ATOM     13  C   UNL     1      16.617   4.229  15.197  1.00  0.00     0.047 A 
ATOM     14  C   UNL     1      16.092   5.523  15.221  1.00  0.00     0.020 A 
ATOM     15  C   UNL     1      17.452   3.790  16.230  1.00  0.00     0.119 A 
ATOM     16  C   UNL     1      17.763   4.653  17.284  1.00  0.00     0.093 A 
ATOM     17  C   UNL     1      17.252   5.955  17.315  1.00  0.00     0.130 A 
BRANCH  15  18
ATOM     18  O   UNL     1      17.977   2.500  16.218  1.00  0.00    -0.508 OA
ATOM     19  H   UNL     1      18.938   2.317  16.483  1.00  0.00     0.293 HD
ENDBRANCH  15  18
BRANCH  17  20
ATOM     20  O   UNL     1      17.625   6.786  18.375  1.00  0.00    -0.507 OA
ATOM     21  H   UNL     1      18.410   6.588  18.982  1.00  0.00     0.293 HD
ENDBRANCH  17  20
ENDBRANCH   1  12
BRANCH   2  22
ATOM     22  O   UNL     1      13.734   6.895  15.320  1.00  0.00    -0.502 OA
ATOM     23  H   UNL     1      13.610   6.765  14.323  1.00  0.00     0.293 HD
ENDBRANCH   2  22
BRANCH   6  24
ATOM     24  O   UNL     1      12.959  11.980  16.125  1.00  0.00    -0.507 OA
ATOM     25  H   UNL     1      12.644  11.822  15.175  1.00  0.00     0.293 HD
ENDBRANCH   6  24
BRANCH   8  26
ATOM     26  O   UNL     1      17.196  13.325  18.000  1.00  0.00    -0.508 OA
ATOM     27  H   UNL     1      18.189  13.358  17.800  1.00  0.00     0.293 HD
ENDBRANCH   8  26
TORSDOF 6
ENDMDL
