MODEL 1
REMARK VINA RESULT:    -4.996      0.000      0.000
REMARK INTER + INTRA:         -16.498
REMARK INTER:                 -12.590
REMARK INTRA:                  -3.907
REMARK UNBOUND:                -3.907
REMARK SMILES CCCCCCCCCCCCCCCCCCCCCCCCCCCC(=O)[O-]
REMARK SMILES IDX 15 1 16 2 17 3 18 4 19 5 20 6 21 7 22 8 23 9 24 10 25 11
REMARK SMILES IDX 26 12 27 13 28 14 29 15 30 16 14 17 13 18 12 19 11 20 10 21
REMARK SMILES IDX 9 22 8 23 7 24 6 25 5 26 4 27 3 28 2 29 1 30
REMARK H PARENT
REMARK Flexibility Score: inf
ROOT
ATOM      1  C   UNL     1      10.153   8.285  28.929  1.00  0.00     0.000 C 
ENDROOT
BRANCH   1   2
ATOM      2  C   UNL     1      11.136   7.674  27.915  1.00  0.00     0.000 C 
BRANCH   2   3
ATOM      3  C   UNL     1      10.679   6.302  27.395  1.00  0.00     0.000 C 
BRANCH   3   4
ATOM      4  C   UNL     1       9.827   5.541  28.422  1.00  0.00     0.000 C 
BRANCH   4   5
ATOM      5  C   UNL     1       9.024   4.370  27.813  1.00  0.00     0.000 C 
BRANCH   5   6
ATOM      6  C   UNL     1       9.889   3.128  27.538  1.00  0.00     0.000 C 
BRANCH   6   7
ATOM      7  C   UNL     1      11.099   3.039  28.486  1.00  0.00     0.000 C 
BRANCH   7   8
ATOM      8  C   UNL     1      12.442   2.977  27.735  1.00  0.00     0.000 C 
BRANCH   8   9
ATOM      9  C   UNL     1      13.457   4.059  28.147  1.00  0.00     0.000 C 
BRANCH   9  10
ATOM     10  C   UNL     1      14.358   3.613  29.311  1.00  0.00     0.000 C 
BRANCH  10  11
ATOM     11  C   UNL     1      14.153   4.469  30.573  1.00  0.00     0.000 C 
BRANCH  11  12
ATOM     12  C   UNL     1      12.813   4.176  31.271  1.00  0.00     0.006 C 
BRANCH  12  13
ATOM     13  C   UNL     1      12.859   2.891  32.117  1.00  0.00     0.053 C 
BRANCH  13  14
ATOM     14  C   UNL     1      12.165   3.014  33.445  1.00  0.00     0.041 C 
ATOM     15  O   UNL     1      12.481   3.916  34.267  1.00  0.00    -0.550 OA
ATOM     16  O   UNL     1      11.082   2.186  33.725  1.00  0.00    -0.550 OA
ENDBRANCH  13  14
ENDBRANCH  12  13
ENDBRANCH  11  12
ENDBRANCH  10  11
ENDBRANCH   9  10
ENDBRANCH   8   9
ENDBRANCH   7   8
ENDBRANCH   6   7
ENDBRANCH   5   6
ENDBRANCH   4   5
ENDBRANCH   3   4
ENDBRANCH   2   3
ENDBRANCH   1   2
BRANCH   1  17
ATOM     17  C   UNL     1       9.903   9.794  28.710  1.00  0.00     0.000 C 
BRANCH  17  18
ATOM     18  C   UNL     1       8.690  10.298  29.510  1.00  0.00     0.000 C 
BRANCH  18  19
ATOM     19  C   UNL     1       8.578   9.664  30.911  1.00  0.00     0.000 C 
BRANCH  19  20
ATOM     20  C   UNL     1       7.650  10.400  31.895  1.00  0.00     0.000 C 
BRANCH  20  21
ATOM     21  C   UNL     1       6.330  10.857  31.250  1.00  0.00     0.000 C 
BRANCH  21  22
ATOM     22  C   UNL     1       5.124  10.017  31.707  1.00  0.00    -0.000 C 
BRANCH  22  23
ATOM     23  C   UNL     1       4.181   9.648  30.548  1.00  0.00    -0.000 C 
BRANCH  23  24
ATOM     24  C   UNL     1       4.644   8.397  29.777  1.00  0.00    -0.000 C 
BRANCH  24  25
ATOM     25  C   UNL     1       5.434   8.684  28.487  1.00  0.00    -0.000 C 
BRANCH  25  26
ATOM     26  C   UNL     1       6.538   7.645  28.222  1.00  0.00    -0.000 C 
BRANCH  26  27
ATOM     27  C   UNL     1       7.204   7.823  26.847  1.00  0.00    -0.000 C 
BRANCH  27  28
ATOM     28  C   UNL     1       7.068   6.574  25.960  1.00  0.00    -0.000 C 
BRANCH  28  29
ATOM     29  C   UNL     1       7.626   6.793  24.545  1.00  0.00    -0.003 C 
ATOM     30  C   UNL     1       8.938   7.581  24.542  1.00  0.00     0.004 C 
ENDBRANCH  28  29
ENDBRANCH  27  28
ENDBRANCH  26  27
ENDBRANCH  25  26
ENDBRANCH  24  25
ENDBRANCH  23  24
ENDBRANCH  22  23
ENDBRANCH  21  22
ENDBRANCH  20  21
ENDBRANCH  19  20
ENDBRANCH  18  19
ENDBRANCH  17  18
ENDBRANCH   1  17
TORSDOF 26
ENDMDL
MODEL 2
REMARK VINA RESULT:    -4.986      1.540      2.775
REMARK INTER + INTRA:         -16.473
REMARK INTER:                 -12.715
REMARK INTRA:                  -3.758
REMARK UNBOUND:                -3.907
REMARK SMILES CCCCCCCCCCCCCCCCCCCCCCCCCCCC(=O)[O-]
REMARK SMILES IDX 15 1 16 2 17 3 18 4 19 5 20 6 21 7 22 8 23 9 24 10 25 11
REMARK SMILES IDX 26 12 27 13 28 14 29 15 30 16 14 17 13 18 12 19 11 20 10 21
REMARK SMILES IDX 9 22 8 23 7 24 6 25 5 26 4 27 3 28 2 29 1 30
REMARK H PARENT
REMARK Flexibility Score: inf
ROOT
ATOM      1  C   UNL     1       9.373   8.741  31.121  1.00  0.00     0.000 C 
ENDROOT
BRANCH   1   2
ATOM      2  C   UNL     1       9.232   8.290  29.656  1.00  0.00     0.000 C 
BRANCH   2   3
ATOM      3  C   UNL     1      10.402   8.757  28.774  1.00  0.00     0.000 C 
BRANCH   3   4
ATOM      4  C   UNL     1      11.377   7.616  28.443  1.00  0.00     0.000 C 
BRANCH   4   5
ATOM      5  C   UNL     1      11.530   7.354  26.928  1.00  0.00     0.000 C 
BRANCH   5   6
ATOM      6  C   UNL     1      12.425   6.143  26.616  1.00  0.00     0.000 C 
BRANCH   6   7
ATOM      7  C   UNL     1      13.905   6.538  26.454  1.00  0.00     0.000 C 
BRANCH   7   8
ATOM      8  C   UNL     1      14.871   5.440  26.937  1.00  0.00     0.000 C 
BRANCH   8   9
ATOM      9  C   UNL     1      14.477   4.012  26.519  1.00  0.00     0.000 C 
BRANCH   9  10
ATOM     10  C   UNL     1      14.504   3.021  27.696  1.00  0.00     0.000 C 
BRANCH  10  11
ATOM     11  C   UNL     1      14.026   3.658  29.011  1.00  0.00     0.000 C 
BRANCH  11  12
ATOM     12  C   UNL     1      12.556   3.324  29.326  1.00  0.00     0.006 C 
BRANCH  12  13
ATOM     13  C   UNL     1      12.300   3.171  30.836  1.00  0.00     0.053 C 
BRANCH  13  14
ATOM     14  C   UNL     1      11.732   1.834  31.222  1.00  0.00     0.041 C 
ATOM     15  O   UNL     1      12.483   0.864  31.515  1.00  0.00    -0.550 OA
ATOM     16  O   UNL     1      10.354   1.695  31.363  1.00  0.00    -0.550 OA
ENDBRANCH  13  14
ENDBRANCH  12  13
ENDBRANCH  11  12
ENDBRANCH  10  11
ENDBRANCH   9  10
ENDBRANCH   8   9
ENDBRANCH   7   8
ENDBRANCH   6   7
ENDBRANCH   5   6
ENDBRANCH   4   5
ENDBRANCH   3   4
ENDBRANCH   2   3
ENDBRANCH   1   2
BRANCH   1  17
ATOM     17  C   UNL     1       8.864  10.178  31.373  1.00  0.00     0.000 C 
BRANCH  17  18
ATOM     18  C   UNL     1       7.671  10.532  30.469  1.00  0.00     0.000 C 
BRANCH  18  19
ATOM     19  C   UNL     1       6.452  11.063  31.250  1.00  0.00     0.000 C 
BRANCH  19  20
ATOM     20  C   UNL     1       5.480   9.986  31.763  1.00  0.00     0.000 C 
BRANCH  20  21
ATOM     21  C   UNL     1       4.201   9.875  30.915  1.00  0.00     0.000 C 
BRANCH  21  22
ATOM     22  C   UNL     1       4.191   8.625  30.018  1.00  0.00    -0.000 C 
BRANCH  22  23
ATOM     23  C   UNL     1       4.607   8.927  28.568  1.00  0.00    -0.000 C 
BRANCH  23  24
ATOM     24  C   UNL     1       5.904   8.204  28.156  1.00  0.00    -0.000 C 
BRANCH  24  25
ATOM     25  C   UNL     1       6.705   8.894  27.037  1.00  0.00    -0.000 C 
BRANCH  25  26
ATOM     26  C   UNL     1       7.669   7.934  26.317  1.00  0.00    -0.000 C 
BRANCH  26  27
ATOM     27  C   UNL     1       7.026   6.574  25.998  1.00  0.00    -0.000 C 
BRANCH  27  28
ATOM     28  C   UNL     1       8.069   5.467  25.769  1.00  0.00    -0.000 C 
BRANCH  28  29
ATOM     29  C   UNL     1       8.844   5.113  27.048  1.00  0.00    -0.003 C 
ATOM     30  C   UNL     1       7.923   4.787  28.226  1.00  0.00     0.004 C 
ENDBRANCH  28  29
ENDBRANCH  27  28
ENDBRANCH  26  27
ENDBRANCH  25  26
ENDBRANCH  24  25
ENDBRANCH  23  24
ENDBRANCH  22  23
ENDBRANCH  21  22
ENDBRANCH  20  21
ENDBRANCH  19  20
ENDBRANCH  18  19
ENDBRANCH  17  18
ENDBRANCH   1  17
TORSDOF 26
ENDMDL
MODEL 3
REMARK VINA RESULT:    -4.973      1.503      3.648
REMARK INTER + INTRA:         -16.439
REMARK INTER:                 -12.922
REMARK INTRA:                  -3.517
REMARK UNBOUND:                -3.907
REMARK SMILES CCCCCCCCCCCCCCCCCCCCCCCCCCCC(=O)[O-]
REMARK SMILES IDX 15 1 16 2 17 3 18 4 19 5 20 6 21 7 22 8 23 9 24 10 25 11
REMARK SMILES IDX 26 12 27 13 28 14 29 15 30 16 14 17 13 18 12 19 11 20 10 21
REMARK SMILES IDX 9 22 8 23 7 24 6 25 5 26 4 27 3 28 2 29 1 30
REMARK H PARENT
REMARK Flexibility Score: inf
ROOT
ATOM      1  C   UNL     1       7.954   4.498  28.034  1.00  0.00     0.000 C 
ENDROOT
BRANCH   1   2
ATOM      2  C   UNL     1       9.122   4.348  27.043  1.00  0.00     0.000 C 
BRANCH   2   3
ATOM      3  C   UNL     1      10.128   3.266  27.468  1.00  0.00     0.000 C 
BRANCH   3   4
ATOM      4  C   UNL     1      11.498   3.855  27.840  1.00  0.00     0.000 C 
BRANCH   4   5
ATOM      5  C   UNL     1      11.653   5.345  27.463  1.00  0.00     0.000 C 
BRANCH   5   6
ATOM      6  C   UNL     1      12.699   6.075  28.323  1.00  0.00     0.000 C 
BRANCH   6   7
ATOM      7  C   UNL     1      14.016   5.285  28.437  1.00  0.00     0.000 C 
BRANCH   7   8
ATOM      8  C   UNL     1      14.691   5.446  29.811  1.00  0.00     0.000 C 
BRANCH   8   9
ATOM      9  C   UNL     1      14.480   4.262  30.772  1.00  0.00     0.000 C 
BRANCH   9  10
ATOM     10  C   UNL     1      13.170   4.373  31.571  1.00  0.00     0.000 C 
BRANCH  10  11
ATOM     11  C   UNL     1      12.793   3.054  32.266  1.00  0.00     0.000 C 
BRANCH  11  12
ATOM     12  C   UNL     1      12.085   3.281  33.614  1.00  0.00     0.006 C 
BRANCH  12  13
ATOM     13  C   UNL     1      13.010   3.923  34.663  1.00  0.00     0.053 C 
BRANCH  13  14
ATOM     14  C   UNL     1      12.467   5.193  35.254  1.00  0.00     0.041 C 
ATOM     15  O   UNL     1      12.796   5.570  36.412  1.00  0.00    -0.550 OA
ATOM     16  O   UNL     1      11.671   6.023  34.470  1.00  0.00    -0.550 OA
ENDBRANCH  13  14
ENDBRANCH  12  13
ENDBRANCH  11  12
ENDBRANCH  10  11
ENDBRANCH   9  10
ENDBRANCH   8   9
ENDBRANCH   7   8
ENDBRANCH   6   7
ENDBRANCH   5   6
ENDBRANCH   4   5
ENDBRANCH   3   4
ENDBRANCH   2   3
ENDBRANCH   1   2
BRANCH   1  17
ATOM     17  C   UNL     1       7.623   5.969  28.374  1.00  0.00     0.000 C 
BRANCH  17  18
ATOM     18  C   UNL     1       6.996   6.709  27.180  1.00  0.00     0.000 C 
BRANCH  18  19
ATOM     19  C   UNL     1       6.419   8.089  27.554  1.00  0.00     0.000 C 
BRANCH  19  20
ATOM     20  C   UNL     1       5.526   8.112  28.807  1.00  0.00     0.000 C 
BRANCH  20  21
ATOM     21  C   UNL     1       5.277   9.533  29.343  1.00  0.00     0.000 C 
BRANCH  21  22
ATOM     22  C   UNL     1       4.448   9.541  30.639  1.00  0.00    -0.000 C 
BRANCH  22  23
ATOM     23  C   UNL     1       5.101  10.367  31.760  1.00  0.00    -0.000 C 
BRANCH  23  24
ATOM     24  C   UNL     1       6.517  10.854  31.395  1.00  0.00    -0.000 C 
BRANCH  24  25
ATOM     25  C   UNL     1       7.661  10.146  32.146  1.00  0.00    -0.000 C 
BRANCH  25  26
ATOM     26  C   UNL     1       8.926   9.983  31.284  1.00  0.00    -0.000 C 
BRANCH  26  27
ATOM     27  C   UNL     1       8.862   8.755  30.361  1.00  0.00    -0.000 C 
BRANCH  27  28
ATOM     28  C   UNL     1      10.170   8.531  29.584  1.00  0.00    -0.000 C 
BRANCH  28  29
ATOM     29  C   UNL     1      10.028   8.847  28.087  1.00  0.00    -0.003 C 
ATOM     30  C   UNL     1       9.410  10.222  27.828  1.00  0.00     0.004 C 
ENDBRANCH  28  29
ENDBRANCH  27  28
ENDBRANCH  26  27
ENDBRANCH  25  26
ENDBRANCH  24  25
ENDBRANCH  23  24
ENDBRANCH  22  23
ENDBRANCH  21  22
ENDBRANCH  20  21
ENDBRANCH  19  20
ENDBRANCH  18  19
ENDBRANCH  17  18
ENDBRANCH   1  17
TORSDOF 26
ENDMDL
MODEL 4
REMARK VINA RESULT:    -4.955      1.904      3.567
REMARK INTER + INTRA:         -16.395
REMARK INTER:                 -11.252
REMARK INTRA:                  -5.143
REMARK UNBOUND:                -3.907
REMARK SMILES CCCCCCCCCCCCCCCCCCCCCCCCCCCC(=O)[O-]
REMARK SMILES IDX 15 1 16 2 17 3 18 4 19 5 20 6 21 7 22 8 23 9 24 10 25 11
REMARK SMILES IDX 26 12 27 13 28 14 29 15 30 16 14 17 13 18 12 19 11 20 10 21
REMARK SMILES IDX 9 22 8 23 7 24 6 25 5 26 4 27 3 28 2 29 1 30
REMARK H PARENT
REMARK Flexibility Score: inf
ROOT
ATOM      1  C   UNL     1       8.832   4.206  28.457  1.00  0.00     0.000 C 
ENDROOT
BRANCH   1   2
ATOM      2  C   UNL     1       9.678   3.587  27.330  1.00  0.00     0.000 C 
BRANCH   2   3
ATOM      3  C   UNL     1      11.138   4.068  27.350  1.00  0.00     0.000 C 
BRANCH   3   4
ATOM      4  C   UNL     1      11.307   5.393  28.109  1.00  0.00     0.000 C 
BRANCH   4   5
ATOM      5  C   UNL     1      12.402   6.308  27.518  1.00  0.00     0.000 C 
BRANCH   5   6
ATOM      6  C   UNL     1      13.370   5.560  26.585  1.00  0.00     0.000 C 
BRANCH   6   7
ATOM      7  C   UNL     1      14.844   5.787  26.970  1.00  0.00     0.000 C 
BRANCH   7   8
ATOM      8  C   UNL     1      15.396   4.682  27.888  1.00  0.00     0.000 C 
BRANCH   8   9
ATOM      9  C   UNL     1      14.694   3.320  27.745  1.00  0.00     0.000 C 
BRANCH   9  10
ATOM     10  C   UNL     1      14.134   2.798  29.080  1.00  0.00     0.000 C 
BRANCH  10  11
ATOM     11  C   UNL     1      13.988   3.911  30.131  1.00  0.00     0.000 C 
BRANCH  11  12
ATOM     12  C   UNL     1      12.915   3.587  31.186  1.00  0.00     0.006 C 
BRANCH  12  13
ATOM     13  C   UNL     1      11.786   2.704  30.624  1.00  0.00     0.053 C 
BRANCH  13  14
ATOM     14  C   UNL     1      11.488   1.494  31.465  1.00  0.00     0.041 C 
ATOM     15  O   UNL     1      12.415   0.793  31.954  1.00  0.00    -0.550 OA
ATOM     16  O   UNL     1      10.168   1.206  31.799  1.00  0.00    -0.550 OA
ENDBRANCH  13  14
ENDBRANCH  12  13
ENDBRANCH  11  12
ENDBRANCH  10  11
ENDBRANCH   9  10
ENDBRANCH   8   9
ENDBRANCH   7   8
ENDBRANCH   6   7
ENDBRANCH   5   6
ENDBRANCH   4   5
ENDBRANCH   3   4
ENDBRANCH   2   3
ENDBRANCH   1   2
BRANCH   1  17
ATOM     17  C   UNL     1       7.506   4.825  27.959  1.00  0.00     0.000 C 
BRANCH  17  18
ATOM     18  C   UNL     1       7.295   6.247  28.506  1.00  0.00     0.000 C 
BRANCH  18  19
ATOM     19  C   UNL     1       6.444   7.137  27.577  1.00  0.00     0.000 C 
BRANCH  19  20
ATOM     20  C   UNL     1       5.885   8.417  28.223  1.00  0.00     0.000 C 
BRANCH  20  21
ATOM     21  C   UNL     1       6.204   9.688  27.416  1.00  0.00     0.000 C 
BRANCH  21  22
ATOM     22  C   UNL     1       7.108  10.667  28.184  1.00  0.00    -0.000 C 
BRANCH  22  23
ATOM     23  C   UNL     1       8.193   9.954  29.010  1.00  0.00    -0.000 C 
BRANCH  23  24
ATOM     24  C   UNL     1       9.562   9.932  28.304  1.00  0.00    -0.000 C 
BRANCH  24  25
ATOM     25  C   UNL     1       9.751   8.790  27.288  1.00  0.00    -0.000 C 
BRANCH  25  26
ATOM     26  C   UNL     1       9.647   9.269  25.829  1.00  0.00    -0.000 C 
BRANCH  26  27
ATOM     27  C   UNL     1       9.747   8.116  24.816  1.00  0.00    -0.000 C 
BRANCH  27  28
ATOM     28  C   UNL     1       9.323   6.765  25.416  1.00  0.00    -0.000 C 
BRANCH  28  29
ATOM     29  C   UNL     1       8.357   5.993  24.504  1.00  0.00    -0.003 C 
ATOM     30  C   UNL     1       8.253   6.599  23.103  1.00  0.00     0.004 C 
ENDBRANCH  28  29
ENDBRANCH  27  28
ENDBRANCH  26  27
ENDBRANCH  25  26
ENDBRANCH  24  25
ENDBRANCH  23  24
ENDBRANCH  22  23
ENDBRANCH  21  22
ENDBRANCH  20  21
ENDBRANCH  19  20
ENDBRANCH  18  19
ENDBRANCH  17  18
ENDBRANCH   1  17
TORSDOF 26
ENDMDL
MODEL 5
REMARK VINA RESULT:    -4.937      1.602      2.119
REMARK INTER + INTRA:         -16.348
REMARK INTER:                 -12.989
REMARK INTRA:                  -3.359
REMARK UNBOUND:                -3.907
REMARK SMILES CCCCCCCCCCCCCCCCCCCCCCCCCCCC(=O)[O-]
REMARK SMILES IDX 15 1 16 2 17 3 18 4 19 5 20 6 21 7 22 8 23 9 24 10 25 11
REMARK SMILES IDX 26 12 27 13 28 14 29 15 30 16 14 17 13 18 12 19 11 20 10 21
REMARK SMILES IDX 9 22 8 23 7 24 6 25 5 26 4 27 3 28 2 29 1 30
REMARK H PARENT
REMARK Flexibility Score: inf
ROOT
ATOM      1  C   UNL     1      10.155   8.109  28.907  1.00  0.00     0.000 C 
ENDROOT
BRANCH   1   2
ATOM      2  C   UNL     1      11.216   7.709  27.867  1.00  0.00     0.000 C 
BRANCH   2   3
ATOM      3  C   UNL     1      10.916   6.357  27.199  1.00  0.00     0.000 C 
BRANCH   3   4
ATOM      4  C   UNL     1       9.881   5.535  27.983  1.00  0.00     0.000 C 
BRANCH   4   5
ATOM      5  C   UNL     1       9.517   4.194  27.307  1.00  0.00     0.000 C 
BRANCH   5   6
ATOM      6  C   UNL     1      10.518   3.070  27.625  1.00  0.00     0.000 C 
BRANCH   6   7
ATOM      7  C   UNL     1      11.277   3.321  28.942  1.00  0.00     0.000 C 
BRANCH   7   8
ATOM      8  C   UNL     1      10.697   2.524  30.125  1.00  0.00     0.000 C 
BRANCH   8   9
ATOM      9  C   UNL     1      11.752   1.896  31.053  1.00  0.00     0.000 C 
BRANCH   9  10
ATOM     10  C   UNL     1      11.456   2.147  32.542  1.00  0.00     0.000 C 
BRANCH  10  11
ATOM     11  C   UNL     1      12.709   2.572  33.326  1.00  0.00     0.000 C 
BRANCH  11  12
ATOM     12  C   UNL     1      12.868   4.101  33.397  1.00  0.00     0.006 C 
BRANCH  12  13
ATOM     13  C   UNL     1      12.384   4.681  34.738  1.00  0.00     0.053 C 
BRANCH  13  14
ATOM     14  C   UNL     1      13.231   5.812  35.251  1.00  0.00     0.041 C 
ATOM     15  O   UNL     1      14.274   6.176  34.643  1.00  0.00    -0.550 OA
ATOM     16  O   UNL     1      12.799   6.538  36.356  1.00  0.00    -0.550 OA
ENDBRANCH  13  14
ENDBRANCH  12  13
ENDBRANCH  11  12
ENDBRANCH  10  11
ENDBRANCH   9  10
ENDBRANCH   8   9
ENDBRANCH   7   8
ENDBRANCH   6   7
ENDBRANCH   5   6
ENDBRANCH   4   5
ENDBRANCH   3   4
ENDBRANCH   2   3
ENDBRANCH   1   2
BRANCH   1  17
ATOM     17  C   UNL     1       9.843   9.622  28.917  1.00  0.00     0.000 C 
BRANCH  17  18
ATOM     18  C   UNL     1       8.579   9.944  29.732  1.00  0.00     0.000 C 
BRANCH  18  19
ATOM     19  C   UNL     1       8.712   9.589  31.227  1.00  0.00     0.000 C 
BRANCH  19  20
ATOM     20  C   UNL     1       7.628  10.184  32.144  1.00  0.00     0.000 C 
BRANCH  20  21
ATOM     21  C   UNL     1       6.460  10.812  31.366  1.00  0.00     0.000 C 
BRANCH  21  22
ATOM     22  C   UNL     1       5.087  10.324  31.860  1.00  0.00    -0.000 C 
BRANCH  22  23
ATOM     23  C   UNL     1       4.172   9.856  30.714  1.00  0.00    -0.000 C 
BRANCH  23  24
ATOM     24  C   UNL     1       4.555   8.464  30.175  1.00  0.00    -0.000 C 
BRANCH  24  25
ATOM     25  C   UNL     1       5.250   8.468  28.801  1.00  0.00    -0.000 C 
BRANCH  25  26
ATOM     26  C   UNL     1       6.349   7.396  28.688  1.00  0.00    -0.000 C 
BRANCH  26  27
ATOM     27  C   UNL     1       6.665   7.020  27.231  1.00  0.00    -0.000 C 
BRANCH  27  28
ATOM     28  C   UNL     1       7.220   8.205  26.422  1.00  0.00    -0.000 C 
BRANCH  28  29
ATOM     29  C   UNL     1       8.284   7.774  25.400  1.00  0.00    -0.003 C 
ATOM     30  C   UNL     1       7.692   7.000  24.221  1.00  0.00     0.004 C 
ENDBRANCH  28  29
ENDBRANCH  27  28
ENDBRANCH  26  27
ENDBRANCH  25  26
ENDBRANCH  24  25
ENDBRANCH  23  24
ENDBRANCH  22  23
ENDBRANCH  21  22
ENDBRANCH  20  21
ENDBRANCH  19  20
ENDBRANCH  18  19
ENDBRANCH  17  18
ENDBRANCH   1  17
TORSDOF 26
ENDMDL
MODEL 6
REMARK VINA RESULT:    -4.930      2.122      2.923
REMARK INTER + INTRA:         -16.331
REMARK INTER:                 -13.254
REMARK INTRA:                  -3.077
REMARK UNBOUND:                -3.907
REMARK SMILES CCCCCCCCCCCCCCCCCCCCCCCCCCCC(=O)[O-]
REMARK SMILES IDX 15 1 16 2 17 3 18 4 19 5 20 6 21 7 22 8 23 9 24 10 25 11
REMARK SMILES IDX 26 12 27 13 28 14 29 15 30 16 14 17 13 18 12 19 11 20 10 21
REMARK SMILES IDX 9 22 8 23 7 24 6 25 5 26 4 27 3 28 2 29 1 30
REMARK H PARENT
REMARK Flexibility Score: inf
ROOT
ATOM      1  C   UNL     1       9.749   8.172  30.163  1.00  0.00     0.000 C 
ENDROOT
BRANCH   1   2
ATOM      2  C   UNL     1      10.115   9.139  29.023  1.00  0.00     0.000 C 
BRANCH   2   3
ATOM      3  C   UNL     1      10.330   8.423  27.680  1.00  0.00     0.000 C 
BRANCH   3   4
ATOM      4  C   UNL     1      11.403   7.327  27.766  1.00  0.00     0.000 C 
BRANCH   4   5
ATOM      5  C   UNL     1      11.001   6.011  27.064  1.00  0.00     0.000 C 
BRANCH   5   6
ATOM      6  C   UNL     1      11.851   4.809  27.510  1.00  0.00     0.000 C 
BRANCH   6   7
ATOM      7  C   UNL     1      11.311   4.159  28.798  1.00  0.00     0.000 C 
BRANCH   7   8
ATOM      8  C   UNL     1      12.173   4.481  30.033  1.00  0.00     0.000 C 
BRANCH   8   9
ATOM      9  C   UNL     1      12.574   3.254  30.871  1.00  0.00     0.000 C 
BRANCH   9  10
ATOM     10  C   UNL     1      11.540   2.118  30.792  1.00  0.00     0.000 C 
BRANCH  10  11
ATOM     11  C   UNL     1      11.015   1.704  32.177  1.00  0.00     0.000 C 
BRANCH  11  12
ATOM     12  C   UNL     1      11.380   0.253  32.536  1.00  0.00     0.006 C 
BRANCH  12  13
ATOM     13  C   UNL     1      12.488  -0.315  31.631  1.00  0.00     0.053 C 
BRANCH  13  14
ATOM     14  C   UNL     1      12.585  -1.815  31.659  1.00  0.00     0.041 C 
ATOM     15  O   UNL     1      13.538  -2.398  32.242  1.00  0.00    -0.550 OA
ATOM     16  O   UNL     1      11.547  -2.574  31.125  1.00  0.00    -0.550 OA
ENDBRANCH  13  14
ENDBRANCH  12  13
ENDBRANCH  11  12
ENDBRANCH  10  11
ENDBRANCH   9  10
ENDBRANCH   8   9
ENDBRANCH   7   8
ENDBRANCH   6   7
ENDBRANCH   5   6
ENDBRANCH   4   5
ENDBRANCH   3   4
ENDBRANCH   2   3
ENDBRANCH   1   2
BRANCH   1  17
ATOM     17  C   UNL     1       9.426   8.885  31.494  1.00  0.00     0.000 C 
BRANCH  17  18
ATOM     18  C   UNL     1       8.708  10.227  31.269  1.00  0.00     0.000 C 
BRANCH  18  19
ATOM     19  C   UNL     1       7.449  10.397  32.142  1.00  0.00     0.000 C 
BRANCH  19  20
ATOM     20  C   UNL     1       6.246  11.056  31.442  1.00  0.00     0.000 C 
BRANCH  20  21
ATOM     21  C   UNL     1       4.911  10.361  31.756  1.00  0.00     0.000 C 
BRANCH  21  22
ATOM     22  C   UNL     1       4.530   9.304  30.704  1.00  0.00    -0.000 C 
BRANCH  22  23
ATOM     23  C   UNL     1       5.340   9.439  29.402  1.00  0.00    -0.000 C 
BRANCH  23  24
ATOM     24  C   UNL     1       5.371   8.136  28.581  1.00  0.00    -0.000 C 
BRANCH  24  25
ATOM     25  C   UNL     1       6.764   7.720  28.075  1.00  0.00    -0.000 C 
BRANCH  25  26
ATOM     26  C   UNL     1       7.188   6.328  28.578  1.00  0.00    -0.000 C 
BRANCH  26  27
ATOM     27  C   UNL     1       7.348   5.308  27.439  1.00  0.00    -0.000 C 
BRANCH  27  28
ATOM     28  C   UNL     1       6.853   5.849  26.087  1.00  0.00    -0.000 C 
BRANCH  28  29
ATOM     29  C   UNL     1       7.955   5.856  25.016  1.00  0.00    -0.003 C 
ATOM     30  C   UNL     1       7.529   6.575  23.734  1.00  0.00     0.004 C 
ENDBRANCH  28  29
ENDBRANCH  27  28
ENDBRANCH  26  27
ENDBRANCH  25  26
ENDBRANCH  24  25
ENDBRANCH  23  24
ENDBRANCH  22  23
ENDBRANCH  21  22
ENDBRANCH  20  21
ENDBRANCH  19  20
ENDBRANCH  18  19
ENDBRANCH  17  18
ENDBRANCH   1  17
TORSDOF 26
ENDMDL
MODEL 7
REMARK VINA RESULT:    -4.850      4.370      7.828
REMARK INTER + INTRA:         -16.129
REMARK INTER:                 -12.341
REMARK INTRA:                  -3.788
REMARK UNBOUND:                -3.907
REMARK SMILES CCCCCCCCCCCCCCCCCCCCCCCCCCCC(=O)[O-]
REMARK SMILES IDX 15 1 16 2 17 3 18 4 19 5 20 6 21 7 22 8 23 9 24 10 25 11
REMARK SMILES IDX 26 12 27 13 28 14 29 15 30 16 14 17 13 18 12 19 11 20 10 21
REMARK SMILES IDX 9 22 8 23 7 24 6 25 5 26 4 27 3 28 2 29 1 30
REMARK H PARENT
REMARK Flexibility Score: inf
ROOT
ATOM      1  C   UNL     1      12.768   4.320  29.639  1.00  0.00     0.000 C 
ENDROOT
BRANCH   1   2
ATOM      2  C   UNL     1      13.786   4.151  28.497  1.00  0.00     0.000 C 
BRANCH   2   3
ATOM      3  C   UNL     1      14.344   5.492  27.994  1.00  0.00     0.000 C 
BRANCH   3   4
ATOM      4  C   UNL     1      13.292   6.612  28.025  1.00  0.00     0.000 C 
BRANCH   4   5
ATOM      5  C   UNL     1      12.697   6.939  26.637  1.00  0.00     0.000 C 
BRANCH   5   6
ATOM      6  C   UNL     1      11.167   6.793  26.590  1.00  0.00     0.000 C 
BRANCH   6   7
ATOM      7  C   UNL     1      10.463   8.125  26.271  1.00  0.00     0.000 C 
BRANCH   7   8
ATOM      8  C   UNL     1       9.809   8.134  24.877  1.00  0.00     0.000 C 
BRANCH   8   9
ATOM      9  C   UNL     1       8.618   7.171  24.722  1.00  0.00     0.000 C 
BRANCH   9  10
ATOM     10  C   UNL     1       8.172   7.010  23.259  1.00  0.00     0.000 C 
BRANCH  10  11
ATOM     11  C   UNL     1       8.245   5.550  22.780  1.00  0.00     0.000 C 
BRANCH  11  12
ATOM     12  C   UNL     1       8.625   5.437  21.293  1.00  0.00     0.006 C 
BRANCH  12  13
ATOM     13  C   UNL     1       8.294   4.053  20.706  1.00  0.00     0.053 C 
BRANCH  13  14
ATOM     14  C   UNL     1       7.034   4.028  19.886  1.00  0.00     0.041 C 
ATOM     15  O   UNL     1       6.071   4.801  20.142  1.00  0.00    -0.550 OA
ATOM     16  O   UNL     1       6.971   3.212  18.760  1.00  0.00    -0.550 OA
ENDBRANCH  13  14
ENDBRANCH  12  13
ENDBRANCH  11  12
ENDBRANCH  10  11
ENDBRANCH   9  10
ENDBRANCH   8   9
ENDBRANCH   7   8
ENDBRANCH   6   7
ENDBRANCH   5   6
ENDBRANCH   4   5
ENDBRANCH   3   4
ENDBRANCH   2   3
ENDBRANCH   1   2
BRANCH   1  17
ATOM     17  C   UNL     1      11.322   3.959  29.231  1.00  0.00     0.000 C 
BRANCH  17  18
ATOM     18  C   UNL     1      11.267   3.268  27.858  1.00  0.00     0.000 C 
BRANCH  18  19
ATOM     19  C   UNL     1       9.835   2.907  27.415  1.00  0.00     0.000 C 
BRANCH  19  20
ATOM     20  C   UNL     1       8.710   3.675  28.132  1.00  0.00     0.000 C 
BRANCH  20  21
ATOM     21  C   UNL     1       8.444   5.062  27.523  1.00  0.00     0.000 C 
BRANCH  21  22
ATOM     22  C   UNL     1       7.427   5.882  28.336  1.00  0.00    -0.000 C 
BRANCH  22  23
ATOM     23  C   UNL     1       6.468   6.693  27.448  1.00  0.00    -0.000 C 
BRANCH  23  24
ATOM     24  C   UNL     1       6.168   8.093  28.017  1.00  0.00    -0.000 C 
BRANCH  24  25
ATOM     25  C   UNL     1       6.580   9.266  27.108  1.00  0.00    -0.000 C 
BRANCH  25  26
ATOM     26  C   UNL     1       7.708  10.120  27.714  1.00  0.00    -0.000 C 
BRANCH  26  27
ATOM     27  C   UNL     1       7.540  10.342  29.226  1.00  0.00    -0.000 C 
BRANCH  27  28
ATOM     28  C   UNL     1       8.886  10.405  29.967  1.00  0.00    -0.000 C 
BRANCH  28  29
ATOM     29  C   UNL     1       9.181   9.122  30.761  1.00  0.00    -0.003 C 
ATOM     30  C   UNL     1       9.839   8.036  29.908  1.00  0.00     0.004 C 
ENDBRANCH  28  29
ENDBRANCH  27  28
ENDBRANCH  26  27
ENDBRANCH  25  26
ENDBRANCH  24  25
ENDBRANCH  23  24
ENDBRANCH  22  23
ENDBRANCH  21  22
ENDBRANCH  20  21
ENDBRANCH  19  20
ENDBRANCH  18  19
ENDBRANCH  17  18
ENDBRANCH   1  17
TORSDOF 26
ENDMDL
MODEL 8
REMARK VINA RESULT:    -4.812      1.318      3.450
REMARK INTER + INTRA:         -16.034
REMARK INTER:                 -11.201
REMARK INTRA:                  -4.832
REMARK UNBOUND:                -3.907
REMARK SMILES CCCCCCCCCCCCCCCCCCCCCCCCCCCC(=O)[O-]
REMARK SMILES IDX 15 1 16 2 17 3 18 4 19 5 20 6 21 7 22 8 23 9 24 10 25 11
REMARK SMILES IDX 26 12 27 13 28 14 29 15 30 16 14 17 13 18 12 19 11 20 10 21
REMARK SMILES IDX 9 22 8 23 7 24 6 25 5 26 4 27 3 28 2 29 1 30
REMARK H PARENT
REMARK Flexibility Score: inf
ROOT
ATOM      1  C   UNL     1       9.661  10.278  28.387  1.00  0.00     0.000 C 
ENDROOT
BRANCH   1   2
ATOM      2  C   UNL     1      10.182   8.947  28.959  1.00  0.00     0.000 C 
BRANCH   2   3
ATOM      3  C   UNL     1      10.977   8.127  27.931  1.00  0.00     0.000 C 
BRANCH   3   4
ATOM      4  C   UNL     1      11.731   6.953  28.575  1.00  0.00     0.000 C 
BRANCH   4   5
ATOM      5  C   UNL     1      13.063   6.614  27.871  1.00  0.00     0.000 C 
BRANCH   5   6
ATOM      6  C   UNL     1      12.903   5.568  26.754  1.00  0.00     0.000 C 
BRANCH   6   7
ATOM      7  C   UNL     1      13.918   4.417  26.884  1.00  0.00     0.000 C 
BRANCH   7   8
ATOM      8  C   UNL     1      14.958   4.661  27.992  1.00  0.00     0.000 C 
BRANCH   8   9
ATOM      9  C   UNL     1      14.820   3.737  29.216  1.00  0.00     0.000 C 
BRANCH   9  10
ATOM     10  C   UNL     1      14.313   4.479  30.465  1.00  0.00     0.000 C 
BRANCH  10  11
ATOM     11  C   UNL     1      12.833   4.187  30.762  1.00  0.00     0.000 C 
BRANCH  11  12
ATOM     12  C   UNL     1      12.652   3.080  31.815  1.00  0.00     0.006 C 
BRANCH  12  13
ATOM     13  C   UNL     1      11.736   1.944  31.323  1.00  0.00     0.053 C 
BRANCH  13  14
ATOM     14  C   UNL     1      11.217   1.064  32.425  1.00  0.00     0.041 C 
ATOM     15  O   UNL     1      11.356  -0.189  32.382  1.00  0.00    -0.550 OA
ATOM     16  O   UNL     1      10.669   1.649  33.562  1.00  0.00    -0.550 OA
ENDBRANCH  13  14
ENDBRANCH  12  13
ENDBRANCH  11  12
ENDBRANCH  10  11
ENDBRANCH   9  10
ENDBRANCH   8   9
ENDBRANCH   7   8
ENDBRANCH   6   7
ENDBRANCH   5   6
ENDBRANCH   4   5
ENDBRANCH   3   4
ENDBRANCH   2   3
ENDBRANCH   1   2
BRANCH   1  17
ATOM     17  C   UNL     1       8.778  11.069  29.378  1.00  0.00     0.000 C 
BRANCH  17  18
ATOM     18  C   UNL     1       7.888  10.141  30.222  1.00  0.00     0.000 C 
BRANCH  18  19
ATOM     19  C   UNL     1       6.386  10.279  29.900  1.00  0.00     0.000 C 
BRANCH  19  20
ATOM     20  C   UNL     1       5.671   8.969  29.521  1.00  0.00     0.000 C 
BRANCH  20  21
ATOM     21  C   UNL     1       6.636   7.875  29.034  1.00  0.00     0.000 C 
BRANCH  21  22
ATOM     22  C   UNL     1       6.394   7.481  27.566  1.00  0.00    -0.000 C 
BRANCH  22  23
ATOM     23  C   UNL     1       6.838   8.570  26.575  1.00  0.00    -0.000 C 
BRANCH  23  24
ATOM     24  C   UNL     1       8.106   8.182  25.790  1.00  0.00    -0.000 C 
BRANCH  24  25
ATOM     25  C   UNL     1       8.104   6.753  25.217  1.00  0.00    -0.000 C 
BRANCH  25  26
ATOM     26  C   UNL     1       9.307   5.919  25.693  1.00  0.00    -0.000 C 
BRANCH  26  27
ATOM     27  C   UNL     1       8.889   4.670  26.486  1.00  0.00    -0.000 C 
BRANCH  27  28
ATOM     28  C   UNL     1       8.966   4.883  28.007  1.00  0.00    -0.000 C 
BRANCH  28  29
ATOM     29  C   UNL     1       9.680   3.729  28.728  1.00  0.00    -0.003 C 
ATOM     30  C   UNL     1      10.598   2.929  27.801  1.00  0.00     0.004 C 
ENDBRANCH  28  29
ENDBRANCH  27  28
ENDBRANCH  26  27
ENDBRANCH  25  26
ENDBRANCH  24  25
ENDBRANCH  23  24
ENDBRANCH  22  23
ENDBRANCH  21  22
ENDBRANCH  20  21
ENDBRANCH  19  20
ENDBRANCH  18  19
ENDBRANCH  17  18
ENDBRANCH   1  17
TORSDOF 26
ENDMDL
MODEL 9
REMARK VINA RESULT:    -4.802      1.796      4.660
REMARK INTER + INTRA:         -16.009
REMARK INTER:                 -11.424
REMARK INTRA:                  -4.585
REMARK UNBOUND:                -3.907
REMARK SMILES CCCCCCCCCCCCCCCCCCCCCCCCCCCC(=O)[O-]
REMARK SMILES IDX 15 1 16 2 17 3 18 4 19 5 20 6 21 7 22 8 23 9 24 10 25 11
REMARK SMILES IDX 26 12 27 13 28 14 29 15 30 16 14 17 13 18 12 19 11 20 10 21
REMARK SMILES IDX 9 22 8 23 7 24 6 25 5 26 4 27 3 28 2 29 1 30
REMARK H PARENT
REMARK Flexibility Score: inf
ROOT
ATOM      1  C   UNL     1       8.363   4.120  28.312  1.00  0.00     0.000 C 
ENDROOT
BRANCH   1   2
ATOM      2  C   UNL     1       9.528   4.018  27.311  1.00  0.00     0.000 C 
BRANCH   2   3
ATOM      3  C   UNL     1      10.825   3.508  27.958  1.00  0.00     0.000 C 
BRANCH   3   4
ATOM      4  C   UNL     1      12.029   4.411  27.645  1.00  0.00     0.000 C 
BRANCH   4   5
ATOM      5  C   UNL     1      12.425   5.340  28.814  1.00  0.00     0.000 C 
BRANCH   5   6
ATOM      6  C   UNL     1      13.887   5.814  28.734  1.00  0.00     0.000 C 
BRANCH   6   7
ATOM      7  C   UNL     1      14.724   5.323  29.930  1.00  0.00     0.000 C 
BRANCH   7   8
ATOM      8  C   UNL     1      14.803   3.788  30.012  1.00  0.00     0.000 C 
BRANCH   8   9
ATOM      9  C   UNL     1      14.449   3.201  31.390  1.00  0.00     0.000 C 
BRANCH   9  10
ATOM     10  C   UNL     1      13.232   3.888  32.032  1.00  0.00     0.000 C 
BRANCH  10  11
ATOM     11  C   UNL     1      12.222   2.880  32.605  1.00  0.00     0.000 C 
BRANCH  11  12
ATOM     12  C   UNL     1      11.459   2.122  31.504  1.00  0.00     0.006 C 
BRANCH  12  13
ATOM     13  C   UNL     1      11.038   0.709  31.947  1.00  0.00     0.053 C 
BRANCH  13  14
ATOM     14  C   UNL     1      12.187  -0.250  32.086  1.00  0.00     0.041 C 
ATOM     15  O   UNL     1      12.188  -1.145  32.973  1.00  0.00    -0.550 OA
ATOM     16  O   UNL     1      13.217  -0.217  31.150  1.00  0.00    -0.550 OA
ENDBRANCH  13  14
ENDBRANCH  12  13
ENDBRANCH  11  12
ENDBRANCH  10  11
ENDBRANCH   9  10
ENDBRANCH   8   9
ENDBRANCH   7   8
ENDBRANCH   6   7
ENDBRANCH   5   6
ENDBRANCH   4   5
ENDBRANCH   3   4
ENDBRANCH   2   3
ENDBRANCH   1   2
BRANCH   1  17
ATOM     17  C   UNL     1       7.709   5.519  28.352  1.00  0.00     0.000 C 
BRANCH  17  18
ATOM     18  C   UNL     1       7.094   5.907  26.997  1.00  0.00     0.000 C 
BRANCH  18  19
ATOM     19  C   UNL     1       7.370   7.371  26.599  1.00  0.00     0.000 C 
BRANCH  19  20
ATOM     20  C   UNL     1       8.321   7.561  25.404  1.00  0.00     0.000 C 
BRANCH  20  21
ATOM     21  C   UNL     1       9.593   8.346  25.765  1.00  0.00     0.000 C 
BRANCH  21  22
ATOM     22  C   UNL     1      10.409   7.673  26.883  1.00  0.00    -0.000 C 
BRANCH  22  23
ATOM     23  C   UNL     1      10.656   8.601  28.084  1.00  0.00    -0.000 C 
BRANCH  23  24
ATOM     24  C   UNL     1      10.069   8.048  29.397  1.00  0.00    -0.000 C 
BRANCH  24  25
ATOM     25  C   UNL     1       8.808   8.773  29.901  1.00  0.00    -0.000 C 
BRANCH  25  26
ATOM     26  C   UNL     1       8.497  10.051  29.103  1.00  0.00    -0.000 C 
BRANCH  26  27
ATOM     27  C   UNL     1       7.009  10.435  29.150  1.00  0.00    -0.000 C 
BRANCH  27  28
ATOM     28  C   UNL     1       6.105   9.248  29.521  1.00  0.00    -0.000 C 
BRANCH  28  29
ATOM     29  C   UNL     1       4.866   9.146  28.618  1.00  0.00    -0.003 C 
ATOM     30  C   UNL     1       4.934  10.085  27.411  1.00  0.00     0.004 C 
ENDBRANCH  28  29
ENDBRANCH  27  28
ENDBRANCH  26  27
ENDBRANCH  25  26
ENDBRANCH  24  25
ENDBRANCH  23  24
ENDBRANCH  22  23
ENDBRANCH  21  22
ENDBRANCH  20  21
ENDBRANCH  19  20
ENDBRANCH  18  19
ENDBRANCH  17  18
ENDBRANCH   1  17
TORSDOF 26
ENDMDL
