MODEL 1
REMARK VINA RESULT:    -4.351      0.000      0.000
REMARK INTER + INTRA:         -13.195
REMARK INTER:                  -9.439
REMARK INTRA:                  -3.756
REMARK UNBOUND:                -3.756
REMARK SMILES CCCCCCCCCCCCCCCCCCCCCC(=O)[O-]
REMARK SMILES IDX 12 1 11 2 10 3 9 4 8 5 7 6 6 7 5 8 4 9 3 10 2 11 1 12 13 13
REMARK SMILES IDX 14 14 15 15 16 16 17 17 18 18 19 19 20 20 21 21 22 22 23 23
REMARK SMILES IDX 24 24
REMARK H PARENT
REMARK Flexibility Score: inf
ROOT
ATOM      1  C   UNL     1      -2.428 -49.012  17.487  1.00  0.00     0.000 C 
ENDROOT
BRANCH   1   2
ATOM      2  C   UNL     1      -3.811 -48.951  16.823  1.00  0.00     0.000 C 
BRANCH   2   3
ATOM      3  C   UNL     1      -4.937 -48.636  17.821  1.00  0.00     0.000 C 
BRANCH   3   4
ATOM      4  C   UNL     1      -4.519 -48.874  19.281  1.00  0.00    -0.000 C 
BRANCH   4   5
ATOM      5  C   UNL     1      -4.560 -47.569  20.085  1.00  0.00    -0.000 C 
BRANCH   5   6
ATOM      6  C   UNL     1      -5.349 -46.486  19.334  1.00  0.00    -0.000 C 
BRANCH   6   7
ATOM      7  C   UNL     1      -5.714 -45.292  20.230  1.00  0.00    -0.000 C 
BRANCH   7   8
ATOM      8  C   UNL     1      -6.551 -44.231  19.494  1.00  0.00    -0.000 C 
BRANCH   8   9
ATOM      9  C   UNL     1      -5.676 -43.102  18.910  1.00  0.00    -0.000 C 
BRANCH   9  10
ATOM     10  C   UNL     1      -6.419 -42.197  17.911  1.00  0.00    -0.000 C 
BRANCH  10  11
ATOM     11  C   UNL     1      -6.297 -40.705  18.250  1.00  0.00    -0.003 C 
ATOM     12  C   UNL     1      -6.268 -40.482  19.760  1.00  0.00     0.004 C 
ENDBRANCH  10  11
ENDBRANCH   9  10
ENDBRANCH   8   9
ENDBRANCH   7   8
ENDBRANCH   6   7
ENDBRANCH   5   6
ENDBRANCH   4   5
ENDBRANCH   3   4
ENDBRANCH   2   3
ENDBRANCH   1   2
BRANCH   1  13
ATOM     13  C   UNL     1      -1.586 -47.780  17.117  1.00  0.00     0.000 C 
BRANCH  13  14
ATOM     14  C   UNL     1      -1.593 -46.708  18.219  1.00  0.00     0.000 C 
BRANCH  14  15
ATOM     15  C   UNL     1      -2.115 -45.352  17.718  1.00  0.00     0.000 C 
BRANCH  15  16
ATOM     16  C   UNL     1      -1.859 -45.139  16.217  1.00  0.00     0.000 C 
BRANCH  16  17
ATOM     17  C   UNL     1      -3.141 -44.797  15.442  1.00  0.00     0.000 C 
BRANCH  17  18
ATOM     18  C   UNL     1      -4.385 -45.313  16.181  1.00  0.00     0.000 C 
BRANCH  18  19
ATOM     19  C   UNL     1      -5.695 -44.927  15.474  1.00  0.00     0.000 C 
BRANCH  19  20
ATOM     20  C   UNL     1      -6.927 -45.597  16.105  1.00  0.00     0.006 C 
BRANCH  20  21
ATOM     21  C   UNL     1      -8.207 -44.776  15.892  1.00  0.00     0.053 C 
BRANCH  21  22
ATOM     22  C   UNL     1      -8.614 -44.740  14.450  1.00  0.00     0.041 C 
ATOM     23  O   UNL     1      -8.814 -43.637  13.876  1.00  0.00    -0.550 OA
ATOM     24  O   UNL     1      -8.804 -45.925  13.751  1.00  0.00    -0.550 OA
ENDBRANCH  21  22
ENDBRANCH  20  21
ENDBRANCH  19  20
ENDBRANCH  18  19
ENDBRANCH  17  18
ENDBRANCH  16  17
ENDBRANCH  15  16
ENDBRANCH  14  15
ENDBRANCH  13  14
ENDBRANCH   1  13
TORSDOF 20
ENDMDL
MODEL 2
REMARK VINA RESULT:    -4.351      2.859      6.158
REMARK INTER + INTRA:         -13.194
REMARK INTER:                 -10.128
REMARK INTRA:                  -3.066
REMARK UNBOUND:                -3.756
REMARK SMILES CCCCCCCCCCCCCCCCCCCCCC(=O)[O-]
REMARK SMILES IDX 12 1 11 2 10 3 9 4 8 5 7 6 6 7 5 8 4 9 3 10 2 11 1 12 13 13
REMARK SMILES IDX 14 14 15 15 16 16 17 17 18 18 19 19 20 20 21 21 22 22 23 23
REMARK SMILES IDX 24 24
REMARK H PARENT
REMARK Flexibility Score: inf
ROOT
ATOM      1  C   UNL     1      -2.009 -45.389  17.784  1.00  0.00     0.000 C 
ENDROOT
BRANCH   1   2
ATOM      2  C   UNL     1      -1.645 -45.299  16.296  1.00  0.00     0.000 C 
BRANCH   2   3
ATOM      3  C   UNL     1      -2.758 -44.662  15.448  1.00  0.00     0.000 C 
BRANCH   3   4
ATOM      4  C   UNL     1      -4.126 -44.692  16.147  1.00  0.00    -0.000 C 
BRANCH   4   5
ATOM      5  C   UNL     1      -5.188 -45.338  15.249  1.00  0.00    -0.000 C 
BRANCH   5   6
ATOM      6  C   UNL     1      -4.537 -46.060  14.060  1.00  0.00    -0.000 C 
BRANCH   6   7
ATOM      7  C   UNL     1      -5.230 -45.745  12.726  1.00  0.00    -0.000 C 
BRANCH   7   8
ATOM      8  C   UNL     1      -6.507 -44.902  12.904  1.00  0.00    -0.000 C 
BRANCH   8   9
ATOM      9  C   UNL     1      -7.788 -45.736  12.690  1.00  0.00    -0.000 C 
BRANCH   9  10
ATOM     10  C   UNL     1      -7.988 -46.199  11.235  1.00  0.00    -0.000 C 
BRANCH  10  11
ATOM     11  C   UNL     1      -8.002 -47.727  11.091  1.00  0.00    -0.003 C 
ATOM     12  C   UNL     1      -7.636 -48.150   9.670  1.00  0.00     0.004 C 
ENDBRANCH  10  11
ENDBRANCH   9  10
ENDBRANCH   8   9
ENDBRANCH   7   8
ENDBRANCH   6   7
ENDBRANCH   5   6
ENDBRANCH   4   5
ENDBRANCH   3   4
ENDBRANCH   2   3
ENDBRANCH   1   2
BRANCH   1  13
ATOM     13  C   UNL     1      -1.599 -46.750  18.368  1.00  0.00     0.000 C 
BRANCH  13  14
ATOM     14  C   UNL     1      -1.455 -47.836  17.289  1.00  0.00     0.000 C 
BRANCH  14  15
ATOM     15  C   UNL     1      -2.530 -48.928  17.407  1.00  0.00     0.000 C 
BRANCH  15  16
ATOM     16  C   UNL     1      -3.867 -48.511  16.774  1.00  0.00     0.000 C 
BRANCH  16  17
ATOM     17  C   UNL     1      -5.046 -48.628  17.754  1.00  0.00     0.000 C 
BRANCH  17  18
ATOM     18  C   UNL     1      -4.550 -48.704  19.205  1.00  0.00     0.000 C 
BRANCH  18  19
ATOM     19  C   UNL     1      -4.628 -47.349  19.929  1.00  0.00     0.000 C 
BRANCH  19  20
ATOM     20  C   UNL     1      -5.429 -46.302  19.138  1.00  0.00     0.006 C 
BRANCH  20  21
ATOM     21  C   UNL     1      -6.243 -45.379  20.056  1.00  0.00     0.053 C 
BRANCH  21  22
ATOM     22  C   UNL     1      -5.747 -43.966  20.011  1.00  0.00     0.041 C 
ATOM     23  O   UNL     1      -4.595 -43.713  19.570  1.00  0.00    -0.550 OA
ATOM     24  O   UNL     1      -6.544 -42.933  20.488  1.00  0.00    -0.550 OA
ENDBRANCH  21  22
ENDBRANCH  20  21
ENDBRANCH  19  20
ENDBRANCH  18  19
ENDBRANCH  17  18
ENDBRANCH  16  17
ENDBRANCH  15  16
ENDBRANCH  14  15
ENDBRANCH  13  14
ENDBRANCH   1  13
TORSDOF 20
ENDMDL
MODEL 3
REMARK VINA RESULT:    -4.321      2.426      5.657
REMARK INTER + INTRA:         -13.129
REMARK INTER:                  -9.455
REMARK INTRA:                  -3.675
REMARK UNBOUND:                -3.756
REMARK SMILES CCCCCCCCCCCCCCCCCCCCCC(=O)[O-]
REMARK SMILES IDX 12 1 11 2 10 3 9 4 8 5 7 6 6 7 5 8 4 9 3 10 2 11 1 12 13 13
REMARK SMILES IDX 14 14 15 15 16 16 17 17 18 18 19 19 20 20 21 21 22 22 23 23
REMARK SMILES IDX 24 24
REMARK H PARENT
REMARK Flexibility Score: inf
ROOT
ATOM      1  C   UNL     1      -1.464 -49.000  16.512  1.00  0.00     0.000 C 
ENDROOT
BRANCH   1   2
ATOM      2  C   UNL     1      -1.313 -47.479  16.375  1.00  0.00     0.000 C 
BRANCH   2   3
ATOM      3  C   UNL     1      -1.558 -46.735  17.698  1.00  0.00     0.000 C 
BRANCH   3   4
ATOM      4  C   UNL     1      -2.070 -45.301  17.486  1.00  0.00    -0.000 C 
BRANCH   4   5
ATOM      5  C   UNL     1      -1.842 -44.844  16.040  1.00  0.00    -0.000 C 
BRANCH   5   6
ATOM      6  C   UNL     1      -3.147 -44.329  15.415  1.00  0.00    -0.000 C 
BRANCH   6   7
ATOM      7  C   UNL     1      -4.372 -45.149  15.845  1.00  0.00    -0.000 C 
BRANCH   7   8
ATOM      8  C   UNL     1      -5.236 -45.597  14.652  1.00  0.00    -0.000 C 
BRANCH   8   9
ATOM      9  C   UNL     1      -4.460 -45.540  13.319  1.00  0.00    -0.000 C 
BRANCH   9  10
ATOM     10  C   UNL     1      -4.290 -46.913  12.644  1.00  0.00    -0.000 C 
BRANCH  10  11
ATOM     11  C   UNL     1      -3.408 -47.873  13.453  1.00  0.00    -0.003 C 
ATOM     12  C   UNL     1      -3.609 -49.318  13.005  1.00  0.00     0.004 C 
ENDBRANCH  10  11
ENDBRANCH   9  10
ENDBRANCH   8   9
ENDBRANCH   7   8
ENDBRANCH   6   7
ENDBRANCH   5   6
ENDBRANCH   4   5
ENDBRANCH   3   4
ENDBRANCH   2   3
ENDBRANCH   1   2
BRANCH   1  13
ATOM     13  C   UNL     1      -2.656 -49.355  17.414  1.00  0.00     0.000 C 
BRANCH  13  14
ATOM     14  C   UNL     1      -4.008 -49.021  16.762  1.00  0.00     0.000 C 
BRANCH  14  15
ATOM     15  C   UNL     1      -5.028 -48.469  17.772  1.00  0.00     0.000 C 
BRANCH  15  16
ATOM     16  C   UNL     1      -4.485 -48.453  19.210  1.00  0.00     0.000 C 
BRANCH  16  17
ATOM     17  C   UNL     1      -4.564 -47.061  19.855  1.00  0.00     0.000 C 
BRANCH  17  18
ATOM     18  C   UNL     1      -5.601 -46.181  19.141  1.00  0.00     0.000 C 
BRANCH  18  19
ATOM     19  C   UNL     1      -5.824 -44.835  19.850  1.00  0.00     0.000 C 
BRANCH  19  20
ATOM     20  C   UNL     1      -4.969 -43.704  19.254  1.00  0.00     0.006 C 
BRANCH  20  21
ATOM     21  C   UNL     1      -5.091 -42.400  20.055  1.00  0.00     0.053 C 
BRANCH  21  22
ATOM     22  C   UNL     1      -6.174 -41.514  19.518  1.00  0.00     0.041 C 
ATOM     23  O   UNL     1      -5.884 -40.534  18.782  1.00  0.00    -0.550 OA
ATOM     24  O   UNL     1      -7.500 -41.751  19.860  1.00  0.00    -0.550 OA
ENDBRANCH  21  22
ENDBRANCH  20  21
ENDBRANCH  19  20
ENDBRANCH  18  19
ENDBRANCH  17  18
ENDBRANCH  16  17
ENDBRANCH  15  16
ENDBRANCH  14  15
ENDBRANCH  13  14
ENDBRANCH   1  13
TORSDOF 20
ENDMDL
MODEL 4
REMARK VINA RESULT:    -4.275      1.929      4.380
REMARK INTER + INTRA:         -13.028
REMARK INTER:                  -9.587
REMARK INTRA:                  -3.442
REMARK UNBOUND:                -3.756
REMARK SMILES CCCCCCCCCCCCCCCCCCCCCC(=O)[O-]
REMARK SMILES IDX 12 1 11 2 10 3 9 4 8 5 7 6 6 7 5 8 4 9 3 10 2 11 1 12 13 13
REMARK SMILES IDX 14 14 15 15 16 16 17 17 18 18 19 19 20 20 21 21 22 22 23 23
REMARK SMILES IDX 24 24
REMARK H PARENT
REMARK Flexibility Score: inf
ROOT
ATOM      1  C   UNL     1      -1.997 -45.273  16.255  1.00  0.00     0.000 C 
ENDROOT
BRANCH   1   2
ATOM      2  C   UNL     1      -2.308 -45.388  17.754  1.00  0.00     0.000 C 
BRANCH   2   3
ATOM      3  C   UNL     1      -1.628 -46.600  18.412  1.00  0.00     0.000 C 
BRANCH   3   4
ATOM      4  C   UNL     1      -1.266 -47.698  17.399  1.00  0.00    -0.000 C 
BRANCH   4   5
ATOM      5  C   UNL     1      -2.129 -48.948  17.611  1.00  0.00    -0.000 C 
BRANCH   5   6
ATOM      6  C   UNL     1      -3.304 -48.977  16.621  1.00  0.00    -0.000 C 
BRANCH   6   7
ATOM      7  C   UNL     1      -4.667 -49.072  17.324  1.00  0.00    -0.000 C 
BRANCH   7   8
ATOM      8  C   UNL     1      -4.621 -48.566  18.778  1.00  0.00    -0.000 C 
BRANCH   8   9
ATOM      9  C   UNL     1      -5.366 -47.226  18.951  1.00  0.00    -0.000 C 
BRANCH   9  10
ATOM     10  C   UNL     1      -4.921 -46.427  20.189  1.00  0.00    -0.000 C 
BRANCH  10  11
ATOM     11  C   UNL     1      -5.756 -45.159  20.415  1.00  0.00    -0.003 C 
ATOM     12  C   UNL     1      -5.125 -43.953  19.725  1.00  0.00     0.004 C 
ENDBRANCH  10  11
ENDBRANCH   9  10
ENDBRANCH   8   9
ENDBRANCH   7   8
ENDBRANCH   6   7
ENDBRANCH   5   6
ENDBRANCH   4   5
ENDBRANCH   3   4
ENDBRANCH   2   3
ENDBRANCH   1   2
BRANCH   1  13
ATOM     13  C   UNL     1      -3.273 -45.442  15.415  1.00  0.00     0.000 C 
BRANCH  13  14
ATOM     14  C   UNL     1      -4.529 -44.932  16.141  1.00  0.00     0.000 C 
BRANCH  14  15
ATOM     15  C   UNL     1      -5.806 -45.657  15.686  1.00  0.00     0.000 C 
BRANCH  15  16
ATOM     16  C   UNL     1      -7.012 -45.349  16.588  1.00  0.00     0.000 C 
BRANCH  16  17
ATOM     17  C   UNL     1      -8.253 -44.923  15.789  1.00  0.00     0.000 C 
BRANCH  17  18
ATOM     18  C   UNL     1      -7.967 -44.933  14.280  1.00  0.00     0.000 C 
BRANCH  18  19
ATOM     19  C   UNL     1      -8.998 -45.753  13.487  1.00  0.00     0.000 C 
BRANCH  19  20
ATOM     20  C   UNL     1      -8.477 -46.181  12.106  1.00  0.00     0.006 C 
BRANCH  20  21
ATOM     21  C   UNL     1      -7.179 -45.455  11.725  1.00  0.00     0.053 C 
BRANCH  21  22
ATOM     22  C   UNL     1      -6.094 -46.414  11.339  1.00  0.00     0.041 C 
ATOM     23  O   UNL     1      -6.333 -47.649  11.279  1.00  0.00    -0.550 OA
ATOM     24  O   UNL     1      -4.812 -45.946  11.078  1.00  0.00    -0.550 OA
ENDBRANCH  21  22
ENDBRANCH  20  21
ENDBRANCH  19  20
ENDBRANCH  18  19
ENDBRANCH  17  18
ENDBRANCH  16  17
ENDBRANCH  15  16
ENDBRANCH  14  15
ENDBRANCH  13  14
ENDBRANCH   1  13
TORSDOF 20
ENDMDL
MODEL 5
REMARK VINA RESULT:    -4.255      4.132      5.810
REMARK INTER + INTRA:         -12.985
REMARK INTER:                  -9.690
REMARK INTRA:                  -3.295
REMARK UNBOUND:                -3.756
REMARK SMILES CCCCCCCCCCCCCCCCCCCCCC(=O)[O-]
REMARK SMILES IDX 12 1 11 2 10 3 9 4 8 5 7 6 6 7 5 8 4 9 3 10 2 11 1 12 13 13
REMARK SMILES IDX 14 14 15 15 16 16 17 17 18 18 19 19 20 20 21 21 22 22 23 23
REMARK SMILES IDX 24 24
REMARK H PARENT
REMARK Flexibility Score: inf
ROOT
ATOM      1  C   UNL     1      -1.642 -45.211  16.397  1.00  0.00     0.000 C 
ENDROOT
BRANCH   1   2
ATOM      2  C   UNL     1      -2.238 -45.235  17.812  1.00  0.00     0.000 C 
BRANCH   2   3
ATOM      3  C   UNL     1      -1.916 -46.532  18.571  1.00  0.00     0.000 C 
BRANCH   3   4
ATOM      4  C   UNL     1      -1.431 -47.657  17.644  1.00  0.00    -0.000 C 
BRANCH   4   5
ATOM      5  C   UNL     1      -2.285 -48.920  17.819  1.00  0.00    -0.000 C 
BRANCH   5   6
ATOM      6  C   UNL     1      -3.456 -48.662  18.779  1.00  0.00    -0.000 C 
BRANCH   6   7
ATOM      7  C   UNL     1      -4.824 -48.819  18.098  1.00  0.00    -0.000 C 
BRANCH   7   8
ATOM      8  C   UNL     1      -5.438 -47.471  17.679  1.00  0.00    -0.000 C 
BRANCH   8   9
ATOM      9  C   UNL     1      -5.548 -46.489  18.865  1.00  0.00    -0.000 C 
BRANCH   9  10
ATOM     10  C   UNL     1      -6.529 -45.330  18.618  1.00  0.00    -0.000 C 
BRANCH  10  11
ATOM     11  C   UNL     1      -6.151 -44.052  19.380  1.00  0.00    -0.003 C 
ATOM     12  C   UNL     1      -5.869 -42.900  18.419  1.00  0.00     0.004 C 
ENDBRANCH  10  11
ENDBRANCH   9  10
ENDBRANCH   8   9
ENDBRANCH   7   8
ENDBRANCH   6   7
ENDBRANCH   5   6
ENDBRANCH   4   5
ENDBRANCH   3   4
ENDBRANCH   2   3
ENDBRANCH   1   2
BRANCH   1  13
ATOM     13  C   UNL     1      -2.577 -44.482  15.419  1.00  0.00     0.000 C 
BRANCH  13  14
ATOM     14  C   UNL     1      -4.062 -44.747  15.716  1.00  0.00     0.000 C 
BRANCH  14  15
ATOM     15  C   UNL     1      -4.742 -45.581  14.618  1.00  0.00     0.000 C 
BRANCH  15  16
ATOM     16  C   UNL     1      -3.762 -46.524  13.902  1.00  0.00     0.000 C 
BRANCH  16  17
ATOM     17  C   UNL     1      -3.659 -47.898  14.583  1.00  0.00     0.000 C 
BRANCH  17  18
ATOM     18  C   UNL     1      -2.452 -48.686  14.052  1.00  0.00     0.000 C 
BRANCH  18  19
ATOM     19  C   UNL     1      -2.751 -49.406  12.727  1.00  0.00     0.000 C 
BRANCH  19  20
ATOM     20  C   UNL     1      -1.474 -49.811  11.973  1.00  0.00     0.006 C 
BRANCH  20  21
ATOM     21  C   UNL     1      -1.343 -49.090  10.624  1.00  0.00     0.053 C 
BRANCH  21  22
ATOM     22  C   UNL     1       0.064 -49.114  10.111  1.00  0.00     0.041 C 
ATOM     23  O   UNL     1       0.331 -49.683   9.019  1.00  0.00    -0.550 OA
ATOM     24  O   UNL     1       1.086 -48.538  10.855  1.00  0.00    -0.550 OA
ENDBRANCH  21  22
ENDBRANCH  20  21
ENDBRANCH  19  20
ENDBRANCH  18  19
ENDBRANCH  17  18
ENDBRANCH  16  17
ENDBRANCH  15  16
ENDBRANCH  14  15
ENDBRANCH  13  14
ENDBRANCH   1  13
TORSDOF 20
ENDMDL
MODEL 6
REMARK VINA RESULT:    -4.249      2.743      5.229
REMARK INTER + INTRA:         -12.972
REMARK INTER:                  -9.205
REMARK INTRA:                  -3.767
REMARK UNBOUND:                -3.756
REMARK SMILES CCCCCCCCCCCCCCCCCCCCCC(=O)[O-]
REMARK SMILES IDX 12 1 11 2 10 3 9 4 8 5 7 6 6 7 5 8 4 9 3 10 2 11 1 12 13 13
REMARK SMILES IDX 14 14 15 15 16 16 17 17 18 18 19 19 20 20 21 21 22 22 23 23
REMARK SMILES IDX 24 24
REMARK H PARENT
REMARK Flexibility Score: inf
ROOT
ATOM      1  C   UNL     1      -2.781 -44.610  15.773  1.00  0.00     0.000 C 
ENDROOT
BRANCH   1   2
ATOM      2  C   UNL     1      -3.923 -45.452  15.189  1.00  0.00     0.000 C 
BRANCH   2   3
ATOM      3  C   UNL     1      -4.430 -44.916  13.841  1.00  0.00     0.000 C 
BRANCH   3   4
ATOM      4  C   UNL     1      -5.060 -46.011  12.966  1.00  0.00    -0.000 C 
BRANCH   4   5
ATOM      5  C   UNL     1      -6.474 -45.614  12.522  1.00  0.00    -0.000 C 
BRANCH   5   6
ATOM      6  C   UNL     1      -7.081 -44.580  13.482  1.00  0.00    -0.000 C 
BRANCH   6   7
ATOM      7  C   UNL     1      -8.210 -45.165  14.344  1.00  0.00    -0.000 C 
BRANCH   7   8
ATOM      8  C   UNL     1      -7.791 -45.369  15.812  1.00  0.00    -0.000 C 
BRANCH   8   9
ATOM      9  C   UNL     1      -7.866 -44.059  16.625  1.00  0.00    -0.000 C 
BRANCH   9  10
ATOM     10  C   UNL     1      -6.519 -43.634  17.236  1.00  0.00    -0.000 C 
BRANCH  10  11
ATOM     11  C   UNL     1      -6.191 -42.154  16.992  1.00  0.00    -0.003 C 
ATOM     12  C   UNL     1      -5.729 -41.922  15.556  1.00  0.00     0.004 C 
ENDBRANCH  10  11
ENDBRANCH   9  10
ENDBRANCH   8   9
ENDBRANCH   7   8
ENDBRANCH   6   7
ENDBRANCH   5   6
ENDBRANCH   4   5
ENDBRANCH   3   4
ENDBRANCH   2   3
ENDBRANCH   1   2
BRANCH   1  13
ATOM     13  C   UNL     1      -1.650 -45.508  16.300  1.00  0.00     0.000 C 
BRANCH  13  14
ATOM     14  C   UNL     1      -1.950 -47.004  16.112  1.00  0.00     0.000 C 
BRANCH  14  15
ATOM     15  C   UNL     1      -1.386 -47.865  17.255  1.00  0.00     0.000 C 
BRANCH  15  16
ATOM     16  C   UNL     1      -2.351 -48.982  17.682  1.00  0.00     0.000 C 
BRANCH  16  17
ATOM     17  C   UNL     1      -3.656 -48.978  16.872  1.00  0.00     0.000 C 
BRANCH  17  18
ATOM     18  C   UNL     1      -4.854 -48.611  17.761  1.00  0.00     0.000 C 
BRANCH  18  19
ATOM     19  C   UNL     1      -4.519 -48.673  19.260  1.00  0.00     0.000 C 
BRANCH  19  20
ATOM     20  C   UNL     1      -4.614 -47.300  19.944  1.00  0.00     0.006 C 
BRANCH  20  21
ATOM     21  C   UNL     1      -4.461 -46.143  18.946  1.00  0.00     0.053 C 
BRANCH  21  22
ATOM     22  C   UNL     1      -3.453 -45.135  19.409  1.00  0.00     0.041 C 
ATOM     23  O   UNL     1      -2.318 -45.510  19.805  1.00  0.00    -0.550 OA
ATOM     24  O   UNL     1      -3.780 -43.785  19.435  1.00  0.00    -0.550 OA
ENDBRANCH  21  22
ENDBRANCH  20  21
ENDBRANCH  19  20
ENDBRANCH  18  19
ENDBRANCH  17  18
ENDBRANCH  16  17
ENDBRANCH  15  16
ENDBRANCH  14  15
ENDBRANCH  13  14
ENDBRANCH   1  13
TORSDOF 20
ENDMDL
MODEL 7
REMARK VINA RESULT:    -4.239      2.335      5.905
REMARK INTER + INTRA:         -12.952
REMARK INTER:                  -9.074
REMARK INTRA:                  -3.877
REMARK UNBOUND:                -3.756
REMARK SMILES CCCCCCCCCCCCCCCCCCCCCC(=O)[O-]
REMARK SMILES IDX 12 1 11 2 10 3 9 4 8 5 7 6 6 7 5 8 4 9 3 10 2 11 1 12 13 13
REMARK SMILES IDX 14 14 15 15 16 16 17 17 18 18 19 19 20 20 21 21 22 22 23 23
REMARK SMILES IDX 24 24
REMARK H PARENT
REMARK Flexibility Score: inf
ROOT
ATOM      1  C   UNL     1      -2.757 -45.182  15.432  1.00  0.00     0.000 C 
ENDROOT
BRANCH   1   2
ATOM      2  C   UNL     1      -1.693 -45.214  16.538  1.00  0.00     0.000 C 
BRANCH   2   3
ATOM      3  C   UNL     1      -2.295 -45.094  17.947  1.00  0.00     0.000 C 
BRANCH   3   4
ATOM      4  C   UNL     1      -2.016 -46.329  18.818  1.00  0.00    -0.000 C 
BRANCH   4   5
ATOM      5  C   UNL     1      -1.440 -47.475  17.979  1.00  0.00    -0.000 C 
BRANCH   5   6
ATOM      6  C   UNL     1      -2.359 -48.705  18.024  1.00  0.00    -0.000 C 
BRANCH   6   7
ATOM      7  C   UNL     1      -2.355 -49.495  16.706  1.00  0.00    -0.000 C 
BRANCH   7   8
ATOM      8  C   UNL     1      -1.690 -48.722  15.553  1.00  0.00    -0.000 C 
BRANCH   8   9
ATOM      9  C   UNL     1      -1.356 -49.637  14.356  1.00  0.00    -0.000 C 
BRANCH   9  10
ATOM     10  C   UNL     1      -2.047 -49.218  13.046  1.00  0.00    -0.000 C 
BRANCH  10  11
ATOM     11  C   UNL     1      -3.549 -48.950  13.220  1.00  0.00    -0.003 C 
ATOM     12  C   UNL     1      -3.940 -47.599  12.627  1.00  0.00     0.004 C 
ENDBRANCH  10  11
ENDBRANCH   9  10
ENDBRANCH   8   9
ENDBRANCH   7   8
ENDBRANCH   6   7
ENDBRANCH   5   6
ENDBRANCH   4   5
ENDBRANCH   3   4
ENDBRANCH   2   3
ENDBRANCH   1   2
BRANCH   1  13
ATOM     13  C   UNL     1      -3.867 -44.174  15.766  1.00  0.00     0.000 C 
BRANCH  13  14
ATOM     14  C   UNL     1      -5.231 -44.850  15.982  1.00  0.00     0.000 C 
BRANCH  14  15
ATOM     15  C   UNL     1      -5.160 -46.379  15.840  1.00  0.00     0.000 C 
BRANCH  15  16
ATOM     16  C   UNL     1      -5.364 -47.106  17.178  1.00  0.00     0.000 C 
BRANCH  16  17
ATOM     17  C   UNL     1      -6.143 -46.260  18.197  1.00  0.00     0.000 C 
BRANCH  17  18
ATOM     18  C   UNL     1      -5.466 -46.297  19.575  1.00  0.00     0.000 C 
BRANCH  18  19
ATOM     19  C   UNL     1      -5.653 -44.989  20.362  1.00  0.00     0.000 C 
BRANCH  19  20
ATOM     20  C   UNL     1      -5.452 -43.740  19.488  1.00  0.00     0.006 C 
BRANCH  20  21
ATOM     21  C   UNL     1      -6.506 -42.660  19.769  1.00  0.00     0.053 C 
BRANCH  21  22
ATOM     22  C   UNL     1      -7.825 -42.987  19.137  1.00  0.00     0.041 C 
ATOM     23  O   UNL     1      -8.864 -43.063  19.844  1.00  0.00    -0.550 OA
ATOM     24  O   UNL     1      -7.899 -43.240  17.773  1.00  0.00    -0.550 OA
ENDBRANCH  21  22
ENDBRANCH  20  21
ENDBRANCH  19  20
ENDBRANCH  18  19
ENDBRANCH  17  18
ENDBRANCH  16  17
ENDBRANCH  15  16
ENDBRANCH  14  15
ENDBRANCH  13  14
ENDBRANCH   1  13
TORSDOF 20
ENDMDL
MODEL 8
REMARK VINA RESULT:    -4.191      2.234      2.777
REMARK INTER + INTRA:         -12.848
REMARK INTER:                  -9.143
REMARK INTRA:                  -3.705
REMARK UNBOUND:                -3.756
REMARK SMILES CCCCCCCCCCCCCCCCCCCCCC(=O)[O-]
REMARK SMILES IDX 12 1 11 2 10 3 9 4 8 5 7 6 6 7 5 8 4 9 3 10 2 11 1 12 13 13
REMARK SMILES IDX 14 14 15 15 16 16 17 17 18 18 19 19 20 20 21 21 22 22 23 23
REMARK SMILES IDX 24 24
REMARK H PARENT
REMARK Flexibility Score: inf
ROOT
ATOM      1  C   UNL     1      -2.476 -49.041  17.222  1.00  0.00     0.000 C 
ENDROOT
BRANCH   1   2
ATOM      2  C   UNL     1      -3.864 -48.881  16.586  1.00  0.00     0.000 C 
BRANCH   2   3
ATOM      3  C   UNL     1      -4.952 -48.527  17.613  1.00  0.00     0.000 C 
BRANCH   3   4
ATOM      4  C   UNL     1      -4.528 -48.841  19.057  1.00  0.00    -0.000 C 
BRANCH   4   5
ATOM      5  C   UNL     1      -4.672 -47.604  19.953  1.00  0.00    -0.000 C 
BRANCH   5   6
ATOM      6  C   UNL     1      -5.194 -46.403  19.151  1.00  0.00    -0.000 C 
BRANCH   6   7
ATOM      7  C   UNL     1      -5.149 -45.093  19.953  1.00  0.00    -0.000 C 
BRANCH   7   8
ATOM      8  C   UNL     1      -6.376 -44.199  19.699  1.00  0.00    -0.000 C 
BRANCH   8   9
ATOM      9  C   UNL     1      -6.856 -44.271  18.234  1.00  0.00    -0.000 C 
BRANCH   9  10
ATOM     10  C   UNL     1      -7.304 -42.914  17.663  1.00  0.00    -0.000 C 
BRANCH  10  11
ATOM     11  C   UNL     1      -7.200 -42.845  16.133  1.00  0.00    -0.003 C 
ATOM     12  C   UNL     1      -6.062 -41.925  15.699  1.00  0.00     0.004 C 
ENDBRANCH  10  11
ENDBRANCH   9  10
ENDBRANCH   8   9
ENDBRANCH   7   8
ENDBRANCH   6   7
ENDBRANCH   5   6
ENDBRANCH   4   5
ENDBRANCH   3   4
ENDBRANCH   2   3
ENDBRANCH   1   2
BRANCH   1  13
ATOM     13  C   UNL     1      -1.605 -47.803  16.959  1.00  0.00     0.000 C 
BRANCH  13  14
ATOM     14  C   UNL     1      -1.587 -46.831  18.150  1.00  0.00     0.000 C 
BRANCH  14  15
ATOM     15  C   UNL     1      -1.994 -45.403  17.750  1.00  0.00     0.000 C 
BRANCH  15  16
ATOM     16  C   UNL     1      -1.576 -45.051  16.314  1.00  0.00     0.000 C 
BRANCH  16  17
ATOM     17  C   UNL     1      -2.751 -44.536  15.466  1.00  0.00     0.000 C 
BRANCH  17  18
ATOM     18  C   UNL     1      -4.087 -45.090  15.984  1.00  0.00     0.000 C 
BRANCH  18  19
ATOM     19  C   UNL     1      -4.969 -45.654  14.858  1.00  0.00     0.000 C 
BRANCH  19  20
ATOM     20  C   UNL     1      -4.208 -45.807  13.531  1.00  0.00     0.006 C 
BRANCH  20  21
ATOM     21  C   UNL     1      -5.098 -46.366  12.412  1.00  0.00     0.053 C 
BRANCH  21  22
ATOM     22  C   UNL     1      -4.504 -47.589  11.783  1.00  0.00     0.041 C 
ATOM     23  O   UNL     1      -4.628 -47.789  10.545  1.00  0.00    -0.550 OA
ATOM     24  O   UNL     1      -3.843 -48.525  12.569  1.00  0.00    -0.550 OA
ENDBRANCH  21  22
ENDBRANCH  20  21
ENDBRANCH  19  20
ENDBRANCH  18  19
ENDBRANCH  17  18
ENDBRANCH  16  17
ENDBRANCH  15  16
ENDBRANCH  14  15
ENDBRANCH  13  14
ENDBRANCH   1  13
TORSDOF 20
ENDMDL
MODEL 9
REMARK VINA RESULT:    -4.142      2.194      5.129
REMARK INTER + INTRA:         -12.741
REMARK INTER:                  -8.673
REMARK INTRA:                  -4.068
REMARK UNBOUND:                -3.756
REMARK SMILES CCCCCCCCCCCCCCCCCCCCCC(=O)[O-]
REMARK SMILES IDX 12 1 11 2 10 3 9 4 8 5 7 6 6 7 5 8 4 9 3 10 2 11 1 12 13 13
REMARK SMILES IDX 14 14 15 15 16 16 17 17 18 18 19 19 20 20 21 21 22 22 23 23
REMARK SMILES IDX 24 24
REMARK H PARENT
REMARK Flexibility Score: inf
ROOT
ATOM      1  C   UNL     1      -2.891 -44.833  16.615  1.00  0.00     0.000 C 
ENDROOT
BRANCH   1   2
ATOM      2  C   UNL     1      -1.983 -45.539  17.633  1.00  0.00     0.000 C 
BRANCH   2   3
ATOM      3  C   UNL     1      -2.603 -45.607  19.038  1.00  0.00     0.000 C 
BRANCH   3   4
ATOM      4  C   UNL     1      -4.052 -45.095  19.071  1.00  0.00    -0.000 C 
BRANCH   4   5
ATOM      5  C   UNL     1      -5.048 -46.261  19.070  1.00  0.00    -0.000 C 
BRANCH   5   6
ATOM      6  C   UNL     1      -4.569 -47.393  19.993  1.00  0.00    -0.000 C 
BRANCH   6   7
ATOM      7  C   UNL     1      -4.498 -48.750  19.275  1.00  0.00    -0.000 C 
BRANCH   7   8
ATOM      8  C   UNL     1      -4.800 -48.642  17.770  1.00  0.00    -0.000 C 
BRANCH   8   9
ATOM      9  C   UNL     1      -3.617 -49.124  16.903  1.00  0.00    -0.000 C 
BRANCH   9  10
ATOM     10  C   UNL     1      -2.254 -49.032  17.613  1.00  0.00    -0.000 C 
BRANCH  10  11
ATOM     11  C   UNL     1      -1.070 -49.291  16.671  1.00  0.00    -0.003 C 
ATOM     12  C   UNL     1      -1.432 -48.957  15.226  1.00  0.00     0.004 C 
ENDBRANCH  10  11
ENDBRANCH   9  10
ENDBRANCH   8   9
ENDBRANCH   7   8
ENDBRANCH   6   7
ENDBRANCH   5   6
ENDBRANCH   4   5
ENDBRANCH   3   4
ENDBRANCH   2   3
ENDBRANCH   1   2
BRANCH   1  13
ATOM     13  C   UNL     1      -3.090 -45.701  15.363  1.00  0.00     0.000 C 
BRANCH  13  14
ATOM     14  C   UNL     1      -4.569 -46.029  15.102  1.00  0.00     0.000 C 
BRANCH  14  15
ATOM     15  C   UNL     1      -5.029 -45.596  13.700  1.00  0.00     0.000 C 
BRANCH  15  16
ATOM     16  C   UNL     1      -4.140 -44.495  13.101  1.00  0.00     0.000 C 
BRANCH  16  17
ATOM     17  C   UNL     1      -4.729 -43.089  13.295  1.00  0.00     0.000 C 
BRANCH  17  18
ATOM     18  C   UNL     1      -6.208 -43.164  13.705  1.00  0.00     0.000 C 
BRANCH  18  19
ATOM     19  C   UNL     1      -6.543 -42.236  14.884  1.00  0.00     0.000 C 
BRANCH  19  20
ATOM     20  C   UNL     1      -5.878 -42.684  16.196  1.00  0.00     0.006 C 
BRANCH  20  21
ATOM     21  C   UNL     1      -6.756 -43.666  16.985  1.00  0.00     0.053 C 
BRANCH  21  22
ATOM     22  C   UNL     1      -7.401 -43.011  18.169  1.00  0.00     0.041 C 
ATOM     23  O   UNL     1      -7.870 -41.846  18.071  1.00  0.00    -0.550 OA
ATOM     24  O   UNL     1      -7.454 -43.674  19.388  1.00  0.00    -0.550 OA
ENDBRANCH  21  22
ENDBRANCH  20  21
ENDBRANCH  19  20
ENDBRANCH  18  19
ENDBRANCH  17  18
ENDBRANCH  16  17
ENDBRANCH  15  16
ENDBRANCH  14  15
ENDBRANCH  13  14
ENDBRANCH   1  13
TORSDOF 20
ENDMDL
