MODEL 1
REMARK VINA RESULT:    -7.084      0.000      0.000
REMARK INTER + INTRA:          -7.952
REMARK INTER:                  -7.705
REMARK INTRA:                  -0.247
REMARK UNBOUND:                -0.247
REMARK SMILES C[C@@H]1[C@@H](C)CC[C@@]2(C(=O)[O-])CC[C@@]3(C)C(=CC[C@@H]4[C@@]5(C)CC[C@@H](O)C(C)(C)[C@H]5CC[C@@]43C)[C@@H]12
REMARK SMILES IDX 7 1 6 2 11 3 33 4 5 5 12 6 15 7 2 8 3 9 13 10 16 11 1 12
REMARK SMILES IDX 4 13 14 14 31 15 17 16 18 17 30 18 32 19 19 20 29 21 28 22
REMARK SMILES IDX 21 23 20 24 25 25 22 26 23 27 26 28 27 29 8 30 9 31 10 32
REMARK SMILES IDX 24 33
REMARK H PARENT 24 34
REMARK Flexibility Score: inf
ROOT
ATOM      1  C   UNL     1     -20.146 -10.375 -44.687  1.00  0.00     0.017 C 
ATOM      2  C   UNL     1     -20.744  -8.969 -44.986  1.00  0.00     0.014 C 
ATOM      3  C   UNL     1     -21.182 -11.111 -43.787  1.00  0.00     0.014 C 
ATOM      4  C   UNL     1     -19.812 -11.208 -45.998  1.00  0.00     0.030 C 
ATOM      5  C   UNL     1     -19.989  -8.174 -46.038  1.00  0.00     0.004 C 
ATOM      6  C   UNL     1     -22.388 -11.703 -44.532  1.00  0.00     0.013 C 
ATOM      7  C   UNL     1     -20.748 -12.395 -46.379  1.00  0.00    -0.063 C 
ATOM      8  C   UNL     1     -19.405 -10.363 -47.282  1.00  0.00    -0.003 C 
ATOM      9  C   UNL     1     -19.957  -8.906 -47.362  1.00  0.00    -0.011 C 
ATOM     10  C   UNL     1     -22.070 -12.762 -45.659  1.00  0.00    -0.006 C 
ATOM     11  C   UNL     1     -20.230 -13.309 -47.237  1.00  0.00    -0.027 C 
ATOM     12  C   UNL     1     -17.872 -10.410 -47.531  1.00  0.00     0.008 C 
ATOM     13  C   UNL     1     -21.289  -8.821 -48.125  1.00  0.00     0.008 C 
ATOM     14  C   UNL     1     -23.255 -12.601 -46.677  1.00  0.00     0.017 C 
ATOM     15  C   UNL     1     -21.969 -14.301 -45.121  1.00  0.00    -0.020 C 
ATOM     16  C   UNL     1     -20.881 -14.631 -47.507  1.00  0.00     0.032 C 
ATOM     17  C   UNL     1     -21.311 -15.319 -46.179  1.00  0.00     0.006 C 
ATOM     18  C   UNL     1     -23.357 -14.859 -44.686  1.00  0.00     0.008 C 
ATOM     19  C   UNL     1     -21.039 -14.297 -43.867  1.00  0.00     0.012 C 
ATOM     20  C   UNL     1     -22.030 -16.741 -46.430  1.00  0.00    -0.025 C 
ATOM     21  C   UNL     1     -23.299 -16.293 -44.146  1.00  0.00     0.005 C 
ATOM     22  C   UNL     1     -22.705 -17.351 -45.117  1.00  0.00     0.003 C 
ATOM     23  C   UNL     1     -20.953 -17.736 -47.002  1.00  0.00     0.010 C 
ATOM     24  C   UNL     1     -23.138 -16.626 -47.538  1.00  0.00     0.012 C 
ATOM     25  C   UNL     1     -21.898 -18.530 -44.396  1.00  0.00    -0.006 C 
ATOM     26  C   UNL     1     -21.344 -19.212 -46.893  1.00  0.00     0.033 C 
ATOM     27  C   UNL     1     -21.597 -19.673 -45.450  1.00  0.00     0.120 C 
ATOM     28  C   UNL     1     -20.632 -17.993 -43.667  1.00  0.00     0.014 C 
ATOM     29  C   UNL     1     -22.779 -19.162 -43.274  1.00  0.00     0.014 C 
ENDROOT
BRANCH   1  30
ATOM     30  C   UNL     1     -18.861 -10.185 -43.857  1.00  0.00     0.048 C 
ATOM     31  O   UNL     1     -17.877 -10.956 -44.011  1.00  0.00    -0.550 OA
ATOM     32  O   UNL     1     -18.757  -9.191 -42.887  1.00  0.00    -0.550 OA
ENDBRANCH   1  30
BRANCH  27  33
ATOM     33  O   UNL     1     -20.601 -20.610 -45.065  1.00  0.00    -0.393 OA
ATOM     34  H   UNL     1     -20.246 -21.049 -45.889  1.00  0.00     0.210 HD
ENDBRANCH  27  33
TORSDOF 2
ENDMDL
MODEL 2
REMARK VINA RESULT:    -6.661      1.655      2.591
REMARK INTER + INTRA:          -7.492
REMARK INTER:                  -7.283
REMARK INTRA:                  -0.209
REMARK UNBOUND:                -0.247
REMARK SMILES C[C@@H]1[C@@H](C)CC[C@@]2(C(=O)[O-])CC[C@@]3(C)C(=CC[C@@H]4[C@@]5(C)CC[C@@H](O)C(C)(C)[C@H]5CC[C@@]43C)[C@@H]12
REMARK SMILES IDX 7 1 6 2 11 3 33 4 5 5 12 6 15 7 2 8 3 9 13 10 16 11 1 12
REMARK SMILES IDX 4 13 14 14 31 15 17 16 18 17 30 18 32 19 19 20 29 21 28 22
REMARK SMILES IDX 21 23 20 24 25 25 22 26 23 27 26 28 27 29 8 30 9 31 10 32
REMARK SMILES IDX 24 33
REMARK H PARENT 24 34
REMARK Flexibility Score: inf
ROOT
ATOM      1  C   UNL     1     -21.363 -10.820 -45.536  1.00  0.00     0.017 C 
ATOM      2  C   UNL     1     -21.046  -9.696 -46.565  1.00  0.00     0.014 C 
ATOM      3  C   UNL     1     -22.489 -11.692 -46.169  1.00  0.00     0.014 C 
ATOM      4  C   UNL     1     -20.095 -11.694 -45.148  1.00  0.00     0.030 C 
ATOM      5  C   UNL     1     -19.814  -8.870 -46.236  1.00  0.00     0.004 C 
ATOM      6  C   UNL     1     -22.016 -12.697 -47.229  1.00  0.00     0.013 C 
ATOM      7  C   UNL     1     -19.986 -13.139 -45.724  1.00  0.00    -0.063 C 
ATOM      8  C   UNL     1     -18.690 -10.950 -45.194  1.00  0.00    -0.003 C 
ATOM      9  C   UNL     1     -18.575  -9.736 -46.165  1.00  0.00    -0.011 C 
ATOM     10  C   UNL     1     -20.950 -13.765 -46.762  1.00  0.00    -0.006 C 
ATOM     11  C   UNL     1     -19.138 -13.975 -45.076  1.00  0.00    -0.027 C 
ATOM     12  C   UNL     1     -18.188 -10.594 -43.768  1.00  0.00     0.008 C 
ATOM     13  C   UNL     1     -18.046 -10.137 -47.552  1.00  0.00     0.008 C 
ATOM     14  C   UNL     1     -20.139 -14.087 -48.068  1.00  0.00     0.017 C 
ATOM     15  C   UNL     1     -21.599 -15.124 -46.129  1.00  0.00    -0.020 C 
ATOM     16  C   UNL     1     -19.101 -15.452 -45.327  1.00  0.00     0.032 C 
ATOM     17  C   UNL     1     -20.539 -16.046 -45.345  1.00  0.00     0.006 C 
ATOM     18  C   UNL     1     -22.312 -15.989 -47.211  1.00  0.00     0.008 C 
ATOM     19  C   UNL     1     -22.671 -14.685 -45.082  1.00  0.00     0.012 C 
ATOM     20  C   UNL     1     -20.543 -17.635 -45.627  1.00  0.00    -0.025 C 
ATOM     21  C   UNL     1     -22.960 -17.260 -46.649  1.00  0.00     0.005 C 
ATOM     22  C   UNL     1     -22.001 -18.227 -45.901  1.00  0.00     0.003 C 
ATOM     23  C   UNL     1     -19.887 -18.350 -44.388  1.00  0.00     0.010 C 
ATOM     24  C   UNL     1     -19.634 -17.991 -46.859  1.00  0.00     0.012 C 
ATOM     25  C   UNL     1     -22.676 -19.019 -44.686  1.00  0.00    -0.006 C 
ATOM     26  C   UNL     1     -20.192 -19.847 -44.297  1.00  0.00     0.033 C 
ATOM     27  C   UNL     1     -21.693 -20.161 -44.200  1.00  0.00     0.120 C 
ATOM     28  C   UNL     1     -23.128 -18.050 -43.554  1.00  0.00     0.014 C 
ATOM     29  C   UNL     1     -23.984 -19.716 -45.173  1.00  0.00     0.014 C 
ENDROOT
BRANCH   1  30
ATOM     30  C   UNL     1     -21.942 -10.163 -44.267  1.00  0.00     0.048 C 
ATOM     31  O   UNL     1     -22.647  -9.123 -44.347  1.00  0.00    -0.550 OA
ATOM     32  O   UNL     1     -21.674 -10.665 -42.996  1.00  0.00    -0.550 OA
ENDBRANCH   1  30
BRANCH  27  33
ATOM     33  O   UNL     1     -21.985 -20.715 -42.924  1.00  0.00    -0.393 OA
ATOM     34  H   UNL     1     -21.363 -21.480 -42.763  1.00  0.00     0.210 HD
ENDBRANCH  27  33
TORSDOF 2
ENDMDL
MODEL 3
REMARK VINA RESULT:    -6.487      1.608      8.054
REMARK INTER + INTRA:          -7.303
REMARK INTER:                  -7.183
REMARK INTRA:                  -0.120
REMARK UNBOUND:                -0.247
REMARK SMILES C[C@@H]1[C@@H](C)CC[C@@]2(C(=O)[O-])CC[C@@]3(C)C(=CC[C@@H]4[C@@]5(C)CC[C@@H](O)C(C)(C)[C@H]5CC[C@@]43C)[C@@H]12
REMARK SMILES IDX 7 1 6 2 11 3 33 4 5 5 12 6 15 7 2 8 3 9 13 10 16 11 1 12
REMARK SMILES IDX 4 13 14 14 31 15 17 16 18 17 30 18 32 19 19 20 29 21 28 22
REMARK SMILES IDX 21 23 20 24 25 25 22 26 23 27 26 28 27 29 8 30 9 31 10 32
REMARK SMILES IDX 24 33
REMARK H PARENT 24 34
REMARK Flexibility Score: inf
ROOT
ATOM      1  C   UNL     1     -22.080 -18.027 -46.453  1.00  0.00     0.017 C 
ATOM      2  C   UNL     1     -23.098 -19.045 -45.860  1.00  0.00     0.014 C 
ATOM      3  C   UNL     1     -22.922 -16.900 -47.121  1.00  0.00     0.014 C 
ATOM      4  C   UNL     1     -21.072 -17.443 -45.372  1.00  0.00     0.030 C 
ATOM      5  C   UNL     1     -22.479 -20.106 -44.966  1.00  0.00     0.004 C 
ATOM      6  C   UNL     1     -23.505 -15.862 -46.152  1.00  0.00     0.013 C 
ATOM      7  C   UNL     1     -21.277 -15.976 -44.886  1.00  0.00    -0.063 C 
ATOM      8  C   UNL     1     -20.710 -18.405 -44.159  1.00  0.00    -0.003 C 
ATOM      9  C   UNL     1     -21.771 -19.484 -43.782  1.00  0.00    -0.011 C 
ATOM     10  C   UNL     1     -22.469 -15.063 -45.267  1.00  0.00    -0.006 C 
ATOM     11  C   UNL     1     -20.206 -15.390 -44.297  1.00  0.00    -0.027 C 
ATOM     12  C   UNL     1     -19.296 -19.026 -44.328  1.00  0.00     0.008 C 
ATOM     13  C   UNL     1     -22.742 -19.002 -42.691  1.00  0.00     0.008 C 
ATOM     14  C   UNL     1     -23.272 -14.717 -43.962  1.00  0.00     0.017 C 
ATOM     15  C   UNL     1     -21.893 -13.707 -45.973  1.00  0.00    -0.020 C 
ATOM     16  C   UNL     1     -20.139 -13.922 -44.006  1.00  0.00     0.032 C 
ATOM     17  C   UNL     1     -20.600 -13.091 -45.239  1.00  0.00     0.006 C 
ATOM     18  C   UNL     1     -22.982 -12.599 -46.084  1.00  0.00     0.008 C 
ATOM     19  C   UNL     1     -21.447 -14.088 -47.420  1.00  0.00     0.012 C 
ATOM     20  C   UNL     1     -20.556 -11.503 -44.960  1.00  0.00    -0.025 C 
ATOM     21  C   UNL     1     -22.486 -11.320 -46.768  1.00  0.00     0.005 C 
ATOM     22  C   UNL     1     -21.256 -10.638 -46.106  1.00  0.00     0.003 C 
ATOM     23  C   UNL     1     -19.049 -11.079 -44.801  1.00  0.00     0.010 C 
ATOM     24  C   UNL     1     -21.247 -11.151 -43.593  1.00  0.00     0.012 C 
ATOM     25  C   UNL     1     -20.272  -9.908 -47.134  1.00  0.00    -0.006 C 
ATOM     26  C   UNL     1     -18.802  -9.577 -44.958  1.00  0.00     0.033 C 
ATOM     27  C   UNL     1     -19.237  -9.025 -46.324  1.00  0.00     0.120 C 
ATOM     28  C   UNL     1     -19.609 -10.923 -48.110  1.00  0.00     0.014 C 
ATOM     29  C   UNL     1     -21.087  -8.938 -48.046  1.00  0.00     0.014 C 
ENDROOT
BRANCH   1  30
ATOM     30  C   UNL     1     -21.284 -18.736 -47.567  1.00  0.00     0.048 C 
ATOM     31  O   UNL     1     -20.233 -18.222 -48.033  1.00  0.00    -0.550 OA
ATOM     32  O   UNL     1     -21.716 -19.938 -48.123  1.00  0.00    -0.550 OA
ENDBRANCH   1  30
BRANCH  27  33
ATOM     33  O   UNL     1     -18.094  -8.601 -47.055  1.00  0.00    -0.393 OA
ATOM     34  H   UNL     1     -17.548  -9.406 -47.282  1.00  0.00     0.210 HD
ENDBRANCH  27  33
TORSDOF 2
ENDMDL
MODEL 4
REMARK VINA RESULT:    -6.282      2.268      4.458
REMARK INTER + INTRA:          -7.079
REMARK INTER:                  -6.910
REMARK INTRA:                  -0.169
REMARK UNBOUND:                -0.247
REMARK SMILES C[C@@H]1[C@@H](C)CC[C@@]2(C(=O)[O-])CC[C@@]3(C)C(=CC[C@@H]4[C@@]5(C)CC[C@@H](O)C(C)(C)[C@H]5CC[C@@]43C)[C@@H]12
REMARK SMILES IDX 7 1 6 2 11 3 33 4 5 5 12 6 15 7 2 8 3 9 13 10 16 11 1 12
REMARK SMILES IDX 4 13 14 14 31 15 17 16 18 17 30 18 32 19 19 20 29 21 28 22
REMARK SMILES IDX 21 23 20 24 25 25 22 26 23 27 26 28 27 29 8 30 9 31 10 32
REMARK SMILES IDX 24 33
REMARK H PARENT 24 34
REMARK Flexibility Score: inf
ROOT
ATOM      1  C   UNL     1     -21.145 -12.684 -45.135  1.00  0.00     0.017 C 
ATOM      2  C   UNL     1     -20.065 -11.577 -45.315  1.00  0.00     0.014 C 
ATOM      3  C   UNL     1     -21.152 -13.511 -46.455  1.00  0.00     0.014 C 
ATOM      4  C   UNL     1     -20.895 -13.608 -43.867  1.00  0.00     0.030 C 
ATOM      5  C   UNL     1     -19.742 -10.802 -44.049  1.00  0.00     0.004 C 
ATOM      6  C   UNL     1     -20.018 -14.538 -46.586  1.00  0.00     0.013 C 
ATOM      7  C   UNL     1     -20.371 -15.058 -44.099  1.00  0.00    -0.063 C 
ATOM      8  C   UNL     1     -20.162 -12.923 -42.633  1.00  0.00    -0.003 C 
ATOM      9  C   UNL     1     -19.227 -11.717 -42.959  1.00  0.00    -0.011 C 
ATOM     10  C   UNL     1     -19.939 -15.648 -45.465  1.00  0.00    -0.006 C 
ATOM     11  C   UNL     1     -20.549 -15.926 -43.073  1.00  0.00    -0.027 C 
ATOM     12  C   UNL     1     -21.162 -12.582 -41.495  1.00  0.00     0.008 C 
ATOM     13  C   UNL     1     -17.767 -12.144 -43.178  1.00  0.00     0.008 C 
ATOM     14  C   UNL     1     -18.411 -16.007 -45.394  1.00  0.00     0.017 C 
ATOM     15  C   UNL     1     -20.836 -16.977 -45.774  1.00  0.00    -0.020 C 
ATOM     16  C   UNL     1     -20.345 -17.403 -43.212  1.00  0.00     0.032 C 
ATOM     17  C   UNL     1     -21.035 -17.939 -44.501  1.00  0.00     0.006 C 
ATOM     18  C   UNL     1     -20.251 -17.815 -46.950  1.00  0.00     0.008 C 
ATOM     19  C   UNL     1     -22.260 -16.491 -46.194  1.00  0.00     0.012 C 
ATOM     20  C   UNL     1     -20.825 -19.527 -44.694  1.00  0.00    -0.025 C 
ATOM     21  C   UNL     1     -21.084 -19.057 -47.290  1.00  0.00     0.005 C 
ATOM     22  C   UNL     1     -21.300 -20.060 -46.123  1.00  0.00     0.003 C 
ATOM     23  C   UNL     1     -21.611 -20.264 -43.548  1.00  0.00     0.010 C 
ATOM     24  C   UNL     1     -19.316 -19.924 -44.503  1.00  0.00     0.012 C 
ATOM     25  C   UNL     1     -22.708 -20.819 -46.156  1.00  0.00    -0.006 C 
ATOM     26  C   UNL     1     -21.872 -21.748 -43.822  1.00  0.00     0.033 C 
ATOM     27  C   UNL     1     -22.686 -21.999 -45.100  1.00  0.00     0.120 C 
ATOM     28  C   UNL     1     -23.895 -19.829 -45.973  1.00  0.00     0.014 C 
ATOM     29  C   UNL     1     -22.926 -21.464 -47.560  1.00  0.00     0.014 C 
ENDROOT
BRANCH   1  30
ATOM     30  C   UNL     1     -22.521 -11.999 -45.008  1.00  0.00     0.048 C 
ATOM     31  O   UNL     1     -23.499 -12.610 -44.505  1.00  0.00    -0.550 OA
ATOM     32  O   UNL     1     -22.740 -10.707 -45.480  1.00  0.00    -0.550 OA
ENDBRANCH   1  30
BRANCH  27  33
ATOM     33  O   UNL     1     -23.957 -22.536 -44.760  1.00  0.00    -0.393 OA
ATOM     34  H   UNL     1     -24.448 -22.744 -45.605  1.00  0.00     0.210 HD
ENDBRANCH  27  33
TORSDOF 2
ENDMDL
MODEL 5
REMARK VINA RESULT:    -6.236      1.273      8.108
REMARK INTER + INTRA:          -7.030
REMARK INTER:                  -7.017
REMARK INTRA:                  -0.013
REMARK UNBOUND:                -0.247
REMARK SMILES C[C@@H]1[C@@H](C)CC[C@@]2(C(=O)[O-])CC[C@@]3(C)C(=CC[C@@H]4[C@@]5(C)CC[C@@H](O)C(C)(C)[C@H]5CC[C@@]43C)[C@@H]12
REMARK SMILES IDX 7 1 6 2 11 3 33 4 5 5 12 6 15 7 2 8 3 9 13 10 16 11 1 12
REMARK SMILES IDX 4 13 14 14 31 15 17 16 18 17 30 18 32 19 19 20 29 21 28 22
REMARK SMILES IDX 21 23 20 24 25 25 22 26 23 27 26 28 27 29 8 30 9 31 10 32
REMARK SMILES IDX 24 33
REMARK H PARENT 24 34
REMARK Flexibility Score: inf
ROOT
ATOM      1  C   UNL     1     -20.691 -19.073 -45.185  1.00  0.00     0.017 C 
ATOM      2  C   UNL     1     -21.251 -20.309 -45.949  1.00  0.00     0.014 C 
ATOM      3  C   UNL     1     -19.877 -18.245 -46.223  1.00  0.00     0.014 C 
ATOM      4  C   UNL     1     -21.820 -18.197 -44.493  1.00  0.00     0.030 C 
ATOM      5  C   UNL     1     -22.265 -21.127 -45.167  1.00  0.00     0.004 C 
ATOM      6  C   UNL     1     -20.719 -17.371 -47.164  1.00  0.00     0.013 C 
ATOM      7  C   UNL     1     -22.190 -16.825 -45.135  1.00  0.00    -0.063 C 
ATOM      8  C   UNL     1     -23.121 -18.978 -44.016  1.00  0.00    -0.003 C 
ATOM      9  C   UNL     1     -23.466 -20.292 -44.783  1.00  0.00    -0.011 C 
ATOM     10  C   UNL     1     -21.643 -16.288 -46.481  1.00  0.00    -0.006 C 
ATOM     11  C   UNL     1     -22.837 -15.947 -44.330  1.00  0.00    -0.027 C 
ATOM     12  C   UNL     1     -23.123 -19.193 -42.478  1.00  0.00     0.008 C 
ATOM     13  C   UNL     1     -24.430 -20.054 -45.957  1.00  0.00     0.008 C 
ATOM     14  C   UNL     1     -22.844 -16.128 -47.481  1.00  0.00     0.017 C 
ATOM     15  C   UNL     1     -20.909 -14.853 -46.218  1.00  0.00    -0.020 C 
ATOM     16  C   UNL     1     -23.039 -14.507 -44.691  1.00  0.00     0.032 C 
ATOM     17  C   UNL     1     -21.718 -13.880 -45.224  1.00  0.00     0.006 C 
ATOM     18  C   UNL     1     -20.627 -14.090 -47.547  1.00  0.00     0.008 C 
ATOM     19  C   UNL     1     -19.536 -15.149 -45.535  1.00  0.00     0.012 C 
ATOM     20  C   UNL     1     -21.897 -12.331 -45.639  1.00  0.00    -0.025 C 
ATOM     21  C   UNL     1     -19.910 -12.750 -47.343  1.00  0.00     0.005 C 
ATOM     22  C   UNL     1     -20.638 -11.734 -46.420  1.00  0.00     0.003 C 
ATOM     23  C   UNL     1     -22.167 -11.505 -44.327  1.00  0.00     0.010 C 
ATOM     24  C   UNL     1     -23.169 -12.132 -46.540  1.00  0.00     0.012 C 
ATOM     25  C   UNL     1     -19.661 -10.800 -45.564  1.00  0.00    -0.006 C 
ATOM     26  C   UNL     1     -21.938 -10.000 -44.477  1.00  0.00     0.033 C 
ATOM     27  C   UNL     1     -20.505  -9.638 -44.897  1.00  0.00     0.120 C 
ATOM     28  C   UNL     1     -18.818 -11.630 -44.553  1.00  0.00     0.014 C 
ATOM     29  C   UNL     1     -18.618 -10.124 -46.508  1.00  0.00     0.014 C 
ENDROOT
BRANCH   1  30
ATOM     30  C   UNL     1     -19.703 -19.577 -44.114  1.00  0.00     0.048 C 
ATOM     31  O   UNL     1     -19.134 -18.769 -43.333  1.00  0.00    -0.550 OA
ATOM     32  O   UNL     1     -19.374 -20.926 -44.000  1.00  0.00    -0.550 OA
ENDBRANCH   1  30
BRANCH  27  33
ATOM     33  O   UNL     1     -19.857  -8.945 -43.839  1.00  0.00    -0.393 OA
ATOM     34  H   UNL     1     -19.329  -8.192 -44.232  1.00  0.00     0.210 HD
ENDBRANCH  27  33
TORSDOF 2
ENDMDL
MODEL 6
REMARK VINA RESULT:    -6.191      0.882      1.008
REMARK INTER + INTRA:          -6.980
REMARK INTER:                  -7.141
REMARK INTRA:                   0.161
REMARK UNBOUND:                -0.247
REMARK SMILES C[C@@H]1[C@@H](C)CC[C@@]2(C(=O)[O-])CC[C@@]3(C)C(=CC[C@@H]4[C@@]5(C)CC[C@@H](O)C(C)(C)[C@H]5CC[C@@]43C)[C@@H]12
REMARK SMILES IDX 7 1 6 2 11 3 33 4 5 5 12 6 15 7 2 8 3 9 13 10 16 11 1 12
REMARK SMILES IDX 4 13 14 14 31 15 17 16 18 17 30 18 32 19 19 20 29 21 28 22
REMARK SMILES IDX 21 23 20 24 25 25 22 26 23 27 26 28 27 29 8 30 9 31 10 32
REMARK SMILES IDX 24 33
REMARK H PARENT 24 34
REMARK Flexibility Score: inf
ROOT
ATOM      1  C   UNL     1     -19.768 -10.976 -43.951  1.00  0.00     0.017 C 
ATOM      2  C   UNL     1     -20.272  -9.505 -43.878  1.00  0.00     0.014 C 
ATOM      3  C   UNL     1     -20.732 -11.816 -43.061  1.00  0.00     0.014 C 
ATOM      4  C   UNL     1     -19.694 -11.544 -45.432  1.00  0.00     0.030 C 
ATOM      5  C   UNL     1     -19.601  -8.560 -44.861  1.00  0.00     0.004 C 
ATOM      6  C   UNL     1     -22.077 -12.169 -43.713  1.00  0.00     0.013 C 
ATOM      7  C   UNL     1     -20.776 -12.570 -45.887  1.00  0.00    -0.063 C 
ATOM      8  C   UNL     1     -19.394 -10.481 -46.577  1.00  0.00    -0.003 C 
ATOM      9  C   UNL     1     -19.818  -9.008 -46.290  1.00  0.00    -0.011 C 
ATOM     10  C   UNL     1     -22.014 -12.995 -45.057  1.00  0.00    -0.006 C 
ATOM     11  C   UNL     1     -20.466 -13.319 -46.973  1.00  0.00    -0.027 C 
ATOM     12  C   UNL     1     -17.921 -10.569 -47.062  1.00  0.00     0.008 C 
ATOM     13  C   UNL     1     -21.230  -8.689 -46.809  1.00  0.00     0.008 C 
ATOM     14  C   UNL     1     -23.309 -12.558 -45.832  1.00  0.00     0.017 C 
ATOM     15  C   UNL     1     -21.979 -14.614 -44.847  1.00  0.00    -0.020 C 
ATOM     16  C   UNL     1     -21.264 -14.517 -47.390  1.00  0.00     0.032 C 
ATOM     17  C   UNL     1     -21.567 -15.433 -46.169  1.00  0.00     0.006 C 
ATOM     18  C   UNL     1     -23.338 -15.163 -44.320  1.00  0.00     0.008 C 
ATOM     19  C   UNL     1     -20.888 -14.921 -43.773  1.00  0.00     0.012 C 
ATOM     20  C   UNL     1     -22.438 -16.729 -46.576  1.00  0.00    -0.025 C 
ATOM     21  C   UNL     1     -23.335 -16.678 -44.082  1.00  0.00     0.005 C 
ATOM     22  C   UNL     1     -22.978 -17.551 -45.317  1.00  0.00     0.003 C 
ATOM     23  C   UNL     1     -21.544 -17.650 -47.486  1.00  0.00     0.010 C 
ATOM     24  C   UNL     1     -23.674 -16.323 -47.458  1.00  0.00     0.012 C 
ATOM     25  C   UNL     1     -22.188 -18.898 -44.969  1.00  0.00    -0.006 C 
ATOM     26  C   UNL     1     -22.048 -19.090 -47.605  1.00  0.00     0.033 C 
ATOM     27  C   UNL     1     -22.140 -19.819 -46.256  1.00  0.00     0.120 C 
ATOM     28  C   UNL     1     -20.790 -18.599 -44.353  1.00  0.00     0.014 C 
ATOM     29  C   UNL     1     -22.959 -19.691 -43.867  1.00  0.00     0.014 C 
ENDROOT
BRANCH   1  30
ATOM     30  C   UNL     1     -18.368 -11.038 -43.307  1.00  0.00     0.048 C 
ATOM     31  O   UNL     1     -17.641 -10.011 -43.250  1.00  0.00    -0.550 OA
ATOM     32  O   UNL     1     -17.846 -12.228 -42.806  1.00  0.00    -0.550 OA
ENDBRANCH   1  30
BRANCH  27  33
ATOM     33  O   UNL     1     -21.188 -20.873 -46.215  1.00  0.00    -0.393 OA
ATOM     34  H   UNL     1     -21.144 -21.223 -45.280  1.00  0.00     0.210 HD
ENDBRANCH  27  33
TORSDOF 2
ENDMDL
MODEL 7
REMARK VINA RESULT:    -5.789      1.764      7.954
REMARK INTER + INTRA:          -6.543
REMARK INTER:                  -6.678
REMARK INTRA:                   0.135
REMARK UNBOUND:                -0.247
REMARK SMILES C[C@@H]1[C@@H](C)CC[C@@]2(C(=O)[O-])CC[C@@]3(C)C(=CC[C@@H]4[C@@]5(C)CC[C@@H](O)C(C)(C)[C@H]5CC[C@@]43C)[C@@H]12
REMARK SMILES IDX 7 1 6 2 11 3 33 4 5 5 12 6 15 7 2 8 3 9 13 10 16 11 1 12
REMARK SMILES IDX 4 13 14 14 31 15 17 16 18 17 30 18 32 19 19 20 29 21 28 22
REMARK SMILES IDX 21 23 20 24 25 25 22 26 23 27 26 28 27 29 8 30 9 31 10 32
REMARK SMILES IDX 24 33
REMARK H PARENT 24 34
REMARK Flexibility Score: inf
ROOT
ATOM      1  C   UNL     1     -20.085 -17.639 -45.888  1.00  0.00     0.017 C 
ATOM      2  C   UNL     1     -20.888 -18.892 -45.432  1.00  0.00     0.014 C 
ATOM      3  C   UNL     1     -21.027 -16.833 -46.832  1.00  0.00     0.014 C 
ATOM      4  C   UNL     1     -19.567 -16.748 -44.679  1.00  0.00     0.030 C 
ATOM      5  C   UNL     1     -20.226 -19.694 -44.324  1.00  0.00     0.004 C 
ATOM      6  C   UNL     1     -22.090 -15.983 -46.120  1.00  0.00     0.013 C 
ATOM      7  C   UNL     1     -20.284 -15.393 -44.397  1.00  0.00    -0.063 C 
ATOM      8  C   UNL     1     -19.247 -17.521 -43.326  1.00  0.00    -0.003 C 
ATOM      9  C   UNL     1     -20.022 -18.853 -43.083  1.00  0.00    -0.011 C 
ATOM     10  C   UNL     1     -21.559 -14.886 -45.116  1.00  0.00    -0.006 C 
ATOM     11  C   UNL     1     -19.591 -14.498 -43.651  1.00  0.00    -0.027 C 
ATOM     12  C   UNL     1     -17.718 -17.701 -43.122  1.00  0.00     0.008 C 
ATOM     13  C   UNL     1     -21.317 -18.645 -42.282  1.00  0.00     0.008 C 
ATOM     14  C   UNL     1     -22.711 -14.751 -44.057  1.00  0.00     0.017 C 
ATOM     15  C   UNL     1     -21.235 -13.443 -45.811  1.00  0.00    -0.020 C 
ATOM     16  C   UNL     1     -20.009 -13.067 -43.500  1.00  0.00     0.032 C 
ATOM     17  C   UNL     1     -20.379 -12.450 -44.880  1.00  0.00     0.006 C 
ATOM     18  C   UNL     1     -22.533 -12.711 -46.266  1.00  0.00     0.008 C 
ATOM     19  C   UNL     1     -20.372 -13.721 -47.082  1.00  0.00     0.012 C 
ATOM     20  C   UNL     1     -20.849 -10.911 -44.757  1.00  0.00    -0.025 C 
ATOM     21  C   UNL     1     -22.269 -11.365 -46.950  1.00  0.00     0.005 C 
ATOM     22  C   UNL     1     -21.472 -10.329 -46.108  1.00  0.00     0.003 C 
ATOM     23  C   UNL     1     -19.603 -10.056 -44.318  1.00  0.00     0.010 C 
ATOM     24  C   UNL     1     -21.914 -10.736 -43.615  1.00  0.00     0.012 C 
ATOM     25  C   UNL     1     -20.517  -9.374 -46.966  1.00  0.00    -0.006 C 
ATOM     26  C   UNL     1     -19.757  -8.553 -44.567  1.00  0.00     0.033 C 
ATOM     27  C   UNL     1     -19.993  -8.199 -46.043  1.00  0.00     0.120 C 
ATOM     28  C   UNL     1     -19.385 -10.178 -47.669  1.00  0.00     0.014 C 
ATOM     29  C   UNL     1     -21.332  -8.718 -48.125  1.00  0.00     0.014 C 
ENDROOT
BRANCH   1  30
ATOM     30  C   UNL     1     -18.883 -18.115 -46.727  1.00  0.00     0.048 C 
ATOM     31  O   UNL     1     -17.885 -18.648 -46.175  1.00  0.00    -0.550 OA
ATOM     32  O   UNL     1     -18.839 -17.938 -48.108  1.00  0.00    -0.550 OA
ENDBRANCH   1  30
BRANCH  27  33
ATOM     33  O   UNL     1     -18.877  -7.480 -46.547  1.00  0.00    -0.393 OA
ATOM     34  H   UNL     1     -18.175  -8.137 -46.819  1.00  0.00     0.210 HD
ENDBRANCH  27  33
TORSDOF 2
ENDMDL
MODEL 8
REMARK VINA RESULT:    -5.528      3.686      6.260
REMARK INTER + INTRA:          -6.259
REMARK INTER:                  -6.239
REMARK INTRA:                  -0.020
REMARK UNBOUND:                -0.247
REMARK SMILES C[C@@H]1[C@@H](C)CC[C@@]2(C(=O)[O-])CC[C@@]3(C)C(=CC[C@@H]4[C@@]5(C)CC[C@@H](O)C(C)(C)[C@H]5CC[C@@]43C)[C@@H]12
REMARK SMILES IDX 7 1 6 2 11 3 33 4 5 5 12 6 15 7 2 8 3 9 13 10 16 11 1 12
REMARK SMILES IDX 4 13 14 14 31 15 17 16 18 17 30 18 32 19 19 20 29 21 28 22
REMARK SMILES IDX 21 23 20 24 25 25 22 26 23 27 26 28 27 29 8 30 9 31 10 32
REMARK SMILES IDX 24 33
REMARK H PARENT 24 34
REMARK Flexibility Score: inf
ROOT
ATOM      1  C   UNL     1     -19.407 -17.073 -43.755  1.00  0.00     0.017 C 
ATOM      2  C   UNL     1     -19.737 -15.687 -43.129  1.00  0.00     0.014 C 
ATOM      3  C   UNL     1     -19.995 -18.144 -42.789  1.00  0.00     0.014 C 
ATOM      4  C   UNL     1     -19.968 -17.246 -45.231  1.00  0.00     0.030 C 
ATOM      5  C   UNL     1     -19.448 -14.501 -44.034  1.00  0.00     0.004 C 
ATOM      6  C   UNL     1     -21.509 -18.370 -42.910  1.00  0.00     0.013 C 
ATOM      7  C   UNL     1     -21.210 -18.162 -45.449  1.00  0.00    -0.063 C 
ATOM      8  C   UNL     1     -20.073 -15.919 -46.102  1.00  0.00    -0.003 C 
ATOM      9  C   UNL     1     -20.245 -14.582 -45.318  1.00  0.00    -0.011 C 
ATOM     10  C   UNL     1     -22.043 -18.827 -44.324  1.00  0.00    -0.006 C 
ATOM     11  C   UNL     1     -21.410 -18.602 -46.716  1.00  0.00    -0.027 C 
ATOM     12  C   UNL     1     -18.924 -15.830 -47.144  1.00  0.00     0.008 C 
ATOM     13  C   UNL     1     -21.720 -14.193 -45.130  1.00  0.00     0.008 C 
ATOM     14  C   UNL     1     -23.505 -18.255 -44.380  1.00  0.00     0.017 C 
ATOM     15  C   UNL     1     -22.040 -20.444 -44.549  1.00  0.00    -0.020 C 
ATOM     16  C   UNL     1     -22.389 -19.684 -47.057  1.00  0.00     0.032 C 
ATOM     17  C   UNL     1     -22.246 -20.888 -46.082  1.00  0.00     0.006 C 
ATOM     18  C   UNL     1     -23.113 -21.157 -43.673  1.00  0.00     0.008 C 
ATOM     19  C   UNL     1     -20.637 -20.973 -44.114  1.00  0.00     0.012 C 
ATOM     20  C   UNL     1     -23.295 -22.070 -46.408  1.00  0.00    -0.025 C 
ATOM     21  C   UNL     1     -23.121 -22.682 -43.834  1.00  0.00     0.005 C 
ATOM     22  C   UNL     1     -23.346 -23.201 -45.282  1.00  0.00     0.003 C 
ATOM     23  C   UNL     1     -22.902 -22.699 -47.796  1.00  0.00     0.010 C 
ATOM     24  C   UNL     1     -24.747 -21.500 -46.591  1.00  0.00     0.012 C 
ATOM     25  C   UNL     1     -22.579 -24.564 -45.621  1.00  0.00    -0.006 C 
ATOM     26  C   UNL     1     -23.511 -24.080 -48.051  1.00  0.00     0.033 C 
ATOM     27  C   UNL     1     -23.110 -25.128 -47.002  1.00  0.00     0.120 C 
ATOM     28  C   UNL     1     -21.034 -24.380 -45.565  1.00  0.00     0.014 C 
ATOM     29  C   UNL     1     -22.902 -25.636 -44.533  1.00  0.00     0.014 C 
ENDROOT
BRANCH   1  30
ATOM     30  C   UNL     1     -17.875 -17.245 -43.764  1.00  0.00     0.048 C 
ATOM     31  O   UNL     1     -17.227 -17.179 -44.841  1.00  0.00    -0.550 OA
ATOM     32  O   UNL     1     -17.164 -17.519 -42.598  1.00  0.00    -0.550 OA
ENDBRANCH   1  30
BRANCH  27  33
ATOM     33  O   UNL     1     -22.296 -26.124 -47.606  1.00  0.00    -0.393 OA
ATOM     34  H   UNL     1     -21.359 -25.781 -47.651  1.00  0.00     0.210 HD
ENDBRANCH  27  33
TORSDOF 2
ENDMDL
