MODEL 1
REMARK VINA RESULT:    11.850      0.000      0.000
REMARK INTER + INTRA:          12.906
REMARK INTER:                  12.889
REMARK INTRA:                   0.017
REMARK UNBOUND:                 0.017
REMARK SMILES C[C@@H]1[C@H](C)CC[C@]2(C(=O)[O-])CC[C@@]3(C)C(=CC[C@@H]4[C@]5(C)CC[C@@H](O)C(C)(C)[C@@H]5CC[C@]43C)[C@H]12
REMARK SMILES IDX 7 1 6 2 11 3 33 4 5 5 12 6 15 7 2 8 3 9 13 10 16 11 1 12
REMARK SMILES IDX 4 13 14 14 31 15 17 16 18 17 30 18 32 19 19 20 29 21 28 22
REMARK SMILES IDX 21 23 20 24 25 25 22 26 23 27 26 28 27 29 8 30 9 31 10 32
REMARK SMILES IDX 24 33
REMARK H PARENT 24 34
REMARK Flexibility Score: inf
ROOT
ATOM      1  C   UNL     1      15.293 -27.101   7.612  1.00  0.00     0.017 C 
ATOM      2  C   UNL     1      16.585 -26.343   8.066  1.00  0.00     0.014 C 
ATOM      3  C   UNL     1      14.855 -26.546   6.209  1.00  0.00     0.014 C 
ATOM      4  C   UNL     1      14.172 -26.987   8.736  1.00  0.00     0.030 C 
ATOM      5  C   UNL     1      16.877 -26.541   9.552  1.00  0.00     0.004 C 
ATOM      6  C   UNL     1      13.456 -25.919   6.135  1.00  0.00     0.013 C 
ATOM      7  C   UNL     1      12.723 -27.080   8.239  1.00  0.00    -0.063 C 
ATOM      8  C   UNL     1      14.374 -25.816   9.756  1.00  0.00    -0.003 C 
ATOM      9  C   UNL     1      15.774 -25.932  10.457  1.00  0.00    -0.011 C 
ATOM     10  C   UNL     1      12.319 -26.763   6.784  1.00  0.00    -0.006 C 
ATOM     11  C   UNL     1      11.777 -27.504   9.110  1.00  0.00    -0.027 C 
ATOM     12  C   UNL     1      14.051 -24.420   9.180  1.00  0.00     0.008 C 
ATOM     13  C   UNL     1      16.254 -24.628  11.117  1.00  0.00     0.008 C 
ATOM     14  C   UNL     1      12.323 -28.161   6.078  1.00  0.00     0.017 C 
ATOM     15  C   UNL     1      10.846 -26.008   6.683  1.00  0.00    -0.020 C 
ATOM     16  C   UNL     1      10.322 -27.309   8.800  1.00  0.00     0.032 C 
ATOM     17  C   UNL     1      10.196 -25.924   8.121  1.00  0.00     0.006 C 
ATOM     18  C   UNL     1      10.931 -24.530   6.203  1.00  0.00     0.008 C 
ATOM     19  C   UNL     1       9.940 -26.755   5.641  1.00  0.00     0.012 C 
ATOM     20  C   UNL     1       8.824 -25.154   8.337  1.00  0.00    -0.025 C 
ATOM     21  C   UNL     1       9.573 -23.810   6.172  1.00  0.00     0.005 C 
ATOM     22  C   UNL     1       8.823 -23.767   7.538  1.00  0.00     0.003 C 
ATOM     23  C   UNL     1       7.615 -26.072   7.967  1.00  0.00     0.010 C 
ATOM     24  C   UNL     1       8.720 -24.827   9.878  1.00  0.00     0.012 C 
ATOM     25  C   UNL     1       7.390 -23.080   7.412  1.00  0.00    -0.006 C 
ATOM     26  C   UNL     1       6.269 -25.347   7.882  1.00  0.00     0.033 C 
ATOM     27  C   UNL     1       6.331 -24.128   6.954  1.00  0.00     0.120 C 
ATOM     28  C   UNL     1       7.399 -21.921   6.371  1.00  0.00     0.014 C 
ATOM     29  C   UNL     1       6.969 -22.410   8.752  1.00  0.00     0.014 C 
ENDROOT
BRANCH   1  30
ATOM     30  C   UNL     1      15.697 -28.569   7.402  1.00  0.00     0.048 C 
ATOM     31  O   UNL     1      16.113 -29.288   8.350  1.00  0.00    -0.550 OA
ATOM     32  O   UNL     1      15.547 -29.154   6.148  1.00  0.00    -0.550 OA
ENDBRANCH   1  30
BRANCH  27  33
ATOM     33  O   UNL     1       5.057 -23.535   6.889  1.00  0.00    -0.393 OA
ATOM     34  H   UNL     1       4.535 -24.039   6.212  1.00  0.00     0.210 HD
ENDBRANCH  27  33
TORSDOF 2
ENDMDL
MODEL 2
REMARK VINA RESULT:    14.026      2.047      3.669
REMARK INTER + INTRA:          15.272
REMARK INTER:                  15.383
REMARK INTRA:                  -0.111
REMARK UNBOUND:                 0.017
REMARK SMILES C[C@@H]1[C@H](C)CC[C@]2(C(=O)[O-])CC[C@@]3(C)C(=CC[C@@H]4[C@]5(C)CC[C@@H](O)C(C)(C)[C@@H]5CC[C@]43C)[C@H]12
REMARK SMILES IDX 7 1 6 2 11 3 33 4 5 5 12 6 15 7 2 8 3 9 13 10 16 11 1 12
REMARK SMILES IDX 4 13 14 14 31 15 17 16 18 17 30 18 32 19 19 20 29 21 28 22
REMARK SMILES IDX 21 23 20 24 25 25 22 26 23 27 26 28 27 29 8 30 9 31 10 32
REMARK SMILES IDX 24 33
REMARK H PARENT 24 34
REMARK Flexibility Score: inf
ROOT
ATOM      1  C   UNL     1      14.483 -28.567  10.158  1.00  0.00     0.017 C 
ATOM      2  C   UNL     1      14.426 -29.707  11.228  1.00  0.00     0.014 C 
ATOM      3  C   UNL     1      14.404 -27.183  10.896  1.00  0.00     0.014 C 
ATOM      4  C   UNL     1      13.346 -28.789   9.066  1.00  0.00     0.030 C 
ATOM      5  C   UNL     1      14.127 -31.069  10.605  1.00  0.00     0.004 C 
ATOM      6  C   UNL     1      13.222 -26.280  10.519  1.00  0.00     0.013 C 
ATOM      7  C   UNL     1      12.842 -27.519   8.367  1.00  0.00    -0.063 C 
ATOM      8  C   UNL     1      12.171 -29.723   9.514  1.00  0.00    -0.003 C 
ATOM      9  C   UNL     1      12.721 -31.126   9.954  1.00  0.00    -0.011 C 
ATOM     10  C   UNL     1      12.980 -26.114   8.990  1.00  0.00    -0.006 C 
ATOM     11  C   UNL     1      12.301 -27.644   7.132  1.00  0.00    -0.027 C 
ATOM     12  C   UNL     1      11.194 -29.067  10.514  1.00  0.00     0.008 C 
ATOM     13  C   UNL     1      11.742 -31.940  10.817  1.00  0.00     0.008 C 
ATOM     14  C   UNL     1      14.306 -25.555   8.371  1.00  0.00     0.017 C 
ATOM     15  C   UNL     1      11.674 -25.144   8.665  1.00  0.00    -0.020 C 
ATOM     16  C   UNL     1      11.504 -26.520   6.538  1.00  0.00     0.032 C 
ATOM     17  C   UNL     1      10.683 -25.900   7.694  1.00  0.00     0.006 C 
ATOM     18  C   UNL     1      10.815 -24.811   9.920  1.00  0.00     0.008 C 
ATOM     19  C   UNL     1      12.166 -23.768   8.094  1.00  0.00     0.012 C 
ATOM     20  C   UNL     1       9.292 -25.245   7.299  1.00  0.00    -0.025 C 
ATOM     21  C   UNL     1       9.568 -23.967   9.610  1.00  0.00     0.005 C 
ATOM     22  C   UNL     1       8.584 -24.604   8.584  1.00  0.00     0.003 C 
ATOM     23  C   UNL     1       9.478 -24.222   6.133  1.00  0.00     0.010 C 
ATOM     24  C   UNL     1       8.370 -26.412   6.767  1.00  0.00     0.012 C 
ATOM     25  C   UNL     1       7.360 -23.639   8.249  1.00  0.00    -0.006 C 
ATOM     26  C   UNL     1       8.256 -23.343   5.857  1.00  0.00     0.033 C 
ATOM     27  C   UNL     1       7.758 -22.638   7.124  1.00  0.00     0.120 C 
ATOM     28  C   UNL     1       6.924 -22.813   9.496  1.00  0.00     0.014 C 
ATOM     29  C   UNL     1       6.096 -24.454   7.849  1.00  0.00     0.014 C 
ENDROOT
BRANCH   1  30
ATOM     30  C   UNL     1      15.874 -28.645   9.508  1.00  0.00     0.048 C 
ATOM     31  O   UNL     1      16.172 -29.545   8.677  1.00  0.00    -0.550 OA
ATOM     32  O   UNL     1      16.823 -27.667   9.790  1.00  0.00    -0.550 OA
ENDBRANCH   1  30
BRANCH  27  33
ATOM     33  O   UNL     1       6.664 -21.817   6.794  1.00  0.00    -0.393 OA
ATOM     34  H   UNL     1       6.838 -20.925   7.194  1.00  0.00     0.210 HD
ENDBRANCH  27  33
TORSDOF 2
ENDMDL
