MODEL 1
REMARK VINA RESULT:     0.000      0.000      0.000
REMARK INTER + INTRA:          -1.854
REMARK INTER:                   0.000
REMARK INTRA:                  -1.854
REMARK UNBOUND:                -1.854
REMARK SMILES CCCCCCCCCCCC(=O)[O-]
REMARK SMILES IDX 7 1 8 2 9 3 10 4 11 5 12 6 13 7 14 8 6 9 5 10 4 11 3 12 2 13
REMARK SMILES IDX 1 14
REMARK H PARENT
REMARK Flexibility Score: inf
ROOT
ATOM      1  C   UNL     1     177.285 188.842 192.957  1.00  0.00     0.000 C 
ENDROOT
BRANCH   1   2
ATOM      2  C   UNL     1     176.803 190.276 193.227  1.00  0.00     0.000 C 
BRANCH   2   3
ATOM      3  C   UNL     1     175.817 190.778 192.158  1.00  0.00     0.000 C 
BRANCH   3   4
ATOM      4  C   UNL     1     175.790 189.882 190.910  1.00  0.00     0.006 C 
BRANCH   4   5
ATOM      5  C   UNL     1     176.477 190.533 189.702  1.00  0.00     0.053 C 
BRANCH   5   6
ATOM      6  C   UNL     1     177.412 189.564 189.049  1.00  0.00     0.041 C 
ATOM      7  O   UNL     1     177.452 188.366 189.434  1.00  0.00    -0.550 OA
ATOM      8  O   UNL     1     178.273 189.995 188.049  1.00  0.00    -0.550 OA
ENDBRANCH   5   6
ENDBRANCH   4   5
ENDBRANCH   3   4
ENDBRANCH   2   3
ENDBRANCH   1   2
BRANCH   1   9
ATOM      9  C   UNL     1     178.807 188.761 192.746  1.00  0.00     0.000 C 
BRANCH   9  10
ATOM     10  C   UNL     1     179.474 190.146 192.697  1.00  0.00    -0.000 C 
BRANCH  10  11
ATOM     11  C   UNL     1     180.153 190.426 191.346  1.00  0.00    -0.000 C 
BRANCH  11  12
ATOM     12  C   UNL     1     179.819 191.823 190.797  1.00  0.00    -0.000 C 
BRANCH  12  13
ATOM     13  C   UNL     1     179.187 192.740 191.854  1.00  0.00    -0.003 C 
ATOM     14  C   UNL     1     178.073 193.589 191.249  1.00  0.00     0.004 C 
ENDBRANCH  12  13
ENDBRANCH  11  12
ENDBRANCH  10  11
ENDBRANCH   9  10
ENDBRANCH   1   9
TORSDOF 10
ENDMDL
MODEL 2
REMARK VINA RESULT:     0.001      7.327      9.316
REMARK INTER + INTRA:          -1.853
REMARK INTER:                   0.000
REMARK INTRA:                  -1.853
REMARK UNBOUND:                -1.854
REMARK SMILES CCCCCCCCCCCC(=O)[O-]
REMARK SMILES IDX 7 1 8 2 9 3 10 4 11 5 12 6 13 7 14 8 6 9 5 10 4 11 3 12 2 13
REMARK SMILES IDX 1 14
REMARK H PARENT
REMARK Flexibility Score: inf
ROOT
ATOM      1  C   UNL     1     175.062 189.882 197.497  1.00  0.00     0.000 C 
ENDROOT
BRANCH   1   2
ATOM      2  C   UNL     1     174.380 188.580 197.944  1.00  0.00     0.000 C 
BRANCH   2   3
ATOM      3  C   UNL     1     173.261 188.140 196.983  1.00  0.00     0.000 C 
BRANCH   3   4
ATOM      4  C   UNL     1     172.856 189.249 195.999  1.00  0.00     0.006 C 
BRANCH   4   5
ATOM      5  C   UNL     1     171.489 189.862 196.332  1.00  0.00     0.053 C 
BRANCH   5   6
ATOM      6  C   UNL     1     171.561 191.355 196.280  1.00  0.00     0.041 C 
ATOM      7  O   UNL     1     172.627 191.926 195.929  1.00  0.00    -0.550 OA
ATOM      8  O   UNL     1     170.466 192.117 196.665  1.00  0.00    -0.550 OA
ENDBRANCH   5   6
ENDBRANCH   4   5
ENDBRANCH   3   4
ENDBRANCH   2   3
ENDBRANCH   1   2
BRANCH   1   9
ATOM      9  C   UNL     1     174.932 191.004 198.542  1.00  0.00     0.000 C 
BRANCH   9  10
ATOM     10  C   UNL     1     173.981 190.636 199.693  1.00  0.00    -0.000 C 
BRANCH  10  11
ATOM     11  C   UNL     1     172.736 191.537 199.738  1.00  0.00    -0.000 C 
BRANCH  11  12
ATOM     12  C   UNL     1     171.441 190.741 199.972  1.00  0.00    -0.000 C 
BRANCH  12  13
ATOM     13  C   UNL     1     171.705 189.286 200.384  1.00  0.00    -0.003 C 
ATOM     14  C   UNL     1     170.728 188.335 199.699  1.00  0.00     0.004 C 
ENDBRANCH  12  13
ENDBRANCH  11  12
ENDBRANCH  10  11
ENDBRANCH   9  10
ENDBRANCH   1   9
TORSDOF 10
ENDMDL
MODEL 3
REMARK VINA RESULT:     0.003      5.841      8.192
REMARK INTER + INTRA:          -1.848
REMARK INTER:                   0.000
REMARK INTRA:                  -1.848
REMARK UNBOUND:                -1.854
REMARK SMILES CCCCCCCCCCCC(=O)[O-]
REMARK SMILES IDX 7 1 8 2 9 3 10 4 11 5 12 6 13 7 14 8 6 9 5 10 4 11 3 12 2 13
REMARK SMILES IDX 1 14
REMARK H PARENT
REMARK Flexibility Score: inf
ROOT
ATOM      1  C   UNL     1     171.754 191.837 189.173  1.00  0.00     0.000 C 
ENDROOT
BRANCH   1   2
ATOM      2  C   UNL     1     172.778 190.849 189.753  1.00  0.00     0.000 C 
BRANCH   2   3
ATOM      3  C   UNL     1     173.603 191.460 190.900  1.00  0.00     0.000 C 
BRANCH   3   4
ATOM      4  C   UNL     1     173.023 192.792 191.401  1.00  0.00     0.006 C 
BRANCH   4   5
ATOM      5  C   UNL     1     172.350 192.662 192.774  1.00  0.00     0.053 C 
BRANCH   5   6
ATOM      6  C   UNL     1     171.005 193.317 192.759  1.00  0.00     0.041 C 
ATOM      7  O   UNL     1     170.647 194.006 191.768  1.00  0.00    -0.550 OA
ATOM      8  O   UNL     1     170.166 193.208 193.860  1.00  0.00    -0.550 OA
ENDBRANCH   5   6
ENDBRANCH   4   5
ENDBRANCH   3   4
ENDBRANCH   2   3
ENDBRANCH   1   2
BRANCH   1   9
ATOM      9  C   UNL     1     170.305 191.343 189.328  1.00  0.00     0.000 C 
BRANCH   9  10
ATOM     10  C   UNL     1     170.200 190.072 190.188  1.00  0.00    -0.000 C 
BRANCH  10  11
ATOM     11  C   UNL     1     169.382 190.296 191.471  1.00  0.00    -0.000 C 
BRANCH  11  12
ATOM     12  C   UNL     1     170.060 189.696 192.714  1.00  0.00    -0.000 C 
BRANCH  12  13
ATOM     13  C   UNL     1     171.217 188.750 192.360  1.00  0.00    -0.003 C 
ATOM     14  C   UNL     1     172.385 188.925 193.327  1.00  0.00     0.004 C 
ENDBRANCH  12  13
ENDBRANCH  11  12
ENDBRANCH  10  11
ENDBRANCH   9  10
ENDBRANCH   1   9
TORSDOF 10
ENDMDL
MODEL 4
REMARK VINA RESULT:     0.005      7.353      8.813
REMARK INTER + INTRA:          -1.846
REMARK INTER:                   0.000
REMARK INTRA:                  -1.846
REMARK UNBOUND:                -1.854
REMARK SMILES CCCCCCCCCCCC(=O)[O-]
REMARK SMILES IDX 7 1 8 2 9 3 10 4 11 5 12 6 13 7 14 8 6 9 5 10 4 11 3 12 2 13
REMARK SMILES IDX 1 14
REMARK H PARENT
REMARK Flexibility Score: inf
ROOT
ATOM      1  C   UNL     1     176.639 185.414 197.524  1.00  0.00     0.000 C 
ENDROOT
BRANCH   1   2
ATOM      2  C   UNL     1     175.223 185.876 197.148  1.00  0.00     0.000 C 
BRANCH   2   3
ATOM      3  C   UNL     1     174.334 186.117 198.381  1.00  0.00     0.000 C 
BRANCH   3   4
ATOM      4  C   UNL     1     175.124 186.064 199.699  1.00  0.00     0.006 C 
BRANCH   4   5
ATOM      5  C   UNL     1     175.246 187.440 200.368  1.00  0.00     0.053 C 
BRANCH   5   6
ATOM      6  C   UNL     1     176.661 187.694 200.783  1.00  0.00     0.041 C 
ATOM      7  O   UNL     1     177.520 186.777 200.698  1.00  0.00    -0.550 OA
ATOM      8  O   UNL     1     177.020 188.927 201.310  1.00  0.00    -0.550 OA
ENDBRANCH   5   6
ENDBRANCH   4   5
ENDBRANCH   3   4
ENDBRANCH   2   3
ENDBRANCH   1   2
BRANCH   1   9
ATOM      9  C   UNL     1     177.726 186.386 197.031  1.00  0.00     0.000 C 
BRANCH   9  10
ATOM     10  C   UNL     1     177.150 187.730 196.556  1.00  0.00    -0.000 C 
BRANCH  10  11
ATOM     11  C   UNL     1     177.561 188.901 197.464  1.00  0.00    -0.000 C 
BRANCH  11  12
ATOM     12  C   UNL     1     176.397 189.864 197.746  1.00  0.00    -0.000 C 
BRANCH  12  13
ATOM     13  C   UNL     1     175.153 189.556 196.900  1.00  0.00    -0.003 C 
ATOM     14  C   UNL     1     173.875 189.741 197.714  1.00  0.00     0.004 C 
ENDBRANCH  12  13
ENDBRANCH  11  12
ENDBRANCH  10  11
ENDBRANCH   9  10
ENDBRANCH   1   9
TORSDOF 10
ENDMDL
MODEL 5
REMARK VINA RESULT:     0.006      4.433      6.254
REMARK INTER + INTRA:          -1.845
REMARK INTER:                   0.000
REMARK INTRA:                  -1.845
REMARK UNBOUND:                -1.854
REMARK SMILES CCCCCCCCCCCC(=O)[O-]
REMARK SMILES IDX 7 1 8 2 9 3 10 4 11 5 12 6 13 7 14 8 6 9 5 10 4 11 3 12 2 13
REMARK SMILES IDX 1 14
REMARK H PARENT
REMARK Flexibility Score: inf
ROOT
ATOM      1  C   UNL     1     180.355 192.038 195.912  1.00  0.00     0.000 C 
ENDROOT
BRANCH   1   2
ATOM      2  C   UNL     1     179.418 192.631 196.976  1.00  0.00     0.000 C 
BRANCH   2   3
ATOM      3  C   UNL     1     178.901 191.570 197.964  1.00  0.00     0.000 C 
BRANCH   3   4
ATOM      4  C   UNL     1     177.370 191.438 197.942  1.00  0.00     0.006 C 
BRANCH   4   5
ATOM      5  C   UNL     1     176.902 190.124 197.303  1.00  0.00     0.053 C 
BRANCH   5   6
ATOM      6  C   UNL     1     176.448 190.361 195.897  1.00  0.00     0.041 C 
ATOM      7  O   UNL     1     176.346 189.397 195.093  1.00  0.00    -0.550 OA
ATOM      8  O   UNL     1     176.185 191.653 195.460  1.00  0.00    -0.550 OA
ENDBRANCH   5   6
ENDBRANCH   4   5
ENDBRANCH   3   4
ENDBRANCH   2   3
ENDBRANCH   1   2
BRANCH   1   9
ATOM      9  C   UNL     1     179.643 191.793 194.570  1.00  0.00     0.000 C 
BRANCH   9  10
ATOM     10  C   UNL     1     179.684 190.318 194.137  1.00  0.00    -0.000 C 
BRANCH  10  11
ATOM     11  C   UNL     1     180.528 189.450 195.085  1.00  0.00    -0.000 C 
BRANCH  11  12
ATOM     12  C   UNL     1     179.714 188.312 195.723  1.00  0.00    -0.000 C 
BRANCH  12  13
ATOM     13  C   UNL     1     180.058 188.094 197.204  1.00  0.00    -0.003 C 
ATOM     14  C   UNL     1     181.358 188.802 197.575  1.00  0.00     0.004 C 
ENDBRANCH  12  13
ENDBRANCH  11  12
ENDBRANCH  10  11
ENDBRANCH   9  10
ENDBRANCH   1   9
TORSDOF 10
ENDMDL
MODEL 6
REMARK VINA RESULT:     0.006      8.693     10.283
REMARK INTER + INTRA:          -1.845
REMARK INTER:                   0.000
REMARK INTRA:                  -1.845
REMARK UNBOUND:                -1.854
REMARK SMILES CCCCCCCCCCCC(=O)[O-]
REMARK SMILES IDX 7 1 8 2 9 3 10 4 11 5 12 6 13 7 14 8 6 9 5 10 4 11 3 12 2 13
REMARK SMILES IDX 1 14
REMARK H PARENT
REMARK Flexibility Score: inf
ROOT
ATOM      1  C   UNL     1     172.639 193.576 198.058  1.00  0.00     0.000 C 
ENDROOT
BRANCH   1   2
ATOM      2  C   UNL     1     173.858 193.538 198.992  1.00  0.00     0.000 C 
BRANCH   2   3
ATOM      3  C   UNL     1     174.059 194.859 199.754  1.00  0.00     0.000 C 
BRANCH   3   4
ATOM      4  C   UNL     1     175.405 195.527 199.436  1.00  0.00     0.006 C 
BRANCH   4   5
ATOM      5  C   UNL     1     175.247 196.803 198.599  1.00  0.00     0.053 C 
BRANCH   5   6
ATOM      6  C   UNL     1     175.570 196.528 197.164  1.00  0.00     0.041 C 
ATOM      7  O   UNL     1     175.189 197.324 196.266  1.00  0.00    -0.550 OA
ATOM      8  O   UNL     1     176.249 195.368 196.814  1.00  0.00    -0.550 OA
ENDBRANCH   5   6
ENDBRANCH   4   5
ENDBRANCH   3   4
ENDBRANCH   2   3
ENDBRANCH   1   2
BRANCH   1   9
ATOM      9  C   UNL     1     173.026 193.844 196.593  1.00  0.00     0.000 C 
BRANCH   9  10
ATOM     10  C   UNL     1     172.364 195.111 196.026  1.00  0.00    -0.000 C 
BRANCH  10  11
ATOM     11  C   UNL     1     171.383 195.757 197.019  1.00  0.00    -0.000 C 
BRANCH  11  12
ATOM     12  C   UNL     1     171.776 197.198 197.382  1.00  0.00    -0.000 C 
BRANCH  12  13
ATOM     13  C   UNL     1     171.570 197.512 198.871  1.00  0.00    -0.003 C 
ATOM     14  C   UNL     1     170.701 196.451 199.541  1.00  0.00     0.004 C 
ENDBRANCH  12  13
ENDBRANCH  11  12
ENDBRANCH  10  11
ENDBRANCH   9  10
ENDBRANCH   1   9
TORSDOF 10
ENDMDL
MODEL 7
REMARK VINA RESULT:     0.007      6.512      8.551
REMARK INTER + INTRA:          -1.843
REMARK INTER:                   0.000
REMARK INTRA:                  -1.843
REMARK UNBOUND:                -1.854
REMARK SMILES CCCCCCCCCCCC(=O)[O-]
REMARK SMILES IDX 7 1 8 2 9 3 10 4 11 5 12 6 13 7 14 8 6 9 5 10 4 11 3 12 2 13
REMARK SMILES IDX 1 14
REMARK H PARENT
REMARK Flexibility Score: inf
ROOT
ATOM      1  C   UNL     1     178.913 189.125 196.516  1.00  0.00     0.000 C 
ENDROOT
BRANCH   1   2
ATOM      2  C   UNL     1     179.117 190.200 197.595  1.00  0.00     0.000 C 
BRANCH   2   3
ATOM      3  C   UNL     1     179.506 189.601 198.958  1.00  0.00     0.000 C 
BRANCH   3   4
ATOM      4  C   UNL     1     180.885 190.077 199.440  1.00  0.00     0.006 C 
BRANCH   4   5
ATOM      5  C   UNL     1     181.940 188.963 199.399  1.00  0.00     0.053 C 
BRANCH   5   6
ATOM      6  C   UNL     1     182.823 189.126 198.201  1.00  0.00     0.041 C 
ATOM      7  O   UNL     1     182.846 190.218 197.576  1.00  0.00    -0.550 OA
ATOM      8  O   UNL     1     183.583 188.056 197.747  1.00  0.00    -0.550 OA
ENDBRANCH   5   6
ENDBRANCH   4   5
ENDBRANCH   3   4
ENDBRANCH   2   3
ENDBRANCH   1   2
BRANCH   1   9
ATOM      9  C   UNL     1     180.141 188.965 195.604  1.00  0.00     0.000 C 
BRANCH   9  10
ATOM     10  C   UNL     1     180.718 187.540 195.629  1.00  0.00    -0.000 C 
BRANCH  10  11
ATOM     11  C   UNL     1     179.871 186.577 196.478  1.00  0.00    -0.000 C 
BRANCH  11  12
ATOM     12  C   UNL     1     180.666 185.962 197.641  1.00  0.00    -0.000 C 
BRANCH  12  13
ATOM     13  C   UNL     1     179.849 185.876 198.939  1.00  0.00    -0.003 C 
ATOM     14  C   UNL     1     178.361 186.073 198.665  1.00  0.00     0.004 C 
ENDBRANCH  12  13
ENDBRANCH  11  12
ENDBRANCH  10  11
ENDBRANCH   9  10
ENDBRANCH   1   9
TORSDOF 10
ENDMDL
MODEL 8
REMARK VINA RESULT:     0.007      7.793      9.558
REMARK INTER + INTRA:          -1.843
REMARK INTER:                   0.000
REMARK INTRA:                  -1.843
REMARK UNBOUND:                -1.854
REMARK SMILES CCCCCCCCCCCC(=O)[O-]
REMARK SMILES IDX 7 1 8 2 9 3 10 4 11 5 12 6 13 7 14 8 6 9 5 10 4 11 3 12 2 13
REMARK SMILES IDX 1 14
REMARK H PARENT
REMARK Flexibility Score: inf
ROOT
ATOM      1  C   UNL     1     175.156 192.765 198.299  1.00  0.00     0.000 C 
ENDROOT
BRANCH   1   2
ATOM      2  C   UNL     1     175.333 192.970 196.787  1.00  0.00     0.000 C 
BRANCH   2   3
ATOM      3  C   UNL     1     174.039 192.699 195.999  1.00  0.00     0.000 C 
BRANCH   3   4
ATOM      4  C   UNL     1     173.541 193.936 195.236  1.00  0.00     0.006 C 
BRANCH   4   5
ATOM      5  C   UNL     1     172.265 194.530 195.846  1.00  0.00     0.053 C 
BRANCH   5   6
ATOM      6  C   UNL     1     172.592 195.741 196.662  1.00  0.00     0.041 C 
ATOM      7  O   UNL     1     173.709 196.308 196.534  1.00  0.00    -0.550 OA
ATOM      8  O   UNL     1     171.683 196.214 197.599  1.00  0.00    -0.550 OA
ENDBRANCH   5   6
ENDBRANCH   4   5
ENDBRANCH   3   4
ENDBRANCH   2   3
ENDBRANCH   1   2
BRANCH   1   9
ATOM      9  C   UNL     1     174.948 194.091 199.053  1.00  0.00     0.000 C 
BRANCH   9  10
ATOM     10  C   UNL     1     173.613 194.136 199.815  1.00  0.00    -0.000 C 
BRANCH  10  11
ATOM     11  C   UNL     1     172.848 192.804 199.742  1.00  0.00    -0.000 C 
BRANCH  11  12
ATOM     12  C   UNL     1     171.460 192.955 199.097  1.00  0.00    -0.000 C 
BRANCH  12  13
ATOM     13  C   UNL     1     171.116 191.795 198.152  1.00  0.00    -0.003 C 
ATOM     14  C   UNL     1     172.059 190.615 198.364  1.00  0.00     0.004 C 
ENDBRANCH  12  13
ENDBRANCH  11  12
ENDBRANCH  10  11
ENDBRANCH   9  10
ENDBRANCH   1   9
TORSDOF 10
ENDMDL
MODEL 9
REMARK VINA RESULT:     0.007      8.369     10.381
REMARK INTER + INTRA:          -1.842
REMARK INTER:                   0.000
REMARK INTRA:                  -1.842
REMARK UNBOUND:                -1.854
REMARK SMILES CCCCCCCCCCCC(=O)[O-]
REMARK SMILES IDX 7 1 8 2 9 3 10 4 11 5 12 6 13 7 14 8 6 9 5 10 4 11 3 12 2 13
REMARK SMILES IDX 1 14
REMARK H PARENT
REMARK Flexibility Score: inf
ROOT
ATOM      1  C   UNL     1     174.002 185.838 198.982  1.00  0.00     0.000 C 
ENDROOT
BRANCH   1   2
ATOM      2  C   UNL     1     174.877 186.304 197.808  1.00  0.00     0.000 C 
BRANCH   2   3
ATOM      3  C   UNL     1     175.454 187.714 198.024  1.00  0.00     0.000 C 
BRANCH   3   4
ATOM      4  C   UNL     1     176.989 187.724 198.073  1.00  0.00     0.006 C 
BRANCH   4   5
ATOM      5  C   UNL     1     177.533 188.029 199.475  1.00  0.00     0.053 C 
BRANCH   5   6
ATOM      6  C   UNL     1     178.004 186.773 200.136  1.00  0.00     0.041 C 
ATOM      7  O   UNL     1     178.205 185.735 199.453  1.00  0.00    -0.550 OA
ATOM      8  O   UNL     1     178.175 186.734 201.514  1.00  0.00    -0.550 OA
ENDBRANCH   5   6
ENDBRANCH   4   5
ENDBRANCH   3   4
ENDBRANCH   2   3
ENDBRANCH   1   2
BRANCH   1   9
ATOM      9  C   UNL     1     174.762 184.922 199.958  1.00  0.00     0.000 C 
BRANCH   9  10
ATOM     10  C   UNL     1     174.794 185.479 201.391  1.00  0.00    -0.000 C 
BRANCH  10  11
ATOM     11  C   UNL     1     173.976 186.772 201.538  1.00  0.00    -0.000 C 
BRANCH  11  12
ATOM     12  C   UNL     1     174.831 187.960 202.011  1.00  0.00    -0.000 C 
BRANCH  12  13
ATOM     13  C   UNL     1     174.483 189.267 201.285  1.00  0.00    -0.003 C 
ATOM     14  C   UNL     1     173.144 189.154 200.561  1.00  0.00     0.004 C 
ENDBRANCH  12  13
ENDBRANCH  11  12
ENDBRANCH  10  11
ENDBRANCH   9  10
ENDBRANCH   1   9
TORSDOF 10
ENDMDL
