MODEL 1
REMARK VINA RESULT:    -4.471      0.000      0.000
REMARK INTER + INTRA:         -10.450
REMARK INTER:                  -8.653
REMARK INTRA:                  -1.797
REMARK UNBOUND:                -1.797
REMARK SMILES CCCCCCCCCCCCCCCCCC(=O)[O-]
REMARK SMILES IDX 10 1 11 2 12 3 13 4 14 5 15 6 16 7 17 8 18 9 19 10 20 11
REMARK SMILES IDX 9 12 8 13 7 14 6 15 5 16 4 17 3 18 2 19 1 20
REMARK H PARENT
REMARK Flexibility Score: inf
ROOT
ATOM      1  C   UNL     1      30.072  -2.937 164.087  1.00  0.00     0.000 C 
ENDROOT
BRANCH   1   2
ATOM      2  C   UNL     1      31.548  -3.321 163.854  1.00  0.00     0.000 C 
BRANCH   2   3
ATOM      3  C   UNL     1      32.417  -2.154 163.356  1.00  0.00     0.000 C 
BRANCH   3   4
ATOM      4  C   UNL     1      31.980  -0.794 163.927  1.00  0.00     0.000 C 
BRANCH   4   5
ATOM      5  C   UNL     1      32.752   0.382 163.291  1.00  0.00     0.000 C 
BRANCH   5   6
ATOM      6  C   UNL     1      34.082   0.706 163.998  1.00  0.00     0.000 C 
BRANCH   6   7
ATOM      7  C   UNL     1      33.951   1.063 165.488  1.00  0.00     0.006 C 
BRANCH   7   8
ATOM      8  C   UNL     1      33.864   2.575 165.730  1.00  0.00     0.053 C 
BRANCH   8   9
ATOM      9  C   UNL     1      35.154   3.087 166.290  1.00  0.00     0.041 C 
ATOM     10  O   UNL     1      35.155   4.033 167.122  1.00  0.00    -0.550 OA
ATOM     11  O   UNL     1      36.359   2.535 165.871  1.00  0.00    -0.550 OA
ENDBRANCH   8   9
ENDBRANCH   7   8
ENDBRANCH   6   7
ENDBRANCH   5   6
ENDBRANCH   4   5
ENDBRANCH   3   4
ENDBRANCH   2   3
ENDBRANCH   1   2
BRANCH   1  12
ATOM     12  C   UNL     1      29.232  -4.126 164.578  1.00  0.00     0.000 C 
BRANCH  12  13
ATOM     13  C   UNL     1      27.944  -3.645 165.260  1.00  0.00    -0.000 C 
BRANCH  13  14
ATOM     14  C   UNL     1      28.071  -2.225 165.843  1.00  0.00    -0.000 C 
BRANCH  14  15
ATOM     15  C   UNL     1      27.940  -2.177 167.380  1.00  0.00    -0.000 C 
BRANCH  15  16
ATOM     16  C   UNL     1      29.027  -1.299 168.028  1.00  0.00    -0.000 C 
BRANCH  16  17
ATOM     17  C   UNL     1      30.271  -1.147 167.139  1.00  0.00    -0.000 C 
BRANCH  17  18
ATOM     18  C   UNL     1      31.320  -0.200 167.747  1.00  0.00    -0.000 C 
BRANCH  18  19
ATOM     19  C   UNL     1      30.893   1.275 167.678  1.00  0.00    -0.003 C 
ATOM     20  C   UNL     1      30.392   1.808 169.022  1.00  0.00     0.004 C 
ENDBRANCH  18  19
ENDBRANCH  17  18
ENDBRANCH  16  17
ENDBRANCH  15  16
ENDBRANCH  14  15
ENDBRANCH  13  14
ENDBRANCH  12  13
ENDBRANCH   1  12
TORSDOF 16
ENDMDL
MODEL 2
REMARK VINA RESULT:    -4.456      2.926      6.749
REMARK INTER + INTRA:         -10.420
REMARK INTER:                  -8.796
REMARK INTRA:                  -1.624
REMARK UNBOUND:                -1.797
REMARK SMILES CCCCCCCCCCCCCCCCCC(=O)[O-]
REMARK SMILES IDX 10 1 11 2 12 3 13 4 14 5 15 6 16 7 17 8 18 9 19 10 20 11
REMARK SMILES IDX 9 12 8 13 7 14 6 15 5 16 4 17 3 18 2 19 1 20
REMARK H PARENT
REMARK Flexibility Score: inf
ROOT
ATOM      1  C   UNL     1      31.174   1.367 167.239  1.00  0.00     0.000 C 
ENDROOT
BRANCH   1   2
ATOM      2  C   UNL     1      30.998   0.033 167.993  1.00  0.00     0.000 C 
BRANCH   2   3
ATOM      3  C   UNL     1      29.607  -0.136 168.628  1.00  0.00     0.000 C 
BRANCH   3   4
ATOM      4  C   UNL     1      28.859  -1.377 168.110  1.00  0.00     0.000 C 
BRANCH   4   5
ATOM      5  C   UNL     1      29.237  -1.721 166.654  1.00  0.00     0.000 C 
BRANCH   5   6
ATOM      6  C   UNL     1      28.106  -2.408 165.864  1.00  0.00     0.000 C 
BRANCH   6   7
ATOM      7  C   UNL     1      28.575  -3.473 164.859  1.00  0.00     0.006 C 
BRANCH   7   8
ATOM      8  C   UNL     1      30.091  -3.439 164.624  1.00  0.00     0.053 C 
BRANCH   8   9
ATOM      9  C   UNL     1      30.400  -2.795 163.308  1.00  0.00     0.041 C 
ATOM     10  O   UNL     1      31.563  -2.855 162.829  1.00  0.00    -0.550 OA
ATOM     11  O   UNL     1      29.405  -2.106 162.624  1.00  0.00    -0.550 OA
ENDBRANCH   8   9
ENDBRANCH   7   8
ENDBRANCH   6   7
ENDBRANCH   5   6
ENDBRANCH   4   5
ENDBRANCH   3   4
ENDBRANCH   2   3
ENDBRANCH   1   2
BRANCH   1  12
ATOM     12  C   UNL     1      32.234   1.271 166.129  1.00  0.00     0.000 C 
BRANCH  12  13
ATOM     13  C   UNL     1      32.801  -0.151 166.033  1.00  0.00    -0.000 C 
BRANCH  13  14
ATOM     14  C   UNL     1      33.620  -0.383 164.751  1.00  0.00    -0.000 C 
BRANCH  14  15
ATOM     15  C   UNL     1      35.043   0.214 164.811  1.00  0.00    -0.000 C 
BRANCH  15  16
ATOM     16  C   UNL     1      35.222   1.387 163.831  1.00  0.00    -0.000 C 
BRANCH  16  17
ATOM     17  C   UNL     1      35.836   2.627 164.500  1.00  0.00    -0.000 C 
BRANCH  17  18
ATOM     18  C   UNL     1      35.829   2.536 166.035  1.00  0.00    -0.000 C 
BRANCH  18  19
ATOM     19  C   UNL     1      34.877   3.555 166.681  1.00  0.00    -0.003 C 
ATOM     20  C   UNL     1      35.619   4.671 167.419  1.00  0.00     0.004 C 
ENDBRANCH  18  19
ENDBRANCH  17  18
ENDBRANCH  16  17
ENDBRANCH  15  16
ENDBRANCH  14  15
ENDBRANCH  13  14
ENDBRANCH  12  13
ENDBRANCH   1  12
TORSDOF 16
ENDMDL
MODEL 3
REMARK VINA RESULT:    -4.396      1.340      4.106
REMARK INTER + INTRA:         -10.305
REMARK INTER:                  -8.475
REMARK INTRA:                  -1.830
REMARK UNBOUND:                -1.797
REMARK SMILES CCCCCCCCCCCCCCCCCC(=O)[O-]
REMARK SMILES IDX 10 1 11 2 12 3 13 4 14 5 15 6 16 7 17 8 18 9 19 10 20 11
REMARK SMILES IDX 9 12 8 13 7 14 6 15 5 16 4 17 3 18 2 19 1 20
REMARK H PARENT
REMARK Flexibility Score: inf
ROOT
ATOM      1  C   UNL     1      29.103  -1.393 168.670  1.00  0.00     0.000 C 
ENDROOT
BRANCH   1   2
ATOM      2  C   UNL     1      30.344  -0.828 167.949  1.00  0.00     0.000 C 
BRANCH   2   3
ATOM      3  C   UNL     1      30.576   0.671 168.204  1.00  0.00     0.000 C 
BRANCH   3   4
ATOM      4  C   UNL     1      31.256   1.381 167.020  1.00  0.00     0.000 C 
BRANCH   4   5
ATOM      5  C   UNL     1      31.897   0.385 166.031  1.00  0.00     0.000 C 
BRANCH   5   6
ATOM      6  C   UNL     1      33.095   0.964 165.254  1.00  0.00     0.000 C 
BRANCH   6   7
ATOM      7  C   UNL     1      33.678   2.261 165.841  1.00  0.00     0.006 C 
BRANCH   7   8
ATOM      8  C   UNL     1      34.747   2.891 164.939  1.00  0.00     0.053 C 
BRANCH   8   9
ATOM      9  C   UNL     1      36.108   2.698 165.531  1.00  0.00     0.041 C 
ATOM     10  O   UNL     1      37.078   3.398 165.137  1.00  0.00    -0.550 OA
ATOM     11  O   UNL     1      36.309   1.723 166.502  1.00  0.00    -0.550 OA
ENDBRANCH   8   9
ENDBRANCH   7   8
ENDBRANCH   6   7
ENDBRANCH   5   6
ENDBRANCH   4   5
ENDBRANCH   3   4
ENDBRANCH   2   3
ENDBRANCH   1   2
BRANCH   1  12
ATOM     12  C   UNL     1      28.085  -1.996 167.689  1.00  0.00     0.000 C 
BRANCH  12  13
ATOM     13  C   UNL     1      28.600  -1.917 166.246  1.00  0.00    -0.000 C 
BRANCH  13  14
ATOM     14  C   UNL     1      28.120  -3.092 165.374  1.00  0.00    -0.000 C 
BRANCH  14  15
ATOM     15  C   UNL     1      29.263  -3.811 164.626  1.00  0.00    -0.000 C 
BRANCH  15  16
ATOM     16  C   UNL     1      30.557  -2.978 164.605  1.00  0.00    -0.000 C 
BRANCH  16  17
ATOM     17  C   UNL     1      31.098  -2.763 163.183  1.00  0.00    -0.000 C 
BRANCH  17  18
ATOM     18  C   UNL     1      31.153  -1.276 162.789  1.00  0.00    -0.000 C 
BRANCH  18  19
ATOM     19  C   UNL     1      30.317  -0.967 161.536  1.00  0.00    -0.003 C 
ATOM     20  C   UNL     1      29.261  -2.037 161.253  1.00  0.00     0.004 C 
ENDBRANCH  18  19
ENDBRANCH  17  18
ENDBRANCH  16  17
ENDBRANCH  15  16
ENDBRANCH  14  15
ENDBRANCH  13  14
ENDBRANCH  12  13
ENDBRANCH   1  12
TORSDOF 16
ENDMDL
MODEL 4
REMARK VINA RESULT:    -4.349      1.921      5.451
REMARK INTER + INTRA:         -10.214
REMARK INTER:                  -8.603
REMARK INTRA:                  -1.611
REMARK UNBOUND:                -1.797
REMARK SMILES CCCCCCCCCCCCCCCCCC(=O)[O-]
REMARK SMILES IDX 10 1 11 2 12 3 13 4 14 5 15 6 16 7 17 8 18 9 19 10 20 11
REMARK SMILES IDX 9 12 8 13 7 14 6 15 5 16 4 17 3 18 2 19 1 20
REMARK H PARENT
REMARK Flexibility Score: inf
ROOT
ATOM      1  C   UNL     1      30.053  -2.330 163.027  1.00  0.00     0.000 C 
ENDROOT
BRANCH   1   2
ATOM      2  C   UNL     1      30.106  -3.167 164.322  1.00  0.00     0.000 C 
BRANCH   2   3
ATOM      3  C   UNL     1      28.800  -3.921 164.622  1.00  0.00     0.000 C 
BRANCH   3   4
ATOM      4  C   UNL     1      27.842  -3.126 165.526  1.00  0.00     0.000 C 
BRANCH   4   5
ATOM      5  C   UNL     1      28.557  -1.973 166.263  1.00  0.00     0.000 C 
BRANCH   5   6
ATOM      6  C   UNL     1      28.293  -1.947 167.780  1.00  0.00     0.000 C 
BRANCH   6   7
ATOM      7  C   UNL     1      29.196  -0.991 168.576  1.00  0.00     0.006 C 
BRANCH   7   8
ATOM      8  C   UNL     1      30.347  -0.424 167.734  1.00  0.00     0.053 C 
BRANCH   8   9
ATOM      9  C   UNL     1      30.658   0.978 168.155  1.00  0.00     0.041 C 
ATOM     10  O   UNL     1      30.289   1.400 169.283  1.00  0.00    -0.550 OA
ATOM     11  O   UNL     1      31.333   1.828 167.287  1.00  0.00    -0.550 OA
ENDBRANCH   8   9
ENDBRANCH   7   8
ENDBRANCH   6   7
ENDBRANCH   5   6
ENDBRANCH   4   5
ENDBRANCH   3   4
ENDBRANCH   2   3
ENDBRANCH   1   2
BRANCH   1  12
ATOM     12  C   UNL     1      31.189  -1.296 162.957  1.00  0.00     0.000 C 
BRANCH  12  13
ATOM     13  C   UNL     1      31.994  -1.275 164.263  1.00  0.00    -0.000 C 
BRANCH  13  14
ATOM     14  C   UNL     1      32.587   0.110 164.577  1.00  0.00    -0.000 C 
BRANCH  14  15
ATOM     15  C   UNL     1      33.531   0.641 163.477  1.00  0.00    -0.000 C 
BRANCH  15  16
ATOM     16  C   UNL     1      35.013   0.404 163.820  1.00  0.00    -0.000 C 
BRANCH  16  17
ATOM     17  C   UNL     1      35.249   0.222 165.327  1.00  0.00    -0.000 C 
BRANCH  17  18
ATOM     18  C   UNL     1      36.014   1.401 165.954  1.00  0.00    -0.000 C 
BRANCH  18  19
ATOM     19  C   UNL     1      35.221   2.716 165.895  1.00  0.00    -0.003 C 
ATOM     20  C   UNL     1      35.905   3.780 165.035  1.00  0.00     0.004 C 
ENDBRANCH  18  19
ENDBRANCH  17  18
ENDBRANCH  16  17
ENDBRANCH  15  16
ENDBRANCH  14  15
ENDBRANCH  13  14
ENDBRANCH  12  13
ENDBRANCH   1  12
TORSDOF 16
ENDMDL
MODEL 5
REMARK VINA RESULT:    -4.345      1.092      1.890
REMARK INTER + INTRA:         -10.206
REMARK INTER:                  -8.186
REMARK INTRA:                  -2.019
REMARK UNBOUND:                -1.797
REMARK SMILES CCCCCCCCCCCCCCCCCC(=O)[O-]
REMARK SMILES IDX 10 1 11 2 12 3 13 4 14 5 15 6 16 7 17 8 18 9 19 10 20 11
REMARK SMILES IDX 9 12 8 13 7 14 6 15 5 16 4 17 3 18 2 19 1 20
REMARK H PARENT
REMARK Flexibility Score: inf
ROOT
ATOM      1  C   UNL     1      31.177  -2.450 162.750  1.00  0.00     0.000 C 
ENDROOT
BRANCH   1   2
ATOM      2  C   UNL     1      32.156  -1.269 162.914  1.00  0.00     0.000 C 
BRANCH   2   3
ATOM      3  C   UNL     1      32.274  -0.762 164.362  1.00  0.00     0.000 C 
BRANCH   3   4
ATOM      4  C   UNL     1      33.716  -0.809 164.897  1.00  0.00     0.000 C 
BRANCH   4   5
ATOM      5  C   UNL     1      34.564   0.379 164.394  1.00  0.00     0.000 C 
BRANCH   5   6
ATOM      6  C   UNL     1      33.786   1.706 164.310  1.00  0.00     0.000 C 
BRANCH   6   7
ATOM      7  C   UNL     1      34.575   2.946 164.763  1.00  0.00     0.006 C 
BRANCH   7   8
ATOM      8  C   UNL     1      34.384   3.257 166.253  1.00  0.00     0.053 C 
BRANCH   8   9
ATOM      9  C   UNL     1      35.692   3.624 166.881  1.00  0.00     0.041 C 
ATOM     10  O   UNL     1      36.636   2.789 166.916  1.00  0.00    -0.550 OA
ATOM     11  O   UNL     1      35.860   4.881 167.450  1.00  0.00    -0.550 OA
ENDBRANCH   8   9
ENDBRANCH   7   8
ENDBRANCH   6   7
ENDBRANCH   5   6
ENDBRANCH   4   5
ENDBRANCH   3   4
ENDBRANCH   2   3
ENDBRANCH   1   2
BRANCH   1  12
ATOM     12  C   UNL     1      31.438  -3.567 163.772  1.00  0.00     0.000 C 
BRANCH  12  13
ATOM     13  C   UNL     1      30.187  -3.840 164.619  1.00  0.00    -0.000 C 
BRANCH  13  14
ATOM     14  C   UNL     1      29.053  -2.834 164.350  1.00  0.00    -0.000 C 
BRANCH  14  15
ATOM     15  C   UNL     1      28.500  -2.173 165.631  1.00  0.00    -0.000 C 
BRANCH  15  16
ATOM     16  C   UNL     1      29.617  -1.812 166.627  1.00  0.00    -0.000 C 
BRANCH  16  17
ATOM     17  C   UNL     1      29.070  -1.306 167.971  1.00  0.00    -0.000 C 
BRANCH  17  18
ATOM     18  C   UNL     1      29.726   0.011 168.419  1.00  0.00    -0.000 C 
BRANCH  18  19
ATOM     19  C   UNL     1      31.130   0.202 167.825  1.00  0.00    -0.003 C 
ATOM     20  C   UNL     1      31.299   1.556 167.134  1.00  0.00     0.004 C 
ENDBRANCH  18  19
ENDBRANCH  17  18
ENDBRANCH  16  17
ENDBRANCH  15  16
ENDBRANCH  14  15
ENDBRANCH  13  14
ENDBRANCH  12  13
ENDBRANCH   1  12
TORSDOF 16
ENDMDL
MODEL 6
REMARK VINA RESULT:    -4.258      1.237      4.177
REMARK INTER + INTRA:         -10.038
REMARK INTER:                  -8.318
REMARK INTRA:                  -1.719
REMARK UNBOUND:                -1.797
REMARK SMILES CCCCCCCCCCCCCCCCCC(=O)[O-]
REMARK SMILES IDX 10 1 11 2 12 3 13 4 14 5 15 6 16 7 17 8 18 9 19 10 20 11
REMARK SMILES IDX 9 12 8 13 7 14 6 15 5 16 4 17 3 18 2 19 1 20
REMARK H PARENT
REMARK Flexibility Score: inf
ROOT
ATOM      1  C   UNL     1      29.412  -0.747 168.009  1.00  0.00     0.000 C 
ENDROOT
BRANCH   1   2
ATOM      2  C   UNL     1      30.726   0.023 168.253  1.00  0.00     0.000 C 
BRANCH   2   3
ATOM      3  C   UNL     1      30.767   1.402 167.574  1.00  0.00     0.000 C 
BRANCH   3   4
ATOM      4  C   UNL     1      31.953   1.558 166.606  1.00  0.00     0.000 C 
BRANCH   4   5
ATOM      5  C   UNL     1      32.222   0.270 165.799  1.00  0.00     0.000 C 
BRANCH   5   6
ATOM      6  C   UNL     1      33.717  -0.069 165.650  1.00  0.00     0.000 C 
BRANCH   6   7
ATOM      7  C   UNL     1      34.469   0.776 164.609  1.00  0.00     0.006 C 
BRANCH   7   8
ATOM      8  C   UNL     1      35.906   1.102 165.037  1.00  0.00     0.053 C 
BRANCH   8   9
ATOM      9  C   UNL     1      35.913   2.230 166.020  1.00  0.00     0.041 C 
ATOM     10  O   UNL     1      36.783   2.275 166.930  1.00  0.00    -0.550 OA
ATOM     11  O   UNL     1      34.940   3.219 165.947  1.00  0.00    -0.550 OA
ENDBRANCH   8   9
ENDBRANCH   7   8
ENDBRANCH   6   7
ENDBRANCH   5   6
ENDBRANCH   4   5
ENDBRANCH   3   4
ENDBRANCH   2   3
ENDBRANCH   1   2
BRANCH   1  12
ATOM     12  C   UNL     1      29.465  -1.599 166.731  1.00  0.00     0.000 C 
BRANCH  12  13
ATOM     13  C   UNL     1      28.113  -2.272 166.463  1.00  0.00    -0.000 C 
BRANCH  13  14
ATOM     14  C   UNL     1      28.096  -3.080 165.153  1.00  0.00    -0.000 C 
BRANCH  14  15
ATOM     15  C   UNL     1      29.469  -3.139 164.448  1.00  0.00    -0.000 C 
BRANCH  15  16
ATOM     16  C   UNL     1      29.474  -2.357 163.122  1.00  0.00    -0.000 C 
BRANCH  16  17
ATOM     17  C   UNL     1      30.704  -1.446 162.978  1.00  0.00    -0.000 C 
BRANCH  17  18
ATOM     18  C   UNL     1      31.891  -2.157 162.306  1.00  0.00    -0.000 C 
BRANCH  18  19
ATOM     19  C   UNL     1      32.832  -2.823 163.324  1.00  0.00    -0.003 C 
ATOM     20  C   UNL     1      33.005  -4.322 163.074  1.00  0.00     0.004 C 
ENDBRANCH  18  19
ENDBRANCH  17  18
ENDBRANCH  16  17
ENDBRANCH  15  16
ENDBRANCH  14  15
ENDBRANCH  13  14
ENDBRANCH  12  13
ENDBRANCH   1  12
TORSDOF 16
ENDMDL
MODEL 7
REMARK VINA RESULT:    -4.165      1.425      3.869
REMARK INTER + INTRA:          -9.857
REMARK INTER:                  -8.049
REMARK INTRA:                  -1.808
REMARK UNBOUND:                -1.797
REMARK SMILES CCCCCCCCCCCCCCCCCC(=O)[O-]
REMARK SMILES IDX 10 1 11 2 12 3 13 4 14 5 15 6 16 7 17 8 18 9 19 10 20 11
REMARK SMILES IDX 9 12 8 13 7 14 6 15 5 16 4 17 3 18 2 19 1 20
REMARK H PARENT
REMARK Flexibility Score: inf
ROOT
ATOM      1  C   UNL     1      32.482   0.307 166.517  1.00  0.00     0.000 C 
ENDROOT
BRANCH   1   2
ATOM      2  C   UNL     1      32.684   0.159 164.994  1.00  0.00     0.000 C 
BRANCH   2   3
ATOM      3  C   UNL     1      34.035  -0.467 164.610  1.00  0.00     0.000 C 
BRANCH   3   4
ATOM      4  C   UNL     1      35.128   0.583 164.345  1.00  0.00     0.000 C 
BRANCH   4   5
ATOM      5  C   UNL     1      34.554   1.884 163.744  1.00  0.00     0.000 C 
BRANCH   5   6
ATOM      6  C   UNL     1      34.934   3.153 164.531  1.00  0.00     0.000 C 
BRANCH   6   7
ATOM      7  C   UNL     1      34.828   3.019 166.059  1.00  0.00     0.006 C 
BRANCH   7   8
ATOM      8  C   UNL     1      36.100   3.480 166.784  1.00  0.00     0.053 C 
BRANCH   8   9
ATOM      9  C   UNL     1      35.934   4.879 167.288  1.00  0.00     0.041 C 
ATOM     10  O   UNL     1      35.459   5.773 166.537  1.00  0.00    -0.550 OA
ATOM     11  O   UNL     1      36.330   5.202 168.580  1.00  0.00    -0.550 OA
ENDBRANCH   8   9
ENDBRANCH   7   8
ENDBRANCH   6   7
ENDBRANCH   5   6
ENDBRANCH   4   5
ENDBRANCH   3   4
ENDBRANCH   2   3
ENDBRANCH   1   2
BRANCH   1  12
ATOM     12  C   UNL     1      31.143   0.977 166.863  1.00  0.00     0.000 C 
BRANCH  12  13
ATOM     13  C   UNL     1      30.828   0.836 168.358  1.00  0.00    -0.000 C 
BRANCH  13  14
ATOM     14  C   UNL     1      29.584  -0.029 168.629  1.00  0.00    -0.000 C 
BRANCH  14  15
ATOM     15  C   UNL     1      29.646  -1.422 167.965  1.00  0.00    -0.000 C 
BRANCH  15  16
ATOM     16  C   UNL     1      28.277  -1.867 167.420  1.00  0.00    -0.000 C 
BRANCH  16  17
ATOM     17  C   UNL     1      28.336  -2.284 165.942  1.00  0.00    -0.000 C 
BRANCH  17  18
ATOM     18  C   UNL     1      29.699  -1.981 165.296  1.00  0.00    -0.000 C 
BRANCH  18  19
ATOM     19  C   UNL     1      29.815  -2.548 163.872  1.00  0.00    -0.003 C 
ATOM     20  C   UNL     1      31.191  -3.153 163.589  1.00  0.00     0.004 C 
ENDBRANCH  18  19
ENDBRANCH  17  18
ENDBRANCH  16  17
ENDBRANCH  15  16
ENDBRANCH  14  15
ENDBRANCH  13  14
ENDBRANCH  12  13
ENDBRANCH   1  12
TORSDOF 16
ENDMDL
MODEL 8
REMARK VINA RESULT:    -4.079      2.808      5.062
REMARK INTER + INTRA:          -9.691
REMARK INTER:                  -7.806
REMARK INTRA:                  -1.885
REMARK UNBOUND:                -1.797
REMARK SMILES CCCCCCCCCCCCCCCCCC(=O)[O-]
REMARK SMILES IDX 10 1 11 2 12 3 13 4 14 5 15 6 16 7 17 8 18 9 19 10 20 11
REMARK SMILES IDX 9 12 8 13 7 14 6 15 5 16 4 17 3 18 2 19 1 20
REMARK H PARENT
REMARK Flexibility Score: inf
ROOT
ATOM      1  C   UNL     1      32.291   0.135 165.485  1.00  0.00     0.000 C 
ENDROOT
BRANCH   1   2
ATOM      2  C   UNL     1      33.747  -0.302 165.223  1.00  0.00     0.000 C 
BRANCH   2   3
ATOM      3  C   UNL     1      34.792   0.735 165.671  1.00  0.00     0.000 C 
BRANCH   3   4
ATOM      4  C   UNL     1      35.674   1.235 164.514  1.00  0.00     0.000 C 
BRANCH   4   5
ATOM      5  C   UNL     1      34.843   1.643 163.279  1.00  0.00     0.000 C 
BRANCH   5   6
ATOM      6  C   UNL     1      35.161   0.819 162.017  1.00  0.00     0.000 C 
BRANCH   6   7
ATOM      7  C   UNL     1      33.973   0.617 161.062  1.00  0.00     0.006 C 
BRANCH   7   8
ATOM      8  C   UNL     1      32.619   0.661 161.783  1.00  0.00     0.053 C 
BRANCH   8   9
ATOM      9  C   UNL     1      32.028  -0.711 161.867  1.00  0.00     0.041 C 
ATOM     10  O   UNL     1      32.773  -1.727 161.840  1.00  0.00    -0.550 OA
ATOM     11  O   UNL     1      30.649  -0.868 161.947  1.00  0.00    -0.550 OA
ENDBRANCH   8   9
ENDBRANCH   7   8
ENDBRANCH   6   7
ENDBRANCH   5   6
ENDBRANCH   4   5
ENDBRANCH   3   4
ENDBRANCH   2   3
ENDBRANCH   1   2
BRANCH   1  12
ATOM     12  C   UNL     1      32.210   1.520 166.147  1.00  0.00     0.000 C 
BRANCH  12  13
ATOM     13  C   UNL     1      31.201   1.517 167.303  1.00  0.00    -0.000 C 
BRANCH  13  14
ATOM     14  C   UNL     1      31.039   0.131 167.952  1.00  0.00    -0.000 C 
BRANCH  14  15
ATOM     15  C   UNL     1      29.680  -0.064 168.659  1.00  0.00    -0.000 C 
BRANCH  15  16
ATOM     16  C   UNL     1      28.950  -1.330 168.174  1.00  0.00    -0.000 C 
BRANCH  16  17
ATOM     17  C   UNL     1      29.440  -1.805 166.798  1.00  0.00    -0.000 C 
BRANCH  17  18
ATOM     18  C   UNL     1      28.286  -2.066 165.815  1.00  0.00    -0.000 C 
BRANCH  18  19
ATOM     19  C   UNL     1      28.714  -2.930 164.619  1.00  0.00    -0.003 C 
ATOM     20  C   UNL     1      28.596  -4.429 164.901  1.00  0.00     0.004 C 
ENDBRANCH  18  19
ENDBRANCH  17  18
ENDBRANCH  16  17
ENDBRANCH  15  16
ENDBRANCH  14  15
ENDBRANCH  13  14
ENDBRANCH  12  13
ENDBRANCH   1  12
TORSDOF 16
ENDMDL
MODEL 9
REMARK VINA RESULT:    -4.036      2.940      6.065
REMARK INTER + INTRA:          -9.607
REMARK INTER:                  -7.563
REMARK INTRA:                  -2.044
REMARK UNBOUND:                -1.797
REMARK SMILES CCCCCCCCCCCCCCCCCC(=O)[O-]
REMARK SMILES IDX 10 1 11 2 12 3 13 4 14 5 15 6 16 7 17 8 18 9 19 10 20 11
REMARK SMILES IDX 9 12 8 13 7 14 6 15 5 16 4 17 3 18 2 19 1 20
REMARK H PARENT
REMARK Flexibility Score: inf
ROOT
ATOM      1  C   UNL     1      35.326   1.280 163.397  1.00  0.00     0.000 C 
ENDROOT
BRANCH   1   2
ATOM      2  C   UNL     1      35.529   0.638 164.785  1.00  0.00     0.000 C 
BRANCH   2   3
ATOM      3  C   UNL     1      34.214   0.361 165.534  1.00  0.00     0.000 C 
BRANCH   3   4
ATOM      4  C   UNL     1      33.119   1.396 165.224  1.00  0.00     0.000 C 
BRANCH   4   5
ATOM      5  C   UNL     1      32.505   1.999 166.505  1.00  0.00     0.000 C 
BRANCH   5   6
ATOM      6  C   UNL     1      31.119   1.426 166.859  1.00  0.00     0.000 C 
BRANCH   6   7
ATOM      7  C   UNL     1      31.049   0.693 168.209  1.00  0.00     0.006 C 
BRANCH   7   8
ATOM      8  C   UNL     1      29.624   0.255 168.573  1.00  0.00     0.053 C 
BRANCH   8   9
ATOM      9  C   UNL     1      29.467  -1.220 168.378  1.00  0.00     0.041 C 
ATOM     10  O   UNL     1      30.480  -1.968 168.344  1.00  0.00    -0.550 OA
ATOM     11  O   UNL     1      28.200  -1.766 168.207  1.00  0.00    -0.550 OA
ENDBRANCH   8   9
ENDBRANCH   7   8
ENDBRANCH   6   7
ENDBRANCH   5   6
ENDBRANCH   4   5
ENDBRANCH   3   4
ENDBRANCH   2   3
ENDBRANCH   1   2
BRANCH   1  12
ATOM     12  C   UNL     1      34.985   0.239 162.318  1.00  0.00     0.000 C 
BRANCH  12  13
ATOM     13  C   UNL     1      33.564   0.451 161.780  1.00  0.00    -0.000 C 
BRANCH  13  14
ATOM     14  C   UNL     1      32.794  -0.868 161.589  1.00  0.00    -0.000 C 
BRANCH  14  15
ATOM     15  C   UNL     1      33.285  -2.008 162.508  1.00  0.00    -0.000 C 
BRANCH  15  16
ATOM     16  C   UNL     1      32.158  -2.562 163.400  1.00  0.00    -0.000 C 
BRANCH  16  17
ATOM     17  C   UNL     1      31.316  -1.451 164.045  1.00  0.00    -0.000 C 
BRANCH  17  18
ATOM     18  C   UNL     1      30.166  -2.005 164.905  1.00  0.00    -0.000 C 
BRANCH  18  19
ATOM     19  C   UNL     1      29.184  -2.864 164.093  1.00  0.00    -0.003 C 
ATOM     20  C   UNL     1      28.231  -3.668 164.979  1.00  0.00     0.004 C 
ENDBRANCH  18  19
ENDBRANCH  17  18
ENDBRANCH  16  17
ENDBRANCH  15  16
ENDBRANCH  14  15
ENDBRANCH  13  14
ENDBRANCH  12  13
ENDBRANCH   1  12
TORSDOF 16
ENDMDL
