MODEL 1
REMARK VINA RESULT:    -6.527      0.000      0.000
REMARK INTER + INTRA:          -7.960
REMARK INTER:                  -7.672
REMARK INTRA:                  -0.288
REMARK UNBOUND:                -0.288
REMARK SMILES O=c1cc(-c2ccc(O)c(O)c2)oc2cc(O)cc(O)c12
REMARK SMILES IDX 4 1 3 2 2 3 1 4 21 5 19 6 18 7 16 8 15 9 14 10 13 11 5 12
REMARK SMILES IDX 6 13 7 14 8 15 12 16 10 17 9 18 11 20 20 22 17 24
REMARK H PARENT 9 19 11 21 20 23 17 25
REMARK Flexibility Score: inf
ROOT
ATOM      1  C   UNL     1       2.854  -8.757   6.038  1.00  0.00     0.138 A 
ATOM      2  C   UNL     1       2.182  -9.668   5.212  1.00  0.00     0.100 A 
ATOM      3  C   UNL     1       2.656 -10.975   5.095  1.00  0.00     0.197 A 
ATOM      4  O   UNL     1       2.063 -11.753   4.304  1.00  0.00    -0.289 OA
ATOM      5  C   UNL     1       3.792 -11.381   5.837  1.00  0.00     0.107 A 
ATOM      6  C   UNL     1       4.345 -12.696   5.824  1.00  0.00     0.134 A 
ATOM      7  C   UNL     1       5.530 -12.953   6.525  1.00  0.00     0.093 A 
ATOM      8  C   UNL     1       6.149 -11.959   7.283  1.00  0.00     0.123 A 
ATOM      9  C   UNL     1       5.589 -10.684   7.345  1.00  0.00     0.094 A 
ATOM     10  C   UNL     1       4.427 -10.386   6.629  1.00  0.00     0.146 A 
ATOM     11  O   UNL     1       3.936  -9.154   6.699  1.00  0.00    -0.456 OA
ENDROOT
BRANCH   1  12
ATOM     12  C   UNL     1       2.391  -7.355   6.201  1.00  0.00     0.021 A 
ATOM     13  C   UNL     1       3.269  -6.326   6.592  1.00  0.00     0.016 A 
ATOM     14  C   UNL     1       2.803  -5.018   6.748  1.00  0.00     0.051 A 
ATOM     15  C   UNL     1       1.453  -4.717   6.524  1.00  0.00     0.157 A 
ATOM     16  C   UNL     1       1.035  -7.046   5.992  1.00  0.00     0.062 A 
ATOM     17  C   UNL     1       0.568  -5.734   6.147  1.00  0.00     0.158 A 
BRANCH  15  18
ATOM     18  O   UNL     1       0.985  -3.413   6.677  1.00  0.00    -0.504 OA
ATOM     19  H   UNL     1       0.009  -3.180   6.528  1.00  0.00     0.293 HD
ENDBRANCH  15  18
BRANCH  17  20
ATOM     20  O   UNL     1      -0.775  -5.432   5.929  1.00  0.00    -0.504 OA
ATOM     21  H   UNL     1      -1.149  -4.510   6.119  1.00  0.00     0.293 HD
ENDBRANCH  17  20
ENDBRANCH   1  12
BRANCH   6  22
ATOM     22  O   UNL     1       3.766 -13.784   5.165  1.00  0.00    -0.507 OA
ATOM     23  H   UNL     1       3.220 -14.507   5.608  1.00  0.00     0.293 HD
ENDBRANCH   6  22
BRANCH   8  24
ATOM     24  O   UNL     1       7.319 -12.256   7.980  1.00  0.00    -0.508 OA
ATOM     25  H   UNL     1       7.545 -13.204   8.257  1.00  0.00     0.293 HD
ENDBRANCH   8  24
TORSDOF 5
ENDMDL
MODEL 2
REMARK VINA RESULT:    -6.471      1.636      3.310
REMARK INTER + INTRA:          -7.894
REMARK INTER:                  -7.605
REMARK INTRA:                  -0.289
REMARK UNBOUND:                -0.288
REMARK SMILES O=c1cc(-c2ccc(O)c(O)c2)oc2cc(O)cc(O)c12
REMARK SMILES IDX 4 1 3 2 2 3 1 4 21 5 19 6 18 7 16 8 15 9 14 10 13 11 5 12
REMARK SMILES IDX 6 13 7 14 8 15 12 16 10 17 9 18 11 20 20 22 17 24
REMARK H PARENT 9 19 11 21 20 23 17 25
REMARK Flexibility Score: inf
ROOT
ATOM      1  C   UNL     1       3.243  -9.519   6.149  1.00  0.00     0.138 A 
ATOM      2  C   UNL     1       4.267 -10.059   6.940  1.00  0.00     0.100 A 
ATOM      3  C   UNL     1       4.684 -11.373   6.726  1.00  0.00     0.197 A 
ATOM      4  O   UNL     1       5.566 -11.847   7.489  1.00  0.00    -0.289 OA
ATOM      5  C   UNL     1       4.097 -12.139   5.690  1.00  0.00     0.107 A 
ATOM      6  C   UNL     1       4.465 -13.478   5.358  1.00  0.00     0.134 A 
ATOM      7  C   UNL     1       3.744 -14.168   4.376  1.00  0.00     0.093 A 
ATOM      8  C   UNL     1       2.707 -13.551   3.676  1.00  0.00     0.123 A 
ATOM      9  C   UNL     1       2.372 -12.227   3.957  1.00  0.00     0.094 A 
ATOM     10  C   UNL     1       3.049 -11.523   4.954  1.00  0.00     0.146 A 
ATOM     11  O   UNL     1       2.686 -10.269   5.204  1.00  0.00    -0.456 OA
ENDROOT
BRANCH   1  12
ATOM     12  C   UNL     1       2.762  -8.125   6.331  1.00  0.00     0.021 A 
ATOM     13  C   UNL     1       1.491  -7.716   5.884  1.00  0.00     0.016 A 
ATOM     14  C   UNL     1       1.069  -6.396   6.060  1.00  0.00     0.051 A 
ATOM     15  C   UNL     1       1.911  -5.462   6.677  1.00  0.00     0.157 A 
ATOM     16  C   UNL     1       3.605  -7.176   6.937  1.00  0.00     0.062 A 
ATOM     17  C   UNL     1       3.181  -5.853   7.115  1.00  0.00     0.158 A 
BRANCH  15  18
ATOM     18  O   UNL     1       1.493  -4.144   6.856  1.00  0.00    -0.504 OA
ATOM     19  H   UNL     1       0.574  -3.925   7.227  1.00  0.00     0.293 HD
ENDBRANCH  15  18
BRANCH  17  20
ATOM     20  O   UNL     1       4.018  -4.919   7.725  1.00  0.00    -0.504 OA
ATOM     21  H   UNL     1       4.701  -4.392   7.193  1.00  0.00     0.293 HD
ENDBRANCH  17  20
ENDBRANCH   1  12
BRANCH   6  22
ATOM     22  O   UNL     1       5.536 -14.163   5.939  1.00  0.00    -0.507 OA
ATOM     23  H   UNL     1       6.100 -13.819   6.701  1.00  0.00     0.293 HD
ENDBRANCH   6  22
BRANCH   8  24
ATOM     24  O   UNL     1       2.022 -14.265   2.695  1.00  0.00    -0.508 OA
ATOM     25  H   UNL     1       1.839 -15.257   2.791  1.00  0.00     0.293 HD
ENDBRANCH   8  24
TORSDOF 5
ENDMDL
MODEL 3
REMARK VINA RESULT:    -6.461      3.517      7.518
REMARK INTER + INTRA:          -7.883
REMARK INTER:                  -7.592
REMARK INTRA:                  -0.290
REMARK UNBOUND:                -0.288
REMARK SMILES O=c1cc(-c2ccc(O)c(O)c2)oc2cc(O)cc(O)c12
REMARK SMILES IDX 4 1 3 2 2 3 1 4 21 5 19 6 18 7 16 8 15 9 14 10 13 11 5 12
REMARK SMILES IDX 6 13 7 14 8 15 12 16 10 17 9 18 11 20 20 22 17 24
REMARK H PARENT 9 19 11 21 20 23 17 25
REMARK Flexibility Score: inf
ROOT
ATOM      1  C   UNL     1       2.522 -13.182   3.879  1.00  0.00     0.138 A 
ATOM      2  C   UNL     1       2.117 -11.967   3.311  1.00  0.00     0.100 A 
ATOM      3  C   UNL     1       2.604 -10.766   3.829  1.00  0.00     0.197 A 
ATOM      4  O   UNL     1       2.179  -9.690   3.334  1.00  0.00    -0.289 OA
ATOM      5  C   UNL     1       3.529 -10.785   4.901  1.00  0.00     0.107 A 
ATOM      6  C   UNL     1       4.118  -9.626   5.490  1.00  0.00     0.134 A 
ATOM      7  C   UNL     1       4.946  -9.766   6.611  1.00  0.00     0.093 A 
ATOM      8  C   UNL     1       5.250 -11.024   7.129  1.00  0.00     0.123 A 
ATOM      9  C   UNL     1       4.721 -12.168   6.531  1.00  0.00     0.094 A 
ATOM     10  C   UNL     1       3.864 -12.060   5.434  1.00  0.00     0.146 A 
ATOM     11  O   UNL     1       3.366 -13.173   4.905  1.00  0.00    -0.456 OA
ENDROOT
BRANCH   1  12
ATOM     12  C   UNL     1       2.038 -14.489   3.365  1.00  0.00     0.021 A 
ATOM     13  C   UNL     1       2.023 -14.784   1.988  1.00  0.00     0.016 A 
ATOM     14  C   UNL     1       1.553 -16.019   1.533  1.00  0.00     0.051 A 
ATOM     15  C   UNL     1       1.083 -16.975   2.442  1.00  0.00     0.157 A 
ATOM     16  C   UNL     1       1.552 -15.451   4.269  1.00  0.00     0.062 A 
ATOM     17  C   UNL     1       1.081 -16.689   3.812  1.00  0.00     0.158 A 
BRANCH  15  18
ATOM     18  O   UNL     1       0.615 -18.208   1.992  1.00  0.00    -0.504 OA
ATOM     19  H   UNL     1       0.877 -19.074   2.450  1.00  0.00     0.293 HD
ENDBRANCH  15  18
BRANCH  17  20
ATOM     20  O   UNL     1       0.610 -17.641   4.714  1.00  0.00    -0.504 OA
ATOM     21  H   UNL     1      -0.356 -17.949   4.703  1.00  0.00     0.293 HD
ENDBRANCH  17  20
ENDBRANCH   1  12
BRANCH   6  22
ATOM     22  O   UNL     1       3.945  -8.326   5.003  1.00  0.00    -0.507 OA
ATOM     23  H   UNL     1       4.678  -7.747   4.626  1.00  0.00     0.293 HD
ENDBRANCH   6  22
BRANCH   8  24
ATOM     24  O   UNL     1       6.090 -11.126   8.237  1.00  0.00    -0.508 OA
ATOM     25  H   UNL     1       6.079 -11.942   8.836  1.00  0.00     0.293 HD
ENDBRANCH   8  24
TORSDOF 5
ENDMDL
MODEL 4
REMARK VINA RESULT:    -6.430      3.399      7.748
REMARK INTER + INTRA:          -7.845
REMARK INTER:                  -7.581
REMARK INTRA:                  -0.264
REMARK UNBOUND:                -0.288
REMARK SMILES O=c1cc(-c2ccc(O)c(O)c2)oc2cc(O)cc(O)c12
REMARK SMILES IDX 4 1 3 2 2 3 1 4 21 5 19 6 18 7 16 8 15 9 14 10 13 11 5 12
REMARK SMILES IDX 6 13 7 14 8 15 12 16 10 17 9 18 11 20 20 22 17 24
REMARK H PARENT 9 19 11 21 20 23 17 25
REMARK Flexibility Score: inf
ROOT
ATOM      1  C   UNL     1       3.248 -13.624   4.467  1.00  0.00     0.138 A 
ATOM      2  C   UNL     1       4.323 -13.948   5.306  1.00  0.00     0.100 A 
ATOM      3  C   UNL     1       4.926 -12.950   6.072  1.00  0.00     0.197 A 
ATOM      4  O   UNL     1       5.924 -13.261   6.773  1.00  0.00    -0.289 OA
ATOM      5  C   UNL     1       4.425 -11.626   6.024  1.00  0.00     0.107 A 
ATOM      6  C   UNL     1       4.937 -10.534   6.787  1.00  0.00     0.134 A 
ATOM      7  C   UNL     1       4.423  -9.248   6.582  1.00  0.00     0.093 A 
ATOM      8  C   UNL     1       3.379  -9.024   5.685  1.00  0.00     0.123 A 
ATOM      9  C   UNL     1       2.836 -10.092   4.971  1.00  0.00     0.094 A 
ATOM     10  C   UNL     1       3.350 -11.381   5.128  1.00  0.00     0.146 A 
ATOM     11  O   UNL     1       2.817 -12.368   4.415  1.00  0.00    -0.456 OA
ENDROOT
BRANCH   1  12
ATOM     12  C   UNL     1       2.568 -14.647   3.631  1.00  0.00     0.021 A 
ATOM     13  C   UNL     1       2.628 -14.615   2.225  1.00  0.00     0.016 A 
ATOM     14  C   UNL     1       1.970 -15.585   1.465  1.00  0.00     0.051 A 
ATOM     15  C   UNL     1       1.236 -16.597   2.095  1.00  0.00     0.157 A 
ATOM     16  C   UNL     1       1.816 -15.660   4.255  1.00  0.00     0.062 A 
ATOM     17  C   UNL     1       1.157 -16.633   3.492  1.00  0.00     0.158 A 
BRANCH  15  18
ATOM     18  O   UNL     1       0.579 -17.568   1.340  1.00  0.00    -0.504 OA
ATOM     19  H   UNL     1       1.086 -18.189   0.719  1.00  0.00     0.293 HD
ENDBRANCH  15  18
BRANCH  17  20
ATOM     20  O   UNL     1       0.422 -17.640   4.115  1.00  0.00    -0.504 OA
ATOM     21  H   UNL     1       0.727 -18.056   4.988  1.00  0.00     0.293 HD
ENDBRANCH  17  20
ENDBRANCH   1  12
BRANCH   6  22
ATOM     22  O   UNL     1       5.926 -10.658   7.768  1.00  0.00    -0.507 OA
ATOM     23  H   UNL     1       6.726 -11.268   7.711  1.00  0.00     0.293 HD
ENDBRANCH   6  22
BRANCH   8  24
ATOM     24  O   UNL     1       2.882  -7.733   5.518  1.00  0.00    -0.508 OA
ATOM     25  H   UNL     1       3.482  -6.967   5.232  1.00  0.00     0.293 HD
ENDBRANCH   8  24
TORSDOF 5
ENDMDL
MODEL 5
REMARK VINA RESULT:    -6.335      3.933      6.773
REMARK INTER + INTRA:          -7.734
REMARK INTER:                  -7.465
REMARK INTRA:                  -0.270
REMARK UNBOUND:                -0.288
REMARK SMILES O=c1cc(-c2ccc(O)c(O)c2)oc2cc(O)cc(O)c12
REMARK SMILES IDX 4 1 3 2 2 3 1 4 21 5 19 6 18 7 16 8 15 9 14 10 13 11 5 12
REMARK SMILES IDX 6 13 7 14 8 15 12 16 10 17 9 18 11 20 20 22 17 24
REMARK H PARENT 9 19 11 21 20 23 17 25
REMARK Flexibility Score: inf
ROOT
ATOM      1  C   UNL     1       3.413 -13.359   4.382  1.00  0.00     0.138 A 
ATOM      2  C   UNL     1       3.227 -12.792   3.115  1.00  0.00     0.100 A 
ATOM      3  C   UNL     1       2.404 -13.431   2.186  1.00  0.00     0.197 A 
ATOM      4  O   UNL     1       2.301 -12.926   1.038  1.00  0.00    -0.289 OA
ATOM      5  C   UNL     1       1.738 -14.628   2.543  1.00  0.00     0.107 A 
ATOM      6  C   UNL     1       0.848 -15.350   1.691  1.00  0.00     0.134 A 
ATOM      7  C   UNL     1       0.324 -16.575   2.121  1.00  0.00     0.093 A 
ATOM      8  C   UNL     1       0.610 -17.076   3.390  1.00  0.00     0.123 A 
ATOM      9  C   UNL     1       1.437 -16.355   4.250  1.00  0.00     0.094 A 
ATOM     10  C   UNL     1       2.004 -15.147   3.839  1.00  0.00     0.146 A 
ATOM     11  O   UNL     1       2.801 -14.500   4.682  1.00  0.00    -0.456 OA
ENDROOT
BRANCH   1  12
ATOM     12  C   UNL     1       4.275 -12.719   5.410  1.00  0.00     0.021 A 
ATOM     13  C   UNL     1       5.303 -13.428   6.060  1.00  0.00     0.016 A 
ATOM     14  C   UNL     1       6.091 -12.803   7.030  1.00  0.00     0.051 A 
ATOM     15  C   UNL     1       5.862 -11.465   7.372  1.00  0.00     0.157 A 
ATOM     16  C   UNL     1       4.043 -11.379   5.770  1.00  0.00     0.062 A 
ATOM     17  C   UNL     1       4.835 -10.753   6.741  1.00  0.00     0.158 A 
BRANCH  15  18
ATOM     18  O   UNL     1       6.647 -10.838   8.337  1.00  0.00    -0.504 OA
ATOM     19  H   UNL     1       7.318 -11.356   8.893  1.00  0.00     0.293 HD
ENDBRANCH  15  18
BRANCH  17  20
ATOM     20  O   UNL     1       4.607  -9.422   7.087  1.00  0.00    -0.504 OA
ATOM     21  H   UNL     1       3.937  -8.851   6.583  1.00  0.00     0.293 HD
ENDBRANCH  17  20
ENDBRANCH   1  12
BRANCH   6  22
ATOM     22  O   UNL     1       0.431 -14.902   0.434  1.00  0.00    -0.507 OA
ATOM     23  H   UNL     1       0.619 -15.369  -0.440  1.00  0.00     0.293 HD
ENDBRANCH   6  22
BRANCH   8  24
ATOM     24  O   UNL     1       0.058 -18.292   3.789  1.00  0.00    -0.508 OA
ATOM     25  H   UNL     1       0.416 -19.175   3.443  1.00  0.00     0.293 HD
ENDBRANCH   8  24
TORSDOF 5
ENDMDL
MODEL 6
REMARK VINA RESULT:    -6.240      3.634      7.677
REMARK INTER + INTRA:          -7.623
REMARK INTER:                  -7.348
REMARK INTRA:                  -0.275
REMARK UNBOUND:                -0.288
REMARK SMILES O=c1cc(-c2ccc(O)c(O)c2)oc2cc(O)cc(O)c12
REMARK SMILES IDX 4 1 3 2 2 3 1 4 21 5 19 6 18 7 16 8 15 9 14 10 13 11 5 12
REMARK SMILES IDX 6 13 7 14 8 15 12 16 10 17 9 18 11 20 20 22 17 24
REMARK H PARENT 9 19 11 21 20 23 17 25
REMARK Flexibility Score: inf
ROOT
ATOM      1  C   UNL     1       3.547 -13.372   3.849  1.00  0.00     0.138 A 
ATOM      2  C   UNL     1       4.334 -13.900   4.882  1.00  0.00     0.100 A 
ATOM      3  C   UNL     1       4.837 -13.053   5.869  1.00  0.00     0.197 A 
ATOM      4  O   UNL     1       5.587 -13.547   6.750  1.00  0.00    -0.289 OA
ATOM      5  C   UNL     1       4.522 -11.672   5.840  1.00  0.00     0.107 A 
ATOM      6  C   UNL     1       4.950 -10.718   6.812  1.00  0.00     0.134 A 
ATOM      7  C   UNL     1       4.656  -9.362   6.623  1.00  0.00     0.093 A 
ATOM      8  C   UNL     1       3.901  -8.933   5.532  1.00  0.00     0.123 A 
ATOM      9  C   UNL     1       3.433  -9.863   4.604  1.00  0.00     0.094 A 
ATOM     10  C   UNL     1       3.740 -11.218   4.744  1.00  0.00     0.146 A 
ATOM     11  O   UNL     1       3.290 -12.068   3.827  1.00  0.00    -0.456 OA
ENDROOT
BRANCH   1  12
ATOM     12  C   UNL     1       2.982 -14.229   2.775  1.00  0.00     0.021 A 
ATOM     13  C   UNL     1       2.068 -15.263   3.056  1.00  0.00     0.016 A 
ATOM     14  C   UNL     1       1.561 -16.059   2.026  1.00  0.00     0.051 A 
ATOM     15  C   UNL     1       1.963 -15.843   0.702  1.00  0.00     0.157 A 
ATOM     16  C   UNL     1       3.391 -14.029   1.444  1.00  0.00     0.062 A 
ATOM     17  C   UNL     1       2.881 -14.827   0.412  1.00  0.00     0.158 A 
BRANCH  15  18
ATOM     18  O   UNL     1       1.458 -16.635  -0.328  1.00  0.00    -0.504 OA
ATOM     19  H   UNL     1       0.461 -16.734  -0.480  1.00  0.00     0.293 HD
ENDBRANCH  15  18
BRANCH  17  20
ATOM     20  O   UNL     1       3.283 -14.617  -0.906  1.00  0.00    -0.504 OA
ATOM     21  H   UNL     1       2.608 -14.490  -1.652  1.00  0.00     0.293 HD
ENDBRANCH  17  20
ENDBRANCH   1  12
BRANCH   6  22
ATOM     22  O   UNL     1       5.642 -11.047   7.981  1.00  0.00    -0.507 OA
ATOM     23  H   UNL     1       5.224 -11.147   8.893  1.00  0.00     0.293 HD
ENDBRANCH   6  22
BRANCH   8  24
ATOM     24  O   UNL     1       3.615  -7.577   5.386  1.00  0.00    -0.508 OA
ATOM     25  H   UNL     1       3.001  -7.093   6.032  1.00  0.00     0.293 HD
ENDBRANCH   8  24
TORSDOF 5
ENDMDL
MODEL 7
REMARK VINA RESULT:    -6.146      5.915      8.725
REMARK INTER + INTRA:          -7.512
REMARK INTER:                  -7.249
REMARK INTRA:                  -0.263
REMARK UNBOUND:                -0.288
REMARK SMILES O=c1cc(-c2ccc(O)c(O)c2)oc2cc(O)cc(O)c12
REMARK SMILES IDX 4 1 3 2 2 3 1 4 21 5 19 6 18 7 16 8 15 9 14 10 13 11 5 12
REMARK SMILES IDX 6 13 7 14 8 15 12 16 10 17 9 18 11 20 20 22 17 24
REMARK H PARENT 9 19 11 21 20 23 17 25
REMARK Flexibility Score: inf
ROOT
ATOM      1  C   UNL     1       1.191  -5.696  10.944  1.00  0.00     0.138 A 
ATOM      2  C   UNL     1       0.009  -5.049  11.329  1.00  0.00     0.100 A 
ATOM      3  C   UNL     1      -0.033  -4.344  12.532  1.00  0.00     0.197 A 
ATOM      4  O   UNL     1      -1.125  -3.821  12.876  1.00  0.00    -0.289 OA
ATOM      5  C   UNL     1       1.127  -4.258  13.339  1.00  0.00     0.107 A 
ATOM      6  C   UNL     1       1.213  -3.539  14.569  1.00  0.00     0.134 A 
ATOM      7  C   UNL     1       2.387  -3.608  15.328  1.00  0.00     0.093 A 
ATOM      8  C   UNL     1       3.497  -4.321  14.876  1.00  0.00     0.123 A 
ATOM      9  C   UNL     1       3.443  -4.986  13.651  1.00  0.00     0.094 A 
ATOM     10  C   UNL     1       2.274  -4.965  12.887  1.00  0.00     0.146 A 
ATOM     11  O   UNL     1       2.258  -5.627  11.734  1.00  0.00    -0.456 OA
ENDROOT
BRANCH   1  12
ATOM     12  C   UNL     1       1.292  -6.457   9.672  1.00  0.00     0.021 A 
ATOM     13  C   UNL     1       2.011  -5.961   8.568  1.00  0.00     0.016 A 
ATOM     14  C   UNL     1       2.081  -6.695   7.381  1.00  0.00     0.051 A 
ATOM     15  C   UNL     1       1.429  -7.930   7.274  1.00  0.00     0.157 A 
ATOM     16  C   UNL     1       0.630  -7.692   9.551  1.00  0.00     0.062 A 
ATOM     17  C   UNL     1       0.701  -8.428   8.361  1.00  0.00     0.158 A 
BRANCH  15  18
ATOM     18  O   UNL     1       1.498  -8.665   6.092  1.00  0.00    -0.504 OA
ATOM     19  H   UNL     1       1.121  -8.306   5.222  1.00  0.00     0.293 HD
ENDBRANCH  15  18
BRANCH  17  20
ATOM     20  O   UNL     1       0.051  -9.655   8.250  1.00  0.00    -0.504 OA
ATOM     21  H   UNL     1       0.128 -10.363   8.971  1.00  0.00     0.293 HD
ENDBRANCH  17  20
ENDBRANCH   1  12
BRANCH   6  22
ATOM     22  O   UNL     1       0.191  -2.730  15.077  1.00  0.00    -0.507 OA
ATOM     23  H   UNL     1      -0.383  -2.954  15.874  1.00  0.00     0.293 HD
ENDBRANCH   6  22
BRANCH   8  24
ATOM     24  O   UNL     1       4.654  -4.355  15.651  1.00  0.00    -0.508 OA
ATOM     25  H   UNL     1       5.383  -3.659  15.545  1.00  0.00     0.293 HD
ENDBRANCH   8  24
TORSDOF 5
ENDMDL
MODEL 8
REMARK VINA RESULT:    -6.081      3.874      6.883
REMARK INTER + INTRA:          -7.435
REMARK INTER:                  -7.133
REMARK INTRA:                  -0.302
REMARK UNBOUND:                -0.288
REMARK SMILES O=c1cc(-c2ccc(O)c(O)c2)oc2cc(O)cc(O)c12
REMARK SMILES IDX 4 1 3 2 2 3 1 4 21 5 19 6 18 7 16 8 15 9 14 10 13 11 5 12
REMARK SMILES IDX 6 13 7 14 8 15 12 16 10 17 9 18 11 20 20 22 17 24
REMARK H PARENT 9 19 11 21 20 23 17 25
REMARK Flexibility Score: inf
ROOT
ATOM      1  C   UNL     1       3.484 -12.935   3.832  1.00  0.00     0.138 A 
ATOM      2  C   UNL     1       3.027 -14.255   3.715  1.00  0.00     0.100 A 
ATOM      3  C   UNL     1       2.329 -14.645   2.572  1.00  0.00     0.197 A 
ATOM      4  O   UNL     1       1.883 -15.821   2.522  1.00  0.00    -0.289 OA
ATOM      5  C   UNL     1       2.117 -13.717   1.524  1.00  0.00     0.107 A 
ATOM      6  C   UNL     1       1.449 -14.011   0.298  1.00  0.00     0.134 A 
ATOM      7  C   UNL     1       1.214 -12.983  -0.624  1.00  0.00     0.093 A 
ATOM      8  C   UNL     1       1.672 -11.687  -0.390  1.00  0.00     0.123 A 
ATOM      9  C   UNL     1       2.372 -11.399   0.782  1.00  0.00     0.094 A 
ATOM     10  C   UNL     1       2.592 -12.394   1.737  1.00  0.00     0.146 A 
ATOM     11  O   UNL     1       3.246 -12.074   2.848  1.00  0.00    -0.456 OA
ENDROOT
BRANCH   1  12
ATOM     12  C   UNL     1       4.235 -12.467   5.025  1.00  0.00     0.021 A 
ATOM     13  C   UNL     1       5.114 -13.314   5.726  1.00  0.00     0.016 A 
ATOM     14  C   UNL     1       5.800 -12.849   6.851  1.00  0.00     0.051 A 
ATOM     15  C   UNL     1       5.615 -11.535   7.298  1.00  0.00     0.157 A 
ATOM     16  C   UNL     1       4.045 -11.153   5.489  1.00  0.00     0.062 A 
ATOM     17  C   UNL     1       4.734 -10.686   6.617  1.00  0.00     0.158 A 
BRANCH  15  18
ATOM     18  O   UNL     1       6.298 -11.066   8.419  1.00  0.00    -0.504 OA
ATOM     19  H   UNL     1       5.917 -10.330   9.002  1.00  0.00     0.293 HD
ENDBRANCH  15  18
BRANCH  17  20
ATOM     20  O   UNL     1       4.548  -9.380   7.067  1.00  0.00    -0.504 OA
ATOM     21  H   UNL     1       3.915  -9.167   7.829  1.00  0.00     0.293 HD
ENDBRANCH  17  20
ENDBRANCH   1  12
BRANCH   6  22
ATOM     22  O   UNL     1       1.019 -15.288  -0.074  1.00  0.00    -0.507 OA
ATOM     23  H   UNL     1       1.039 -15.656  -1.012  1.00  0.00     0.293 HD
ENDBRANCH   6  22
BRANCH   8  24
ATOM     24  O   UNL     1       1.433 -10.693  -1.337  1.00  0.00    -0.508 OA
ATOM     25  H   UNL     1       0.839  -9.898  -1.132  1.00  0.00     0.293 HD
ENDBRANCH   8  24
TORSDOF 5
ENDMDL
MODEL 9
REMARK VINA RESULT:    -6.075      5.498      9.327
REMARK INTER + INTRA:          -7.428
REMARK INTER:                  -7.150
REMARK INTRA:                  -0.278
REMARK UNBOUND:                -0.288
REMARK SMILES O=c1cc(-c2ccc(O)c(O)c2)oc2cc(O)cc(O)c12
REMARK SMILES IDX 4 1 3 2 2 3 1 4 21 5 19 6 18 7 16 8 15 9 14 10 13 11 5 12
REMARK SMILES IDX 6 13 7 14 8 15 12 16 10 17 9 18 11 20 20 22 17 24
REMARK H PARENT 9 19 11 21 20 23 17 25
REMARK Flexibility Score: inf
ROOT
ATOM      1  C   UNL     1       5.767 -13.384   1.069  1.00  0.00     0.138 A 
ATOM      2  C   UNL     1       4.945 -12.380   0.538  1.00  0.00     0.100 A 
ATOM      3  C   UNL     1       4.094 -11.666   1.382  1.00  0.00     0.197 A 
ATOM      4  O   UNL     1       3.328 -10.810   0.867  1.00  0.00    -0.289 OA
ATOM      5  C   UNL     1       4.092 -11.934   2.772  1.00  0.00     0.107 A 
ATOM      6  C   UNL     1       3.292 -11.246   3.734  1.00  0.00     0.134 A 
ATOM      7  C   UNL     1       3.304 -11.668   5.069  1.00  0.00     0.093 A 
ATOM      8  C   UNL     1       4.128 -12.712   5.488  1.00  0.00     0.123 A 
ATOM      9  C   UNL     1       4.952 -13.358   4.567  1.00  0.00     0.094 A 
ATOM     10  C   UNL     1       4.937 -12.985   3.222  1.00  0.00     0.146 A 
ATOM     11  O   UNL     1       5.724 -13.639   2.373  1.00  0.00    -0.456 OA
ENDROOT
BRANCH   1  12
ATOM     12  C   UNL     1       6.693 -14.173   0.218  1.00  0.00     0.021 A 
ATOM     13  C   UNL     1       6.226 -14.967  -0.847  1.00  0.00     0.016 A 
ATOM     14  C   UNL     1       7.121 -15.706  -1.625  1.00  0.00     0.051 A 
ATOM     15  C   UNL     1       8.493 -15.672  -1.349  1.00  0.00     0.157 A 
ATOM     16  C   UNL     1       8.072 -14.155   0.496  1.00  0.00     0.062 A 
ATOM     17  C   UNL     1       8.969 -14.896  -0.285  1.00  0.00     0.158 A 
BRANCH  15  18
ATOM     18  O   UNL     1       9.388 -16.407  -2.124  1.00  0.00    -0.504 OA
ATOM     19  H   UNL     1      10.376 -16.178  -2.153  1.00  0.00     0.293 HD
ENDBRANCH  15  18
BRANCH  17  20
ATOM     20  O   UNL     1      10.335 -14.867  -0.010  1.00  0.00    -0.504 OA
ATOM     21  H   UNL     1      10.802 -14.012   0.270  1.00  0.00     0.293 HD
ENDBRANCH  17  20
ENDBRANCH   1  12
BRANCH   6  22
ATOM     22  O   UNL     1       2.492 -10.138   3.439  1.00  0.00    -0.507 OA
ATOM     23  H   UNL     1       1.489 -10.106   3.532  1.00  0.00     0.293 HD
ENDBRANCH   6  22
BRANCH   8  24
ATOM     24  O   UNL     1       4.124 -13.094   6.828  1.00  0.00    -0.508 OA
ATOM     25  H   UNL     1       3.755 -12.486   7.551  1.00  0.00     0.293 HD
ENDBRANCH   8  24
TORSDOF 5
ENDMDL
