MODEL 1
REMARK VINA RESULT:    -2.505      0.000      0.000
REMARK INTER + INTRA:          -6.292
REMARK INTER:                  -4.848
REMARK INTRA:                  -1.443
REMARK UNBOUND:                -1.443
REMARK SMILES CCCCCCCCCCCCCCCCCC(=O)[O-]
REMARK SMILES IDX 10 1 11 2 12 3 13 4 14 5 15 6 16 7 17 8 18 9 19 10 20 11
REMARK SMILES IDX 9 12 8 13 7 14 6 15 5 16 4 17 3 18 2 19 1 20
REMARK H PARENT
REMARK Flexibility Score: inf
ROOT
ATOM      1  C   UNL     1      25.564  19.244  26.054  1.00  0.00     0.000 C 
ENDROOT
BRANCH   1   2
ATOM      2  C   UNL     1      25.832  20.730  26.336  1.00  0.00     0.000 C 
BRANCH   2   3
ATOM      3  C   UNL     1      26.455  21.416  25.111  1.00  0.00     0.000 C 
BRANCH   3   4
ATOM      4  C   UNL     1      26.659  20.451  23.932  1.00  0.00     0.000 C 
BRANCH   4   5
ATOM      5  C   UNL     1      28.071  19.846  23.899  1.00  0.00     0.000 C 
BRANCH   5   6
ATOM      6  C   UNL     1      29.130  20.906  24.226  1.00  0.00     0.000 C 
BRANCH   6   7
ATOM      7  C   UNL     1      30.535  20.286  24.269  1.00  0.00     0.006 C 
BRANCH   7   8
ATOM      8  C   UNL     1      30.585  18.914  23.584  1.00  0.00     0.053 C 
BRANCH   8   9
ATOM      9  C   UNL     1      31.220  18.991  22.231  1.00  0.00     0.041 C 
ATOM     10  O   UNL     1      30.517  18.877  21.193  1.00  0.00    -0.550 OA
ATOM     11  O   UNL     1      32.586  19.222  22.114  1.00  0.00    -0.550 OA
ENDBRANCH   8   9
ENDBRANCH   7   8
ENDBRANCH   6   7
ENDBRANCH   5   6
ENDBRANCH   4   5
ENDBRANCH   3   4
ENDBRANCH   2   3
ENDBRANCH   1   2
BRANCH   1  12
ATOM     12  C   UNL     1      24.076  18.877  26.168  1.00  0.00     0.000 C 
BRANCH  12  13
ATOM     13  C   UNL     1      23.151  20.085  25.956  1.00  0.00    -0.000 C 
BRANCH  13  14
ATOM     14  C   UNL     1      22.250  20.307  27.176  1.00  0.00    -0.000 C 
BRANCH  14  15
ATOM     15  C   UNL     1      22.219  21.788  27.576  1.00  0.00    -0.000 C 
BRANCH  15  16
ATOM     16  C   UNL     1      22.957  22.652  26.542  1.00  0.00    -0.000 C 
BRANCH  16  17
ATOM     17  C   UNL     1      23.514  23.956  27.141  1.00  0.00    -0.000 C 
BRANCH  17  18
ATOM     18  C   UNL     1      24.948  24.316  26.703  1.00  0.00    -0.000 C 
BRANCH  18  19
ATOM     19  C   UNL     1      25.213  25.820  26.519  1.00  0.00    -0.003 C 
ATOM     20  C   UNL     1      25.367  26.224  25.054  1.00  0.00     0.004 C 
ENDBRANCH  18  19
ENDBRANCH  17  18
ENDBRANCH  16  17
ENDBRANCH  15  16
ENDBRANCH  14  15
ENDBRANCH  13  14
ENDBRANCH  12  13
ENDBRANCH   1  12
TORSDOF 16
ENDMDL
MODEL 2
REMARK VINA RESULT:    -1.921      3.383      7.017
REMARK INTER + INTRA:          -5.160
REMARK INTER:                  -3.582
REMARK INTRA:                  -1.579
REMARK UNBOUND:                -1.443
REMARK SMILES CCCCCCCCCCCCCCCCCC(=O)[O-]
REMARK SMILES IDX 10 1 11 2 12 3 13 4 14 5 15 6 16 7 17 8 18 9 19 10 20 11
REMARK SMILES IDX 9 12 8 13 7 14 6 15 5 16 4 17 3 18 2 19 1 20
REMARK H PARENT
REMARK Flexibility Score: inf
ROOT
ATOM      1  C   UNL     1      25.347  18.875  24.573  1.00  0.00     0.000 C 
ENDROOT
BRANCH   1   2
ATOM      2  C   UNL     1      23.919  18.887  25.139  1.00  0.00     0.000 C 
BRANCH   2   3
ATOM      3  C   UNL     1      23.897  19.480  26.556  1.00  0.00     0.000 C 
BRANCH   3   4
ATOM      4  C   UNL     1      22.608  20.265  26.849  1.00  0.00     0.000 C 
BRANCH   4   5
ATOM      5  C   UNL     1      22.801  21.784  26.727  1.00  0.00     0.000 C 
BRANCH   5   6
ATOM      6  C   UNL     1      24.242  22.126  26.328  1.00  0.00     0.000 C 
BRANCH   6   7
ATOM      7  C   UNL     1      24.836  23.190  27.263  1.00  0.00     0.006 C 
BRANCH   7   8
ATOM      8  C   UNL     1      24.153  24.554  27.098  1.00  0.00     0.053 C 
BRANCH   8   9
ATOM      9  C   UNL     1      24.858  25.410  26.092  1.00  0.00     0.041 C 
ATOM     10  O   UNL     1      25.879  26.068  26.425  1.00  0.00    -0.550 OA
ATOM     11  O   UNL     1      24.408  25.457  24.778  1.00  0.00    -0.550 OA
ENDBRANCH   8   9
ENDBRANCH   7   8
ENDBRANCH   6   7
ENDBRANCH   5   6
ENDBRANCH   4   5
ENDBRANCH   3   4
ENDBRANCH   2   3
ENDBRANCH   1   2
BRANCH   1  12
ATOM     12  C   UNL     1      25.470  19.660  23.257  1.00  0.00     0.000 C 
BRANCH  12  13
ATOM     13  C   UNL     1      26.570  19.108  22.339  1.00  0.00    -0.000 C 
BRANCH  13  14
ATOM     14  C   UNL     1      27.873  18.885  23.116  1.00  0.00    -0.000 C 
BRANCH  14  15
ATOM     15  C   UNL     1      29.093  19.026  22.197  1.00  0.00    -0.000 C 
BRANCH  15  16
ATOM     16  C   UNL     1      30.354  19.367  23.005  1.00  0.00    -0.000 C 
BRANCH  16  17
ATOM     17  C   UNL     1      30.058  19.630  24.493  1.00  0.00    -0.000 C 
BRANCH  17  18
ATOM     18  C   UNL     1      29.776  21.103  24.853  1.00  0.00    -0.000 C 
BRANCH  18  19
ATOM     19  C   UNL     1      28.295  21.440  25.098  1.00  0.00    -0.003 C 
ATOM     20  C   UNL     1      27.737  20.792  26.363  1.00  0.00     0.004 C 
ENDBRANCH  18  19
ENDBRANCH  17  18
ENDBRANCH  16  17
ENDBRANCH  15  16
ENDBRANCH  14  15
ENDBRANCH  13  14
ENDBRANCH  12  13
ENDBRANCH   1  12
TORSDOF 16
ENDMDL
MODEL 3
REMARK VINA RESULT:    -1.630      1.734      2.196
REMARK INTER + INTRA:          -4.598
REMARK INTER:                  -3.738
REMARK INTRA:                  -0.859
REMARK UNBOUND:                -1.443
REMARK SMILES CCCCCCCCCCCCCCCCCC(=O)[O-]
REMARK SMILES IDX 10 1 11 2 12 3 13 4 14 5 15 6 16 7 17 8 18 9 19 10 20 11
REMARK SMILES IDX 9 12 8 13 7 14 6 15 5 16 4 17 3 18 2 19 1 20
REMARK H PARENT
REMARK Flexibility Score: inf
ROOT
ATOM      1  C   UNL     1      26.196  19.943  25.717  1.00  0.00     0.000 C 
ENDROOT
BRANCH   1   2
ATOM      2  C   UNL     1      26.008  18.911  24.596  1.00  0.00     0.000 C 
BRANCH   2   3
ATOM      3  C   UNL     1      25.604  19.598  23.282  1.00  0.00     0.000 C 
BRANCH   3   4
ATOM      4  C   UNL     1      26.616  19.353  22.151  1.00  0.00     0.000 C 
BRANCH   4   5
ATOM      5  C   UNL     1      27.983  18.883  22.671  1.00  0.00     0.000 C 
BRANCH   5   6
ATOM      6  C   UNL     1      29.031  18.897  21.551  1.00  0.00     0.000 C 
BRANCH   6   7
ATOM      7  C   UNL     1      30.337  19.549  22.028  1.00  0.00     0.006 C 
BRANCH   7   8
ATOM      8  C   UNL     1      30.089  20.859  22.788  1.00  0.00     0.053 C 
BRANCH   8   9
ATOM      9  C   UNL     1      30.060  20.645  24.269  1.00  0.00     0.041 C 
ATOM     10  O   UNL     1      29.350  21.383  25.002  1.00  0.00    -0.550 OA
ATOM     11  O   UNL     1      30.793  19.611  24.839  1.00  0.00    -0.550 OA
ENDBRANCH   8   9
ENDBRANCH   7   8
ENDBRANCH   6   7
ENDBRANCH   5   6
ENDBRANCH   4   5
ENDBRANCH   3   4
ENDBRANCH   2   3
ENDBRANCH   1   2
BRANCH   1  12
ATOM     12  C   UNL     1      25.015  19.973  26.701  1.00  0.00     0.000 C 
BRANCH  12  13
ATOM     13  C   UNL     1      23.933  18.938  26.358  1.00  0.00    -0.000 C 
BRANCH  13  14
ATOM     14  C   UNL     1      22.576  19.615  26.135  1.00  0.00    -0.000 C 
BRANCH  14  15
ATOM     15  C   UNL     1      22.346  20.737  27.156  1.00  0.00    -0.000 C 
BRANCH  15  16
ATOM     16  C   UNL     1      22.476  22.117  26.495  1.00  0.00    -0.000 C 
BRANCH  16  17
ATOM     17  C   UNL     1      23.364  23.084  27.299  1.00  0.00    -0.000 C 
BRANCH  17  18
ATOM     18  C   UNL     1      24.274  23.995  26.450  1.00  0.00    -0.000 C 
BRANCH  18  19
ATOM     19  C   UNL     1      25.041  25.068  27.243  1.00  0.00    -0.003 C 
ATOM     20  C   UNL     1      25.624  26.163  26.352  1.00  0.00     0.004 C 
ENDBRANCH  18  19
ENDBRANCH  17  18
ENDBRANCH  16  17
ENDBRANCH  15  16
ENDBRANCH  14  15
ENDBRANCH  13  14
ENDBRANCH  12  13
ENDBRANCH   1  12
TORSDOF 16
ENDMDL
MODEL 4
REMARK VINA RESULT:    -1.520      1.059      1.698
REMARK INTER + INTRA:          -4.385
REMARK INTER:                  -3.294
REMARK INTRA:                  -1.091
REMARK UNBOUND:                -1.443
REMARK SMILES CCCCCCCCCCCCCCCCCC(=O)[O-]
REMARK SMILES IDX 10 1 11 2 12 3 13 4 14 5 15 6 16 7 17 8 18 9 19 10 20 11
REMARK SMILES IDX 9 12 8 13 7 14 6 15 5 16 4 17 3 18 2 19 1 20
REMARK H PARENT
REMARK Flexibility Score: inf
ROOT
ATOM      1  C   UNL     1      23.325  19.122  26.178  1.00  0.00     0.000 C 
ENDROOT
BRANCH   1   2
ATOM      2  C   UNL     1      24.858  19.109  26.091  1.00  0.00     0.000 C 
BRANCH   2   3
ATOM      3  C   UNL     1      25.390  20.464  25.601  1.00  0.00     0.000 C 
BRANCH   3   4
ATOM      4  C   UNL     1      26.867  20.687  25.964  1.00  0.00     0.000 C 
BRANCH   4   5
ATOM      5  C   UNL     1      27.771  20.798  24.727  1.00  0.00     0.000 C 
BRANCH   5   6
ATOM      6  C   UNL     1      29.206  20.369  25.055  1.00  0.00     0.000 C 
BRANCH   6   7
ATOM      7  C   UNL     1      29.568  19.059  24.339  1.00  0.00     0.006 C 
BRANCH   7   8
ATOM      8  C   UNL     1      29.430  19.174  22.815  1.00  0.00     0.053 C 
BRANCH   8   9
ATOM      9  C   UNL     1      30.688  19.679  22.180  1.00  0.00     0.041 C 
ATOM     10  O   UNL     1      31.605  18.876  21.864  1.00  0.00    -0.550 OA
ATOM     11  O   UNL     1      30.836  21.034  21.906  1.00  0.00    -0.550 OA
ENDBRANCH   8   9
ENDBRANCH   7   8
ENDBRANCH   6   7
ENDBRANCH   5   6
ENDBRANCH   4   5
ENDBRANCH   3   4
ENDBRANCH   2   3
ENDBRANCH   1   2
BRANCH   1  12
ATOM     12  C   UNL     1      22.810  19.744  27.486  1.00  0.00     0.000 C 
BRANCH  12  13
ATOM     13  C   UNL     1      21.832  20.903  27.246  1.00  0.00    -0.000 C 
BRANCH  13  14
ATOM     14  C   UNL     1      22.545  22.101  26.609  1.00  0.00    -0.000 C 
BRANCH  14  15
ATOM     15  C   UNL     1      23.519  22.753  27.598  1.00  0.00    -0.000 C 
BRANCH  15  16
ATOM     16  C   UNL     1      23.584  24.272  27.385  1.00  0.00    -0.000 C 
BRANCH  16  17
ATOM     17  C   UNL     1      24.471  24.672  26.191  1.00  0.00    -0.000 C 
BRANCH  17  18
ATOM     18  C   UNL     1      25.580  25.693  26.513  1.00  0.00    -0.000 C 
BRANCH  18  19
ATOM     19  C   UNL     1      26.134  26.456  25.298  1.00  0.00    -0.003 C 
ATOM     20  C   UNL     1      25.073  26.737  24.236  1.00  0.00     0.004 C 
ENDBRANCH  18  19
ENDBRANCH  17  18
ENDBRANCH  16  17
ENDBRANCH  15  16
ENDBRANCH  14  15
ENDBRANCH  13  14
ENDBRANCH  12  13
ENDBRANCH   1  12
TORSDOF 16
ENDMDL
MODEL 5
REMARK VINA RESULT:    -1.305      2.300      2.856
REMARK INTER + INTRA:          -3.969
REMARK INTER:                  -3.258
REMARK INTRA:                  -0.711
REMARK UNBOUND:                -1.443
REMARK SMILES CCCCCCCCCCCCCCCCCC(=O)[O-]
REMARK SMILES IDX 10 1 11 2 12 3 13 4 14 5 15 6 16 7 17 8 18 9 19 10 20 11
REMARK SMILES IDX 9 12 8 13 7 14 6 15 5 16 4 17 3 18 2 19 1 20
REMARK H PARENT
REMARK Flexibility Score: inf
ROOT
ATOM      1  C   UNL     1      25.175  18.886  25.219  1.00  0.00     0.000 C 
ENDROOT
BRANCH   1   2
ATOM      2  C   UNL     1      24.724  19.042  23.759  1.00  0.00     0.000 C 
BRANCH   2   3
ATOM      3  C   UNL     1      25.922  19.338  22.845  1.00  0.00     0.000 C 
BRANCH   3   4
ATOM      4  C   UNL     1      27.257  18.875  23.449  1.00  0.00     0.000 C 
BRANCH   4   5
ATOM      5  C   UNL     1      28.454  19.686  22.931  1.00  0.00     0.000 C 
BRANCH   5   6
ATOM      6  C   UNL     1      29.755  19.240  23.609  1.00  0.00     0.000 C 
BRANCH   6   7
ATOM      7  C   UNL     1      30.110  20.163  24.784  1.00  0.00     0.006 C 
BRANCH   7   8
ATOM      8  C   UNL     1      29.241  21.427  24.811  1.00  0.00     0.053 C 
BRANCH   8   9
ATOM      9  C   UNL     1      28.010  21.238  25.642  1.00  0.00     0.041 C 
ATOM     10  O   UNL     1      28.084  20.674  26.765  1.00  0.00    -0.550 OA
ATOM     11  O   UNL     1      26.784  21.715  25.192  1.00  0.00    -0.550 OA
ENDBRANCH   8   9
ENDBRANCH   7   8
ENDBRANCH   6   7
ENDBRANCH   5   6
ENDBRANCH   4   5
ENDBRANCH   3   4
ENDBRANCH   2   3
ENDBRANCH   1   2
BRANCH   1  12
ATOM     12  C   UNL     1      24.012  19.005  26.216  1.00  0.00     0.000 C 
BRANCH  12  13
ATOM     13  C   UNL     1      22.899  19.939  25.719  1.00  0.00    -0.000 C 
BRANCH  13  14
ATOM     14  C   UNL     1      22.482  20.929  26.813  1.00  0.00    -0.000 C 
BRANCH  14  15
ATOM     15  C   UNL     1      23.617  21.912  27.128  1.00  0.00    -0.000 C 
BRANCH  15  16
ATOM     16  C   UNL     1      23.212  23.350  26.775  1.00  0.00    -0.000 C 
BRANCH  16  17
ATOM     17  C   UNL     1      23.988  24.406  27.583  1.00  0.00    -0.000 C 
BRANCH  17  18
ATOM     18  C   UNL     1      24.994  25.244  26.768  1.00  0.00    -0.000 C 
BRANCH  18  19
ATOM     19  C   UNL     1      24.648  25.405  25.278  1.00  0.00    -0.003 C 
ATOM     20  C   UNL     1      25.463  26.499  24.591  1.00  0.00     0.004 C 
ENDBRANCH  18  19
ENDBRANCH  17  18
ENDBRANCH  16  17
ENDBRANCH  15  16
ENDBRANCH  14  15
ENDBRANCH  13  14
ENDBRANCH  12  13
ENDBRANCH   1  12
TORSDOF 16
ENDMDL
MODEL 6
REMARK VINA RESULT:    -0.952      3.295      7.303
REMARK INTER + INTRA:          -3.285
REMARK INTER:                  -2.824
REMARK INTRA:                  -0.461
REMARK UNBOUND:                -1.443
REMARK SMILES CCCCCCCCCCCCCCCCCC(=O)[O-]
REMARK SMILES IDX 10 1 11 2 12 3 13 4 14 5 15 6 16 7 17 8 18 9 19 10 20 11
REMARK SMILES IDX 9 12 8 13 7 14 6 15 5 16 4 17 3 18 2 19 1 20
REMARK H PARENT
REMARK Flexibility Score: inf
ROOT
ATOM      1  C   UNL     1      24.711  19.669  25.863  1.00  0.00     0.000 C 
ENDROOT
BRANCH   1   2
ATOM      2  C   UNL     1      23.700  18.908  26.734  1.00  0.00     0.000 C 
BRANCH   2   3
ATOM      3  C   UNL     1      22.627  19.859  27.284  1.00  0.00     0.000 C 
BRANCH   3   4
ATOM      4  C   UNL     1      22.407  21.087  26.387  1.00  0.00     0.000 C 
BRANCH   4   5
ATOM      5  C   UNL     1      23.471  22.175  26.602  1.00  0.00     0.000 C 
BRANCH   5   6
ATOM      6  C   UNL     1      22.954  23.270  27.543  1.00  0.00     0.000 C 
BRANCH   6   7
ATOM      7  C   UNL     1      23.774  24.559  27.392  1.00  0.00     0.006 C 
BRANCH   7   8
ATOM      8  C   UNL     1      24.303  24.746  25.964  1.00  0.00     0.053 C 
BRANCH   8   9
ATOM      9  C   UNL     1      25.312  25.849  25.884  1.00  0.00     0.041 C 
ATOM     10  O   UNL     1      25.850  26.292  26.933  1.00  0.00    -0.550 OA
ATOM     11  O   UNL     1      25.684  26.367  24.649  1.00  0.00    -0.550 OA
ENDBRANCH   8   9
ENDBRANCH   7   8
ENDBRANCH   6   7
ENDBRANCH   5   6
ENDBRANCH   4   5
ENDBRANCH   3   4
ENDBRANCH   2   3
ENDBRANCH   1   2
BRANCH   1  12
ATOM     12  C   UNL     1      25.140  18.875  24.619  1.00  0.00     0.000 C 
BRANCH  12  13
ATOM     13  C   UNL     1      26.636  19.024  24.307  1.00  0.00    -0.000 C 
BRANCH  13  14
ATOM     14  C   UNL     1      27.030  20.502  24.201  1.00  0.00    -0.000 C 
BRANCH  14  15
ATOM     15  C   UNL     1      28.017  20.890  25.309  1.00  0.00    -0.000 C 
BRANCH  15  16
ATOM     16  C   UNL     1      29.340  21.396  24.714  1.00  0.00    -0.000 C 
BRANCH  16  17
ATOM     17  C   UNL     1      30.448  20.327  24.726  1.00  0.00    -0.000 C 
BRANCH  17  18
ATOM     18  C   UNL     1      30.257  19.176  23.717  1.00  0.00    -0.000 C 
BRANCH  18  19
ATOM     19  C   UNL     1      30.547  19.542  22.251  1.00  0.00    -0.003 C 
ATOM     20  C   UNL     1      31.810  18.876  21.708  1.00  0.00     0.004 C 
ENDBRANCH  18  19
ENDBRANCH  17  18
ENDBRANCH  16  17
ENDBRANCH  15  16
ENDBRANCH  14  15
ENDBRANCH  13  14
ENDBRANCH  12  13
ENDBRANCH   1  12
TORSDOF 16
ENDMDL
MODEL 7
REMARK VINA RESULT:    -0.836      2.666      6.757
REMARK INTER + INTRA:          -3.062
REMARK INTER:                  -1.592
REMARK INTRA:                  -1.470
REMARK UNBOUND:                -1.443
REMARK SMILES CCCCCCCCCCCCCCCCCC(=O)[O-]
REMARK SMILES IDX 10 1 11 2 12 3 13 4 14 5 15 6 16 7 17 8 18 9 19 10 20 11
REMARK SMILES IDX 9 12 8 13 7 14 6 15 5 16 4 17 3 18 2 19 1 20
REMARK H PARENT
REMARK Flexibility Score: inf
ROOT
ATOM      1  C   UNL     1      24.386  23.857  26.987  1.00  0.00     0.000 C 
ENDROOT
BRANCH   1   2
ATOM      2  C   UNL     1      22.876  23.576  27.030  1.00  0.00     0.000 C 
BRANCH   2   3
ATOM      3  C   UNL     1      22.578  22.123  26.630  1.00  0.00     0.000 C 
BRANCH   3   4
ATOM      4  C   UNL     1      21.977  21.303  27.782  1.00  0.00     0.000 C 
BRANCH   4   5
ATOM      5  C   UNL     1      22.216  19.794  27.622  1.00  0.00     0.000 C 
BRANCH   5   6
ATOM      6  C   UNL     1      23.714  19.484  27.504  1.00  0.00     0.000 C 
BRANCH   6   7
ATOM      7  C   UNL     1      24.079  19.065  26.073  1.00  0.00     0.006 C 
BRANCH   7   8
ATOM      8  C   UNL     1      22.843  18.934  25.173  1.00  0.00     0.053 C 
BRANCH   8   9
ATOM      9  C   UNL     1      23.210  18.927  23.722  1.00  0.00     0.041 C 
ATOM     10  O   UNL     1      22.312  18.875  22.841  1.00  0.00    -0.550 OA
ATOM     11  O   UNL     1      24.544  19.010  23.339  1.00  0.00    -0.550 OA
ENDBRANCH   8   9
ENDBRANCH   7   8
ENDBRANCH   6   7
ENDBRANCH   5   6
ENDBRANCH   4   5
ENDBRANCH   3   4
ENDBRANCH   2   3
ENDBRANCH   1   2
BRANCH   1  12
ATOM     12  C   UNL     1      25.092  23.127  25.834  1.00  0.00     0.000 C 
BRANCH  12  13
ATOM     13  C   UNL     1      26.168  22.147  26.324  1.00  0.00    -0.000 C 
BRANCH  13  14
ATOM     14  C   UNL     1      26.519  21.127  25.235  1.00  0.00    -0.000 C 
BRANCH  14  15
ATOM     15  C   UNL     1      27.838  20.412  25.554  1.00  0.00    -0.000 C 
BRANCH  15  16
ATOM     16  C   UNL     1      27.880  19.020  24.906  1.00  0.00    -0.000 C 
BRANCH  16  17
ATOM     17  C   UNL     1      28.990  18.887  23.846  1.00  0.00    -0.000 C 
BRANCH  17  18
ATOM     18  C   UNL     1      29.105  20.073  22.867  1.00  0.00    -0.000 C 
BRANCH  18  19
ATOM     19  C   UNL     1      30.544  20.477  22.502  1.00  0.00    -0.003 C 
ATOM     20  C   UNL     1      31.507  19.291  22.472  1.00  0.00     0.004 C 
ENDBRANCH  18  19
ENDBRANCH  17  18
ENDBRANCH  16  17
ENDBRANCH  15  16
ENDBRANCH  14  15
ENDBRANCH  13  14
ENDBRANCH  12  13
ENDBRANCH   1  12
TORSDOF 16
ENDMDL
MODEL 8
REMARK VINA RESULT:    -0.709      1.239      2.585
REMARK INTER + INTRA:          -2.815
REMARK INTER:                  -1.549
REMARK INTRA:                  -1.266
REMARK UNBOUND:                -1.443
REMARK SMILES CCCCCCCCCCCCCCCCCC(=O)[O-]
REMARK SMILES IDX 10 1 11 2 12 3 13 4 14 5 15 6 16 7 17 8 18 9 19 10 20 11
REMARK SMILES IDX 9 12 8 13 7 14 6 15 5 16 4 17 3 18 2 19 1 20
REMARK H PARENT
REMARK Flexibility Score: inf
ROOT
ATOM      1  C   UNL     1      22.384  19.612  26.849  1.00  0.00     0.000 C 
ENDROOT
BRANCH   1   2
ATOM      2  C   UNL     1      23.830  19.118  26.688  1.00  0.00     0.000 C 
BRANCH   2   3
ATOM      3  C   UNL     1      24.174  18.908  25.206  1.00  0.00     0.000 C 
BRANCH   3   4
ATOM      4  C   UNL     1      25.674  19.079  24.916  1.00  0.00     0.000 C 
BRANCH   4   5
ATOM      5  C   UNL     1      26.144  20.533  25.073  1.00  0.00     0.000 C 
BRANCH   5   6
ATOM      6  C   UNL     1      27.367  20.618  25.995  1.00  0.00     0.000 C 
BRANCH   6   7
ATOM      7  C   UNL     1      28.622  21.028  25.209  1.00  0.00     0.006 C 
BRANCH   7   8
ATOM      8  C   UNL     1      28.570  20.562  23.748  1.00  0.00     0.053 C 
BRANCH   8   9
ATOM      9  C   UNL     1      29.923  20.170  23.240  1.00  0.00     0.041 C 
ATOM     10  O   UNL     1      30.321  20.578  22.118  1.00  0.00    -0.550 OA
ATOM     11  O   UNL     1      30.759  19.381  24.022  1.00  0.00    -0.550 OA
ENDBRANCH   8   9
ENDBRANCH   7   8
ENDBRANCH   6   7
ENDBRANCH   5   6
ENDBRANCH   4   5
ENDBRANCH   3   4
ENDBRANCH   2   3
ENDBRANCH   1   2
BRANCH   1  12
ATOM     12  C   UNL     1      22.304  21.038  27.417  1.00  0.00     0.000 C 
BRANCH  12  13
ATOM     13  C   UNL     1      23.116  22.050  26.596  1.00  0.00    -0.000 C 
BRANCH  13  14
ATOM     14  C   UNL     1      22.688  23.487  26.916  1.00  0.00    -0.000 C 
BRANCH  14  15
ATOM     15  C   UNL     1      23.817  24.256  27.612  1.00  0.00    -0.000 C 
BRANCH  15  16
ATOM     16  C   UNL     1      25.151  24.062  26.876  1.00  0.00    -0.000 C 
BRANCH  16  17
ATOM     17  C   UNL     1      25.925  25.379  26.683  1.00  0.00    -0.000 C 
BRANCH  17  18
ATOM     18  C   UNL     1      25.121  26.521  26.031  1.00  0.00    -0.000 C 
BRANCH  18  19
ATOM     19  C   UNL     1      24.995  26.436  24.500  1.00  0.00    -0.003 C 
ATOM     20  C   UNL     1      24.275  27.639  23.893  1.00  0.00     0.004 C 
ENDBRANCH  18  19
ENDBRANCH  17  18
ENDBRANCH  16  17
ENDBRANCH  15  16
ENDBRANCH  14  15
ENDBRANCH  13  14
ENDBRANCH  12  13
ENDBRANCH   1  12
TORSDOF 16
ENDMDL
