MODEL 1
REMARK VINA RESULT:    -8.214      0.000      0.000
REMARK INTER + INTRA:          -9.829
REMARK INTER:                  -9.895
REMARK INTRA:                   0.066
REMARK UNBOUND:                 0.066
REMARK SMILES O=c1c(O)c(-c2ccc(O)c(O)c2)oc2cc(O)cc(O)c12
REMARK SMILES IDX 5 1 3 2 2 3 1 4 22 5 20 6 19 7 17 8 16 9 15 10 14 11 6 12
REMARK SMILES IDX 7 13 8 14 9 15 13 16 11 17 10 18 12 20 4 22 21 24 18 26
REMARK H PARENT 10 19 12 21 4 23 21 25 18 27
REMARK Flexibility Score: inf
ROOT
ATOM      1  C   UNL     1      24.309  23.615  35.085  1.00  0.00     0.180 A 
ATOM      2  C   UNL     1      25.589  24.187  35.180  1.00  0.00     0.208 A 
ATOM      3  C   UNL     1      25.771  25.520  34.780  1.00  0.00     0.238 A 
ATOM      4  O   UNL     1      26.908  26.043  34.917  1.00  0.00    -0.285 OA
ATOM      5  C   UNL     1      24.675  26.261  34.276  1.00  0.00     0.111 A 
ATOM      6  C   UNL     1      24.754  27.606  33.805  1.00  0.00     0.134 A 
ATOM      7  C   UNL     1      23.580  28.282  33.450  1.00  0.00     0.093 A 
ATOM      8  C   UNL     1      22.339  27.642  33.488  1.00  0.00     0.123 A 
ATOM      9  C   UNL     1      22.260  26.310  33.889  1.00  0.00     0.094 A 
ATOM     10  C   UNL     1      23.409  25.619  34.284  1.00  0.00     0.146 A 
ATOM     11  O   UNL     1      23.288  24.355  34.670  1.00  0.00    -0.452 OA
ENDROOT
BRANCH   1  12
ATOM     12  C   UNL     1      24.044  22.208  35.463  1.00  0.00     0.025 A 
ATOM     13  C   UNL     1      24.917  21.174  35.089  1.00  0.00     0.016 A 
ATOM     14  C   UNL     1      24.634  19.852  35.436  1.00  0.00     0.051 A 
ATOM     15  C   UNL     1      23.473  19.533  36.150  1.00  0.00     0.157 A 
ATOM     16  C   UNL     1      22.869  21.889  36.159  1.00  0.00     0.062 A 
ATOM     17  C   UNL     1      22.576  20.566  36.513  1.00  0.00     0.158 A 
BRANCH  15  18
ATOM     18  O   UNL     1      23.251  18.193  36.470  1.00  0.00    -0.504 OA
ATOM     19  H   UNL     1      23.289  17.823  37.409  1.00  0.00     0.293 HD
ENDBRANCH  15  18
BRANCH  17  20
ATOM     20  O   UNL     1      21.394  20.324  37.216  1.00  0.00    -0.504 OA
ATOM     21  H   UNL     1      20.535  20.833  37.068  1.00  0.00     0.293 HD
ENDBRANCH  17  20
ENDBRANCH   1  12
BRANCH   2  22
ATOM     22  O   UNL     1      26.654  23.445  35.701  1.00  0.00    -0.502 OA
ATOM     23  H   UNL     1      27.578  23.453  35.286  1.00  0.00     0.293 HD
ENDBRANCH   2  22
BRANCH   6  24
ATOM     24  O   UNL     1      25.952  28.307  33.641  1.00  0.00    -0.507 OA
ATOM     25  H   UNL     1      26.226  29.112  34.184  1.00  0.00     0.293 HD
ENDBRANCH   6  24
BRANCH   8  26
ATOM     26  O   UNL     1      21.178  28.318  33.118  1.00  0.00    -0.508 OA
ATOM     27  H   UNL     1      21.127  28.851  32.258  1.00  0.00     0.293 HD
ENDBRANCH   8  26
TORSDOF 6
ENDMDL
MODEL 2
REMARK VINA RESULT:    -7.905      2.687      7.094
REMARK INTER + INTRA:          -9.456
REMARK INTER:                  -9.522
REMARK INTRA:                   0.066
REMARK UNBOUND:                 0.066
REMARK SMILES O=c1c(O)c(-c2ccc(O)c(O)c2)oc2cc(O)cc(O)c12
REMARK SMILES IDX 5 1 3 2 2 3 1 4 22 5 20 6 19 7 17 8 16 9 15 10 14 11 6 12
REMARK SMILES IDX 7 13 8 14 9 15 13 16 11 17 10 18 12 20 4 22 21 24 18 26
REMARK H PARENT 10 19 12 21 4 23 21 25 18 27
REMARK Flexibility Score: inf
ROOT
ATOM      1  C   UNL     1      25.510  24.350  34.039  1.00  0.00     0.180 A 
ATOM      2  C   UNL     1      25.032  23.240  34.757  1.00  0.00     0.208 A 
ATOM      3  C   UNL     1      25.800  22.066  34.787  1.00  0.00     0.238 A 
ATOM      4  O   UNL     1      25.393  21.094  35.476  1.00  0.00    -0.285 OA
ATOM      5  C   UNL     1      27.029  22.009  34.086  1.00  0.00     0.111 A 
ATOM      6  C   UNL     1      27.869  20.858  34.015  1.00  0.00     0.134 A 
ATOM      7  C   UNL     1      29.124  20.956  33.402  1.00  0.00     0.093 A 
ATOM      8  C   UNL     1      29.542  22.146  32.801  1.00  0.00     0.123 A 
ATOM      9  C   UNL     1      28.703  23.258  32.813  1.00  0.00     0.094 A 
ATOM     10  C   UNL     1      27.460  23.202  33.448  1.00  0.00     0.146 A 
ATOM     11  O   UNL     1      26.697  24.288  33.446  1.00  0.00    -0.452 OA
ENDROOT
BRANCH   1  12
ATOM     12  C   UNL     1      24.746  25.614  33.940  1.00  0.00     0.025 A 
ATOM     13  C   UNL     1      23.361  25.614  33.707  1.00  0.00     0.016 A 
ATOM     14  C   UNL     1      22.665  26.819  33.594  1.00  0.00     0.051 A 
ATOM     15  C   UNL     1      23.335  28.044  33.697  1.00  0.00     0.157 A 
ATOM     16  C   UNL     1      25.422  26.840  34.022  1.00  0.00     0.062 A 
ATOM     17  C   UNL     1      24.733  28.054  33.911  1.00  0.00     0.158 A 
BRANCH  15  18
ATOM     18  O   UNL     1      22.579  29.212  33.579  1.00  0.00    -0.504 OA
ATOM     19  H   UNL     1      21.661  29.333  33.981  1.00  0.00     0.293 HD
ENDBRANCH  15  18
BRANCH  17  20
ATOM     20  O   UNL     1      25.471  29.235  34.014  1.00  0.00    -0.504 OA
ATOM     21  H   UNL     1      25.097  30.154  33.825  1.00  0.00     0.293 HD
ENDBRANCH  17  20
ENDBRANCH   1  12
BRANCH   2  22
ATOM     22  O   UNL     1      23.827  23.325  35.461  1.00  0.00    -0.502 OA
ATOM     23  H   UNL     1      23.781  23.623  36.427  1.00  0.00     0.293 HD
ENDBRANCH   2  22
BRANCH   6  24
ATOM     24  O   UNL     1      27.509  19.597  34.502  1.00  0.00    -0.507 OA
ATOM     25  H   UNL     1      26.591  19.353  34.843  1.00  0.00     0.293 HD
ENDBRANCH   6  24
BRANCH   8  26
ATOM     26  O   UNL     1      30.786  22.230  32.179  1.00  0.00    -0.508 OA
ATOM     27  H   UNL     1      31.230  23.122  32.002  1.00  0.00     0.293 HD
ENDBRANCH   8  26
TORSDOF 6
ENDMDL
MODEL 3
REMARK VINA RESULT:    -7.876      2.514      7.040
REMARK INTER + INTRA:          -9.422
REMARK INTER:                  -9.494
REMARK INTRA:                   0.072
REMARK UNBOUND:                 0.066
REMARK SMILES O=c1c(O)c(-c2ccc(O)c(O)c2)oc2cc(O)cc(O)c12
REMARK SMILES IDX 5 1 3 2 2 3 1 4 22 5 20 6 19 7 17 8 16 9 15 10 14 11 6 12
REMARK SMILES IDX 7 13 8 14 9 15 13 16 11 17 10 18 12 20 4 22 21 24 18 26
REMARK H PARENT 10 19 12 21 4 23 21 25 18 27
REMARK Flexibility Score: inf
ROOT
ATOM      1  C   UNL     1      26.112  24.426  33.636  1.00  0.00     0.180 A 
ATOM      2  C   UNL     1      27.307  24.417  32.896  1.00  0.00     0.208 A 
ATOM      3  C   UNL     1      28.123  23.276  32.936  1.00  0.00     0.238 A 
ATOM      4  O   UNL     1      29.165  23.253  32.229  1.00  0.00    -0.285 OA
ATOM      5  C   UNL     1      27.744  22.164  33.727  1.00  0.00     0.111 A 
ATOM      6  C   UNL     1      28.515  20.973  33.873  1.00  0.00     0.134 A 
ATOM      7  C   UNL     1      27.979  19.887  34.576  1.00  0.00     0.093 A 
ATOM      8  C   UNL     1      26.729  19.973  35.195  1.00  0.00     0.123 A 
ATOM      9  C   UNL     1      25.995  21.154  35.108  1.00  0.00     0.094 A 
ATOM     10  C   UNL     1      26.487  22.242  34.382  1.00  0.00     0.146 A 
ATOM     11  O   UNL     1      25.751  23.345  34.316  1.00  0.00    -0.452 OA
ENDROOT
BRANCH   1  12
ATOM     12  C   UNL     1      25.211  25.602  33.664  1.00  0.00     0.025 A 
ATOM     13  C   UNL     1      23.830  25.470  33.448  1.00  0.00     0.016 A 
ATOM     14  C   UNL     1      23.005  26.596  33.455  1.00  0.00     0.051 A 
ATOM     15  C   UNL     1      23.538  27.872  33.665  1.00  0.00     0.157 A 
ATOM     16  C   UNL     1      25.752  26.883  33.852  1.00  0.00     0.062 A 
ATOM     17  C   UNL     1      24.932  28.018  33.862  1.00  0.00     0.158 A 
BRANCH  15  18
ATOM     18  O   UNL     1      22.658  28.955  33.665  1.00  0.00    -0.504 OA
ATOM     19  H   UNL     1      22.453  29.516  34.480  1.00  0.00     0.293 HD
ENDBRANCH  15  18
BRANCH  17  20
ATOM     20  O   UNL     1      25.538  29.259  34.067  1.00  0.00    -0.504 OA
ATOM     21  H   UNL     1      25.919  29.563  34.952  1.00  0.00     0.293 HD
ENDBRANCH  17  20
ENDBRANCH   1  12
BRANCH   2  22
ATOM     22  O   UNL     1      27.652  25.516  32.104  1.00  0.00    -0.502 OA
ATOM     23  H   UNL     1      27.810  26.438  32.492  1.00  0.00     0.293 HD
ENDBRANCH   2  22
BRANCH   6  24
ATOM     24  O   UNL     1      29.811  20.815  33.374  1.00  0.00    -0.507 OA
ATOM     25  H   UNL     1      30.167  19.969  32.956  1.00  0.00     0.293 HD
ENDBRANCH   6  24
BRANCH   8  26
ATOM     26  O   UNL     1      26.212  18.893  35.906  1.00  0.00    -0.508 OA
ATOM     27  H   UNL     1      25.965  18.973  36.885  1.00  0.00     0.293 HD
ENDBRANCH   8  26
TORSDOF 6
ENDMDL
MODEL 4
REMARK VINA RESULT:    -7.561      2.787      7.057
REMARK INTER + INTRA:          -9.043
REMARK INTER:                  -8.825
REMARK INTRA:                  -0.218
REMARK UNBOUND:                 0.066
REMARK SMILES O=c1c(O)c(-c2ccc(O)c(O)c2)oc2cc(O)cc(O)c12
REMARK SMILES IDX 5 1 3 2 2 3 1 4 22 5 20 6 19 7 17 8 16 9 15 10 14 11 6 12
REMARK SMILES IDX 7 13 8 14 9 15 13 16 11 17 10 18 12 20 4 22 21 24 18 26
REMARK H PARENT 10 19 12 21 4 23 21 25 18 27
REMARK Flexibility Score: inf
ROOT
ATOM      1  C   UNL     1      26.347  24.287  33.599  1.00  0.00     0.180 A 
ATOM      2  C   UNL     1      25.154  25.018  33.729  1.00  0.00     0.208 A 
ATOM      3  C   UNL     1      24.036  24.400  34.312  1.00  0.00     0.238 A 
ATOM      4  O   UNL     1      22.988  25.077  34.475  1.00  0.00    -0.285 OA
ATOM      5  C   UNL     1      24.120  23.054  34.743  1.00  0.00     0.111 A 
ATOM      6  C   UNL     1      23.038  22.316  35.310  1.00  0.00     0.134 A 
ATOM      7  C   UNL     1      23.271  21.033  35.820  1.00  0.00     0.093 A 
ATOM      8  C   UNL     1      24.531  20.436  35.724  1.00  0.00     0.123 A 
ATOM      9  C   UNL     1      25.578  21.126  35.118  1.00  0.00     0.094 A 
ATOM     10  C   UNL     1      25.386  22.422  34.632  1.00  0.00     0.146 A 
ATOM     11  O   UNL     1      26.414  23.048  34.071  1.00  0.00    -0.452 OA
ENDROOT
BRANCH   1  12
ATOM     12  C   UNL     1      27.560  24.861  32.972  1.00  0.00     0.025 A 
ATOM     13  C   UNL     1      28.027  24.404  31.729  1.00  0.00     0.016 A 
ATOM     14  C   UNL     1      29.185  24.945  31.170  1.00  0.00     0.051 A 
ATOM     15  C   UNL     1      29.907  25.939  31.840  1.00  0.00     0.157 A 
ATOM     16  C   UNL     1      28.294  25.842  33.657  1.00  0.00     0.062 A 
ATOM     17  C   UNL     1      29.457  26.390  33.103  1.00  0.00     0.158 A 
BRANCH  15  18
ATOM     18  O   UNL     1      31.055  26.440  31.223  1.00  0.00    -0.504 OA
ATOM     19  H   UNL     1      31.096  27.330  30.747  1.00  0.00     0.293 HD
ENDBRANCH  15  18
BRANCH  17  20
ATOM     20  O   UNL     1      30.129  27.371  33.836  1.00  0.00    -0.504 OA
ATOM     21  H   UNL     1      31.090  27.293  34.135  1.00  0.00     0.293 HD
ENDBRANCH  17  20
ENDBRANCH   1  12
BRANCH   2  22
ATOM     22  O   UNL     1      25.099  26.353  33.318  1.00  0.00    -0.502 OA
ATOM     23  H   UNL     1      25.837  27.016  33.521  1.00  0.00     0.293 HD
ENDBRANCH   2  22
BRANCH   6  24
ATOM     24  O   UNL     1      21.722  22.782  35.370  1.00  0.00    -0.507 OA
ATOM     25  H   UNL     1      21.406  23.662  34.990  1.00  0.00     0.293 HD
ENDBRANCH   6  24
BRANCH   8  26
ATOM     26  O   UNL     1      24.749  19.152  36.220  1.00  0.00    -0.508 OA
ATOM     27  H   UNL     1      25.230  18.448  35.674  1.00  0.00     0.293 HD
ENDBRANCH   8  26
TORSDOF 6
ENDMDL
MODEL 5
REMARK VINA RESULT:    -7.532      1.266      6.676
REMARK INTER + INTRA:          -9.007
REMARK INTER:                  -9.022
REMARK INTRA:                   0.015
REMARK UNBOUND:                 0.066
REMARK SMILES O=c1c(O)c(-c2ccc(O)c(O)c2)oc2cc(O)cc(O)c12
REMARK SMILES IDX 5 1 3 2 2 3 1 4 22 5 20 6 19 7 17 8 16 9 15 10 14 11 6 12
REMARK SMILES IDX 7 13 8 14 9 15 13 16 11 17 10 18 12 20 4 22 21 24 18 26
REMARK H PARENT 10 19 12 21 4 23 21 25 18 27
REMARK Flexibility Score: inf
ROOT
ATOM      1  C   UNL     1      24.332  23.874  34.853  1.00  0.00     0.180 A 
ATOM      2  C   UNL     1      25.378  23.005  34.498  1.00  0.00     0.208 A 
ATOM      3  C   UNL     1      25.352  21.682  34.966  1.00  0.00     0.238 A 
ATOM      4  O   UNL     1      26.264  20.894  34.601  1.00  0.00    -0.285 OA
ATOM      5  C   UNL     1      24.290  21.247  35.794  1.00  0.00     0.111 A 
ATOM      6  C   UNL     1      24.183  19.940  36.357  1.00  0.00     0.134 A 
ATOM      7  C   UNL     1      23.023  19.582  37.054  1.00  0.00     0.093 A 
ATOM      8  C   UNL     1      21.995  20.504  37.265  1.00  0.00     0.123 A 
ATOM      9  C   UNL     1      22.116  21.800  36.771  1.00  0.00     0.094 A 
ATOM     10  C   UNL     1      23.246  22.177  36.039  1.00  0.00     0.146 A 
ATOM     11  O   UNL     1      23.317  23.420  35.577  1.00  0.00    -0.452 OA
ENDROOT
BRANCH   1  12
ATOM     12  C   UNL     1      24.302  25.290  34.420  1.00  0.00     0.025 A 
ATOM     13  C   UNL     1      25.432  26.115  34.540  1.00  0.00     0.016 A 
ATOM     14  C   UNL     1      25.373  27.453  34.147  1.00  0.00     0.051 A 
ATOM     15  C   UNL     1      24.188  27.998  33.641  1.00  0.00     0.157 A 
ATOM     16  C   UNL     1      23.107  25.840  33.933  1.00  0.00     0.062 A 
ATOM     17  C   UNL     1      23.038  27.181  33.536  1.00  0.00     0.158 A 
BRANCH  15  18
ATOM     18  O   UNL     1      24.198  29.342  33.262  1.00  0.00    -0.504 OA
ATOM     19  H   UNL     1      25.039  29.885  33.132  1.00  0.00     0.293 HD
ENDBRANCH  15  18
BRANCH  17  20
ATOM     20  O   UNL     1      21.818  27.656  33.051  1.00  0.00    -0.504 OA
ATOM     21  H   UNL     1      21.711  28.519  32.539  1.00  0.00     0.293 HD
ENDBRANCH  17  20
ENDBRANCH   1  12
BRANCH   2  22
ATOM     22  O   UNL     1      26.407  23.448  33.661  1.00  0.00    -0.502 OA
ATOM     23  H   UNL     1      26.951  22.816  33.086  1.00  0.00     0.293 HD
ENDBRANCH   2  22
BRANCH   6  24
ATOM     24  O   UNL     1      25.192  18.974  36.284  1.00  0.00    -0.507 OA
ATOM     25  H   UNL     1      25.245  18.251  35.582  1.00  0.00     0.293 HD
ENDBRANCH   6  24
BRANCH   8  26
ATOM     26  O   UNL     1      20.851  20.143  37.974  1.00  0.00    -0.508 OA
ATOM     27  H   UNL     1      19.967  19.983  37.506  1.00  0.00     0.293 HD
ENDBRANCH   8  26
TORSDOF 6
ENDMDL
MODEL 6
REMARK VINA RESULT:    -7.275      1.969      2.499
REMARK INTER + INTRA:          -8.698
REMARK INTER:                  -8.885
REMARK INTRA:                   0.188
REMARK UNBOUND:                 0.066
REMARK SMILES O=c1c(O)c(-c2ccc(O)c(O)c2)oc2cc(O)cc(O)c12
REMARK SMILES IDX 5 1 3 2 2 3 1 4 22 5 20 6 19 7 17 8 16 9 15 10 14 11 6 12
REMARK SMILES IDX 7 13 8 14 9 15 13 16 11 17 10 18 12 20 4 22 21 24 18 26
REMARK H PARENT 10 19 12 21 4 23 21 25 18 27
REMARK Flexibility Score: inf
ROOT
ATOM      1  C   UNL     1      26.286  23.552  34.196  1.00  0.00     0.180 A 
ATOM      2  C   UNL     1      27.297  24.526  34.141  1.00  0.00     0.208 A 
ATOM      3  C   UNL     1      26.939  25.872  33.967  1.00  0.00     0.238 A 
ATOM      4  O   UNL     1      27.846  26.745  33.973  1.00  0.00    -0.285 OA
ATOM      5  C   UNL     1      25.575  26.227  33.835  1.00  0.00     0.111 A 
ATOM      6  C   UNL     1      25.100  27.554  33.615  1.00  0.00     0.134 A 
ATOM      7  C   UNL     1      23.723  27.806  33.630  1.00  0.00     0.093 A 
ATOM      8  C   UNL     1      22.802  26.768  33.791  1.00  0.00     0.123 A 
ATOM      9  C   UNL     1      23.254  25.460  33.946  1.00  0.00     0.094 A 
ATOM     10  C   UNL     1      24.623  25.182  33.972  1.00  0.00     0.146 A 
ATOM     11  O   UNL     1      25.012  23.923  34.133  1.00  0.00    -0.452 OA
ENDROOT
BRANCH   1  12
ATOM     12  C   UNL     1      26.586  22.110  34.351  1.00  0.00     0.025 A 
ATOM     13  C   UNL     1      27.731  21.536  33.775  1.00  0.00     0.016 A 
ATOM     14  C   UNL     1      27.981  20.170  33.915  1.00  0.00     0.051 A 
ATOM     15  C   UNL     1      27.093  19.349  34.619  1.00  0.00     0.157 A 
ATOM     16  C   UNL     1      25.683  21.286  35.038  1.00  0.00     0.062 A 
ATOM     17  C   UNL     1      25.926  19.914  35.185  1.00  0.00     0.158 A 
BRANCH  15  18
ATOM     18  O   UNL     1      27.404  17.993  34.725  1.00  0.00    -0.504 OA
ATOM     19  H   UNL     1      27.586  17.392  33.934  1.00  0.00     0.293 HD
ENDBRANCH  15  18
BRANCH  17  20
ATOM     20  O   UNL     1      24.989  19.158  35.891  1.00  0.00    -0.504 OA
ATOM     21  H   UNL     1      24.536  18.333  35.525  1.00  0.00     0.293 HD
ENDBRANCH  17  20
ENDBRANCH   1  12
BRANCH   2  22
ATOM     22  O   UNL     1      28.637  24.157  34.296  1.00  0.00    -0.502 OA
ATOM     23  H   UNL     1      29.097  23.502  33.676  1.00  0.00     0.293 HD
ENDBRANCH   2  22
BRANCH   6  24
ATOM     24  O   UNL     1      25.932  28.647  33.352  1.00  0.00    -0.507 OA
ATOM     25  H   UNL     1      25.721  29.602  33.600  1.00  0.00     0.293 HD
ENDBRANCH   6  24
BRANCH   8  26
ATOM     26  O   UNL     1      21.432  27.026  33.788  1.00  0.00    -0.508 OA
ATOM     27  H   UNL     1      20.974  27.462  34.579  1.00  0.00     0.293 HD
ENDBRANCH   8  26
TORSDOF 6
ENDMDL
MODEL 7
REMARK VINA RESULT:    -7.248      2.980      6.866
REMARK INTER + INTRA:          -8.665
REMARK INTER:                  -8.999
REMARK INTRA:                   0.333
REMARK UNBOUND:                 0.066
REMARK SMILES O=c1c(O)c(-c2ccc(O)c(O)c2)oc2cc(O)cc(O)c12
REMARK SMILES IDX 5 1 3 2 2 3 1 4 22 5 20 6 19 7 17 8 16 9 15 10 14 11 6 12
REMARK SMILES IDX 7 13 8 14 9 15 13 16 11 17 10 18 12 20 4 22 21 24 18 26
REMARK H PARENT 10 19 12 21 4 23 21 25 18 27
REMARK Flexibility Score: inf
ROOT
ATOM      1  C   UNL     1      26.886  22.750  33.727  1.00  0.00     0.180 A 
ATOM      2  C   UNL     1      27.278  21.435  34.030  1.00  0.00     0.208 A 
ATOM      3  C   UNL     1      26.390  20.603  34.729  1.00  0.00     0.238 A 
ATOM      4  O   UNL     1      26.726  19.410  34.950  1.00  0.00    -0.285 OA
ATOM      5  C   UNL     1      25.126  21.100  35.130  1.00  0.00     0.111 A 
ATOM      6  C   UNL     1      24.163  20.357  35.877  1.00  0.00     0.134 A 
ATOM      7  C   UNL     1      22.895  20.905  36.105  1.00  0.00     0.093 A 
ATOM      8  C   UNL     1      22.578  22.194  35.669  1.00  0.00     0.123 A 
ATOM      9  C   UNL     1      23.531  22.950  34.991  1.00  0.00     0.094 A 
ATOM     10  C   UNL     1      24.794  22.417  34.717  1.00  0.00     0.146 A 
ATOM     11  O   UNL     1      25.670  23.167  34.059  1.00  0.00    -0.452 OA
ENDROOT
BRANCH   1  12
ATOM     12  C   UNL     1      27.777  23.695  33.015  1.00  0.00     0.025 A 
ATOM     13  C   UNL     1      28.795  23.238  32.163  1.00  0.00     0.016 A 
ATOM     14  C   UNL     1      29.638  24.147  31.522  1.00  0.00     0.051 A 
ATOM     15  C   UNL     1      29.493  25.524  31.726  1.00  0.00     0.157 A 
ATOM     16  C   UNL     1      27.644  25.074  33.239  1.00  0.00     0.062 A 
ATOM     17  C   UNL     1      28.485  25.993  32.600  1.00  0.00     0.158 A 
BRANCH  15  18
ATOM     18  O   UNL     1      30.366  26.379  31.051  1.00  0.00    -0.504 OA
ATOM     19  H   UNL     1      31.336  26.506  31.301  1.00  0.00     0.293 HD
ENDBRANCH  15  18
BRANCH  17  20
ATOM     20  O   UNL     1      28.286  27.350  32.862  1.00  0.00    -0.504 OA
ATOM     21  H   UNL     1      28.826  28.092  32.441  1.00  0.00     0.293 HD
ENDBRANCH  17  20
ENDBRANCH   1  12
BRANCH   2  22
ATOM     22  O   UNL     1      28.522  20.958  33.606  1.00  0.00    -0.502 OA
ATOM     23  H   UNL     1      29.337  21.554  33.530  1.00  0.00     0.293 HD
ENDBRANCH   2  22
BRANCH   6  24
ATOM     24  O   UNL     1      24.410  19.100  36.436  1.00  0.00    -0.507 OA
ATOM     25  H   UNL     1      24.885  18.944  37.312  1.00  0.00     0.293 HD
ENDBRANCH   6  24
BRANCH   8  26
ATOM     26  O   UNL     1      21.318  22.738  35.915  1.00  0.00    -0.508 OA
ATOM     27  H   UNL     1      20.664  22.293  36.548  1.00  0.00     0.293 HD
ENDBRANCH   8  26
TORSDOF 6
ENDMDL
MODEL 8
REMARK VINA RESULT:    -7.145      1.624      7.544
REMARK INTER + INTRA:          -8.541
REMARK INTER:                  -8.743
REMARK INTRA:                   0.202
REMARK UNBOUND:                 0.066
REMARK SMILES O=c1c(O)c(-c2ccc(O)c(O)c2)oc2cc(O)cc(O)c12
REMARK SMILES IDX 5 1 3 2 2 3 1 4 22 5 20 6 19 7 17 8 16 9 15 10 14 11 6 12
REMARK SMILES IDX 7 13 8 14 9 15 13 16 11 17 10 18 12 20 4 22 21 24 18 26
REMARK H PARENT 10 19 12 21 4 23 21 25 18 27
REMARK Flexibility Score: inf
ROOT
ATOM      1  C   UNL     1      23.734  22.723  35.853  1.00  0.00     0.180 A 
ATOM      2  C   UNL     1      22.443  22.485  36.354  1.00  0.00     0.208 A 
ATOM      3  C   UNL     1      22.155  21.238  36.932  1.00  0.00     0.238 A 
ATOM      4  O   UNL     1      21.013  21.051  37.427  1.00  0.00    -0.285 OA
ATOM      5  C   UNL     1      23.156  20.239  36.988  1.00  0.00     0.111 A 
ATOM      6  C   UNL     1      22.964  18.928  37.514  1.00  0.00     0.134 A 
ATOM      7  C   UNL     1      24.060  18.066  37.638  1.00  0.00     0.093 A 
ATOM      8  C   UNL     1      25.329  18.445  37.193  1.00  0.00     0.123 A 
ATOM      9  C   UNL     1      25.515  19.702  36.622  1.00  0.00     0.094 A 
ATOM     10  C   UNL     1      24.448  20.598  36.519  1.00  0.00     0.146 A 
ATOM     11  O   UNL     1      24.670  21.790  35.978  1.00  0.00    -0.452 OA
ENDROOT
BRANCH   1  12
ATOM     12  C   UNL     1      24.106  24.003  35.207  1.00  0.00     0.025 A 
ATOM     13  C   UNL     1      23.178  24.737  34.451  1.00  0.00     0.016 A 
ATOM     14  C   UNL     1      23.558  25.928  33.832  1.00  0.00     0.051 A 
ATOM     15  C   UNL     1      24.870  26.404  33.941  1.00  0.00     0.157 A 
ATOM     16  C   UNL     1      25.427  24.466  35.300  1.00  0.00     0.062 A 
ATOM     17  C   UNL     1      25.818  25.661  34.682  1.00  0.00     0.158 A 
BRANCH  15  18
ATOM     18  O   UNL     1      25.183  27.605  33.301  1.00  0.00    -0.504 OA
ATOM     19  H   UNL     1      24.520  28.349  33.142  1.00  0.00     0.293 HD
ENDBRANCH  15  18
BRANCH  17  20
ATOM     20  O   UNL     1      27.146  26.066  34.828  1.00  0.00    -0.504 OA
ATOM     21  H   UNL     1      27.443  26.825  35.423  1.00  0.00     0.293 HD
ENDBRANCH  17  20
ENDBRANCH   1  12
BRANCH   2  22
ATOM     22  O   UNL     1      21.475  23.493  36.309  1.00  0.00    -0.502 OA
ATOM     23  H   UNL     1      20.504  23.306  36.090  1.00  0.00     0.293 HD
ENDBRANCH   2  22
BRANCH   6  24
ATOM     24  O   UNL     1      21.721  18.416  37.902  1.00  0.00    -0.507 OA
ATOM     25  H   UNL     1      21.576  17.503  38.305  1.00  0.00     0.293 HD
ENDBRANCH   6  24
BRANCH   8  26
ATOM     26  O   UNL     1      26.411  17.574  37.306  1.00  0.00    -0.508 OA
ATOM     27  H   UNL     1      26.834  17.146  36.490  1.00  0.00     0.293 HD
ENDBRANCH   8  26
TORSDOF 6
ENDMDL
MODEL 9
REMARK VINA RESULT:    -6.972      2.426      6.972
REMARK INTER + INTRA:          -8.332
REMARK INTER:                  -8.645
REMARK INTRA:                   0.313
REMARK UNBOUND:                 0.066
REMARK SMILES O=c1c(O)c(-c2ccc(O)c(O)c2)oc2cc(O)cc(O)c12
REMARK SMILES IDX 5 1 3 2 2 3 1 4 22 5 20 6 19 7 17 8 16 9 15 10 14 11 6 12
REMARK SMILES IDX 7 13 8 14 9 15 13 16 11 17 10 18 12 20 4 22 21 24 18 26
REMARK H PARENT 10 19 12 21 4 23 21 25 18 27
REMARK Flexibility Score: inf
ROOT
ATOM      1  C   UNL     1      25.218  24.067  34.175  1.00  0.00     0.180 A 
ATOM      2  C   UNL     1      24.486  22.995  34.713  1.00  0.00     0.208 A 
ATOM      3  C   UNL     1      25.094  21.733  34.806  1.00  0.00     0.238 A 
ATOM      4  O   UNL     1      24.451  20.791  35.337  1.00  0.00    -0.285 OA
ATOM      5  C   UNL     1      26.421  21.555  34.346  1.00  0.00     0.111 A 
ATOM      6  C   UNL     1      27.121  20.311  34.354  1.00  0.00     0.134 A 
ATOM      7  C   UNL     1      28.474  20.279  33.996  1.00  0.00     0.093 A 
ATOM      8  C   UNL     1      29.134  21.433  33.566  1.00  0.00     0.123 A 
ATOM      9  C   UNL     1      28.443  22.640  33.497  1.00  0.00     0.094 A 
ATOM     10  C   UNL     1      27.101  22.712  33.883  1.00  0.00     0.146 A 
ATOM     11  O   UNL     1      26.482  23.884  33.812  1.00  0.00    -0.452 OA
ENDROOT
BRANCH   1  12
ATOM     12  C   UNL     1      24.637  25.421  34.021  1.00  0.00     0.025 A 
ATOM     13  C   UNL     1      25.430  26.574  34.137  1.00  0.00     0.016 A 
ATOM     14  C   UNL     1      24.855  27.840  34.012  1.00  0.00     0.051 A 
ATOM     15  C   UNL     1      23.482  27.982  33.782  1.00  0.00     0.157 A 
ATOM     16  C   UNL     1      23.257  25.562  33.813  1.00  0.00     0.062 A 
ATOM     17  C   UNL     1      22.672  26.827  33.685  1.00  0.00     0.158 A 
BRANCH  15  18
ATOM     18  O   UNL     1      22.972  29.276  33.662  1.00  0.00    -0.504 OA
ATOM     19  H   UNL     1      23.503  30.113  33.858  1.00  0.00     0.293 HD
ENDBRANCH  15  18
BRANCH  17  20
ATOM     20  O   UNL     1      21.294  26.890  33.467  1.00  0.00    -0.504 OA
ATOM     21  H   UNL     1      20.750  26.139  33.067  1.00  0.00     0.293 HD
ENDBRANCH  17  20
ENDBRANCH   1  12
BRANCH   2  22
ATOM     22  O   UNL     1      23.185  23.198  35.182  1.00  0.00    -0.502 OA
ATOM     23  H   UNL     1      22.500  23.740  34.669  1.00  0.00     0.293 HD
ENDBRANCH   2  22
BRANCH   6  24
ATOM     24  O   UNL     1      26.531  19.085  34.677  1.00  0.00    -0.507 OA
ATOM     25  H   UNL     1      26.127  18.448  34.008  1.00  0.00     0.293 HD
ENDBRANCH   6  24
BRANCH   8  26
ATOM     26  O   UNL     1      30.477  21.388  33.196  1.00  0.00    -0.508 OA
ATOM     27  H   UNL     1      31.217  21.565  33.865  1.00  0.00     0.293 HD
ENDBRANCH   8  26
TORSDOF 6
ENDMDL
