MODEL 1
REMARK VINA RESULT:    -2.873      0.000      0.000
REMARK INTER + INTRA:         -10.293
REMARK INTER:                  -7.575
REMARK INTRA:                  -2.718
REMARK UNBOUND:                -2.718
REMARK SMILES CCCCCCCCCCCCCCCCCCCCCCCCCCCCCC(=O)[O-]
REMARK SMILES IDX 16 1 17 2 18 3 19 4 20 5 21 6 22 7 23 8 24 9 25 10 26 11
REMARK SMILES IDX 27 12 28 13 29 14 30 15 31 16 32 17 15 18 14 19 13 20 12 21
REMARK SMILES IDX 11 22 10 23 9 24 8 25 7 26 6 27 5 28 4 29 3 30 2 31 1 32
REMARK H PARENT
REMARK Flexibility Score: inf
ROOT
ATOM      1  C   UNL     1     -43.633 -37.235  19.753  1.00  0.00     0.000 C 
ENDROOT
BRANCH   1   2
ATOM      2  C   UNL     1     -44.389 -36.767  21.005  1.00  0.00     0.000 C 
BRANCH   2   3
ATOM      3  C   UNL     1     -45.772 -36.184  20.669  1.00  0.00     0.000 C 
BRANCH   3   4
ATOM      4  C   UNL     1     -45.927 -34.735  21.164  1.00  0.00     0.000 C 
BRANCH   4   5
ATOM      5  C   UNL     1     -45.024 -34.415  22.369  1.00  0.00     0.000 C 
BRANCH   5   6
ATOM      6  C   UNL     1     -45.614 -33.413  23.384  1.00  0.00     0.000 C 
BRANCH   6   7
ATOM      7  C   UNL     1     -44.714 -32.211  23.720  1.00  0.00     0.000 C 
BRANCH   7   8
ATOM      8  C   UNL     1     -43.548 -32.580  24.653  1.00  0.00     0.000 C 
BRANCH   8   9
ATOM      9  C   UNL     1     -43.903 -32.409  26.140  1.00  0.00     0.000 C 
BRANCH   9  10
ATOM     10  C   UNL     1     -43.635 -33.676  26.966  1.00  0.00     0.000 C 
BRANCH  10  11
ATOM     11  C   UNL     1     -42.297 -33.574  27.715  1.00  0.00     0.000 C 
BRANCH  11  12
ATOM     12  C   UNL     1     -41.855 -32.119  27.940  1.00  0.00     0.000 C 
BRANCH  12  13
ATOM     13  C   UNL     1     -40.337 -31.930  27.776  1.00  0.00     0.006 C 
BRANCH  13  14
ATOM     14  C   UNL     1     -39.561 -33.231  28.016  1.00  0.00     0.053 C 
BRANCH  14  15
ATOM     15  C   UNL     1     -38.091 -33.053  27.783  1.00  0.00     0.041 C 
ATOM     16  O   UNL     1     -37.542 -31.944  28.011  1.00  0.00    -0.550 OA
ATOM     17  O   UNL     1     -37.321 -34.125  27.350  1.00  0.00    -0.550 OA
ENDBRANCH  14  15
ENDBRANCH  13  14
ENDBRANCH  12  13
ENDBRANCH  11  12
ENDBRANCH  10  11
ENDBRANCH   9  10
ENDBRANCH   8   9
ENDBRANCH   7   8
ENDBRANCH   6   7
ENDBRANCH   5   6
ENDBRANCH   4   5
ENDBRANCH   3   4
ENDBRANCH   2   3
ENDBRANCH   1   2
BRANCH   1  18
ATOM     18  C   UNL     1     -44.609 -37.627  18.637  1.00  0.00     0.000 C 
BRANCH  18  19
ATOM     19  C   UNL     1     -43.873 -37.838  17.305  1.00  0.00     0.000 C 
BRANCH  19  20
ATOM     20  C   UNL     1     -44.805 -37.653  16.089  1.00  0.00     0.000 C 
BRANCH  20  21
ATOM     21  C   UNL     1     -46.124 -36.930  16.419  1.00  0.00     0.000 C 
BRANCH  21  22
ATOM     22  C   UNL     1     -46.125 -35.459  15.974  1.00  0.00     0.000 C 
BRANCH  22  23
ATOM     23  C   UNL     1     -46.017 -34.473  17.153  1.00  0.00     0.000 C 
BRANCH  23  24
ATOM     24  C   UNL     1     -45.028 -33.310  16.949  1.00  0.00    -0.000 C 
BRANCH  24  25
ATOM     25  C   UNL     1     -44.278 -33.388  15.610  1.00  0.00    -0.000 C 
BRANCH  25  26
ATOM     26  C   UNL     1     -44.405 -32.071  14.829  1.00  0.00    -0.000 C 
BRANCH  26  27
ATOM     27  C   UNL     1     -45.723 -31.974  14.041  1.00  0.00    -0.000 C 
BRANCH  27  28
ATOM     28  C   UNL     1     -45.651 -32.676  12.673  1.00  0.00    -0.000 C 
BRANCH  28  29
ATOM     29  C   UNL     1     -46.048 -34.163  12.746  1.00  0.00    -0.000 C 
BRANCH  29  30
ATOM     30  C   UNL     1     -44.973 -35.145  12.246  1.00  0.00    -0.000 C 
BRANCH  30  31
ATOM     31  C   UNL     1     -45.389 -36.616  12.398  1.00  0.00    -0.003 C 
ATOM     32  C   UNL     1     -44.288 -37.432  13.065  1.00  0.00     0.004 C 
ENDBRANCH  30  31
ENDBRANCH  29  30
ENDBRANCH  28  29
ENDBRANCH  27  28
ENDBRANCH  26  27
ENDBRANCH  25  26
ENDBRANCH  24  25
ENDBRANCH  23  24
ENDBRANCH  22  23
ENDBRANCH  21  22
ENDBRANCH  20  21
ENDBRANCH  19  20
ENDBRANCH  18  19
ENDBRANCH   1  18
TORSDOF 28
ENDMDL
MODEL 2
REMARK VINA RESULT:    -2.688      3.543     12.169
REMARK INTER + INTRA:          -9.805
REMARK INTER:                  -8.158
REMARK INTRA:                  -1.647
REMARK UNBOUND:                -2.718
REMARK SMILES CCCCCCCCCCCCCCCCCCCCCCCCCCCCCC(=O)[O-]
REMARK SMILES IDX 16 1 17 2 18 3 19 4 20 5 21 6 22 7 23 8 24 9 25 10 26 11
REMARK SMILES IDX 27 12 28 13 29 14 30 15 31 16 32 17 15 18 14 19 13 20 12 21
REMARK SMILES IDX 11 22 10 23 9 24 8 25 7 26 6 27 5 28 4 29 3 30 2 31 1 32
REMARK H PARENT
REMARK Flexibility Score: inf
ROOT
ATOM      1  C   UNL     1     -44.762 -35.064  20.209  1.00  0.00     0.000 C 
ENDROOT
BRANCH   1   2
ATOM      2  C   UNL     1     -43.983 -36.372  20.010  1.00  0.00     0.000 C 
BRANCH   2   3
ATOM      3  C   UNL     1     -44.832 -37.613  20.333  1.00  0.00     0.000 C 
BRANCH   3   4
ATOM      4  C   UNL     1     -46.120 -37.670  19.493  1.00  0.00     0.000 C 
BRANCH   4   5
ATOM      5  C   UNL     1     -45.994 -36.922  18.154  1.00  0.00     0.000 C 
BRANCH   5   6
ATOM      6  C   UNL     1     -45.803 -37.823  16.915  1.00  0.00     0.000 C 
BRANCH   6   7
ATOM      7  C   UNL     1     -45.849 -37.095  15.560  1.00  0.00     0.000 C 
BRANCH   7   8
ATOM      8  C   UNL     1     -45.370 -37.975  14.393  1.00  0.00     0.000 C 
BRANCH   8   9
ATOM      9  C   UNL     1     -44.770 -37.154  13.239  1.00  0.00     0.000 C 
BRANCH   9  10
ATOM     10  C   UNL     1     -45.729 -36.076  12.712  1.00  0.00     0.000 C 
BRANCH  10  11
ATOM     11  C   UNL     1     -45.085 -34.683  12.780  1.00  0.00     0.000 C 
BRANCH  11  12
ATOM     12  C   UNL     1     -46.118 -33.549  12.675  1.00  0.00     0.000 C 
BRANCH  12  13
ATOM     13  C   UNL     1     -45.982 -32.516  13.807  1.00  0.00     0.006 C 
BRANCH  13  14
ATOM     14  C   UNL     1     -46.103 -33.159  15.195  1.00  0.00     0.053 C 
BRANCH  14  15
ATOM     15  C   UNL     1     -44.805 -33.116  15.942  1.00  0.00     0.041 C 
ATOM     16  O   UNL     1     -44.500 -34.042  16.739  1.00  0.00    -0.550 OA
ATOM     17  O   UNL     1     -43.914 -32.072  15.729  1.00  0.00    -0.550 OA
ENDBRANCH  14  15
ENDBRANCH  13  14
ENDBRANCH  12  13
ENDBRANCH  11  12
ENDBRANCH  10  11
ENDBRANCH   9  10
ENDBRANCH   8   9
ENDBRANCH   7   8
ENDBRANCH   6   7
ENDBRANCH   5   6
ENDBRANCH   4   5
ENDBRANCH   3   4
ENDBRANCH   2   3
ENDBRANCH   1   2
BRANCH   1  18
ATOM     18  C   UNL     1     -44.704 -34.608  21.671  1.00  0.00     0.000 C 
BRANCH  18  19
ATOM     19  C   UNL     1     -46.006 -34.950  22.411  1.00  0.00     0.000 C 
BRANCH  19  20
ATOM     20  C   UNL     1     -45.938 -34.587  23.910  1.00  0.00     0.000 C 
BRANCH  20  21
ATOM     21  C   UNL     1     -46.110 -33.085  24.196  1.00  0.00     0.000 C 
BRANCH  21  22
ATOM     22  C   UNL     1     -45.542 -32.670  25.562  1.00  0.00     0.000 C 
BRANCH  22  23
ATOM     23  C   UNL     1     -45.900 -33.658  26.689  1.00  0.00     0.000 C 
BRANCH  23  24
ATOM     24  C   UNL     1     -44.783 -33.914  27.719  1.00  0.00    -0.000 C 
BRANCH  24  25
ATOM     25  C   UNL     1     -44.953 -33.091  29.005  1.00  0.00    -0.000 C 
BRANCH  25  26
ATOM     26  C   UNL     1     -43.960 -31.920  29.047  1.00  0.00    -0.000 C 
BRANCH  26  27
ATOM     27  C   UNL     1     -42.771 -32.116  28.089  1.00  0.00    -0.000 C 
BRANCH  27  28
ATOM     28  C   UNL     1     -41.569 -32.800  28.765  1.00  0.00    -0.000 C 
BRANCH  28  29
ATOM     29  C   UNL     1     -40.341 -31.876  28.871  1.00  0.00    -0.000 C 
BRANCH  29  30
ATOM     30  C   UNL     1     -38.982 -32.592  28.769  1.00  0.00    -0.000 C 
BRANCH  30  31
ATOM     31  C   UNL     1     -38.685 -33.109  27.354  1.00  0.00    -0.003 C 
ATOM     32  C   UNL     1     -37.656 -34.234  27.386  1.00  0.00     0.004 C 
ENDBRANCH  30  31
ENDBRANCH  29  30
ENDBRANCH  28  29
ENDBRANCH  27  28
ENDBRANCH  26  27
ENDBRANCH  25  26
ENDBRANCH  24  25
ENDBRANCH  23  24
ENDBRANCH  22  23
ENDBRANCH  21  22
ENDBRANCH  20  21
ENDBRANCH  19  20
ENDBRANCH  18  19
ENDBRANCH   1  18
TORSDOF 28
ENDMDL
MODEL 3
REMARK VINA RESULT:    -2.645      1.587      3.871
REMARK INTER + INTRA:          -9.692
REMARK INTER:                  -9.375
REMARK INTRA:                  -0.317
REMARK UNBOUND:                -2.718
REMARK SMILES CCCCCCCCCCCCCCCCCCCCCCCCCCCCCC(=O)[O-]
REMARK SMILES IDX 16 1 17 2 18 3 19 4 20 5 21 6 22 7 23 8 24 9 25 10 26 11
REMARK SMILES IDX 27 12 28 13 29 14 30 15 31 16 32 17 15 18 14 19 13 20 12 21
REMARK SMILES IDX 11 22 10 23 9 24 8 25 7 26 6 27 5 28 4 29 3 30 2 31 1 32
REMARK H PARENT
REMARK Flexibility Score: inf
ROOT
ATOM      1  C   UNL     1     -44.264 -34.159  22.464  1.00  0.00     0.000 C 
ENDROOT
BRANCH   1   2
ATOM      2  C   UNL     1     -44.509 -33.085  23.535  1.00  0.00     0.000 C 
BRANCH   2   3
ATOM      3  C   UNL     1     -43.252 -32.247  23.821  1.00  0.00     0.000 C 
BRANCH   3   4
ATOM      4  C   UNL     1     -43.092 -31.935  25.320  1.00  0.00     0.000 C 
BRANCH   4   5
ATOM      5  C   UNL     1     -44.408 -32.076  26.104  1.00  0.00     0.000 C 
BRANCH   5   6
ATOM      6  C   UNL     1     -44.630 -33.450  26.771  1.00  0.00     0.000 C 
BRANCH   6   7
ATOM      7  C   UNL     1     -43.430 -33.998  27.563  1.00  0.00     0.000 C 
BRANCH   7   8
ATOM      8  C   UNL     1     -42.295 -32.970  27.714  1.00  0.00     0.000 C 
BRANCH   8   9
ATOM      9  C   UNL     1     -41.432 -33.221  28.963  1.00  0.00     0.000 C 
BRANCH   9  10
ATOM     10  C   UNL     1     -40.303 -32.192  29.122  1.00  0.00     0.000 C 
BRANCH  10  11
ATOM     11  C   UNL     1     -38.927 -32.846  28.918  1.00  0.00     0.000 C 
BRANCH  11  12
ATOM     12  C   UNL     1     -38.026 -32.041  27.968  1.00  0.00     0.000 C 
BRANCH  12  13
ATOM     13  C   UNL     1     -37.275 -32.935  26.965  1.00  0.00     0.006 C 
BRANCH  13  14
ATOM     14  C   UNL     1     -38.230 -33.664  26.011  1.00  0.00     0.053 C 
BRANCH  14  15
ATOM     15  C   UNL     1     -38.199 -33.074  24.635  1.00  0.00     0.041 C 
ATOM     16  O   UNL     1     -37.128 -32.599  24.172  1.00  0.00    -0.550 OA
ATOM     17  O   UNL     1     -39.342 -33.084  23.847  1.00  0.00    -0.550 OA
ENDBRANCH  14  15
ENDBRANCH  13  14
ENDBRANCH  12  13
ENDBRANCH  11  12
ENDBRANCH  10  11
ENDBRANCH   9  10
ENDBRANCH   8   9
ENDBRANCH   7   8
ENDBRANCH   6   7
ENDBRANCH   5   6
ENDBRANCH   4   5
ENDBRANCH   3   4
ENDBRANCH   2   3
ENDBRANCH   1   2
BRANCH   1  18
ATOM     18  C   UNL     1     -45.472 -35.093  22.336  1.00  0.00     0.000 C 
BRANCH  18  19
ATOM     19  C   UNL     1     -45.410 -35.906  21.034  1.00  0.00     0.000 C 
BRANCH  19  20
ATOM     20  C   UNL     1     -46.037 -35.148  19.844  1.00  0.00     0.000 C 
BRANCH  20  21
ATOM     21  C   UNL     1     -45.807 -33.627  19.883  1.00  0.00     0.000 C 
BRANCH  21  22
ATOM     22  C   UNL     1     -46.118 -32.942  18.543  1.00  0.00     0.000 C 
BRANCH  22  23
ATOM     23  C   UNL     1     -45.393 -33.595  17.350  1.00  0.00     0.000 C 
BRANCH  23  24
ATOM     24  C   UNL     1     -45.732 -33.002  15.970  1.00  0.00    -0.000 C 
BRANCH  24  25
ATOM     25  C   UNL     1     -44.717 -33.389  14.884  1.00  0.00    -0.000 C 
BRANCH  25  26
ATOM     26  C   UNL     1     -45.420 -33.680  13.549  1.00  0.00    -0.000 C 
BRANCH  26  27
ATOM     27  C   UNL     1     -46.121 -35.049  13.534  1.00  0.00    -0.000 C 
BRANCH  27  28
ATOM     28  C   UNL     1     -45.509 -36.043  14.538  1.00  0.00    -0.000 C 
BRANCH  28  29
ATOM     29  C   UNL     1     -44.904 -37.284  13.854  1.00  0.00    -0.000 C 
BRANCH  29  30
ATOM     30  C   UNL     1     -43.925 -38.090  14.726  1.00  0.00    -0.000 C 
BRANCH  30  31
ATOM     31  C   UNL     1     -44.004 -37.716  16.215  1.00  0.00    -0.003 C 
ATOM     32  C   UNL     1     -45.269 -38.276  16.854  1.00  0.00     0.004 C 
ENDBRANCH  30  31
ENDBRANCH  29  30
ENDBRANCH  28  29
ENDBRANCH  27  28
ENDBRANCH  26  27
ENDBRANCH  25  26
ENDBRANCH  24  25
ENDBRANCH  23  24
ENDBRANCH  22  23
ENDBRANCH  21  22
ENDBRANCH  20  21
ENDBRANCH  19  20
ENDBRANCH  18  19
ENDBRANCH   1  18
TORSDOF 28
ENDMDL
MODEL 4
REMARK VINA RESULT:    -2.473      2.228      4.524
REMARK INTER + INTRA:          -9.240
REMARK INTER:                  -7.306
REMARK INTRA:                  -1.934
REMARK UNBOUND:                -2.718
REMARK SMILES CCCCCCCCCCCCCCCCCCCCCCCCCCCCCC(=O)[O-]
REMARK SMILES IDX 16 1 17 2 18 3 19 4 20 5 21 6 22 7 23 8 24 9 25 10 26 11
REMARK SMILES IDX 27 12 28 13 29 14 30 15 31 16 32 17 15 18 14 19 13 20 12 21
REMARK SMILES IDX 11 22 10 23 9 24 8 25 7 26 6 27 5 28 4 29 3 30 2 31 1 32
REMARK H PARENT
REMARK Flexibility Score: inf
ROOT
ATOM      1  C   UNL     1     -43.168 -34.730  22.551  1.00  0.00     0.000 C 
ENDROOT
BRANCH   1   2
ATOM      2  C   UNL     1     -43.518 -33.352  23.134  1.00  0.00     0.000 C 
BRANCH   2   3
ATOM      3  C   UNL     1     -43.023 -33.187  24.581  1.00  0.00     0.000 C 
BRANCH   3   4
ATOM      4  C   UNL     1     -42.241 -31.876  24.780  1.00  0.00     0.000 C 
BRANCH   4   5
ATOM      5  C   UNL     1     -40.864 -31.891  24.092  1.00  0.00     0.000 C 
BRANCH   5   6
ATOM      6  C   UNL     1     -39.653 -31.898  25.048  1.00  0.00     0.000 C 
BRANCH   6   7
ATOM      7  C   UNL     1     -38.303 -32.247  24.396  1.00  0.00     0.000 C 
BRANCH   7   8
ATOM      8  C   UNL     1     -37.625 -33.468  25.043  1.00  0.00     0.000 C 
BRANCH   8   9
ATOM      9  C   UNL     1     -38.348 -33.941  26.316  1.00  0.00     0.000 C 
BRANCH   9  10
ATOM     10  C   UNL     1     -37.801 -33.282  27.591  1.00  0.00     0.000 C 
BRANCH  10  11
ATOM     11  C   UNL     1     -38.581 -32.003  27.930  1.00  0.00     0.000 C 
BRANCH  11  12
ATOM     12  C   UNL     1     -39.605 -32.216  29.056  1.00  0.00     0.000 C 
BRANCH  12  13
ATOM     13  C   UNL     1     -41.058 -32.189  28.548  1.00  0.00     0.006 C 
BRANCH  13  14
ATOM     14  C   UNL     1     -41.703 -33.581  28.564  1.00  0.00     0.053 C 
BRANCH  14  15
ATOM     15  C   UNL     1     -43.199 -33.501  28.528  1.00  0.00     0.041 C 
ATOM     16  O   UNL     1     -43.768 -32.494  28.031  1.00  0.00    -0.550 OA
ATOM     17  O   UNL     1     -43.964 -34.556  29.008  1.00  0.00    -0.550 OA
ENDBRANCH  14  15
ENDBRANCH  13  14
ENDBRANCH  12  13
ENDBRANCH  11  12
ENDBRANCH  10  11
ENDBRANCH   9  10
ENDBRANCH   8   9
ENDBRANCH   7   8
ENDBRANCH   6   7
ENDBRANCH   5   6
ENDBRANCH   4   5
ENDBRANCH   3   4
ENDBRANCH   2   3
ENDBRANCH   1   2
BRANCH   1  18
ATOM     18  C   UNL     1     -43.799 -34.916  21.167  1.00  0.00     0.000 C 
BRANCH  18  19
ATOM     19  C   UNL     1     -44.781 -36.098  21.159  1.00  0.00     0.000 C 
BRANCH  19  20
ATOM     20  C   UNL     1     -44.320 -37.232  20.219  1.00  0.00     0.000 C 
BRANCH  20  21
ATOM     21  C   UNL     1     -45.449 -38.191  19.799  1.00  0.00     0.000 C 
BRANCH  21  22
ATOM     22  C   UNL     1     -46.089 -37.805  18.456  1.00  0.00     0.000 C 
BRANCH  22  23
ATOM     23  C   UNL     1     -45.051 -37.527  17.352  1.00  0.00     0.000 C 
BRANCH  23  24
ATOM     24  C   UNL     1     -45.610 -36.872  16.074  1.00  0.00    -0.000 C 
BRANCH  24  25
ATOM     25  C   UNL     1     -46.125 -35.444  16.307  1.00  0.00    -0.000 C 
BRANCH  25  26
ATOM     26  C   UNL     1     -45.246 -34.700  17.324  1.00  0.00    -0.000 C 
BRANCH  26  27
ATOM     27  C   UNL     1     -44.184 -33.812  16.652  1.00  0.00    -0.000 C 
BRANCH  27  28
ATOM     28  C   UNL     1     -44.734 -32.437  16.236  1.00  0.00    -0.000 C 
BRANCH  28  29
ATOM     29  C   UNL     1     -46.042 -32.538  15.429  1.00  0.00    -0.000 C 
BRANCH  29  30
ATOM     30  C   UNL     1     -45.997 -31.878  14.039  1.00  0.00    -0.000 C 
BRANCH  30  31
ATOM     31  C   UNL     1     -45.150 -32.668  13.029  1.00  0.00    -0.003 C 
ATOM     32  C   UNL     1     -45.758 -34.039  12.757  1.00  0.00     0.004 C 
ENDBRANCH  30  31
ENDBRANCH  29  30
ENDBRANCH  28  29
ENDBRANCH  27  28
ENDBRANCH  26  27
ENDBRANCH  25  26
ENDBRANCH  24  25
ENDBRANCH  23  24
ENDBRANCH  22  23
ENDBRANCH  21  22
ENDBRANCH  20  21
ENDBRANCH  19  20
ENDBRANCH  18  19
ENDBRANCH   1  18
TORSDOF 28
ENDMDL
MODEL 5
REMARK VINA RESULT:    -2.295      4.257     12.297
REMARK INTER + INTRA:          -8.769
REMARK INTER:                  -8.199
REMARK INTRA:                  -0.570
REMARK UNBOUND:                -2.718
REMARK SMILES CCCCCCCCCCCCCCCCCCCCCCCCCCCCCC(=O)[O-]
REMARK SMILES IDX 16 1 17 2 18 3 19 4 20 5 21 6 22 7 23 8 24 9 25 10 26 11
REMARK SMILES IDX 27 12 28 13 29 14 30 15 31 16 32 17 15 18 14 19 13 20 12 21
REMARK SMILES IDX 11 22 10 23 9 24 8 25 7 26 6 27 5 28 4 29 3 30 2 31 1 32
REMARK H PARENT
REMARK Flexibility Score: inf
ROOT
ATOM      1  C   UNL     1     -43.478 -35.554  21.188  1.00  0.00     0.000 C 
ENDROOT
BRANCH   1   2
ATOM      2  C   UNL     1     -44.099 -36.560  20.208  1.00  0.00     0.000 C 
BRANCH   2   3
ATOM      3  C   UNL     1     -45.402 -36.037  19.580  1.00  0.00     0.000 C 
BRANCH   3   4
ATOM      4  C   UNL     1     -45.136 -35.001  18.472  1.00  0.00     0.000 C 
BRANCH   4   5
ATOM      5  C   UNL     1     -46.095 -35.145  17.277  1.00  0.00     0.000 C 
BRANCH   5   6
ATOM      6  C   UNL     1     -45.520 -35.901  16.061  1.00  0.00     0.000 C 
BRANCH   6   7
ATOM      7  C   UNL     1     -45.535 -37.436  16.174  1.00  0.00     0.000 C 
BRANCH   7   8
ATOM      8  C   UNL     1     -44.210 -38.080  15.732  1.00  0.00     0.000 C 
BRANCH   8   9
ATOM      9  C   UNL     1     -43.981 -37.979  14.214  1.00  0.00     0.000 C 
BRANCH   9  10
ATOM     10  C   UNL     1     -45.116 -38.614  13.397  1.00  0.00     0.000 C 
BRANCH  10  11
ATOM     11  C   UNL     1     -46.109 -37.548  12.909  1.00  0.00     0.000 C 
BRANCH  11  12
ATOM     12  C   UNL     1     -45.408 -36.315  12.316  1.00  0.00     0.000 C 
BRANCH  12  13
ATOM     13  C   UNL     1     -45.345 -35.137  13.305  1.00  0.00     0.006 C 
BRANCH  13  14
ATOM     14  C   UNL     1     -46.011 -33.873  12.743  1.00  0.00     0.053 C 
BRANCH  14  15
ATOM     15  C   UNL     1     -45.502 -32.634  13.413  1.00  0.00     0.041 C 
ATOM     16  O   UNL     1     -46.061 -32.200  14.455  1.00  0.00    -0.550 OA
ATOM     17  O   UNL     1     -44.386 -31.978  12.910  1.00  0.00    -0.550 OA
ENDBRANCH  14  15
ENDBRANCH  13  14
ENDBRANCH  12  13
ENDBRANCH  11  12
ENDBRANCH  10  11
ENDBRANCH   9  10
ENDBRANCH   8   9
ENDBRANCH   7   8
ENDBRANCH   6   7
ENDBRANCH   5   6
ENDBRANCH   4   5
ENDBRANCH   3   4
ENDBRANCH   2   3
ENDBRANCH   1   2
BRANCH   1  18
ATOM     18  C   UNL     1     -44.354 -34.303  21.319  1.00  0.00     0.000 C 
BRANCH  18  19
ATOM     19  C   UNL     1     -45.182 -34.338  22.613  1.00  0.00     0.000 C 
BRANCH  19  20
ATOM     20  C   UNL     1     -44.350 -33.927  23.847  1.00  0.00     0.000 C 
BRANCH  20  21
ATOM     21  C   UNL     1     -44.642 -32.501  24.348  1.00  0.00     0.000 C 
BRANCH  21  22
ATOM     22  C   UNL     1     -43.528 -31.946  25.249  1.00  0.00     0.000 C 
BRANCH  22  23
ATOM     23  C   UNL     1     -43.333 -32.765  26.540  1.00  0.00     0.000 C 
BRANCH  23  24
ATOM     24  C   UNL     1     -43.226 -31.936  27.835  1.00  0.00    -0.000 C 
BRANCH  24  25
ATOM     25  C   UNL     1     -42.881 -32.788  29.065  1.00  0.00    -0.000 C 
BRANCH  25  26
ATOM     26  C   UNL     1     -41.407 -33.220  29.041  1.00  0.00    -0.000 C 
BRANCH  26  27
ATOM     27  C   UNL     1     -40.500 -32.197  28.335  1.00  0.00    -0.000 C 
BRANCH  27  28
ATOM     28  C   UNL     1     -39.092 -32.748  28.047  1.00  0.00    -0.000 C 
BRANCH  28  29
ATOM     29  C   UNL     1     -38.341 -31.933  26.977  1.00  0.00    -0.000 C 
BRANCH  29  30
ATOM     30  C   UNL     1     -38.900 -32.069  25.549  1.00  0.00    -0.000 C 
BRANCH  30  31
ATOM     31  C   UNL     1     -38.016 -32.938  24.642  1.00  0.00    -0.003 C 
ATOM     32  C   UNL     1     -37.867 -32.312  23.260  1.00  0.00     0.004 C 
ENDBRANCH  30  31
ENDBRANCH  29  30
ENDBRANCH  28  29
ENDBRANCH  27  28
ENDBRANCH  26  27
ENDBRANCH  25  26
ENDBRANCH  24  25
ENDBRANCH  23  24
ENDBRANCH  22  23
ENDBRANCH  21  22
ENDBRANCH  20  21
ENDBRANCH  19  20
ENDBRANCH  18  19
ENDBRANCH   1  18
TORSDOF 28
ENDMDL
MODEL 6
REMARK VINA RESULT:    -2.099      2.263      2.906
REMARK INTER + INTRA:          -8.253
REMARK INTER:                  -6.756
REMARK INTRA:                  -1.496
REMARK UNBOUND:                -2.718
REMARK SMILES CCCCCCCCCCCCCCCCCCCCCCCCCCCCCC(=O)[O-]
REMARK SMILES IDX 16 1 17 2 18 3 19 4 20 5 21 6 22 7 23 8 24 9 25 10 26 11
REMARK SMILES IDX 27 12 28 13 29 14 30 15 31 16 32 17 15 18 14 19 13 20 12 21
REMARK SMILES IDX 11 22 10 23 9 24 8 25 7 26 6 27 5 28 4 29 3 30 2 31 1 32
REMARK H PARENT
REMARK Flexibility Score: inf
ROOT
ATOM      1  C   UNL     1     -44.591 -37.049  19.855  1.00  0.00     0.000 C 
ENDROOT
BRANCH   1   2
ATOM      2  C   UNL     1     -45.499 -36.227  20.782  1.00  0.00     0.000 C 
BRANCH   2   3
ATOM      3  C   UNL     1     -46.125 -35.018  20.065  1.00  0.00     0.000 C 
BRANCH   3   4
ATOM      4  C   UNL     1     -45.935 -33.712  20.857  1.00  0.00     0.000 C 
BRANCH   4   5
ATOM      5  C   UNL     1     -45.859 -33.939  22.377  1.00  0.00     0.000 C 
BRANCH   5   6
ATOM      6  C   UNL     1     -45.585 -32.674  23.217  1.00  0.00     0.000 C 
BRANCH   6   7
ATOM      7  C   UNL     1     -44.115 -32.456  23.617  1.00  0.00     0.000 C 
BRANCH   7   8
ATOM      8  C   UNL     1     -43.620 -33.480  24.653  1.00  0.00     0.000 C 
BRANCH   8   9
ATOM      9  C   UNL     1     -43.444 -32.868  26.053  1.00  0.00     0.000 C 
BRANCH   9  10
ATOM     10  C   UNL     1     -44.623 -31.972  26.463  1.00  0.00     0.000 C 
BRANCH  10  11
ATOM     11  C   UNL     1     -45.810 -32.814  26.957  1.00  0.00     0.000 C 
BRANCH  11  12
ATOM     12  C   UNL     1     -45.920 -32.838  28.490  1.00  0.00     0.000 C 
BRANCH  12  13
ATOM     13  C   UNL     1     -45.816 -34.260  29.069  1.00  0.00     0.006 C 
BRANCH  13  14
ATOM     14  C   UNL     1     -45.084 -35.220  28.122  1.00  0.00     0.053 C 
BRANCH  14  15
ATOM     15  C   UNL     1     -43.953 -35.923  28.808  1.00  0.00     0.041 C 
ATOM     16  O   UNL     1     -44.048 -37.144  29.099  1.00  0.00    -0.550 OA
ATOM     17  O   UNL     1     -42.778 -35.238  29.093  1.00  0.00    -0.550 OA
ENDBRANCH  14  15
ENDBRANCH  13  14
ENDBRANCH  12  13
ENDBRANCH  11  12
ENDBRANCH  10  11
ENDBRANCH   9  10
ENDBRANCH   8   9
ENDBRANCH   7   8
ENDBRANCH   6   7
ENDBRANCH   5   6
ENDBRANCH   4   5
ENDBRANCH   3   4
ENDBRANCH   2   3
ENDBRANCH   1   2
BRANCH   1  18
ATOM     18  C   UNL     1     -45.319 -37.412  18.555  1.00  0.00     0.000 C 
BRANCH  18  19
ATOM     19  C   UNL     1     -44.430 -38.270  17.642  1.00  0.00     0.000 C 
BRANCH  19  20
ATOM     20  C   UNL     1     -44.715 -38.016  16.146  1.00  0.00     0.000 C 
BRANCH  20  21
ATOM     21  C   UNL     1     -45.991 -37.197  15.885  1.00  0.00     0.000 C 
BRANCH  21  22
ATOM     22  C   UNL     1     -45.696 -35.734  15.518  1.00  0.00     0.000 C 
BRANCH  22  23
ATOM     23  C   UNL     1     -46.123 -34.739  16.614  1.00  0.00     0.000 C 
BRANCH  23  24
ATOM     24  C   UNL     1     -45.573 -33.309  16.455  1.00  0.00    -0.000 C 
BRANCH  24  25
ATOM     25  C   UNL     1     -44.392 -33.226  15.476  1.00  0.00    -0.000 C 
BRANCH  25  26
ATOM     26  C   UNL     1     -44.539 -32.021  14.535  1.00  0.00    -0.000 C 
BRANCH  26  27
ATOM     27  C   UNL     1     -45.924 -31.955  13.868  1.00  0.00    -0.000 C 
BRANCH  27  28
ATOM     28  C   UNL     1     -46.053 -32.908  12.667  1.00  0.00    -0.000 C 
BRANCH  28  29
ATOM     29  C   UNL     1     -45.209 -34.187  12.828  1.00  0.00    -0.000 C 
BRANCH  29  30
ATOM     30  C   UNL     1     -45.934 -35.492  12.452  1.00  0.00    -0.000 C 
BRANCH  30  31
ATOM     31  C   UNL     1     -45.001 -36.527  11.804  1.00  0.00    -0.003 C 
ATOM     32  C   UNL     1     -44.962 -37.815  12.619  1.00  0.00     0.004 C 
ENDBRANCH  30  31
ENDBRANCH  29  30
ENDBRANCH  28  29
ENDBRANCH  27  28
ENDBRANCH  26  27
ENDBRANCH  25  26
ENDBRANCH  24  25
ENDBRANCH  23  24
ENDBRANCH  22  23
ENDBRANCH  21  22
ENDBRANCH  20  21
ENDBRANCH  19  20
ENDBRANCH  18  19
ENDBRANCH   1  18
TORSDOF 28
ENDMDL
MODEL 7
REMARK VINA RESULT:    -2.088      2.117      4.134
REMARK INTER + INTRA:          -8.223
REMARK INTER:                  -6.896
REMARK INTRA:                  -1.327
REMARK UNBOUND:                -2.718
REMARK SMILES CCCCCCCCCCCCCCCCCCCCCCCCCCCCCC(=O)[O-]
REMARK SMILES IDX 16 1 17 2 18 3 19 4 20 5 21 6 22 7 23 8 24 9 25 10 26 11
REMARK SMILES IDX 27 12 28 13 29 14 30 15 31 16 32 17 15 18 14 19 13 20 12 21
REMARK SMILES IDX 11 22 10 23 9 24 8 25 7 26 6 27 5 28 4 29 3 30 2 31 1 32
REMARK H PARENT
REMARK Flexibility Score: inf
ROOT
ATOM      1  C   UNL     1     -44.322 -37.596  17.597  1.00  0.00     0.000 C 
ENDROOT
BRANCH   1   2
ATOM      2  C   UNL     1     -45.305 -37.429  18.765  1.00  0.00     0.000 C 
BRANCH   2   3
ATOM      3  C   UNL     1     -45.824 -38.779  19.290  1.00  0.00     0.000 C 
BRANCH   3   4
ATOM      4  C   UNL     1     -45.886 -38.818  20.827  1.00  0.00     0.000 C 
BRANCH   4   5
ATOM      5  C   UNL     1     -45.256 -37.577  21.483  1.00  0.00     0.000 C 
BRANCH   5   6
ATOM      6  C   UNL     1     -46.103 -36.290  21.401  1.00  0.00     0.000 C 
BRANCH   6   7
ATOM      7  C   UNL     1     -45.311 -34.998  21.132  1.00  0.00     0.000 C 
BRANCH   7   8
ATOM      8  C   UNL     1     -46.125 -33.726  21.425  1.00  0.00     0.000 C 
BRANCH   8   9
ATOM      9  C   UNL     1     -45.372 -32.737  22.331  1.00  0.00     0.000 C 
BRANCH   9  10
ATOM     10  C   UNL     1     -45.406 -33.142  23.812  1.00  0.00     0.000 C 
BRANCH  10  11
ATOM     11  C   UNL     1     -45.041 -31.956  24.718  1.00  0.00     0.000 C 
BRANCH  11  12
ATOM     12  C   UNL     1     -45.770 -32.000  26.071  1.00  0.00     0.000 C 
BRANCH  12  13
ATOM     13  C   UNL     1     -45.563 -33.331  26.813  1.00  0.00     0.006 C 
BRANCH  13  14
ATOM     14  C   UNL     1     -44.770 -33.152  28.114  1.00  0.00     0.053 C 
BRANCH  14  15
ATOM     15  C   UNL     1     -43.356 -33.627  27.974  1.00  0.00     0.041 C 
ATOM     16  O   UNL     1     -43.074 -34.842  28.149  1.00  0.00    -0.550 OA
ATOM     17  O   UNL     1     -42.355 -32.736  27.609  1.00  0.00    -0.550 OA
ENDBRANCH  14  15
ENDBRANCH  13  14
ENDBRANCH  12  13
ENDBRANCH  11  12
ENDBRANCH  10  11
ENDBRANCH   9  10
ENDBRANCH   8   9
ENDBRANCH   7   8
ENDBRANCH   6   7
ENDBRANCH   5   6
ENDBRANCH   4   5
ENDBRANCH   3   4
ENDBRANCH   2   3
ENDBRANCH   1   2
BRANCH   1  18
ATOM     18  C   UNL     1     -44.498 -36.474  16.567  1.00  0.00     0.000 C 
BRANCH  18  19
ATOM     19  C   UNL     1     -45.786 -36.666  15.751  1.00  0.00     0.000 C 
BRANCH  19  20
ATOM     20  C   UNL     1     -45.829 -38.039  15.047  1.00  0.00     0.000 C 
BRANCH  20  21
ATOM     21  C   UNL     1     -45.772 -37.954  13.511  1.00  0.00     0.000 C 
BRANCH  21  22
ATOM     22  C   UNL     1     -44.506 -37.249  13.000  1.00  0.00     0.000 C 
BRANCH  22  23
ATOM     23  C   UNL     1     -44.808 -35.934  12.255  1.00  0.00     0.000 C 
BRANCH  23  24
ATOM     24  C   UNL     1     -46.097 -35.213  12.691  1.00  0.00    -0.000 C 
BRANCH  24  25
ATOM     25  C   UNL     1     -46.101 -33.720  12.329  1.00  0.00    -0.000 C 
BRANCH  25  26
ATOM     26  C   UNL     1     -44.768 -33.057  12.707  1.00  0.00    -0.000 C 
BRANCH  26  27
ATOM     27  C   UNL     1     -44.940 -31.920  13.729  1.00  0.00    -0.000 C 
BRANCH  27  28
ATOM     28  C   UNL     1     -46.122 -32.154  14.687  1.00  0.00    -0.000 C 
BRANCH  28  29
ATOM     29  C   UNL     1     -45.760 -31.875  16.158  1.00  0.00    -0.000 C 
BRANCH  29  30
ATOM     30  C   UNL     1     -45.155 -33.072  16.913  1.00  0.00    -0.000 C 
BRANCH  30  31
ATOM     31  C   UNL     1     -43.628 -33.163  16.763  1.00  0.00    -0.003 C 
ATOM     32  C   UNL     1     -43.067 -31.910  16.101  1.00  0.00     0.004 C 
ENDBRANCH  30  31
ENDBRANCH  29  30
ENDBRANCH  28  29
ENDBRANCH  27  28
ENDBRANCH  26  27
ENDBRANCH  25  26
ENDBRANCH  24  25
ENDBRANCH  23  24
ENDBRANCH  22  23
ENDBRANCH  21  22
ENDBRANCH  20  21
ENDBRANCH  19  20
ENDBRANCH  18  19
ENDBRANCH   1  18
TORSDOF 28
ENDMDL
MODEL 8
REMARK VINA RESULT:    -1.706      3.741     11.882
REMARK INTER + INTRA:          -7.218
REMARK INTER:                  -5.799
REMARK INTRA:                  -1.418
REMARK UNBOUND:                -2.718
REMARK SMILES CCCCCCCCCCCCCCCCCCCCCCCCCCCCCC(=O)[O-]
REMARK SMILES IDX 16 1 17 2 18 3 19 4 20 5 21 6 22 7 23 8 24 9 25 10 26 11
REMARK SMILES IDX 27 12 28 13 29 14 30 15 31 16 32 17 15 18 14 19 13 20 12 21
REMARK SMILES IDX 11 22 10 23 9 24 8 25 7 26 6 27 5 28 4 29 3 30 2 31 1 32
REMARK H PARENT
REMARK Flexibility Score: inf
ROOT
ATOM      1  C   UNL     1     -44.658 -35.188  20.725  1.00  0.00     0.000 C 
ENDROOT
BRANCH   1   2
ATOM      2  C   UNL     1     -43.395 -36.045  20.555  1.00  0.00     0.000 C 
BRANCH   2   3
ATOM      3  C   UNL     1     -43.663 -37.328  19.751  1.00  0.00     0.000 C 
BRANCH   3   4
ATOM      4  C   UNL     1     -43.821 -37.048  18.245  1.00  0.00     0.000 C 
BRANCH   4   5
ATOM      5  C   UNL     1     -45.176 -37.517  17.688  1.00  0.00     0.000 C 
BRANCH   5   6
ATOM      6  C   UNL     1     -45.630 -36.817  16.389  1.00  0.00     0.000 C 
BRANCH   6   7
ATOM      7  C   UNL     1     -46.125 -37.756  15.275  1.00  0.00     0.000 C 
BRANCH   7   8
ATOM      8  C   UNL     1     -45.028 -38.099  14.252  1.00  0.00     0.000 C 
BRANCH   8   9
ATOM      9  C   UNL     1     -44.302 -36.851  13.722  1.00  0.00     0.000 C 
BRANCH   9  10
ATOM     10  C   UNL     1     -44.784 -36.431  12.325  1.00  0.00     0.000 C 
BRANCH  10  11
ATOM     11  C   UNL     1     -45.852 -35.331  12.416  1.00  0.00     0.000 C 
BRANCH  11  12
ATOM     12  C   UNL     1     -45.611 -34.369  13.591  1.00  0.00     0.000 C 
BRANCH  12  13
ATOM     13  C   UNL     1     -45.369 -32.921  13.130  1.00  0.00     0.006 C 
BRANCH  13  14
ATOM     14  C   UNL     1     -45.767 -31.898  14.202  1.00  0.00     0.053 C 
BRANCH  14  15
ATOM     15  C   UNL     1     -45.082 -32.167  15.507  1.00  0.00     0.041 C 
ATOM     16  O   UNL     1     -43.836 -32.020  15.612  1.00  0.00    -0.550 OA
ATOM     17  O   UNL     1     -45.826 -32.541  16.619  1.00  0.00    -0.550 OA
ENDBRANCH  14  15
ENDBRANCH  13  14
ENDBRANCH  12  13
ENDBRANCH  11  12
ENDBRANCH  10  11
ENDBRANCH   9  10
ENDBRANCH   8   9
ENDBRANCH   7   8
ENDBRANCH   6   7
ENDBRANCH   5   6
ENDBRANCH   4   5
ENDBRANCH   3   4
ENDBRANCH   2   3
ENDBRANCH   1   2
BRANCH   1  18
ATOM     18  C   UNL     1     -44.880 -34.825  22.198  1.00  0.00     0.000 C 
BRANCH  18  19
ATOM     19  C   UNL     1     -44.166 -33.513  22.559  1.00  0.00     0.000 C 
BRANCH  19  20
ATOM     20  C   UNL     1     -44.901 -32.738  23.674  1.00  0.00     0.000 C 
BRANCH  20  21
ATOM     21  C   UNL     1     -44.833 -33.417  25.054  1.00  0.00     0.000 C 
BRANCH  21  22
ATOM     22  C   UNL     1     -46.124 -33.240  25.869  1.00  0.00     0.000 C 
BRANCH  22  23
ATOM     23  C   UNL     1     -45.860 -32.920  27.353  1.00  0.00     0.000 C 
BRANCH  23  24
ATOM     24  C   UNL     1     -44.569 -33.527  27.936  1.00  0.00    -0.000 C 
BRANCH  24  25
ATOM     25  C   UNL     1     -43.304 -32.767  27.513  1.00  0.00    -0.000 C 
BRANCH  25  26
ATOM     26  C   UNL     1     -42.268 -32.744  28.647  1.00  0.00    -0.000 C 
BRANCH  26  27
ATOM     27  C   UNL     1     -41.040 -31.879  28.313  1.00  0.00    -0.000 C 
BRANCH  27  28
ATOM     28  C   UNL     1     -40.657 -31.940  26.823  1.00  0.00    -0.000 C 
BRANCH  28  29
ATOM     29  C   UNL     1     -39.577 -32.999  26.530  1.00  0.00    -0.000 C 
BRANCH  29  30
ATOM     30  C   UNL     1     -38.327 -32.464  25.808  1.00  0.00    -0.000 C 
BRANCH  30  31
ATOM     31  C   UNL     1     -37.901 -33.342  24.621  1.00  0.00    -0.003 C 
ATOM     32  C   UNL     1     -37.518 -32.488  23.417  1.00  0.00     0.004 C 
ENDBRANCH  30  31
ENDBRANCH  29  30
ENDBRANCH  28  29
ENDBRANCH  27  28
ENDBRANCH  26  27
ENDBRANCH  25  26
ENDBRANCH  24  25
ENDBRANCH  23  24
ENDBRANCH  22  23
ENDBRANCH  21  22
ENDBRANCH  20  21
ENDBRANCH  19  20
ENDBRANCH  18  19
ENDBRANCH   1  18
TORSDOF 28
ENDMDL
