MODEL 1
REMARK VINA RESULT:    -5.342      0.000      0.000
REMARK INTER + INTRA:          -6.411
REMARK INTER:                  -6.279
REMARK INTRA:                  -0.132
REMARK UNBOUND:                -0.132
REMARK SMILES O=C([O-])C=Cc1ccc(O)c(O)c1
REMARK SMILES IDX 6 1 13 2 7 3 11 4 8 5 9 6 5 7 4 8 2 9 1 10 3 11 12 12 10 14
REMARK H PARENT 12 13 10 15
REMARK Flexibility Score: inf
ROOT
ATOM      1  C   UNL     1      45.946  25.987   4.337  1.00  0.00    -0.022 A 
ATOM      2  C   UNL     1      46.267  25.713   5.677  1.00  0.00     0.058 A 
ATOM      3  C   UNL     1      44.729  26.635   4.049  1.00  0.00     0.012 A 
ATOM      4  C   UNL     1      45.408  26.102   6.715  1.00  0.00     0.157 A 
ATOM      5  C   UNL     1      43.872  27.022   5.082  1.00  0.00     0.051 A 
ATOM      6  C   UNL     1      44.205  26.762   6.414  1.00  0.00     0.157 A 
ENDROOT
BRANCH   1   7
ATOM      7  C   UNL     1      46.886  25.544   3.277  1.00  0.00     0.010 C 
ATOM      8  C   UNL     1      47.786  24.564   3.442  1.00  0.00     0.025 C 
BRANCH   8   9
ATOM      9  C   UNL     1      48.696  24.142   2.363  1.00  0.00     0.064 C 
ATOM     10  O   UNL     1      49.542  24.939   1.875  1.00  0.00    -0.545 OA
ATOM     11  O   UNL     1      48.622  22.844   1.876  1.00  0.00    -0.545 OA
ENDBRANCH   8   9
ENDBRANCH   1   7
BRANCH   4  12
ATOM     12  O   UNL     1      45.744  25.835   8.040  1.00  0.00    -0.504 OA
ATOM     13  H   UNL     1      46.445  25.144   8.281  1.00  0.00     0.293 HD
ENDBRANCH   4  12
BRANCH   6  14
ATOM     14  O   UNL     1      43.329  27.162   7.423  1.00  0.00    -0.504 OA
ATOM     15  H   UNL     1      42.324  27.168   7.291  1.00  0.00     0.293 HD
ENDBRANCH   6  14
TORSDOF 4
ENDMDL
MODEL 2
REMARK VINA RESULT:    -5.330     15.027     15.733
REMARK INTER + INTRA:          -6.397
REMARK INTER:                  -6.268
REMARK INTRA:                  -0.129
REMARK UNBOUND:                -0.132
REMARK SMILES O=C([O-])C=Cc1ccc(O)c(O)c1
REMARK SMILES IDX 6 1 13 2 7 3 11 4 8 5 9 6 5 7 4 8 2 9 1 10 3 11 12 12 10 14
REMARK H PARENT 12 13 10 15
REMARK Flexibility Score: inf
ROOT
ATOM      1  C   UNL     1      41.190  22.878  18.355  1.00  0.00    -0.022 A 
ATOM      2  C   UNL     1      40.336  23.987  18.481  1.00  0.00     0.058 A 
ATOM      3  C   UNL     1      40.750  21.762  17.617  1.00  0.00     0.012 A 
ATOM      4  C   UNL     1      39.078  23.998  17.860  1.00  0.00     0.157 A 
ATOM      5  C   UNL     1      39.497  21.772  16.999  1.00  0.00     0.051 A 
ATOM      6  C   UNL     1      38.659  22.884  17.114  1.00  0.00     0.157 A 
ENDROOT
BRANCH   1   7
ATOM      7  C   UNL     1      42.506  22.915  19.041  1.00  0.00     0.010 C 
ATOM      8  C   UNL     1      42.703  22.486  20.296  1.00  0.00     0.025 C 
BRANCH   8   9
ATOM      9  C   UNL     1      44.027  22.527  20.940  1.00  0.00     0.064 C 
ATOM     10  O   UNL     1      44.189  22.125  22.124  1.00  0.00    -0.545 OA
ATOM     11  O   UNL     1      45.117  23.013  20.231  1.00  0.00    -0.545 OA
ENDBRANCH   8   9
ENDBRANCH   1   7
BRANCH   4  12
ATOM     12  O   UNL     1      38.245  25.108  17.984  1.00  0.00    -0.504 OA
ATOM     13  H   UNL     1      37.464  25.117  18.629  1.00  0.00     0.293 HD
ENDBRANCH   4  12
BRANCH   6  14
ATOM     14  O   UNL     1      37.414  22.864  16.485  1.00  0.00    -0.504 OA
ATOM     15  H   UNL     1      36.621  22.369  16.878  1.00  0.00     0.293 HD
ENDBRANCH   6  14
TORSDOF 4
ENDMDL
MODEL 3
REMARK VINA RESULT:    -5.316     14.796     16.009
REMARK INTER + INTRA:          -6.381
REMARK INTER:                  -6.251
REMARK INTRA:                  -0.130
REMARK UNBOUND:                -0.132
REMARK SMILES O=C([O-])C=Cc1ccc(O)c(O)c1
REMARK SMILES IDX 6 1 13 2 7 3 11 4 8 5 9 6 5 7 4 8 2 9 1 10 3 11 12 12 10 14
REMARK H PARENT 12 13 10 15
REMARK Flexibility Score: inf
ROOT
ATOM      1  C   UNL     1      44.448  23.251  19.930  1.00  0.00    -0.022 A 
ATOM      2  C   UNL     1      45.401  24.068  19.297  1.00  0.00     0.058 A 
ATOM      3  C   UNL     1      44.894  22.204  20.759  1.00  0.00     0.012 A 
ATOM      4  C   UNL     1      46.773  23.864  19.507  1.00  0.00     0.157 A 
ATOM      5  C   UNL     1      46.261  22.000  20.967  1.00  0.00     0.051 A 
ATOM      6  C   UNL     1      47.203  22.825  20.349  1.00  0.00     0.157 A 
ENDROOT
BRANCH   1   7
ATOM      7  C   UNL     1      43.010  23.504  19.665  1.00  0.00     0.010 C 
ATOM      8  C   UNL     1      42.313  22.894  18.695  1.00  0.00     0.025 C 
BRANCH   8   9
ATOM      9  C   UNL     1      40.882  23.160  18.469  1.00  0.00     0.064 C 
ATOM     10  O   UNL     1      40.282  24.073  19.097  1.00  0.00    -0.545 OA
ATOM     11  O   UNL     1      40.183  22.394  17.547  1.00  0.00    -0.545 OA
ENDBRANCH   8   9
ENDBRANCH   1   7
BRANCH   4  12
ATOM     12  O   UNL     1      47.707  24.688  18.882  1.00  0.00    -0.504 OA
ATOM     13  H   UNL     1      47.455  25.603  18.528  1.00  0.00     0.293 HD
ENDBRANCH   4  12
BRANCH   6  14
ATOM     14  O   UNL     1      48.560  22.597  20.578  1.00  0.00    -0.504 OA
ATOM     15  H   UNL     1      49.243  22.618  19.829  1.00  0.00     0.293 HD
ENDBRANCH   6  14
TORSDOF 4
ENDMDL
MODEL 4
REMARK VINA RESULT:    -5.247     14.939     16.114
REMARK INTER + INTRA:          -6.299
REMARK INTER:                  -6.170
REMARK INTRA:                  -0.129
REMARK UNBOUND:                -0.132
REMARK SMILES O=C([O-])C=Cc1ccc(O)c(O)c1
REMARK SMILES IDX 6 1 13 2 7 3 11 4 8 5 9 6 5 7 4 8 2 9 1 10 3 11 12 12 10 14
REMARK H PARENT 12 13 10 15
REMARK Flexibility Score: inf
ROOT
ATOM      1  C   UNL     1      44.126  23.269  19.705  1.00  0.00    -0.022 A 
ATOM      2  C   UNL     1      44.502  22.311  20.661  1.00  0.00     0.058 A 
ATOM      3  C   UNL     1      45.132  23.995  19.038  1.00  0.00     0.012 A 
ATOM      4  C   UNL     1      45.856  22.059  20.929  1.00  0.00     0.157 A 
ATOM      5  C   UNL     1      46.480  23.745  19.305  1.00  0.00     0.051 A 
ATOM      6  C   UNL     1      46.848  22.780  20.245  1.00  0.00     0.157 A 
ENDROOT
BRANCH   1   7
ATOM      7  C   UNL     1      42.680  23.504  19.466  1.00  0.00     0.010 C 
ATOM      8  C   UNL     1      41.967  22.866  18.526  1.00  0.00     0.025 C 
BRANCH   8   9
ATOM      9  C   UNL     1      40.529  23.115  18.326  1.00  0.00     0.064 C 
ATOM     10  O   UNL     1      39.955  24.094  18.873  1.00  0.00    -0.545 OA
ATOM     11  O   UNL     1      39.794  22.258  17.518  1.00  0.00    -0.545 OA
ENDBRANCH   8   9
ENDBRANCH   1   7
BRANCH   4  12
ATOM     12  O   UNL     1      46.215  21.098  21.872  1.00  0.00    -0.504 OA
ATOM     13  H   UNL     1      47.085  20.583  21.801  1.00  0.00     0.293 HD
ENDBRANCH   4  12
BRANCH   6  14
ATOM     14  O   UNL     1      48.203  22.553  20.490  1.00  0.00    -0.504 OA
ATOM     15  H   UNL     1      48.690  22.989  21.264  1.00  0.00     0.293 HD
ENDBRANCH   6  14
TORSDOF 4
ENDMDL
MODEL 5
REMARK VINA RESULT:    -5.228     14.765     15.214
REMARK INTER + INTRA:          -6.277
REMARK INTER:                  -6.151
REMARK INTRA:                  -0.127
REMARK UNBOUND:                -0.132
REMARK SMILES O=C([O-])C=Cc1ccc(O)c(O)c1
REMARK SMILES IDX 6 1 13 2 7 3 11 4 8 5 9 6 5 7 4 8 2 9 1 10 3 11 12 12 10 14
REMARK H PARENT 12 13 10 15
REMARK Flexibility Score: inf
ROOT
ATOM      1  C   UNL     1      42.960  23.459  19.382  1.00  0.00    -0.022 A 
ATOM      2  C   UNL     1      42.406  22.502  18.515  1.00  0.00     0.058 A 
ATOM      3  C   UNL     1      42.141  24.503  19.854  1.00  0.00     0.012 A 
ATOM      4  C   UNL     1      41.054  22.565  18.146  1.00  0.00     0.157 A 
ATOM      5  C   UNL     1      40.795  24.567  19.486  1.00  0.00     0.051 A 
ATOM      6  C   UNL     1      40.245  23.603  18.637  1.00  0.00     0.157 A 
ENDROOT
BRANCH   1   7
ATOM      7  C   UNL     1      44.398  23.351  19.732  1.00  0.00     0.010 C 
ATOM      8  C   UNL     1      45.372  24.018  19.094  1.00  0.00     0.025 C 
BRANCH   8   9
ATOM      9  C   UNL     1      46.789  23.895  19.477  1.00  0.00     0.064 C 
ATOM     10  O   UNL     1      47.254  22.810  19.917  1.00  0.00    -0.545 OA
ATOM     11  O   UNL     1      47.628  24.995  19.349  1.00  0.00    -0.545 OA
ENDBRANCH   8   9
ENDBRANCH   1   7
BRANCH   4  12
ATOM     12  O   UNL     1      40.515  21.603  17.295  1.00  0.00    -0.504 OA
ATOM     13  H   UNL     1      40.740  20.620  17.394  1.00  0.00     0.293 HD
ENDBRANCH   4  12
BRANCH   6  14
ATOM     14  O   UNL     1      38.897  23.694  18.289  1.00  0.00    -0.504 OA
ATOM     15  H   UNL     1      38.289  24.406  18.677  1.00  0.00     0.293 HD
ENDBRANCH   6  14
TORSDOF 4
ENDMDL
MODEL 6
REMARK VINA RESULT:    -5.082     15.142     16.521
REMARK INTER + INTRA:          -6.106
REMARK INTER:                  -5.980
REMARK INTRA:                  -0.126
REMARK UNBOUND:                -0.132
REMARK SMILES O=C([O-])C=Cc1ccc(O)c(O)c1
REMARK SMILES IDX 6 1 13 2 7 3 11 4 8 5 9 6 5 7 4 8 2 9 1 10 3 11 12 12 10 14
REMARK H PARENT 12 13 10 15
REMARK Flexibility Score: inf
ROOT
ATOM      1  C   UNL     1      42.595  23.218  20.226  1.00  0.00    -0.022 A 
ATOM      2  C   UNL     1      43.688  23.680  19.474  1.00  0.00     0.058 A 
ATOM      3  C   UNL     1      42.832  22.332  21.295  1.00  0.00     0.012 A 
ATOM      4  C   UNL     1      44.996  23.292  19.796  1.00  0.00     0.157 A 
ATOM      5  C   UNL     1      44.136  21.943  21.616  1.00  0.00     0.051 A 
ATOM      6  C   UNL     1      45.220  22.420  20.874  1.00  0.00     0.157 A 
ENDROOT
BRANCH   1   7
ATOM      7  C   UNL     1      41.230  23.652  19.837  1.00  0.00     0.010 C 
ATOM      8  C   UNL     1      40.611  23.247  18.719  1.00  0.00     0.025 C 
BRANCH   8   9
ATOM      9  C   UNL     1      39.250  23.690  18.370  1.00  0.00     0.064 C 
ATOM     10  O   UNL     1      39.034  24.852  17.932  1.00  0.00    -0.545 OA
ATOM     11  O   UNL     1      38.186  22.811  18.524  1.00  0.00    -0.545 OA
ENDBRANCH   8   9
ENDBRANCH   1   7
BRANCH   4  12
ATOM     12  O   UNL     1      46.072  23.767  19.048  1.00  0.00    -0.504 OA
ATOM     13  H   UNL     1      46.559  24.619  19.300  1.00  0.00     0.293 HD
ENDBRANCH   4  12
BRANCH   6  14
ATOM     14  O   UNL     1      46.509  22.014  21.220  1.00  0.00    -0.504 OA
ATOM     15  H   UNL     1      47.226  21.851  20.522  1.00  0.00     0.293 HD
ENDBRANCH   6  14
TORSDOF 4
ENDMDL
MODEL 7
REMARK VINA RESULT:    -5.010     14.548     16.191
REMARK INTER + INTRA:          -6.021
REMARK INTER:                  -5.888
REMARK INTRA:                  -0.132
REMARK UNBOUND:                -0.132
REMARK SMILES O=C([O-])C=Cc1ccc(O)c(O)c1
REMARK SMILES IDX 6 1 13 2 7 3 11 4 8 5 9 6 5 7 4 8 2 9 1 10 3 11 12 12 10 14
REMARK H PARENT 12 13 10 15
REMARK Flexibility Score: inf
ROOT
ATOM      1  C   UNL     1      45.933  22.876  20.423  1.00  0.00    -0.022 A 
ATOM      2  C   UNL     1      44.602  23.237  20.159  1.00  0.00     0.058 A 
ATOM      3  C   UNL     1      46.193  21.630  21.025  1.00  0.00     0.012 A 
ATOM      4  C   UNL     1      43.548  22.364  20.463  1.00  0.00     0.157 A 
ATOM      5  C   UNL     1      45.143  20.759  21.330  1.00  0.00     0.051 A 
ATOM      6  C   UNL     1      43.822  21.117  21.050  1.00  0.00     0.157 A 
ENDROOT
BRANCH   1   7
ATOM      7  C   UNL     1      47.010  23.842  20.090  1.00  0.00     0.010 C 
ATOM      8  C   UNL     1      46.804  24.983  19.417  1.00  0.00     0.025 C 
BRANCH   8   9
ATOM      9  C   UNL     1      47.895  25.926  19.114  1.00  0.00     0.064 C 
ATOM     10  O   UNL     1      48.420  25.970  17.970  1.00  0.00    -0.545 OA
ATOM     11  O   UNL     1      48.352  26.782  20.108  1.00  0.00    -0.545 OA
ENDBRANCH   8   9
ENDBRANCH   1   7
BRANCH   4  12
ATOM     12  O   UNL     1      42.232  22.730  20.187  1.00  0.00    -0.504 OA
ATOM     13  H   UNL     1      41.503  22.661  20.886  1.00  0.00     0.293 HD
ENDBRANCH   4  12
BRANCH   6  14
ATOM     14  O   UNL     1      42.796  20.226  21.364  1.00  0.00    -0.504 OA
ATOM     15  H   UNL     1      41.820  20.456  21.219  1.00  0.00     0.293 HD
ENDBRANCH   6  14
TORSDOF 4
ENDMDL
MODEL 8
REMARK VINA RESULT:    -5.000     15.138     16.448
REMARK INTER + INTRA:          -6.009
REMARK INTER:                  -5.875
REMARK INTRA:                  -0.133
REMARK UNBOUND:                -0.132
REMARK SMILES O=C([O-])C=Cc1ccc(O)c(O)c1
REMARK SMILES IDX 6 1 13 2 7 3 11 4 8 5 9 6 5 7 4 8 2 9 1 10 3 11 12 12 10 14
REMARK H PARENT 12 13 10 15
REMARK Flexibility Score: inf
ROOT
ATOM      1  C   UNL     1      44.073  24.571  20.214  1.00  0.00    -0.022 A 
ATOM      2  C   UNL     1      42.693  24.330  20.323  1.00  0.00     0.058 A 
ATOM      3  C   UNL     1      44.970  23.519  20.482  1.00  0.00     0.012 A 
ATOM      4  C   UNL     1      42.213  23.058  20.665  1.00  0.00     0.157 A 
ATOM      5  C   UNL     1      44.492  22.252  20.824  1.00  0.00     0.051 A 
ATOM      6  C   UNL     1      43.118  22.013  20.915  1.00  0.00     0.157 A 
ENDROOT
BRANCH   1   7
ATOM      7  C   UNL     1      44.528  25.939  19.859  1.00  0.00     0.010 C 
ATOM      8  C   UNL     1      43.715  27.003  19.804  1.00  0.00     0.025 C 
BRANCH   8   9
ATOM      9  C   UNL     1      44.204  28.349  19.459  1.00  0.00     0.064 C 
ATOM     10  O   UNL     1      43.827  29.365  20.103  1.00  0.00    -0.545 OA
ATOM     11  O   UNL     1      45.098  28.502  18.408  1.00  0.00    -0.545 OA
ENDBRANCH   8   9
ENDBRANCH   1   7
BRANCH   4  12
ATOM     12  O   UNL     1      40.841  22.829  20.760  1.00  0.00    -0.504 OA
ATOM     13  H   UNL     1      40.177  23.343  20.193  1.00  0.00     0.293 HD
ENDBRANCH   4  12
BRANCH   6  14
ATOM     14  O   UNL     1      42.672  20.737  21.257  1.00  0.00    -0.504 OA
ATOM     15  H   UNL     1      41.715  20.443  21.103  1.00  0.00     0.293 HD
ENDBRANCH   6  14
TORSDOF 4
ENDMDL
MODEL 9
REMARK VINA RESULT:    -4.978     15.324     16.157
REMARK INTER + INTRA:          -5.984
REMARK INTER:                  -5.852
REMARK INTRA:                  -0.131
REMARK UNBOUND:                -0.132
REMARK SMILES O=C([O-])C=Cc1ccc(O)c(O)c1
REMARK SMILES IDX 6 1 13 2 7 3 11 4 8 5 9 6 5 7 4 8 2 9 1 10 3 11 12 12 10 14
REMARK H PARENT 12 13 10 15
REMARK Flexibility Score: inf
ROOT
ATOM      1  C   UNL     1      41.857  24.358  19.617  1.00  0.00    -0.022 A 
ATOM      2  C   UNL     1      41.601  25.716  19.871  1.00  0.00     0.058 A 
ATOM      3  C   UNL     1      43.158  23.861  19.827  1.00  0.00     0.012 A 
ATOM      4  C   UNL     1      42.613  26.559  20.353  1.00  0.00     0.157 A 
ATOM      5  C   UNL     1      44.167  24.701  20.307  1.00  0.00     0.051 A 
ATOM      6  C   UNL     1      43.902  26.046  20.574  1.00  0.00     0.157 A 
ENDROOT
BRANCH   1   7
ATOM      7  C   UNL     1      40.753  23.513  19.098  1.00  0.00     0.010 C 
ATOM      8  C   UNL     1      39.723  23.989  18.384  1.00  0.00     0.025 C 
BRANCH   8   9
ATOM      9  C   UNL     1      38.650  23.118  17.874  1.00  0.00     0.064 C 
ATOM     10  O   UNL     1      37.907  22.472  18.660  1.00  0.00    -0.545 OA
ATOM     11  O   UNL     1      38.453  23.008  16.504  1.00  0.00    -0.545 OA
ENDBRANCH   8   9
ENDBRANCH   1   7
BRANCH   4  12
ATOM     12  O   UNL     1      42.342  27.901  20.612  1.00  0.00    -0.504 OA
ATOM     13  H   UNL     1      42.870  28.644  20.170  1.00  0.00     0.293 HD
ENDBRANCH   4  12
BRANCH   6  14
ATOM     14  O   UNL     1      44.930  26.859  21.052  1.00  0.00    -0.504 OA
ATOM     15  H   UNL     1      44.782  27.530  21.797  1.00  0.00     0.293 HD
ENDBRANCH   6  14
TORSDOF 4
ENDMDL
