MODEL 1
REMARK VINA RESULT:    -7.954      0.000      0.000
REMARK INTER + INTRA:         -12.174
REMARK INTER:                 -10.976
REMARK INTRA:                  -1.197
REMARK UNBOUND:                -1.197
REMARK SMILES CC[C@H](CC[C@H](C)[C@H]1CC[C@@H]2C3=CC[C@H]4C[C@H](O)CC[C@]4(C)[C@H]3CC[C@]21C)C(C)C
REMARK SMILES IDX 5 1 4 2 3 3 2 4 1 5 28 6 29 7 30 8 6 9 7 10 8 11 9 12 26 13
REMARK SMILES IDX 10 14 11 15 25 16 27 17 12 18 24 19 23 20 13 21 21 22 14 23
REMARK SMILES IDX 15 24 20 25 22 26 16 27 19 28 17 29 18 30
REMARK H PARENT 18 31
REMARK Flexibility Score: inf
ROOT
ATOM      1  C   UNL     1      12.742 -17.760  31.521  1.00  0.00     0.004 C 
ENDROOT
BRANCH   1   2
ATOM      2  C   UNL     1      11.208 -17.685  31.387  1.00  0.00     0.004 C 
BRANCH   2   3
ATOM      3  C   UNL     1      10.465 -17.943  32.727  1.00  0.00    -0.009 C 
BRANCH   3   4
ATOM      4  C   UNL     1       9.501 -16.775  33.106  1.00  0.00     0.000 C 
ATOM      5  C   UNL     1       9.856 -15.468  32.394  1.00  0.00     0.004 C 
ENDBRANCH   3   4
BRANCH   3   6
ATOM      6  C   UNL     1       9.752 -19.337  32.696  1.00  0.00    -0.014 C 
ATOM      7  C   UNL     1      10.281 -20.329  33.750  1.00  0.00     0.007 C 
ATOM      8  C   UNL     1       9.786 -19.969  31.294  1.00  0.00     0.007 C 
ENDBRANCH   3   6
ENDBRANCH   2   3
ENDBRANCH   1   2
BRANCH   1   9
ATOM      9  C   UNL     1      13.544 -16.570  30.916  1.00  0.00    -0.011 C 
ATOM     10  C   UNL     1      13.961 -15.547  31.993  1.00  0.00     0.008 C 
BRANCH   9  11
ATOM     11  C   UNL     1      12.902 -15.963  29.618  1.00  0.00    -0.002 C 
ATOM     12  C   UNL     1      12.013 -14.708  29.853  1.00  0.00     0.005 C 
ATOM     13  C   UNL     1      13.860 -15.560  28.428  1.00  0.00    -0.023 C 
ATOM     14  C   UNL     1      12.495 -13.610  28.904  1.00  0.00     0.009 C 
ATOM     15  C   UNL     1      13.912 -14.027  28.551  1.00  0.00     0.021 C 
ATOM     16  C   UNL     1      15.331 -16.117  28.394  1.00  0.00     0.008 C 
ATOM     17  C   UNL     1      13.139 -16.003  27.108  1.00  0.00     0.012 C 
ATOM     18  C   UNL     1      14.604 -13.383  27.358  1.00  0.00    -0.067 C 
ATOM     19  C   UNL     1      16.393 -15.108  27.868  1.00  0.00     0.009 C 
ATOM     20  C   UNL     1      15.849 -14.093  26.818  1.00  0.00     0.021 C 
ATOM     21  C   UNL     1      14.212 -12.183  26.882  1.00  0.00    -0.027 C 
ATOM     22  C   UNL     1      16.928 -13.089  26.274  1.00  0.00    -0.023 C 
ATOM     23  C   UNL     1      15.033 -11.364  25.920  1.00  0.00     0.031 C 
ATOM     24  C   UNL     1      16.195 -12.143  25.266  1.00  0.00     0.002 C 
ATOM     25  C   UNL     1      18.063 -13.885  25.525  1.00  0.00     0.010 C 
ATOM     26  C   UNL     1      17.553 -12.267  27.439  1.00  0.00     0.012 C 
ATOM     27  C   UNL     1      17.147 -11.165  24.529  1.00  0.00     0.036 C 
ATOM     28  C   UNL     1      18.480 -13.299  24.162  1.00  0.00     0.032 C 
ATOM     29  C   UNL     1      18.527 -11.768  24.192  1.00  0.00     0.114 C 
BRANCH  29  30
ATOM     30  O   UNL     1      18.954 -11.280  22.946  1.00  0.00    -0.393 OA
ATOM     31  H   UNL     1      18.169 -10.852  22.517  1.00  0.00     0.210 HD
ENDBRANCH  29  30
ENDBRANCH   9  11
ENDBRANCH   1   9
TORSDOF 7
ENDMDL
MODEL 2
REMARK VINA RESULT:    -7.141      2.730      4.903
REMARK INTER + INTRA:         -11.051
REMARK INTER:                  -9.784
REMARK INTRA:                  -1.267
REMARK UNBOUND:                -1.197
REMARK SMILES CC[C@H](CC[C@H](C)[C@H]1CC[C@@H]2C3=CC[C@H]4C[C@H](O)CC[C@]4(C)[C@H]3CC[C@]21C)C(C)C
REMARK SMILES IDX 5 1 4 2 3 3 2 4 1 5 28 6 29 7 30 8 6 9 7 10 8 11 9 12 26 13
REMARK SMILES IDX 10 14 11 15 25 16 27 17 12 18 24 19 23 20 13 21 21 22 14 23
REMARK SMILES IDX 15 24 20 25 22 26 16 27 19 28 17 29 18 30
REMARK H PARENT 18 31
REMARK Flexibility Score: inf
ROOT
ATOM      1  C   UNL     1      12.198 -13.414  28.325  1.00  0.00     0.004 C 
ENDROOT
BRANCH   1   2
ATOM      2  C   UNL     1      11.956 -14.843  28.848  1.00  0.00     0.004 C 
BRANCH   2   3
ATOM      3  C   UNL     1      12.192 -14.982  30.378  1.00  0.00    -0.009 C 
BRANCH   3   4
ATOM      4  C   UNL     1      11.260 -16.052  31.028  1.00  0.00     0.000 C 
ATOM      5  C   UNL     1      10.222 -15.433  31.967  1.00  0.00     0.004 C 
ENDBRANCH   3   4
BRANCH   3   6
ATOM      6  C   UNL     1      13.708 -15.233  30.675  1.00  0.00    -0.014 C 
ATOM      7  C   UNL     1      14.457 -15.942  29.531  1.00  0.00     0.007 C 
ATOM      8  C   UNL     1      13.917 -15.983  32.003  1.00  0.00     0.007 C 
ENDBRANCH   3   6
ENDBRANCH   2   3
ENDBRANCH   1   2
BRANCH   1   9
ATOM      9  C   UNL     1      12.006 -13.199  26.795  1.00  0.00    -0.011 C 
ATOM     10  C   UNL     1      11.269 -14.382  26.133  1.00  0.00     0.008 C 
BRANCH   9  11
ATOM     11  C   UNL     1      13.300 -12.706  26.054  1.00  0.00    -0.002 C 
ATOM     12  C   UNL     1      14.128 -11.637  26.824  1.00  0.00     0.005 C 
ATOM     13  C   UNL     1      14.362 -13.787  25.604  1.00  0.00    -0.023 C 
ATOM     14  C   UNL     1      15.576 -12.124  26.887  1.00  0.00     0.009 C 
ATOM     15  C   UNL     1      15.470 -13.620  26.657  1.00  0.00     0.021 C 
ATOM     16  C   UNL     1      13.944 -15.303  25.540  1.00  0.00     0.008 C 
ATOM     17  C   UNL     1      14.857 -13.357  24.180  1.00  0.00     0.012 C 
ATOM     18  C   UNL     1      16.720 -14.411  26.299  1.00  0.00    -0.067 C 
ATOM     19  C   UNL     1      15.054 -16.298  25.989  1.00  0.00     0.009 C 
ATOM     20  C   UNL     1      16.507 -15.809  25.710  1.00  0.00     0.021 C 
ATOM     21  C   UNL     1      17.953 -13.951  26.600  1.00  0.00    -0.027 C 
ATOM     22  C   UNL     1      17.624 -16.824  26.146  1.00  0.00    -0.023 C 
ATOM     23  C   UNL     1      19.192 -14.807  26.551  1.00  0.00     0.031 C 
ATOM     24  C   UNL     1      18.997 -16.151  25.817  1.00  0.00     0.002 C 
ATOM     25  C   UNL     1      17.475 -18.160  25.323  1.00  0.00     0.010 C 
ATOM     26  C   UNL     1      17.519 -17.138  27.667  1.00  0.00     0.012 C 
ATOM     27  C   UNL     1      20.216 -17.078  26.063  1.00  0.00     0.036 C 
ATOM     28  C   UNL     1      18.790 -18.716  24.742  1.00  0.00     0.032 C 
ATOM     29  C   UNL     1      19.956 -18.561  25.723  1.00  0.00     0.114 C 
BRANCH  29  30
ATOM     30  O   UNL     1      21.121 -19.121  25.171  1.00  0.00    -0.393 OA
ATOM     31  H   UNL     1      20.949 -19.251  24.203  1.00  0.00     0.210 HD
ENDBRANCH  29  30
ENDBRANCH   9  11
ENDBRANCH   1   9
TORSDOF 7
ENDMDL
MODEL 3
REMARK VINA RESULT:    -6.671      3.070      8.781
REMARK INTER + INTRA:         -10.404
REMARK INTER:                  -8.442
REMARK INTRA:                  -1.962
REMARK UNBOUND:                -1.197
REMARK SMILES CC[C@H](CC[C@H](C)[C@H]1CC[C@@H]2C3=CC[C@H]4C[C@H](O)CC[C@]4(C)[C@H]3CC[C@]21C)C(C)C
REMARK SMILES IDX 5 1 4 2 3 3 2 4 1 5 28 6 29 7 30 8 6 9 7 10 8 11 9 12 26 13
REMARK SMILES IDX 10 14 11 15 25 16 27 17 12 18 24 19 23 20 13 21 21 22 14 23
REMARK SMILES IDX 15 24 20 25 22 26 16 27 19 28 17 29 18 30
REMARK H PARENT 18 31
REMARK Flexibility Score: inf
ROOT
ATOM      1  C   UNL     1      19.637 -12.925  24.169  1.00  0.00     0.004 C 
ENDROOT
BRANCH   1   2
ATOM      2  C   UNL     1      20.543 -14.031  24.744  1.00  0.00     0.004 C 
BRANCH   2   3
ATOM      3  C   UNL     1      20.030 -15.464  24.432  1.00  0.00    -0.009 C 
BRANCH   3   4
ATOM      4  C   UNL     1      20.652 -16.046  23.124  1.00  0.00     0.000 C 
ATOM      5  C   UNL     1      19.611 -16.249  22.020  1.00  0.00     0.004 C 
ENDBRANCH   3   4
BRANCH   3   6
ATOM      6  C   UNL     1      20.235 -16.398  25.672  1.00  0.00    -0.014 C 
ATOM      7  C   UNL     1      19.026 -17.306  25.972  1.00  0.00     0.007 C 
ATOM      8  C   UNL     1      20.640 -15.606  26.927  1.00  0.00     0.007 C 
ENDBRANCH   3   6
ENDBRANCH   2   3
ENDBRANCH   1   2
BRANCH   1   9
ATOM      9  C   UNL     1      18.102 -13.174  24.264  1.00  0.00    -0.011 C 
ATOM     10  C   UNL     1      17.450 -13.295  22.871  1.00  0.00     0.008 C 
BRANCH   9  11
ATOM     11  C   UNL     1      17.365 -12.228  25.278  1.00  0.00    -0.002 C 
ATOM     12  C   UNL     1      16.251 -11.340  24.654  1.00  0.00     0.005 C 
ATOM     13  C   UNL     1      16.693 -12.877  26.553  1.00  0.00    -0.023 C 
ATOM     14  C   UNL     1      14.978 -11.537  25.479  1.00  0.00     0.009 C 
ATOM     15  C   UNL     1      15.200 -12.864  26.182  1.00  0.00     0.021 C 
ATOM     16  C   UNL     1      17.098 -14.336  26.984  1.00  0.00     0.008 C 
ATOM     17  C   UNL     1      16.993 -11.913  27.752  1.00  0.00     0.012 C 
ATOM     18  C   UNL     1      14.317 -13.240  27.363  1.00  0.00    -0.067 C 
ATOM     19  C   UNL     1      15.923 -15.195  27.537  1.00  0.00     0.009 C 
ATOM     20  C   UNL     1      14.814 -14.376  28.262  1.00  0.00     0.021 C 
ATOM     21  C   UNL     1      13.100 -12.682  27.536  1.00  0.00    -0.027 C 
ATOM     22  C   UNL     1      13.640 -15.248  28.837  1.00  0.00    -0.023 C 
ATOM     23  C   UNL     1      12.068 -13.223  28.491  1.00  0.00     0.031 C 
ATOM     24  C   UNL     1      12.623 -14.258  29.494  1.00  0.00     0.002 C 
ATOM     25  C   UNL     1      14.200 -16.237  29.928  1.00  0.00     0.010 C 
ATOM     26  C   UNL     1      12.954 -16.064  27.702  1.00  0.00     0.012 C 
ATOM     27  C   UNL     1      11.458 -14.966  30.233  1.00  0.00     0.036 C 
ATOM     28  C   UNL     1      13.373 -16.310  31.227  1.00  0.00     0.032 C 
ATOM     29  C   UNL     1      11.868 -16.272  30.945  1.00  0.00     0.114 C 
BRANCH  29  30
ATOM     30  O   UNL     1      11.155 -16.387  32.150  1.00  0.00    -0.393 OA
ATOM     31  H   UNL     1      10.308 -15.882  32.035  1.00  0.00     0.210 HD
ENDBRANCH  29  30
ENDBRANCH   9  11
ENDBRANCH   1   9
TORSDOF 7
ENDMDL
MODEL 4
REMARK VINA RESULT:    -6.591      3.085      8.119
REMARK INTER + INTRA:         -10.292
REMARK INTER:                  -8.554
REMARK INTRA:                  -1.739
REMARK UNBOUND:                -1.197
REMARK SMILES CC[C@H](CC[C@H](C)[C@H]1CC[C@@H]2C3=CC[C@H]4C[C@H](O)CC[C@]4(C)[C@H]3CC[C@]21C)C(C)C
REMARK SMILES IDX 5 1 4 2 3 3 2 4 1 5 28 6 29 7 30 8 6 9 7 10 8 11 9 12 26 13
REMARK SMILES IDX 10 14 11 15 25 16 27 17 12 18 24 19 23 20 13 21 21 22 14 23
REMARK SMILES IDX 15 24 20 25 22 26 16 27 19 28 17 29 18 30
REMARK H PARENT 18 31
REMARK Flexibility Score: inf
ROOT
ATOM      1  C   UNL     1      17.743 -14.331  24.272  1.00  0.00     0.004 C 
ENDROOT
BRANCH   1   2
ATOM      2  C   UNL     1      18.608 -15.600  24.153  1.00  0.00     0.004 C 
BRANCH   2   3
ATOM      3  C   UNL     1      18.298 -16.655  25.252  1.00  0.00    -0.009 C 
BRANCH   3   4
ATOM      4  C   UNL     1      17.357 -17.790  24.737  1.00  0.00     0.000 C 
ATOM      5  C   UNL     1      16.064 -17.893  25.550  1.00  0.00     0.004 C 
ENDBRANCH   3   4
BRANCH   3   6
ATOM      6  C   UNL     1      19.627 -17.201  25.874  1.00  0.00    -0.014 C 
ATOM      7  C   UNL     1      19.916 -16.665  27.289  1.00  0.00     0.007 C 
ATOM      8  C   UNL     1      20.834 -16.965  24.949  1.00  0.00     0.007 C 
ENDBRANCH   3   6
ENDBRANCH   2   3
ENDBRANCH   1   2
BRANCH   1   9
ATOM      9  C   UNL     1      18.480 -13.036  24.726  1.00  0.00    -0.011 C 
ATOM     10  C   UNL     1      19.893 -13.334  25.268  1.00  0.00     0.008 C 
BRANCH   9  11
ATOM     11  C   UNL     1      17.602 -12.081  25.612  1.00  0.00    -0.002 C 
ATOM     12  C   UNL     1      16.529 -11.268  24.833  1.00  0.00     0.005 C 
ATOM     13  C   UNL     1      16.821 -12.704  26.836  1.00  0.00    -0.023 C 
ATOM     14  C   UNL     1      15.183 -11.484  25.525  1.00  0.00     0.009 C 
ATOM     15  C   UNL     1      15.377 -12.770  26.308  1.00  0.00     0.021 C 
ATOM     16  C   UNL     1      17.231 -14.126  27.373  1.00  0.00     0.008 C 
ATOM     17  C   UNL     1      16.952 -11.680  28.015  1.00  0.00     0.012 C 
ATOM     18  C   UNL     1      14.386 -13.134  27.404  1.00  0.00    -0.067 C 
ATOM     19  C   UNL     1      16.037 -15.011  27.836  1.00  0.00     0.009 C 
ATOM     20  C   UNL     1      14.825 -14.210  28.401  1.00  0.00     0.021 C 
ATOM     21  C   UNL     1      13.138 -12.623  27.421  1.00  0.00    -0.027 C 
ATOM     22  C   UNL     1      13.630 -15.108  28.887  1.00  0.00    -0.023 C 
ATOM     23  C   UNL     1      12.029 -13.167  28.284  1.00  0.00     0.031 C 
ATOM     24  C   UNL     1      12.511 -14.135  29.386  1.00  0.00     0.002 C 
ATOM     25  C   UNL     1      14.106 -16.026  30.076  1.00  0.00     0.010 C 
ATOM     26  C   UNL     1      13.102 -15.998  27.723  1.00  0.00     0.012 C 
ATOM     27  C   UNL     1      11.300 -14.861  30.028  1.00  0.00     0.036 C 
ATOM     28  C   UNL     1      13.147 -16.080  31.281  1.00  0.00     0.032 C 
ATOM     29  C   UNL     1      11.680 -16.118  30.839  1.00  0.00     0.114 C 
BRANCH  29  30
ATOM     30  O   UNL     1      10.846 -16.213  31.965  1.00  0.00    -0.393 OA
ATOM     31  H   UNL     1       9.948 -16.481  31.639  1.00  0.00     0.210 HD
ENDBRANCH  29  30
ENDBRANCH   9  11
ENDBRANCH   1   9
TORSDOF 7
ENDMDL
MODEL 5
REMARK VINA RESULT:    -6.508      3.081      9.380
REMARK INTER + INTRA:         -10.178
REMARK INTER:                  -8.098
REMARK INTRA:                  -2.080
REMARK UNBOUND:                -1.197
REMARK SMILES CC[C@H](CC[C@H](C)[C@H]1CC[C@@H]2C3=CC[C@H]4C[C@H](O)CC[C@]4(C)[C@H]3CC[C@]21C)C(C)C
REMARK SMILES IDX 5 1 4 2 3 3 2 4 1 5 28 6 29 7 30 8 6 9 7 10 8 11 9 12 26 13
REMARK SMILES IDX 10 14 11 15 25 16 27 17 12 18 24 19 23 20 13 21 21 22 14 23
REMARK SMILES IDX 15 24 20 25 22 26 16 27 19 28 17 29 18 30
REMARK H PARENT 18 31
REMARK Flexibility Score: inf
ROOT
ATOM      1  C   UNL     1      19.445 -12.346  23.709  1.00  0.00     0.004 C 
ENDROOT
BRANCH   1   2
ATOM      2  C   UNL     1      20.781 -12.267  24.472  1.00  0.00     0.004 C 
BRANCH   2   3
ATOM      3  C   UNL     1      21.049 -10.867  25.091  1.00  0.00    -0.009 C 
BRANCH   3   4
ATOM      4  C   UNL     1      20.095  -9.771  24.517  1.00  0.00     0.000 C 
ATOM      5  C   UNL     1      20.782  -8.882  23.478  1.00  0.00     0.004 C 
ENDBRANCH   3   4
BRANCH   3   6
ATOM      6  C   UNL     1      21.016 -10.946  26.654  1.00  0.00    -0.014 C 
ATOM      7  C   UNL     1      20.672 -12.346  27.198  1.00  0.00     0.007 C 
ATOM      8  C   UNL     1      20.082  -9.886  27.263  1.00  0.00     0.007 C 
ENDBRANCH   3   6
ENDBRANCH   2   3
ENDBRANCH   1   2
BRANCH   1   9
ATOM      9  C   UNL     1      18.269 -13.047  24.451  1.00  0.00    -0.011 C 
ATOM     10  C   UNL     1      17.423 -13.918  23.499  1.00  0.00     0.008 C 
BRANCH   9  11
ATOM     11  C   UNL     1      17.456 -12.094  25.400  1.00  0.00    -0.002 C 
ATOM     12  C   UNL     1      16.352 -11.256  24.695  1.00  0.00     0.005 C 
ATOM     13  C   UNL     1      16.739 -12.726  26.658  1.00  0.00    -0.023 C 
ATOM     14  C   UNL     1      15.045 -11.466  25.461  1.00  0.00     0.009 C 
ATOM     15  C   UNL     1      15.266 -12.766  26.213  1.00  0.00     0.021 C 
ATOM     16  C   UNL     1      17.160 -14.161  27.150  1.00  0.00     0.008 C 
ATOM     17  C   UNL     1      16.952 -11.721  27.842  1.00  0.00     0.012 C 
ATOM     18  C   UNL     1      14.335 -13.133  27.359  1.00  0.00    -0.067 C 
ATOM     19  C   UNL     1      15.983 -15.037  27.669  1.00  0.00     0.009 C 
ATOM     20  C   UNL     1      14.817 -14.230  28.314  1.00  0.00     0.021 C 
ATOM     21  C   UNL     1      13.097 -12.606  27.455  1.00  0.00    -0.027 C 
ATOM     22  C   UNL     1      13.639 -15.119  28.855  1.00  0.00    -0.023 C 
ATOM     23  C   UNL     1      12.033 -13.149  28.374  1.00  0.00     0.031 C 
ATOM     24  C   UNL     1      12.564 -14.139  29.432  1.00  0.00     0.002 C 
ATOM     25  C   UNL     1      14.170 -16.061  30.001  1.00  0.00     0.010 C 
ATOM     26  C   UNL     1      13.033 -15.984  27.712  1.00  0.00     0.012 C 
ATOM     27  C   UNL     1      11.383 -14.860  30.133  1.00  0.00     0.036 C 
ATOM     28  C   UNL     1      13.281 -16.121  31.259  1.00  0.00     0.032 C 
ATOM     29  C   UNL     1      11.792 -16.134  30.902  1.00  0.00     0.114 C 
BRANCH  29  30
ATOM     30  O   UNL     1      11.022 -16.235  32.073  1.00  0.00    -0.393 OA
ATOM     31  H   UNL     1      11.392 -15.581  32.721  1.00  0.00     0.210 HD
ENDBRANCH  29  30
ENDBRANCH   9  11
ENDBRANCH   1   9
TORSDOF 7
ENDMDL
MODEL 6
REMARK VINA RESULT:    -6.493      3.230      6.020
REMARK INTER + INTRA:         -10.157
REMARK INTER:                  -7.902
REMARK INTRA:                  -2.255
REMARK UNBOUND:                -1.197
REMARK SMILES CC[C@H](CC[C@H](C)[C@H]1CC[C@@H]2C3=CC[C@H]4C[C@H](O)CC[C@]4(C)[C@H]3CC[C@]21C)C(C)C
REMARK SMILES IDX 5 1 4 2 3 3 2 4 1 5 28 6 29 7 30 8 6 9 7 10 8 11 9 12 26 13
REMARK SMILES IDX 10 14 11 15 25 16 27 17 12 18 24 19 23 20 13 21 21 22 14 23
REMARK SMILES IDX 15 24 20 25 22 26 16 27 19 28 17 29 18 30
REMARK H PARENT 18 31
REMARK Flexibility Score: inf
ROOT
ATOM      1  C   UNL     1      14.257 -12.623  28.624  1.00  0.00     0.004 C 
ENDROOT
BRANCH   1   2
ATOM      2  C   UNL     1      12.821 -12.310  28.162  1.00  0.00     0.004 C 
BRANCH   2   3
ATOM      3  C   UNL     1      11.940 -13.580  28.002  1.00  0.00    -0.009 C 
BRANCH   3   4
ATOM      4  C   UNL     1      11.605 -13.886  26.508  1.00  0.00     0.000 C 
ATOM      5  C   UNL     1      11.593 -12.625  25.640  1.00  0.00     0.004 C 
ENDBRANCH   3   4
BRANCH   3   6
ATOM      6  C   UNL     1      12.595 -14.795  28.741  1.00  0.00    -0.014 C 
ATOM      7  C   UNL     1      12.889 -15.996  27.822  1.00  0.00     0.007 C 
ATOM      8  C   UNL     1      11.769 -15.238  29.961  1.00  0.00     0.007 C 
ENDBRANCH   3   6
ENDBRANCH   2   3
ENDBRANCH   1   2
BRANCH   1   9
ATOM      9  C   UNL     1      15.399 -12.227  27.642  1.00  0.00    -0.011 C 
ATOM     10  C   UNL     1      15.783 -10.739  27.772  1.00  0.00     0.008 C 
BRANCH   9  11
ATOM     11  C   UNL     1      15.184 -12.746  26.175  1.00  0.00    -0.002 C 
ATOM     12  C   UNL     1      15.619 -11.753  25.060  1.00  0.00     0.005 C 
ATOM     13  C   UNL     1      15.843 -14.123  25.764  1.00  0.00    -0.023 C 
ATOM     14  C   UNL     1      16.551 -12.500  24.105  1.00  0.00     0.009 C 
ATOM     15  C   UNL     1      17.053 -13.674  24.927  1.00  0.00     0.021 C 
ATOM     16  C   UNL     1      16.339 -15.109  26.886  1.00  0.00     0.008 C 
ATOM     17  C   UNL     1      14.786 -14.876  24.885  1.00  0.00     0.012 C 
ATOM     18  C   UNL     1      17.725 -14.844  24.224  1.00  0.00    -0.067 C 
ATOM     19  C   UNL     1      17.654 -15.867  26.544  1.00  0.00     0.009 C 
ATOM     20  C   UNL     1      17.860 -16.143  25.024  1.00  0.00     0.021 C 
ATOM     21  C   UNL     1      18.282 -14.705  23.003  1.00  0.00    -0.027 C 
ATOM     22  C   UNL     1      19.179 -16.928  24.684  1.00  0.00    -0.023 C 
ATOM     23  C   UNL     1      19.214 -15.722  22.396  1.00  0.00     0.031 C 
ATOM     24  C   UNL     1      19.222 -17.081  23.128  1.00  0.00     0.002 C 
ATOM     25  C   UNL     1      19.137 -18.351  25.358  1.00  0.00     0.010 C 
ATOM     26  C   UNL     1      20.428 -16.149  25.193  1.00  0.00     0.012 C 
ATOM     27  C   UNL     1      20.402 -17.954  22.625  1.00  0.00     0.036 C 
ATOM     28  C   UNL     1      19.558 -19.518  24.443  1.00  0.00     0.032 C 
ATOM     29  C   UNL     1      20.744 -19.140  23.550  1.00  0.00     0.114 C 
BRANCH  29  30
ATOM     30  O   UNL     1      21.122 -20.244  22.767  1.00  0.00    -0.393 OA
ATOM     31  H   UNL     1      21.761 -19.911  22.086  1.00  0.00     0.210 HD
ENDBRANCH  29  30
ENDBRANCH   9  11
ENDBRANCH   1   9
TORSDOF 7
ENDMDL
MODEL 7
REMARK VINA RESULT:    -6.474      3.684      6.142
REMARK INTER + INTRA:         -10.131
REMARK INTER:                  -7.989
REMARK INTRA:                  -2.141
REMARK UNBOUND:                -1.197
REMARK SMILES CC[C@H](CC[C@H](C)[C@H]1CC[C@@H]2C3=CC[C@H]4C[C@H](O)CC[C@]4(C)[C@H]3CC[C@]21C)C(C)C
REMARK SMILES IDX 5 1 4 2 3 3 2 4 1 5 28 6 29 7 30 8 6 9 7 10 8 11 9 12 26 13
REMARK SMILES IDX 10 14 11 15 25 16 27 17 12 18 24 19 23 20 13 21 21 22 14 23
REMARK SMILES IDX 15 24 20 25 22 26 16 27 19 28 17 29 18 30
REMARK H PARENT 18 31
REMARK Flexibility Score: inf
ROOT
ATOM      1  C   UNL     1      12.856 -13.163  25.331  1.00  0.00     0.004 C 
ENDROOT
BRANCH   1   2
ATOM      2  C   UNL     1      11.701 -13.534  26.281  1.00  0.00     0.004 C 
BRANCH   2   3
ATOM      3  C   UNL     1      12.067 -14.676  27.270  1.00  0.00    -0.009 C 
BRANCH   3   4
ATOM      4  C   UNL     1      13.266 -15.538  26.764  1.00  0.00     0.000 C 
ATOM      5  C   UNL     1      12.813 -16.756  25.956  1.00  0.00     0.004 C 
ENDBRANCH   3   4
BRANCH   3   6
ATOM      6  C   UNL     1      12.294 -14.100  28.708  1.00  0.00    -0.014 C 
ATOM      7  C   UNL     1      12.240 -12.562  28.777  1.00  0.00     0.007 C 
ATOM      8  C   UNL     1      13.597 -14.623  29.337  1.00  0.00     0.007 C 
ENDBRANCH   3   6
ENDBRANCH   2   3
ENDBRANCH   1   2
BRANCH   1   9
ATOM      9  C   UNL     1      13.331 -11.681  25.371  1.00  0.00    -0.011 C 
ATOM     10  C   UNL     1      12.931 -10.911  24.095  1.00  0.00     0.008 C 
BRANCH   9  11
ATOM     11  C   UNL     1      14.823 -11.502  25.830  1.00  0.00    -0.002 C 
ATOM     12  C   UNL     1      15.019 -11.328  27.363  1.00  0.00     0.005 C 
ATOM     13  C   UNL     1      15.870 -12.610  25.415  1.00  0.00    -0.023 C 
ATOM     14  C   UNL     1      16.065 -12.346  27.819  1.00  0.00     0.009 C 
ATOM     15  C   UNL     1      16.055 -13.397  26.724  1.00  0.00     0.021 C 
ATOM     16  C   UNL     1      15.514 -13.619  24.261  1.00  0.00     0.008 C 
ATOM     17  C   UNL     1      17.182 -11.852  25.013  1.00  0.00     0.012 C 
ATOM     18  C   UNL     1      17.203 -14.391  26.633  1.00  0.00    -0.067 C 
ATOM     19  C   UNL     1      16.028 -15.071  24.490  1.00  0.00     0.009 C 
ATOM     20  C   UNL     1      17.346 -15.162  25.317  1.00  0.00     0.021 C 
ATOM     21  C   UNL     1      17.980 -14.668  27.702  1.00  0.00    -0.027 C 
ATOM     22  C   UNL     1      17.873 -16.627  25.530  1.00  0.00    -0.023 C 
ATOM     23  C   UNL     1      18.919 -15.845  27.763  1.00  0.00     0.031 C 
ATOM     24  C   UNL     1      19.171 -16.517  26.396  1.00  0.00     0.002 C 
ATOM     25  C   UNL     1      18.218 -17.273  24.135  1.00  0.00     0.010 C 
ATOM     26  C   UNL     1      16.804 -17.497  26.254  1.00  0.00     0.012 C 
ATOM     27  C   UNL     1      19.902 -17.871  26.592  1.00  0.00     0.036 C 
ATOM     28  C   UNL     1      19.571 -18.011  24.075  1.00  0.00     0.032 C 
ATOM     29  C   UNL     1      19.845 -18.799  25.360  1.00  0.00     0.114 C 
BRANCH  29  30
ATOM     30  O   UNL     1      21.063 -19.489  25.244  1.00  0.00    -0.393 OA
ATOM     31  H   UNL     1      21.391 -19.657  26.165  1.00  0.00     0.210 HD
ENDBRANCH  29  30
ENDBRANCH   9  11
ENDBRANCH   1   9
TORSDOF 7
ENDMDL
MODEL 8
REMARK VINA RESULT:    -6.132      8.551     10.403
REMARK INTER + INTRA:          -9.659
REMARK INTER:                  -7.735
REMARK INTRA:                  -1.924
REMARK UNBOUND:                -1.197
REMARK SMILES CC[C@H](CC[C@H](C)[C@H]1CC[C@@H]2C3=CC[C@H]4C[C@H](O)CC[C@]4(C)[C@H]3CC[C@]21C)C(C)C
REMARK SMILES IDX 5 1 4 2 3 3 2 4 1 5 28 6 29 7 30 8 6 9 7 10 8 11 9 12 26 13
REMARK SMILES IDX 10 14 11 15 25 16 27 17 12 18 24 19 23 20 13 21 21 22 14 23
REMARK SMILES IDX 15 24 20 25 22 26 16 27 19 28 17 29 18 30
REMARK H PARENT 18 31
REMARK Flexibility Score: inf
ROOT
ATOM      1  C   UNL     1      14.374 -26.490  22.680  1.00  0.00     0.004 C 
ENDROOT
BRANCH   1   2
ATOM      2  C   UNL     1      13.698 -26.193  24.033  1.00  0.00     0.004 C 
BRANCH   2   3
ATOM      3  C   UNL     1      12.814 -24.915  24.007  1.00  0.00    -0.009 C 
BRANCH   3   4
ATOM      4  C   UNL     1      11.644 -25.024  22.978  1.00  0.00     0.000 C 
ATOM      5  C   UNL     1      11.644 -23.875  21.967  1.00  0.00     0.004 C 
ENDBRANCH   3   4
BRANCH   3   6
ATOM      6  C   UNL     1      12.325 -24.560  25.451  1.00  0.00    -0.014 C 
ATOM      7  C   UNL     1      12.981 -23.295  26.035  1.00  0.00     0.007 C 
ATOM      8  C   UNL     1      12.482 -25.746  26.418  1.00  0.00     0.007 C 
ENDBRANCH   3   6
ENDBRANCH   2   3
ENDBRANCH   1   2
BRANCH   1   9
ATOM      9  C   UNL     1      15.703 -25.732  22.393  1.00  0.00    -0.011 C 
ATOM     10  C   UNL     1      16.395 -26.243  21.112  1.00  0.00     0.008 C 
BRANCH   9  11
ATOM     11  C   UNL     1      16.633 -25.578  23.650  1.00  0.00    -0.002 C 
ATOM     12  C   UNL     1      18.054 -26.190  23.491  1.00  0.00     0.005 C 
ATOM     13  C   UNL     1      16.882 -24.127  24.223  1.00  0.00    -0.023 C 
ATOM     14  C   UNL     1      19.071 -25.113  23.872  1.00  0.00     0.009 C 
ATOM     15  C   UNL     1      18.302 -23.813  23.721  1.00  0.00     0.021 C 
ATOM     16  C   UNL     1      15.923 -22.953  23.802  1.00  0.00     0.008 C 
ATOM     17  C   UNL     1      16.843 -24.254  25.785  1.00  0.00     0.012 C 
ATOM     18  C   UNL     1      18.858 -22.541  24.344  1.00  0.00    -0.067 C 
ATOM     19  C   UNL     1      16.631 -21.581  23.600  1.00  0.00     0.009 C 
ATOM     20  C   UNL     1      17.886 -21.367  24.498  1.00  0.00     0.021 C 
ATOM     21  C   UNL     1      20.171 -22.414  24.630  1.00  0.00    -0.027 C 
ATOM     22  C   UNL     1      18.586 -19.974  24.306  1.00  0.00    -0.023 C 
ATOM     23  C   UNL     1      20.825 -21.096  24.955  1.00  0.00     0.031 C 
ATOM     24  C   UNL     1      19.827 -19.959  25.259  1.00  0.00     0.002 C 
ATOM     25  C   UNL     1      17.591 -18.821  24.709  1.00  0.00     0.010 C 
ATOM     26  C   UNL     1      19.031 -19.781  22.826  1.00  0.00     0.012 C 
ATOM     27  C   UNL     1      20.563 -18.594  25.295  1.00  0.00     0.036 C 
ATOM     28  C   UNL     1      18.195 -17.723  25.607  1.00  0.00     0.032 C 
ATOM     29  C   UNL     1      19.627 -17.372  25.190  1.00  0.00     0.114 C 
BRANCH  29  30
ATOM     30  O   UNL     1      20.120 -16.338  26.003  1.00  0.00    -0.393 OA
ATOM     31  H   UNL     1      19.579 -16.340  26.835  1.00  0.00     0.210 HD
ENDBRANCH  29  30
ENDBRANCH   9  11
ENDBRANCH   1   9
TORSDOF 7
ENDMDL
