MODEL 1
REMARK VINA RESULT:    -3.658      0.000      0.000
REMARK INTER + INTRA:         -12.759
REMARK INTER:                  -8.362
REMARK INTRA:                  -4.397
REMARK UNBOUND:                -4.397
REMARK SMILES CCCCCCCCCCCCCCCCCCCCCCCC(=O)[O-]
REMARK SMILES IDX 13 1 14 2 15 3 16 4 17 5 18 6 19 7 20 8 21 9 22 10 23 11
REMARK SMILES IDX 24 12 25 13 26 14 12 15 11 16 10 17 9 18 8 19 7 20 6 21 5 22
REMARK SMILES IDX 4 23 3 24 2 25 1 26
REMARK H PARENT
REMARK Flexibility Score: inf
ROOT
ATOM      1  C   UNL     1      15.760 128.769  58.219  1.00  0.00     0.000 C 
ENDROOT
BRANCH   1   2
ATOM      2  C   UNL     1      14.756 128.205  59.241  1.00  0.00     0.000 C 
BRANCH   2   3
ATOM      3  C   UNL     1      14.410 129.231  60.342  1.00  0.00     0.000 C 
BRANCH   3   4
ATOM      4  C   UNL     1      15.051 130.613  60.122  1.00  0.00     0.000 C 
BRANCH   4   5
ATOM      5  C   UNL     1      16.058 130.989  61.221  1.00  0.00     0.000 C 
BRANCH   5   6
ATOM      6  C   UNL     1      17.343 131.615  60.658  1.00  0.00     0.000 C 
BRANCH   6   7
ATOM      7  C   UNL     1      18.453 130.577  60.424  1.00  0.00     0.000 C 
BRANCH   7   8
ATOM      8  C   UNL     1      18.129 129.206  61.045  1.00  0.00     0.000 C 
BRANCH   8   9
ATOM      9  C   UNL     1      18.857 128.899  62.369  1.00  0.00     0.000 C 
BRANCH   9  10
ATOM     10  C   UNL     1      18.319 127.685  63.151  1.00  0.00     0.006 C 
BRANCH  10  11
ATOM     11  C   UNL     1      16.963 127.164  62.641  1.00  0.00     0.053 C 
BRANCH  11  12
ATOM     12  C   UNL     1      15.851 127.414  63.615  1.00  0.00     0.041 C 
ATOM     13  O   UNL     1      15.277 126.447  64.183  1.00  0.00    -0.550 OA
ATOM     14  O   UNL     1      15.423 128.711  63.869  1.00  0.00    -0.550 OA
ENDBRANCH  11  12
ENDBRANCH  10  11
ENDBRANCH   9  10
ENDBRANCH   8   9
ENDBRANCH   7   8
ENDBRANCH   6   7
ENDBRANCH   5   6
ENDBRANCH   4   5
ENDBRANCH   3   4
ENDBRANCH   2   3
ENDBRANCH   1   2
BRANCH   1  15
ATOM     15  C   UNL     1      15.442 128.349  56.776  1.00  0.00     0.000 C 
BRANCH  15  16
ATOM     16  C   UNL     1      14.884 129.510  55.933  1.00  0.00     0.000 C 
BRANCH  16  17
ATOM     17  C   UNL     1      15.207 130.889  56.532  1.00  0.00     0.000 C 
BRANCH  17  18
ATOM     18  C   UNL     1      16.407 131.567  55.845  1.00  0.00    -0.000 C 
BRANCH  18  19
ATOM     19  C   UNL     1      17.466 132.069  56.844  1.00  0.00    -0.000 C 
BRANCH  19  20
ATOM     20  C   UNL     1      18.872 131.462  56.675  1.00  0.00    -0.000 C 
BRANCH  20  21
ATOM     21  C   UNL     1      18.892 129.935  56.868  1.00  0.00    -0.000 C 
BRANCH  21  22
ATOM     22  C   UNL     1      19.469 129.186  55.653  1.00  0.00    -0.000 C 
BRANCH  22  23
ATOM     23  C   UNL     1      18.425 128.560  54.705  1.00  0.00    -0.000 C 
BRANCH  23  24
ATOM     24  C   UNL     1      18.089 129.395  53.457  1.00  0.00    -0.000 C 
BRANCH  24  25
ATOM     25  C   UNL     1      16.813 128.920  52.748  1.00  0.00    -0.003 C 
ATOM     26  C   UNL     1      16.424 127.515  53.200  1.00  0.00     0.004 C 
ENDBRANCH  24  25
ENDBRANCH  23  24
ENDBRANCH  22  23
ENDBRANCH  21  22
ENDBRANCH  20  21
ENDBRANCH  19  20
ENDBRANCH  18  19
ENDBRANCH  17  18
ENDBRANCH  16  17
ENDBRANCH  15  16
ENDBRANCH   1  15
TORSDOF 22
ENDMDL
MODEL 2
REMARK VINA RESULT:    -3.631      2.525      5.098
REMARK INTER + INTRA:         -12.697
REMARK INTER:                  -8.303
REMARK INTRA:                  -4.395
REMARK UNBOUND:                -4.397
REMARK SMILES CCCCCCCCCCCCCCCCCCCCCCCC(=O)[O-]
REMARK SMILES IDX 13 1 14 2 15 3 16 4 17 5 18 6 19 7 20 8 21 9 22 10 23 11
REMARK SMILES IDX 24 12 25 13 26 14 12 15 11 16 10 17 9 18 8 19 7 20 6 21 5 22
REMARK SMILES IDX 4 23 3 24 2 25 1 26
REMARK H PARENT
REMARK Flexibility Score: inf
ROOT
ATOM      1  C   UNL     1      16.626 127.590  55.361  1.00  0.00     0.000 C 
ENDROOT
BRANCH   1   2
ATOM      2  C   UNL     1      16.244 127.801  53.884  1.00  0.00     0.000 C 
BRANCH   2   3
ATOM      3  C   UNL     1      17.300 128.635  53.126  1.00  0.00     0.000 C 
BRANCH   3   4
ATOM      4  C   UNL     1      18.521 129.014  53.983  1.00  0.00     0.000 C 
BRANCH   4   5
ATOM      5  C   UNL     1      18.681 130.532  54.161  1.00  0.00     0.000 C 
BRANCH   5   6
ATOM      6  C   UNL     1      19.553 130.898  55.372  1.00  0.00     0.000 C 
BRANCH   6   7
ATOM      7  C   UNL     1      18.731 131.075  56.660  1.00  0.00     0.000 C 
BRANCH   7   8
ATOM      8  C   UNL     1      18.772 129.835  57.571  1.00  0.00     0.000 C 
BRANCH   8   9
ATOM      9  C   UNL     1      17.972 129.960  58.882  1.00  0.00     0.000 C 
BRANCH   9  10
ATOM     10  C   UNL     1      18.789 130.391  60.115  1.00  0.00     0.006 C 
BRANCH  10  11
ATOM     11  C   UNL     1      18.261 129.823  61.445  1.00  0.00     0.053 C 
BRANCH  11  12
ATOM     12  C   UNL     1      19.010 128.602  61.883  1.00  0.00     0.041 C 
ATOM     13  O   UNL     1      18.460 127.757  62.639  1.00  0.00    -0.550 OA
ATOM     14  O   UNL     1      20.329 128.412  61.488  1.00  0.00    -0.550 OA
ENDBRANCH  11  12
ENDBRANCH  10  11
ENDBRANCH   9  10
ENDBRANCH   8   9
ENDBRANCH   7   8
ENDBRANCH   6   7
ENDBRANCH   5   6
ENDBRANCH   4   5
ENDBRANCH   3   4
ENDBRANCH   2   3
ENDBRANCH   1   2
BRANCH   1  15
ATOM     15  C   UNL     1      15.612 128.213  56.333  1.00  0.00     0.000 C 
BRANCH  15  16
ATOM     16  C   UNL     1      14.738 129.289  55.664  1.00  0.00     0.000 C 
BRANCH  16  17
ATOM     17  C   UNL     1      15.197 130.719  55.996  1.00  0.00     0.000 C 
BRANCH  17  18
ATOM     18  C   UNL     1      15.439 131.571  54.737  1.00  0.00    -0.000 C 
BRANCH  18  19
ATOM     19  C   UNL     1      14.398 131.317  53.631  1.00  0.00    -0.000 C 
BRANCH  19  20
ATOM     20  C   UNL     1      14.948 131.334  52.192  1.00  0.00    -0.000 C 
BRANCH  20  21
ATOM     21  C   UNL     1      16.210 132.200  52.042  1.00  0.00    -0.000 C 
BRANCH  21  22
ATOM     22  C   UNL     1      15.893 133.695  51.857  1.00  0.00    -0.000 C 
BRANCH  22  23
ATOM     23  C   UNL     1      16.783 134.666  52.661  1.00  0.00    -0.000 C 
BRANCH  23  24
ATOM     24  C   UNL     1      18.002 134.022  53.345  1.00  0.00    -0.000 C 
BRANCH  24  25
ATOM     25  C   UNL     1      18.223 134.536  54.774  1.00  0.00    -0.003 C 
ATOM     26  C   UNL     1      16.894 134.851  55.456  1.00  0.00     0.004 C 
ENDBRANCH  24  25
ENDBRANCH  23  24
ENDBRANCH  22  23
ENDBRANCH  21  22
ENDBRANCH  20  21
ENDBRANCH  19  20
ENDBRANCH  18  19
ENDBRANCH  17  18
ENDBRANCH  16  17
ENDBRANCH  15  16
ENDBRANCH   1  15
TORSDOF 22
ENDMDL
MODEL 3
REMARK VINA RESULT:    -3.493      3.236      8.150
REMARK INTER + INTRA:         -12.383
REMARK INTER:                  -8.750
REMARK INTRA:                  -3.633
REMARK UNBOUND:                -4.397
REMARK SMILES CCCCCCCCCCCCCCCCCCCCCCCC(=O)[O-]
REMARK SMILES IDX 13 1 14 2 15 3 16 4 17 5 18 6 19 7 20 8 21 9 22 10 23 11
REMARK SMILES IDX 24 12 25 13 26 14 12 15 11 16 10 17 9 18 8 19 7 20 6 21 5 22
REMARK SMILES IDX 4 23 3 24 2 25 1 26
REMARK H PARENT
REMARK Flexibility Score: inf
ROOT
ATOM      1  C   UNL     1      15.093 128.274  59.270  1.00  0.00     0.000 C 
ENDROOT
BRANCH   1   2
ATOM      2  C   UNL     1      15.172 129.124  57.988  1.00  0.00     0.000 C 
BRANCH   2   3
ATOM      3  C   UNL     1      15.416 128.260  56.732  1.00  0.00     0.000 C 
BRANCH   3   4
ATOM      4  C   UNL     1      15.257 129.032  55.410  1.00  0.00     0.000 C 
BRANCH   4   5
ATOM      5  C   UNL     1      16.441 128.832  54.452  1.00  0.00     0.000 C 
BRANCH   5   6
ATOM      6  C   UNL     1      17.662 128.204  55.143  1.00  0.00     0.000 C 
BRANCH   6   7
ATOM      7  C   UNL     1      18.968 128.955  54.833  1.00  0.00     0.000 C 
BRANCH   7   8
ATOM      8  C   UNL     1      19.691 129.445  56.100  1.00  0.00     0.000 C 
BRANCH   8   9
ATOM      9  C   UNL     1      18.777 129.714  57.312  1.00  0.00     0.000 C 
BRANCH   9  10
ATOM     10  C   UNL     1      18.497 131.200  57.610  1.00  0.00     0.006 C 
BRANCH  10  11
ATOM     11  C   UNL     1      17.774 131.941  56.471  1.00  0.00     0.053 C 
BRANCH  11  12
ATOM     12  C   UNL     1      18.609 133.038  55.882  1.00  0.00     0.041 C 
ATOM     13  O   UNL     1      18.064 133.973  55.238  1.00  0.00    -0.550 OA
ATOM     14  O   UNL     1      19.993 133.009  56.011  1.00  0.00    -0.550 OA
ENDBRANCH  11  12
ENDBRANCH  10  11
ENDBRANCH   9  10
ENDBRANCH   8   9
ENDBRANCH   7   8
ENDBRANCH   6   7
ENDBRANCH   5   6
ENDBRANCH   4   5
ENDBRANCH   3   4
ENDBRANCH   2   3
ENDBRANCH   1   2
BRANCH   1  15
ATOM     15  C   UNL     1      15.528 129.046  60.525  1.00  0.00     0.000 C 
BRANCH  15  16
ATOM     16  C   UNL     1      17.029 129.384  60.520  1.00  0.00     0.000 C 
BRANCH  16  17
ATOM     17  C   UNL     1      17.604 129.560  61.935  1.00  0.00     0.000 C 
BRANCH  17  18
ATOM     18  C   UNL     1      18.770 128.596  62.224  1.00  0.00    -0.000 C 
BRANCH  18  19
ATOM     19  C   UNL     1      18.395 127.482  63.219  1.00  0.00    -0.000 C 
BRANCH  19  20
ATOM     20  C   UNL     1      17.297 126.513  62.741  1.00  0.00    -0.000 C 
BRANCH  20  21
ATOM     21  C   UNL     1      16.182 126.310  63.782  1.00  0.00    -0.000 C 
BRANCH  21  22
ATOM     22  C   UNL     1      15.186 127.483  63.829  1.00  0.00    -0.000 C 
BRANCH  22  23
ATOM     23  C   UNL     1      15.262 128.367  65.092  1.00  0.00    -0.000 C 
BRANCH  23  24
ATOM     24  C   UNL     1      16.202 127.851  66.196  1.00  0.00    -0.000 C 
BRANCH  24  25
ATOM     25  C   UNL     1      17.299 128.859  66.563  1.00  0.00    -0.003 C 
ATOM     26  C   UNL     1      17.274 130.064  65.626  1.00  0.00     0.004 C 
ENDBRANCH  24  25
ENDBRANCH  23  24
ENDBRANCH  22  23
ENDBRANCH  21  22
ENDBRANCH  20  21
ENDBRANCH  19  20
ENDBRANCH  18  19
ENDBRANCH  17  18
ENDBRANCH  16  17
ENDBRANCH  15  16
ENDBRANCH   1  15
TORSDOF 22
ENDMDL
MODEL 4
REMARK VINA RESULT:    -3.485      3.294      7.393
REMARK INTER + INTRA:         -12.364
REMARK INTER:                  -8.191
REMARK INTRA:                  -4.173
REMARK UNBOUND:                -4.397
REMARK SMILES CCCCCCCCCCCCCCCCCCCCCCCC(=O)[O-]
REMARK SMILES IDX 13 1 14 2 15 3 16 4 17 5 18 6 19 7 20 8 21 9 22 10 23 11
REMARK SMILES IDX 24 12 25 13 26 14 12 15 11 16 10 17 9 18 8 19 7 20 6 21 5 22
REMARK SMILES IDX 4 23 3 24 2 25 1 26
REMARK H PARENT
REMARK Flexibility Score: inf
ROOT
ATOM      1  C   UNL     1      15.619 128.619  57.492  1.00  0.00     0.000 C 
ENDROOT
BRANCH   1   2
ATOM      2  C   UNL     1      17.080 128.976  57.159  1.00  0.00     0.000 C 
BRANCH   2   3
ATOM      3  C   UNL     1      17.511 128.427  55.782  1.00  0.00     0.000 C 
BRANCH   3   4
ATOM      4  C   UNL     1      16.479 127.478  55.145  1.00  0.00     0.000 C 
BRANCH   4   5
ATOM      5  C   UNL     1      15.944 127.992  53.799  1.00  0.00     0.000 C 
BRANCH   5   6
ATOM      6  C   UNL     1      14.758 128.956  53.963  1.00  0.00     0.000 C 
BRANCH   6   7
ATOM      7  C   UNL     1      15.124 130.407  53.607  1.00  0.00     0.000 C 
BRANCH   7   8
ATOM      8  C   UNL     1      15.286 131.304  54.848  1.00  0.00     0.000 C 
BRANCH   8   9
ATOM      9  C   UNL     1      16.530 132.214  54.840  1.00  0.00     0.000 C 
BRANCH   9  10
ATOM     10  C   UNL     1      17.729 131.684  54.031  1.00  0.00     0.006 C 
BRANCH  10  11
ATOM     11  C   UNL     1      18.939 132.636  54.008  1.00  0.00     0.053 C 
BRANCH  11  12
ATOM     12  C   UNL     1      19.882 132.391  55.146  1.00  0.00     0.041 C 
ATOM     13  O   UNL     1      19.929 133.193  56.116  1.00  0.00    -0.550 OA
ATOM     14  O   UNL     1      20.736 131.294  55.121  1.00  0.00    -0.550 OA
ENDBRANCH  11  12
ENDBRANCH  10  11
ENDBRANCH   9  10
ENDBRANCH   8   9
ENDBRANCH   7   8
ENDBRANCH   6   7
ENDBRANCH   5   6
ENDBRANCH   4   5
ENDBRANCH   3   4
ENDBRANCH   2   3
ENDBRANCH   1   2
BRANCH   1  15
ATOM     15  C   UNL     1      15.137 129.250  58.808  1.00  0.00     0.000 C 
BRANCH  15  16
ATOM     16  C   UNL     1      15.582 128.448  60.044  1.00  0.00     0.000 C 
BRANCH  16  17
ATOM     17  C   UNL     1      14.883 128.907  61.335  1.00  0.00     0.000 C 
BRANCH  17  18
ATOM     18  C   UNL     1      15.802 128.825  62.567  1.00  0.00    -0.000 C 
BRANCH  18  19
ATOM     19  C   UNL     1      16.666 127.550  62.590  1.00  0.00    -0.000 C 
BRANCH  19  20
ATOM     20  C   UNL     1      18.184 127.784  62.708  1.00  0.00    -0.000 C 
BRANCH  20  21
ATOM     21  C   UNL     1      18.599 129.219  62.341  1.00  0.00    -0.000 C 
BRANCH  21  22
ATOM     22  C   UNL     1      19.144 129.337  60.906  1.00  0.00    -0.000 C 
BRANCH  22  23
ATOM     23  C   UNL     1      18.675 130.580  60.120  1.00  0.00    -0.000 C 
BRANCH  23  24
ATOM     24  C   UNL     1      17.667 131.479  60.857  1.00  0.00    -0.000 C 
BRANCH  24  25
ATOM     25  C   UNL     1      16.856 132.370  59.905  1.00  0.00    -0.003 C 
ATOM     26  C   UNL     1      17.404 132.294  58.482  1.00  0.00     0.004 C 
ENDBRANCH  24  25
ENDBRANCH  23  24
ENDBRANCH  22  23
ENDBRANCH  21  22
ENDBRANCH  20  21
ENDBRANCH  19  20
ENDBRANCH  18  19
ENDBRANCH  17  18
ENDBRANCH  16  17
ENDBRANCH  15  16
ENDBRANCH   1  15
TORSDOF 22
ENDMDL
MODEL 5
REMARK VINA RESULT:    -3.484      2.118      4.351
REMARK INTER + INTRA:         -12.361
REMARK INTER:                  -7.523
REMARK INTRA:                  -4.838
REMARK UNBOUND:                -4.397
REMARK SMILES CCCCCCCCCCCCCCCCCCCCCCCC(=O)[O-]
REMARK SMILES IDX 13 1 14 2 15 3 16 4 17 5 18 6 19 7 20 8 21 9 22 10 23 11
REMARK SMILES IDX 24 12 25 13 26 14 12 15 11 16 10 17 9 18 8 19 7 20 6 21 5 22
REMARK SMILES IDX 4 23 3 24 2 25 1 26
REMARK H PARENT
REMARK Flexibility Score: inf
ROOT
ATOM      1  C   UNL     1      16.796 127.672  53.257  1.00  0.00     0.000 C 
ENDROOT
BRANCH   1   2
ATOM      2  C   UNL     1      15.807 128.088  54.362  1.00  0.00     0.000 C 
BRANCH   2   3
ATOM      3  C   UNL     1      16.382 127.847  55.775  1.00  0.00     0.000 C 
BRANCH   3   4
ATOM      4  C   UNL     1      16.012 128.945  56.788  1.00  0.00     0.000 C 
BRANCH   4   5
ATOM      5  C   UNL     1      15.330 130.158  56.135  1.00  0.00     0.000 C 
BRANCH   5   6
ATOM      6  C   UNL     1      15.145 131.330  57.112  1.00  0.00     0.000 C 
BRANCH   6   7
ATOM      7  C   UNL     1      16.030 131.202  58.363  1.00  0.00     0.000 C 
BRANCH   7   8
ATOM      8  C   UNL     1      17.171 132.235  58.395  1.00  0.00     0.000 C 
BRANCH   8   9
ATOM      9  C   UNL     1      18.553 131.671  58.780  1.00  0.00     0.000 C 
BRANCH   9  10
ATOM     10  C   UNL     1      18.604 130.147  59.003  1.00  0.00     0.006 C 
BRANCH  10  11
ATOM     11  C   UNL     1      18.952 129.738  60.446  1.00  0.00     0.053 C 
BRANCH  11  12
ATOM     12  C   UNL     1      17.801 129.928  61.388  1.00  0.00     0.041 C 
ATOM     13  O   UNL     1      16.828 129.128  61.369  1.00  0.00    -0.550 OA
ATOM     14  O   UNL     1      17.785 131.008  62.262  1.00  0.00    -0.550 OA
ENDBRANCH  11  12
ENDBRANCH  10  11
ENDBRANCH   9  10
ENDBRANCH   8   9
ENDBRANCH   7   8
ENDBRANCH   6   7
ENDBRANCH   5   6
ENDBRANCH   4   5
ENDBRANCH   3   4
ENDBRANCH   2   3
ENDBRANCH   1   2
BRANCH   1  15
ATOM     15  C   UNL     1      17.223 128.849  52.366  1.00  0.00     0.000 C 
BRANCH  15  16
ATOM     16  C   UNL     1      16.261 130.046  52.468  1.00  0.00     0.000 C 
BRANCH  16  17
ATOM     17  C   UNL     1      16.582 131.155  51.453  1.00  0.00     0.000 C 
BRANCH  17  18
ATOM     18  C   UNL     1      15.962 132.510  51.841  1.00  0.00    -0.000 C 
BRANCH  18  19
ATOM     19  C   UNL     1      15.531 132.573  53.319  1.00  0.00    -0.000 C 
BRANCH  19  20
ATOM     20  C   UNL     1      15.972 133.837  54.080  1.00  0.00    -0.000 C 
BRANCH  20  21
ATOM     21  C   UNL     1      17.168 133.587  55.016  1.00  0.00    -0.000 C 
BRANCH  21  22
ATOM     22  C   UNL     1      18.524 133.692  54.295  1.00  0.00    -0.000 C 
BRANCH  22  23
ATOM     23  C   UNL     1      19.212 132.348  53.979  1.00  0.00    -0.000 C 
BRANCH  23  24
ATOM     24  C   UNL     1      18.761 131.160  54.847  1.00  0.00    -0.000 C 
BRANCH  24  25
ATOM     25  C   UNL     1      19.929 130.459  55.552  1.00  0.00    -0.003 C 
ATOM     26  C   UNL     1      19.792 128.941  55.465  1.00  0.00     0.004 C 
ENDBRANCH  24  25
ENDBRANCH  23  24
ENDBRANCH  22  23
ENDBRANCH  21  22
ENDBRANCH  20  21
ENDBRANCH  19  20
ENDBRANCH  18  19
ENDBRANCH  17  18
ENDBRANCH  16  17
ENDBRANCH  15  16
ENDBRANCH   1  15
TORSDOF 22
ENDMDL
MODEL 6
REMARK VINA RESULT:    -3.467      3.412      7.855
REMARK INTER + INTRA:         -12.324
REMARK INTER:                  -8.739
REMARK INTRA:                  -3.584
REMARK UNBOUND:                -4.397
REMARK SMILES CCCCCCCCCCCCCCCCCCCCCCCC(=O)[O-]
REMARK SMILES IDX 13 1 14 2 15 3 16 4 17 5 18 6 19 7 20 8 21 9 22 10 23 11
REMARK SMILES IDX 24 12 25 13 26 14 12 15 11 16 10 17 9 18 8 19 7 20 6 21 5 22
REMARK SMILES IDX 4 23 3 24 2 25 1 26
REMARK H PARENT
REMARK Flexibility Score: inf
ROOT
ATOM      1  C   UNL     1      16.155 127.619  55.433  1.00  0.00     0.000 C 
ENDROOT
BRANCH   1   2
ATOM      2  C   UNL     1      17.049 127.609  54.180  1.00  0.00     0.000 C 
BRANCH   2   3
ATOM      3  C   UNL     1      16.240 127.863  52.889  1.00  0.00     0.000 C 
BRANCH   3   4
ATOM      4  C   UNL     1      17.029 128.618  51.804  1.00  0.00     0.000 C 
BRANCH   4   5
ATOM      5  C   UNL     1      16.494 130.037  51.552  1.00  0.00     0.000 C 
BRANCH   5   6
ATOM      6  C   UNL     1      15.162 130.303  52.269  1.00  0.00     0.000 C 
BRANCH   6   7
ATOM      7  C   UNL     1      15.221 131.534  53.188  1.00  0.00     0.000 C 
BRANCH   7   8
ATOM      8  C   UNL     1      15.552 131.175  54.649  1.00  0.00     0.000 C 
BRANCH   8   9
ATOM      9  C   UNL     1      16.847 131.803  55.199  1.00  0.00     0.000 C 
BRANCH   9  10
ATOM     10  C   UNL     1      18.138 131.010  54.914  1.00  0.00     0.006 C 
BRANCH  10  11
ATOM     11  C   UNL     1      19.208 131.813  54.151  1.00  0.00     0.053 C 
BRANCH  11  12
ATOM     12  C   UNL     1      20.343 132.236  55.034  1.00  0.00     0.041 C 
ATOM     13  O   UNL     1      20.133 132.998  56.014  1.00  0.00    -0.550 OA
ATOM     14  O   UNL     1      21.639 131.819  54.753  1.00  0.00    -0.550 OA
ENDBRANCH  11  12
ENDBRANCH  10  11
ENDBRANCH   9  10
ENDBRANCH   8   9
ENDBRANCH   7   8
ENDBRANCH   6   7
ENDBRANCH   5   6
ENDBRANCH   4   5
ENDBRANCH   3   4
ENDBRANCH   2   3
ENDBRANCH   1   2
BRANCH   1  15
ATOM     15  C   UNL     1      16.855 128.226  56.659  1.00  0.00     0.000 C 
BRANCH  15  16
ATOM     16  C   UNL     1      15.862 128.859  57.651  1.00  0.00     0.000 C 
BRANCH  16  17
ATOM     17  C   UNL     1      16.490 129.991  58.481  1.00  0.00     0.000 C 
BRANCH  17  18
ATOM     18  C   UNL     1      18.028 129.923  58.507  1.00  0.00    -0.000 C 
BRANCH  18  19
ATOM     19  C   UNL     1      18.630 130.446  59.825  1.00  0.00    -0.000 C 
BRANCH  19  20
ATOM     20  C   UNL     1      19.189 129.364  60.769  1.00  0.00    -0.000 C 
BRANCH  20  21
ATOM     21  C   UNL     1      18.611 129.453  62.192  1.00  0.00    -0.000 C 
BRANCH  21  22
ATOM     22  C   UNL     1      17.079 129.608  62.207  1.00  0.00    -0.000 C 
BRANCH  22  23
ATOM     23  C   UNL     1      16.282 128.343  61.825  1.00  0.00    -0.000 C 
BRANCH  23  24
ATOM     24  C   UNL     1      15.503 127.686  62.978  1.00  0.00    -0.000 C 
BRANCH  24  25
ATOM     25  C   UNL     1      16.356 126.701  63.789  1.00  0.00    -0.003 C 
ATOM     26  C   UNL     1      17.245 125.863  62.873  1.00  0.00     0.004 C 
ENDBRANCH  24  25
ENDBRANCH  23  24
ENDBRANCH  22  23
ENDBRANCH  21  22
ENDBRANCH  20  21
ENDBRANCH  19  20
ENDBRANCH  18  19
ENDBRANCH  17  18
ENDBRANCH  16  17
ENDBRANCH  15  16
ENDBRANCH   1  15
TORSDOF 22
ENDMDL
MODEL 7
REMARK VINA RESULT:    -3.460      2.050      4.609
REMARK INTER + INTRA:         -12.307
REMARK INTER:                  -8.140
REMARK INTRA:                  -4.167
REMARK UNBOUND:                -4.397
REMARK SMILES CCCCCCCCCCCCCCCCCCCCCCCC(=O)[O-]
REMARK SMILES IDX 13 1 14 2 15 3 16 4 17 5 18 6 19 7 20 8 21 9 22 10 23 11
REMARK SMILES IDX 24 12 25 13 26 14 12 15 11 16 10 17 9 18 8 19 7 20 6 21 5 22
REMARK SMILES IDX 4 23 3 24 2 25 1 26
REMARK H PARENT
REMARK Flexibility Score: inf
ROOT
ATOM      1  C   UNL     1      19.199 130.786  54.582  1.00  0.00     0.000 C 
ENDROOT
BRANCH   1   2
ATOM      2  C   UNL     1      19.308 132.317  54.466  1.00  0.00     0.000 C 
BRANCH   2   3
ATOM      3  C   UNL     1      19.973 132.947  55.709  1.00  0.00     0.000 C 
BRANCH   3   4
ATOM      4  C   UNL     1      19.080 133.968  56.437  1.00  0.00     0.000 C 
BRANCH   4   5
ATOM      5  C   UNL     1      17.600 133.556  56.468  1.00  0.00     0.000 C 
BRANCH   5   6
ATOM      6  C   UNL     1      17.182 132.954  57.819  1.00  0.00     0.000 C 
BRANCH   6   7
ATOM      7  C   UNL     1      18.156 133.314  58.953  1.00  0.00     0.000 C 
BRANCH   7   8
ATOM      8  C   UNL     1      18.797 132.076  59.606  1.00  0.00     0.000 C 
BRANCH   8   9
ATOM      9  C   UNL     1      17.920 131.362  60.653  1.00  0.00     0.000 C 
BRANCH   9  10
ATOM     10  C   UNL     1      17.530 129.911  60.308  1.00  0.00     0.006 C 
BRANCH  10  11
ATOM     11  C   UNL     1      17.411 128.987  61.534  1.00  0.00     0.053 C 
BRANCH  11  12
ATOM     12  C   UNL     1      18.723 128.785  62.228  1.00  0.00     0.041 C 
ATOM     13  O   UNL     1      18.786 128.812  63.486  1.00  0.00    -0.550 OA
ATOM     14  O   UNL     1      19.885 128.603  61.487  1.00  0.00    -0.550 OA
ENDBRANCH  11  12
ENDBRANCH  10  11
ENDBRANCH   9  10
ENDBRANCH   8   9
ENDBRANCH   7   8
ENDBRANCH   6   7
ENDBRANCH   5   6
ENDBRANCH   4   5
ENDBRANCH   3   4
ENDBRANCH   2   3
ENDBRANCH   1   2
BRANCH   1  15
ATOM     15  C   UNL     1      19.921 130.229  55.819  1.00  0.00     0.000 C 
BRANCH  15  16
ATOM     16  C   UNL     1      18.945 129.690  56.879  1.00  0.00     0.000 C 
BRANCH  16  17
ATOM     17  C   UNL     1      17.478 129.753  56.424  1.00  0.00     0.000 C 
BRANCH  17  18
ATOM     18  C   UNL     1      16.654 128.545  56.908  1.00  0.00    -0.000 C 
BRANCH  18  19
ATOM     19  C   UNL     1      15.995 127.766  55.754  1.00  0.00    -0.000 C 
BRANCH  19  20
ATOM     20  C   UNL     1      16.913 127.460  54.555  1.00  0.00    -0.000 C 
BRANCH  20  21
ATOM     21  C   UNL     1      16.256 127.781  53.201  1.00  0.00    -0.000 C 
BRANCH  21  22
ATOM     22  C   UNL     1      16.981 128.902  52.435  1.00  0.00    -0.000 C 
BRANCH  22  23
ATOM     23  C   UNL     1      16.062 129.935  51.748  1.00  0.00    -0.000 C 
BRANCH  23  24
ATOM     24  C   UNL     1      15.035 130.614  52.670  1.00  0.00    -0.000 C 
BRANCH  24  25
ATOM     25  C   UNL     1      15.687 131.365  53.839  1.00  0.00    -0.003 C 
ATOM     26  C   UNL     1      14.643 132.122  54.656  1.00  0.00     0.004 C 
ENDBRANCH  24  25
ENDBRANCH  23  24
ENDBRANCH  22  23
ENDBRANCH  21  22
ENDBRANCH  20  21
ENDBRANCH  19  20
ENDBRANCH  18  19
ENDBRANCH  17  18
ENDBRANCH  16  17
ENDBRANCH  15  16
ENDBRANCH   1  15
TORSDOF 22
ENDMDL
MODEL 8
REMARK VINA RESULT:    -3.453      3.480      7.281
REMARK INTER + INTRA:         -12.292
REMARK INTER:                  -8.940
REMARK INTRA:                  -3.352
REMARK UNBOUND:                -4.397
REMARK SMILES CCCCCCCCCCCCCCCCCCCCCCCC(=O)[O-]
REMARK SMILES IDX 13 1 14 2 15 3 16 4 17 5 18 6 19 7 20 8 21 9 22 10 23 11
REMARK SMILES IDX 24 12 25 13 26 14 12 15 11 16 10 17 9 18 8 19 7 20 6 21 5 22
REMARK SMILES IDX 4 23 3 24 2 25 1 26
REMARK H PARENT
REMARK Flexibility Score: inf
ROOT
ATOM      1  C   UNL     1      15.185 128.992  55.543  1.00  0.00     0.000 C 
ENDROOT
BRANCH   1   2
ATOM      2  C   UNL     1      15.962 127.665  55.453  1.00  0.00     0.000 C 
BRANCH   2   3
ATOM      3  C   UNL     1      16.983 127.668  54.295  1.00  0.00     0.000 C 
BRANCH   3   4
ATOM      4  C   UNL     1      17.870 128.926  54.258  1.00  0.00     0.000 C 
BRANCH   4   5
ATOM      5  C   UNL     1      18.847 129.007  55.442  1.00  0.00     0.000 C 
BRANCH   5   6
ATOM      6  C   UNL     1      19.788 130.218  55.352  1.00  0.00     0.000 C 
BRANCH   6   7
ATOM      7  C   UNL     1      19.296 131.412  56.188  1.00  0.00     0.000 C 
BRANCH   7   8
ATOM      8  C   UNL     1      18.480 130.982  57.421  1.00  0.00     0.000 C 
BRANCH   8   9
ATOM      9  C   UNL     1      17.760 132.127  58.160  1.00  0.00     0.000 C 
BRANCH   9  10
ATOM     10  C   UNL     1      18.437 133.508  58.055  1.00  0.00     0.006 C 
BRANCH  10  11
ATOM     11  C   UNL     1      17.594 134.562  57.313  1.00  0.00     0.053 C 
BRANCH  11  12
ATOM     12  C   UNL     1      18.253 135.038  56.054  1.00  0.00     0.041 C 
ATOM     13  O   UNL     1      17.555 135.425  55.080  1.00  0.00    -0.550 OA
ATOM     14  O   UNL     1      19.639 135.022  55.942  1.00  0.00    -0.550 OA
ENDBRANCH  11  12
ENDBRANCH  10  11
ENDBRANCH   9  10
ENDBRANCH   8   9
ENDBRANCH   7   8
ENDBRANCH   6   7
ENDBRANCH   5   6
ENDBRANCH   4   5
ENDBRANCH   3   4
ENDBRANCH   2   3
ENDBRANCH   1   2
BRANCH   1  15
ATOM     15  C   UNL     1      15.151 129.566  56.968  1.00  0.00     0.000 C 
BRANCH  15  16
ATOM     16  C   UNL     1      15.757 128.605  58.006  1.00  0.00     0.000 C 
BRANCH  16  17
ATOM     17  C   UNL     1      14.865 128.426  59.244  1.00  0.00     0.000 C 
BRANCH  17  18
ATOM     18  C   UNL     1      15.650 128.543  60.563  1.00  0.00    -0.000 C 
BRANCH  18  19
ATOM     19  C   UNL     1      15.831 130.001  61.027  1.00  0.00    -0.000 C 
BRANCH  19  20
ATOM     20  C   UNL     1      17.278 130.412  61.361  1.00  0.00    -0.000 C 
BRANCH  20  21
ATOM     21  C   UNL     1      18.321 129.406  60.843  1.00  0.00    -0.000 C 
BRANCH  21  22
ATOM     22  C   UNL     1      19.158 128.777  61.972  1.00  0.00    -0.000 C 
BRANCH  22  23
ATOM     23  C   UNL     1      18.534 128.856  63.381  1.00  0.00    -0.000 C 
BRANCH  23  24
ATOM     24  C   UNL     1      18.200 127.500  64.027  1.00  0.00    -0.000 C 
BRANCH  24  25
ATOM     25  C   UNL     1      17.041 126.777  63.327  1.00  0.00    -0.003 C 
ATOM     26  C   UNL     1      17.494 125.432  62.764  1.00  0.00     0.004 C 
ENDBRANCH  24  25
ENDBRANCH  23  24
ENDBRANCH  22  23
ENDBRANCH  21  22
ENDBRANCH  20  21
ENDBRANCH  19  20
ENDBRANCH  18  19
ENDBRANCH  17  18
ENDBRANCH  16  17
ENDBRANCH  15  16
ENDBRANCH   1  15
TORSDOF 22
ENDMDL
MODEL 9
REMARK VINA RESULT:    -3.407      5.194      9.042
REMARK INTER + INTRA:         -12.186
REMARK INTER:                  -8.237
REMARK INTRA:                  -3.950
REMARK UNBOUND:                -4.397
REMARK SMILES CCCCCCCCCCCCCCCCCCCCCCCC(=O)[O-]
REMARK SMILES IDX 13 1 14 2 15 3 16 4 17 5 18 6 19 7 20 8 21 9 22 10 23 11
REMARK SMILES IDX 24 12 25 13 26 14 12 15 11 16 10 17 9 18 8 19 7 20 6 21 5 22
REMARK SMILES IDX 4 23 3 24 2 25 1 26
REMARK H PARENT
REMARK Flexibility Score: inf
ROOT
ATOM      1  C   UNL     1      18.143 133.460  56.014  1.00  0.00     0.000 C 
ENDROOT
BRANCH   1   2
ATOM      2  C   UNL     1      17.541 134.804  55.566  1.00  0.00     0.000 C 
BRANCH   2   3
ATOM      3  C   UNL     1      18.435 135.524  54.533  1.00  0.00     0.000 C 
BRANCH   3   4
ATOM      4  C   UNL     1      17.763 135.716  53.161  1.00  0.00     0.000 C 
BRANCH   4   5
ATOM      5  C   UNL     1      16.409 134.999  53.051  1.00  0.00     0.000 C 
BRANCH   5   6
ATOM      6  C   UNL     1      16.506 133.662  52.299  1.00  0.00     0.000 C 
BRANCH   6   7
ATOM      7  C   UNL     1      15.828 132.507  53.056  1.00  0.00     0.000 C 
BRANCH   7   8
ATOM      8  C   UNL     1      15.640 131.251  52.186  1.00  0.00     0.000 C 
BRANCH   8   9
ATOM      9  C   UNL     1      16.761 130.993  51.160  1.00  0.00     0.000 C 
BRANCH   9  10
ATOM     10  C   UNL     1      16.842 129.552  50.619  1.00  0.00     0.006 C 
BRANCH  10  11
ATOM     11  C   UNL     1      16.592 129.438  49.104  1.00  0.00     0.053 C 
BRANCH  11  12
ATOM     12  C   UNL     1      17.747 128.817  48.379  1.00  0.00     0.041 C 
ATOM     13  O   UNL     1      17.714 127.598  48.060  1.00  0.00    -0.550 OA
ATOM     14  O   UNL     1      18.876 129.573  48.087  1.00  0.00    -0.550 OA
ENDBRANCH  11  12
ENDBRANCH  10  11
ENDBRANCH   9  10
ENDBRANCH   8   9
ENDBRANCH   7   8
ENDBRANCH   6   7
ENDBRANCH   5   6
ENDBRANCH   4   5
ENDBRANCH   3   4
ENDBRANCH   2   3
ENDBRANCH   1   2
BRANCH   1  15
ATOM     15  C   UNL     1      19.440 133.109  55.268  1.00  0.00     0.000 C 
BRANCH  15  16
ATOM     16  C   UNL     1      19.261 131.929  54.296  1.00  0.00     0.000 C 
BRANCH  16  17
ATOM     17  C   UNL     1      18.813 130.639  55.003  1.00  0.00     0.000 C 
BRANCH  17  18
ATOM     18  C   UNL     1      18.488 129.504  54.014  1.00  0.00    -0.000 C 
BRANCH  18  19
ATOM     19  C   UNL     1      17.906 128.256  54.703  1.00  0.00    -0.000 C 
BRANCH  19  20
ATOM     20  C   UNL     1      16.677 127.635  54.013  1.00  0.00    -0.000 C 
BRANCH  20  21
ATOM     21  C   UNL     1      15.392 128.455  54.226  1.00  0.00    -0.000 C 
BRANCH  21  22
ATOM     22  C   UNL     1      15.111 128.753  55.710  1.00  0.00    -0.000 C 
BRANCH  22  23
ATOM     23  C   UNL     1      15.114 130.247  56.097  1.00  0.00    -0.000 C 
BRANCH  23  24
ATOM     24  C   UNL     1      15.391 130.538  57.583  1.00  0.00    -0.000 C 
BRANCH  24  25
ATOM     25  C   UNL     1      16.888 130.670  57.895  1.00  0.00    -0.003 C 
ATOM     26  C   UNL     1      17.295 129.740  59.036  1.00  0.00     0.004 C 
ENDBRANCH  24  25
ENDBRANCH  23  24
ENDBRANCH  22  23
ENDBRANCH  21  22
ENDBRANCH  20  21
ENDBRANCH  19  20
ENDBRANCH  18  19
ENDBRANCH  17  18
ENDBRANCH  16  17
ENDBRANCH  15  16
ENDBRANCH   1  15
TORSDOF 22
ENDMDL
