MODEL 1
REMARK VINA RESULT:    -3.717      0.000      0.000
REMARK INTER + INTRA:          -9.692
REMARK INTER:                  -7.194
REMARK INTRA:                  -2.498
REMARK UNBOUND:                -2.498
REMARK SMILES CCCCCCCCCCCCCCCCCC(=O)[O-]
REMARK SMILES IDX 10 1 11 2 12 3 13 4 14 5 15 6 16 7 17 8 18 9 19 10 20 11
REMARK SMILES IDX 9 12 8 13 7 14 6 15 5 16 4 17 3 18 2 19 1 20
REMARK H PARENT
REMARK Flexibility Score: inf
ROOT
ATOM      1  C   UNL     1     -34.326   5.135  -2.263  1.00  0.00     0.000 C 
ENDROOT
BRANCH   1   2
ATOM      2  C   UNL     1     -32.900   5.346  -1.728  1.00  0.00     0.000 C 
BRANCH   2   3
ATOM      3  C   UNL     1     -32.851   6.384  -0.598  1.00  0.00     0.000 C 
BRANCH   3   4
ATOM      4  C   UNL     1     -31.407   6.800  -0.286  1.00  0.00     0.000 C 
BRANCH   4   5
ATOM      5  C   UNL     1     -30.377   5.777  -0.814  1.00  0.00     0.000 C 
BRANCH   5   6
ATOM      6  C   UNL     1     -29.016   6.398  -1.189  1.00  0.00     0.000 C 
BRANCH   6   7
ATOM      7  C   UNL     1     -27.953   5.397  -1.669  1.00  0.00     0.006 C 
BRANCH   7   8
ATOM      8  C   UNL     1     -28.323   3.939  -1.362  1.00  0.00     0.053 C 
BRANCH   8   9
ATOM      9  C   UNL     1     -27.673   3.493  -0.091  1.00  0.00     0.041 C 
ATOM     10  O   UNL     1     -28.165   2.543   0.572  1.00  0.00    -0.550 OA
ATOM     11  O   UNL     1     -26.496   4.094   0.337  1.00  0.00    -0.550 OA
ENDBRANCH   8   9
ENDBRANCH   7   8
ENDBRANCH   6   7
ENDBRANCH   5   6
ENDBRANCH   4   5
ENDBRANCH   3   4
ENDBRANCH   2   3
ENDBRANCH   1   2
BRANCH   1  12
ATOM     12  C   UNL     1     -35.398   5.612  -1.266  1.00  0.00     0.000 C 
BRANCH  12  13
ATOM     13  C   UNL     1     -36.309   6.707  -1.849  1.00  0.00    -0.000 C 
BRANCH  13  14
ATOM     14  C   UNL     1     -35.903   7.215  -3.248  1.00  0.00    -0.000 C 
BRANCH  14  15
ATOM     15  C   UNL     1     -35.605   8.725  -3.340  1.00  0.00    -0.000 C 
BRANCH  15  16
ATOM     16  C   UNL     1     -34.120   9.102  -3.192  1.00  0.00    -0.000 C 
BRANCH  16  17
ATOM     17  C   UNL     1     -33.209   8.318  -4.146  1.00  0.00    -0.000 C 
BRANCH  17  18
ATOM     18  C   UNL     1     -31.763   8.304  -3.635  1.00  0.00    -0.000 C 
BRANCH  18  19
ATOM     19  C   UNL     1     -31.467   9.546  -2.787  1.00  0.00    -0.003 C 
ATOM     20  C   UNL     1     -29.976   9.671  -2.493  1.00  0.00     0.004 C 
ENDBRANCH  18  19
ENDBRANCH  17  18
ENDBRANCH  16  17
ENDBRANCH  15  16
ENDBRANCH  14  15
ENDBRANCH  13  14
ENDBRANCH  12  13
ENDBRANCH   1  12
TORSDOF 16
ENDMDL
MODEL 2
REMARK VINA RESULT:    -3.668      2.073      2.604
REMARK INTER + INTRA:          -9.597
REMARK INTER:                  -6.882
REMARK INTRA:                  -2.715
REMARK UNBOUND:                -2.498
REMARK SMILES CCCCCCCCCCCCCCCCCC(=O)[O-]
REMARK SMILES IDX 10 1 11 2 12 3 13 4 14 5 15 6 16 7 17 8 18 9 19 10 20 11
REMARK SMILES IDX 9 12 8 13 7 14 6 15 5 16 4 17 3 18 2 19 1 20
REMARK H PARENT
REMARK Flexibility Score: inf
ROOT
ATOM      1  C   UNL     1     -35.156   5.746  -1.141  1.00  0.00     0.000 C 
ENDROOT
BRANCH   1   2
ATOM      2  C   UNL     1     -33.846   6.535  -0.981  1.00  0.00     0.000 C 
BRANCH   2   3
ATOM      3  C   UNL     1     -32.620   5.613  -0.908  1.00  0.00     0.000 C 
BRANCH   3   4
ATOM      4  C   UNL     1     -31.460   6.289  -0.162  1.00  0.00     0.000 C 
BRANCH   4   5
ATOM      5  C   UNL     1     -30.087   5.714  -0.573  1.00  0.00     0.000 C 
BRANCH   5   6
ATOM      6  C   UNL     1     -29.251   6.663  -1.454  1.00  0.00     0.000 C 
BRANCH   6   7
ATOM      7  C   UNL     1     -28.187   5.977  -2.327  1.00  0.00     0.006 C 
BRANCH   7   8
ATOM      8  C   UNL     1     -28.510   4.504  -2.612  1.00  0.00     0.053 C 
BRANCH   8   9
ATOM      9  C   UNL     1     -28.277   4.190  -4.056  1.00  0.00     0.041 C 
ATOM     10  O   UNL     1     -28.270   2.994  -4.451  1.00  0.00    -0.550 OA
ATOM     11  O   UNL     1     -28.117   5.219  -4.975  1.00  0.00    -0.550 OA
ENDBRANCH   8   9
ENDBRANCH   7   8
ENDBRANCH   6   7
ENDBRANCH   5   6
ENDBRANCH   4   5
ENDBRANCH   3   4
ENDBRANCH   2   3
ENDBRANCH   1   2
BRANCH   1  12
ATOM     12  C   UNL     1     -36.291   6.612  -1.717  1.00  0.00     0.000 C 
BRANCH  12  13
ATOM     13  C   UNL     1     -35.983   7.135  -3.131  1.00  0.00    -0.000 C 
BRANCH  13  14
ATOM     14  C   UNL     1     -35.835   8.666  -3.240  1.00  0.00    -0.000 C 
BRANCH  14  15
ATOM     15  C   UNL     1     -34.564   9.155  -3.964  1.00  0.00    -0.000 C 
BRANCH  15  16
ATOM     16  C   UNL     1     -33.380   9.488  -3.039  1.00  0.00    -0.000 C 
BRANCH  16  17
ATOM     17  C   UNL     1     -32.130   8.652  -3.346  1.00  0.00    -0.000 C 
BRANCH  17  18
ATOM     18  C   UNL     1     -32.453   7.529  -4.340  1.00  0.00    -0.000 C 
BRANCH  18  19
ATOM     19  C   UNL     1     -31.311   6.508  -4.406  1.00  0.00    -0.003 C 
ATOM     20  C   UNL     1     -31.849   5.081  -4.447  1.00  0.00     0.004 C 
ENDBRANCH  18  19
ENDBRANCH  17  18
ENDBRANCH  16  17
ENDBRANCH  15  16
ENDBRANCH  14  15
ENDBRANCH  13  14
ENDBRANCH  12  13
ENDBRANCH   1  12
TORSDOF 16
ENDMDL
MODEL 3
REMARK VINA RESULT:    -3.660      3.265      5.219
REMARK INTER + INTRA:          -9.581
REMARK INTER:                  -7.043
REMARK INTRA:                  -2.538
REMARK UNBOUND:                -2.498
REMARK SMILES CCCCCCCCCCCCCCCCCC(=O)[O-]
REMARK SMILES IDX 10 1 11 2 12 3 13 4 14 5 15 6 16 7 17 8 18 9 19 10 20 11
REMARK SMILES IDX 9 12 8 13 7 14 6 15 5 16 4 17 3 18 2 19 1 20
REMARK H PARENT
REMARK Flexibility Score: inf
ROOT
ATOM      1  C   UNL     1     -36.868   4.931  -2.884  1.00  0.00     0.000 C 
ENDROOT
BRANCH   1   2
ATOM      2  C   UNL     1     -36.400   6.058  -3.820  1.00  0.00     0.000 C 
BRANCH   2   3
ATOM      3  C   UNL     1     -35.999   7.323  -3.047  1.00  0.00     0.000 C 
BRANCH   3   4
ATOM      4  C   UNL     1     -35.676   7.000  -1.581  1.00  0.00     0.000 C 
BRANCH   4   5
ATOM      5  C   UNL     1     -34.155   6.906  -1.324  1.00  0.00     0.000 C 
BRANCH   5   6
ATOM      6  C   UNL     1     -33.642   5.465  -1.138  1.00  0.00     0.000 C 
BRANCH   6   7
ATOM      7  C   UNL     1     -32.389   5.327  -0.257  1.00  0.00     0.006 C 
BRANCH   7   8
ATOM      8  C   UNL     1     -31.552   6.612  -0.205  1.00  0.00     0.053 C 
BRANCH   8   9
ATOM      9  C   UNL     1     -30.300   6.450  -1.008  1.00  0.00     0.041 C 
ATOM     10  O   UNL     1     -30.095   7.176  -2.016  1.00  0.00    -0.550 OA
ATOM     11  O   UNL     1     -29.335   5.531  -0.615  1.00  0.00    -0.550 OA
ENDBRANCH   8   9
ENDBRANCH   7   8
ENDBRANCH   6   7
ENDBRANCH   5   6
ENDBRANCH   4   5
ENDBRANCH   3   4
ENDBRANCH   2   3
ENDBRANCH   1   2
BRANCH   1  12
ATOM     12  C   UNL     1     -36.757   3.544  -3.542  1.00  0.00     0.000 C 
BRANCH  12  13
ATOM     13  C   UNL     1     -35.637   2.682  -2.932  1.00  0.00    -0.000 C 
BRANCH  13  14
ATOM     14  C   UNL     1     -35.312   1.392  -3.712  1.00  0.00    -0.000 C 
BRANCH  14  15
ATOM     15  C   UNL     1     -35.889   1.322  -5.141  1.00  0.00    -0.000 C 
BRANCH  15  16
ATOM     16  C   UNL     1     -34.934   1.800  -6.249  1.00  0.00    -0.000 C 
BRANCH  16  17
ATOM     17  C   UNL     1     -35.491   2.989  -7.044  1.00  0.00    -0.000 C 
BRANCH  17  18
ATOM     18  C   UNL     1     -34.774   4.289  -6.658  1.00  0.00    -0.000 C 
BRANCH  18  19
ATOM     19  C   UNL     1     -33.383   4.001  -6.083  1.00  0.00    -0.003 C 
ATOM     20  C   UNL     1     -33.147   4.779  -4.793  1.00  0.00     0.004 C 
ENDBRANCH  18  19
ENDBRANCH  17  18
ENDBRANCH  16  17
ENDBRANCH  15  16
ENDBRANCH  14  15
ENDBRANCH  13  14
ENDBRANCH  12  13
ENDBRANCH   1  12
TORSDOF 16
ENDMDL
MODEL 4
REMARK VINA RESULT:    -3.635      4.097      6.705
REMARK INTER + INTRA:          -9.533
REMARK INTER:                  -6.952
REMARK INTRA:                  -2.581
REMARK UNBOUND:                -2.498
REMARK SMILES CCCCCCCCCCCCCCCCCC(=O)[O-]
REMARK SMILES IDX 10 1 11 2 12 3 13 4 14 5 15 6 16 7 17 8 18 9 19 10 20 11
REMARK SMILES IDX 9 12 8 13 7 14 6 15 5 16 4 17 3 18 2 19 1 20
REMARK H PARENT
REMARK Flexibility Score: inf
ROOT
ATOM      1  C   UNL     1     -32.497   4.941  -2.556  1.00  0.00     0.000 C 
ENDROOT
BRANCH   1   2
ATOM      2  C   UNL     1     -33.502   3.824  -2.884  1.00  0.00     0.000 C 
BRANCH   2   3
ATOM      3  C   UNL     1     -34.738   3.870  -1.975  1.00  0.00     0.000 C 
BRANCH   3   4
ATOM      4  C   UNL     1     -35.728   4.950  -2.437  1.00  0.00     0.000 C 
BRANCH   4   5
ATOM      5  C   UNL     1     -36.050   5.965  -1.319  1.00  0.00     0.000 C 
BRANCH   5   6
ATOM      6  C   UNL     1     -36.058   7.432  -1.791  1.00  0.00     0.000 C 
BRANCH   6   7
ATOM      7  C   UNL     1     -35.793   7.636  -3.292  1.00  0.00     0.006 C 
BRANCH   7   8
ATOM      8  C   UNL     1     -34.985   8.908  -3.587  1.00  0.00     0.053 C 
BRANCH   8   9
ATOM      9  C   UNL     1     -35.793   9.856  -4.416  1.00  0.00     0.041 C 
ATOM     10  O   UNL     1     -35.640   9.893  -5.665  1.00  0.00    -0.550 OA
ATOM     11  O   UNL     1     -36.750  10.664  -3.815  1.00  0.00    -0.550 OA
ENDBRANCH   8   9
ENDBRANCH   7   8
ENDBRANCH   6   7
ENDBRANCH   5   6
ENDBRANCH   4   5
ENDBRANCH   3   4
ENDBRANCH   2   3
ENDBRANCH   1   2
BRANCH   1  12
ATOM     12  C   UNL     1     -32.327   5.144  -1.040  1.00  0.00     0.000 C 
BRANCH  12  13
ATOM     13  C   UNL     1     -32.223   6.628  -0.645  1.00  0.00    -0.000 C 
BRANCH  13  14
ATOM     14  C   UNL     1     -32.277   7.620  -1.825  1.00  0.00    -0.000 C 
BRANCH  14  15
ATOM     15  C   UNL     1     -30.957   8.360  -2.124  1.00  0.00    -0.000 C 
BRANCH  15  16
ATOM     16  C   UNL     1     -29.899   8.274  -1.010  1.00  0.00    -0.000 C 
BRANCH  16  17
ATOM     17  C   UNL     1     -28.642   7.506  -1.441  1.00  0.00    -0.000 C 
BRANCH  17  18
ATOM     18  C   UNL     1     -28.938   6.602  -2.645  1.00  0.00    -0.000 C 
BRANCH  18  19
ATOM     19  C   UNL     1     -28.410   5.182  -2.411  1.00  0.00    -0.003 C 
ATOM     20  C   UNL     1     -28.145   4.930  -0.930  1.00  0.00     0.004 C 
ENDBRANCH  18  19
ENDBRANCH  17  18
ENDBRANCH  16  17
ENDBRANCH  15  16
ENDBRANCH  14  15
ENDBRANCH  13  14
ENDBRANCH  12  13
ENDBRANCH   1  12
TORSDOF 16
ENDMDL
MODEL 5
REMARK VINA RESULT:    -3.615      3.094      5.683
REMARK INTER + INTRA:          -9.495
REMARK INTER:                  -6.781
REMARK INTRA:                  -2.714
REMARK UNBOUND:                -2.498
REMARK SMILES CCCCCCCCCCCCCCCCCC(=O)[O-]
REMARK SMILES IDX 10 1 11 2 12 3 13 4 14 5 15 6 16 7 17 8 18 9 19 10 20 11
REMARK SMILES IDX 9 12 8 13 7 14 6 15 5 16 4 17 3 18 2 19 1 20
REMARK H PARENT
REMARK Flexibility Score: inf
ROOT
ATOM      1  C   UNL     1     -34.016   8.488  -2.899  1.00  0.00     0.000 C 
ENDROOT
BRANCH   1   2
ATOM      2  C   UNL     1     -35.353   7.749  -3.077  1.00  0.00     0.000 C 
BRANCH   2   3
ATOM      3  C   UNL     1     -35.942   7.287  -1.737  1.00  0.00     0.000 C 
BRANCH   3   4
ATOM      4  C   UNL     1     -36.384   5.818  -1.801  1.00  0.00     0.000 C 
BRANCH   4   5
ATOM      5  C   UNL     1     -35.185   4.849  -1.892  1.00  0.00     0.000 C 
BRANCH   5   6
ATOM      6  C   UNL     1     -34.205   4.956  -0.707  1.00  0.00     0.000 C 
BRANCH   6   7
ATOM      7  C   UNL     1     -32.764   5.337  -1.084  1.00  0.00     0.006 C 
BRANCH   7   8
ATOM      8  C   UNL     1     -32.264   6.586  -0.344  1.00  0.00     0.053 C 
BRANCH   8   9
ATOM      9  C   UNL     1     -30.853   6.893  -0.736  1.00  0.00     0.041 C 
ATOM     10  O   UNL     1     -30.514   8.075  -1.005  1.00  0.00    -0.550 OA
ATOM     11  O   UNL     1     -29.900   5.882  -0.756  1.00  0.00    -0.550 OA
ENDBRANCH   8   9
ENDBRANCH   7   8
ENDBRANCH   6   7
ENDBRANCH   5   6
ENDBRANCH   4   5
ENDBRANCH   3   4
ENDBRANCH   2   3
ENDBRANCH   1   2
BRANCH   1  12
ATOM     12  C   UNL     1     -32.910   7.915  -3.803  1.00  0.00     0.000 C 
BRANCH  12  13
ATOM     13  C   UNL     1     -33.439   6.878  -4.809  1.00  0.00    -0.000 C 
BRANCH  13  14
ATOM     14  C   UNL     1     -32.836   5.466  -4.664  1.00  0.00    -0.000 C 
BRANCH  14  15
ATOM     15  C   UNL     1     -33.631   4.336  -5.351  1.00  0.00    -0.000 C 
BRANCH  15  16
ATOM     16  C   UNL     1     -35.129   4.626  -5.548  1.00  0.00    -0.000 C 
BRANCH  16  17
ATOM     17  C   UNL     1     -35.847   3.530  -6.348  1.00  0.00    -0.000 C 
BRANCH  17  18
ATOM     18  C   UNL     1     -35.021   2.239  -6.372  1.00  0.00    -0.000 C 
BRANCH  18  19
ATOM     19  C   UNL     1     -35.807   1.070  -5.766  1.00  0.00    -0.003 C 
ATOM     20  C   UNL     1     -35.536   0.940  -4.271  1.00  0.00     0.004 C 
ENDBRANCH  18  19
ENDBRANCH  17  18
ENDBRANCH  16  17
ENDBRANCH  15  16
ENDBRANCH  14  15
ENDBRANCH  13  14
ENDBRANCH  12  13
ENDBRANCH   1  12
TORSDOF 16
ENDMDL
MODEL 6
REMARK VINA RESULT:    -3.604      1.299      3.275
REMARK INTER + INTRA:          -9.473
REMARK INTER:                  -7.222
REMARK INTRA:                  -2.251
REMARK UNBOUND:                -2.498
REMARK SMILES CCCCCCCCCCCCCCCCCC(=O)[O-]
REMARK SMILES IDX 10 1 11 2 12 3 13 4 14 5 15 6 16 7 17 8 18 9 19 10 20 11
REMARK SMILES IDX 9 12 8 13 7 14 6 15 5 16 4 17 3 18 2 19 1 20
REMARK H PARENT
REMARK Flexibility Score: inf
ROOT
ATOM      1  C   UNL     1     -31.938   6.645  -0.258  1.00  0.00     0.000 C 
ENDROOT
BRANCH   1   2
ATOM      2  C   UNL     1     -30.730   7.416  -0.817  1.00  0.00     0.000 C 
BRANCH   2   3
ATOM      3  C   UNL     1     -30.889   7.737  -2.311  1.00  0.00     0.000 C 
BRANCH   3   4
ATOM      4  C   UNL     1     -30.164   6.702  -3.183  1.00  0.00     0.000 C 
BRANCH   4   5
ATOM      5  C   UNL     1     -28.882   6.164  -2.509  1.00  0.00     0.000 C 
BRANCH   5   6
ATOM      6  C   UNL     1     -28.758   4.628  -2.540  1.00  0.00     0.000 C 
BRANCH   6   7
ATOM      7  C   UNL     1     -28.088   4.003  -1.305  1.00  0.00     0.006 C 
BRANCH   7   8
ATOM      8  C   UNL     1     -27.816   5.024  -0.193  1.00  0.00     0.053 C 
BRANCH   8   9
ATOM      9  C   UNL     1     -26.933   4.428   0.858  1.00  0.00     0.041 C 
ATOM     10  O   UNL     1     -26.819   3.178   0.952  1.00  0.00    -0.550 OA
ATOM     11  O   UNL     1     -26.198   5.252   1.700  1.00  0.00    -0.550 OA
ENDBRANCH   8   9
ENDBRANCH   7   8
ENDBRANCH   6   7
ENDBRANCH   5   6
ENDBRANCH   4   5
ENDBRANCH   3   4
ENDBRANCH   2   3
ENDBRANCH   1   2
BRANCH   1  12
ATOM     12  C   UNL     1     -31.658   5.138  -0.129  1.00  0.00     0.000 C 
BRANCH  12  13
ATOM     13  C   UNL     1     -32.619   4.278  -0.969  1.00  0.00    -0.000 C 
BRANCH  13  14
ATOM     14  C   UNL     1     -34.115   4.479  -0.653  1.00  0.00    -0.000 C 
BRANCH  14  15
ATOM     15  C   UNL     1     -34.968   5.023  -1.818  1.00  0.00    -0.000 C 
BRANCH  15  16
ATOM     16  C   UNL     1     -36.215   5.817  -1.392  1.00  0.00    -0.000 C 
BRANCH  16  17
ATOM     17  C   UNL     1     -35.984   7.335  -1.396  1.00  0.00    -0.000 C 
BRANCH  17  18
ATOM     18  C   UNL     1     -35.761   7.851  -2.823  1.00  0.00    -0.000 C 
BRANCH  18  19
ATOM     19  C   UNL     1     -34.405   8.556  -2.947  1.00  0.00    -0.003 C 
ATOM     20  C   UNL     1     -33.880   8.492  -4.378  1.00  0.00     0.004 C 
ENDBRANCH  18  19
ENDBRANCH  17  18
ENDBRANCH  16  17
ENDBRANCH  15  16
ENDBRANCH  14  15
ENDBRANCH  13  14
ENDBRANCH  12  13
ENDBRANCH   1  12
TORSDOF 16
ENDMDL
MODEL 7
REMARK VINA RESULT:    -3.600      5.336      7.462
REMARK INTER + INTRA:          -9.466
REMARK INTER:                  -6.674
REMARK INTRA:                  -2.792
REMARK UNBOUND:                -2.498
REMARK SMILES CCCCCCCCCCCCCCCCCC(=O)[O-]
REMARK SMILES IDX 10 1 11 2 12 3 13 4 14 5 15 6 16 7 17 8 18 9 19 10 20 11
REMARK SMILES IDX 9 12 8 13 7 14 6 15 5 16 4 17 3 18 2 19 1 20
REMARK H PARENT
REMARK Flexibility Score: inf
ROOT
ATOM      1  C   UNL     1     -35.100   3.493  -2.381  1.00  0.00     0.000 C 
ENDROOT
BRANCH   1   2
ATOM      2  C   UNL     1     -36.414   4.052  -2.954  1.00  0.00     0.000 C 
BRANCH   2   3
ATOM      3  C   UNL     1     -36.750   5.438  -2.385  1.00  0.00     0.000 C 
BRANCH   3   4
ATOM      4  C   UNL     1     -35.678   5.907  -1.391  1.00  0.00     0.000 C 
BRANCH   4   5
ATOM      5  C   UNL     1     -35.100   7.290  -1.763  1.00  0.00     0.000 C 
BRANCH   5   6
ATOM      6  C   UNL     1     -35.898   8.027  -2.857  1.00  0.00     0.000 C 
BRANCH   6   7
ATOM      7  C   UNL     1     -35.108   9.091  -3.636  1.00  0.00     0.006 C 
BRANCH   7   8
ATOM      8  C   UNL     1     -35.975   9.858  -4.644  1.00  0.00     0.053 C 
BRANCH   8   9
ATOM      9  C   UNL     1     -35.837   9.261  -6.009  1.00  0.00     0.041 C 
ATOM     10  O   UNL     1     -34.732   8.790  -6.385  1.00  0.00    -0.550 OA
ATOM     11  O   UNL     1     -36.941   9.179  -6.848  1.00  0.00    -0.550 OA
ENDBRANCH   8   9
ENDBRANCH   7   8
ENDBRANCH   6   7
ENDBRANCH   5   6
ENDBRANCH   4   5
ENDBRANCH   3   4
ENDBRANCH   2   3
ENDBRANCH   1   2
BRANCH   1  12
ATOM     12  C   UNL     1     -34.520   2.363  -3.251  1.00  0.00     0.000 C 
BRANCH  12  13
ATOM     13  C   UNL     1     -35.590   1.360  -3.717  1.00  0.00    -0.000 C 
BRANCH  13  14
ATOM     14  C   UNL     1     -35.393   0.816  -5.146  1.00  0.00    -0.000 C 
BRANCH  14  15
ATOM     15  C   UNL     1     -36.269   1.477  -6.230  1.00  0.00    -0.000 C 
BRANCH  15  16
ATOM     16  C   UNL     1     -35.681   2.760  -6.844  1.00  0.00    -0.000 C 
BRANCH  16  17
ATOM     17  C   UNL     1     -36.526   4.006  -6.543  1.00  0.00    -0.000 C 
BRANCH  17  18
ATOM     18  C   UNL     1     -35.637   5.247  -6.391  1.00  0.00    -0.000 C 
BRANCH  18  19
ATOM     19  C   UNL     1     -34.209   4.856  -5.994  1.00  0.00    -0.003 C 
ATOM     20  C   UNL     1     -33.680   5.754  -4.881  1.00  0.00     0.004 C 
ENDBRANCH  18  19
ENDBRANCH  17  18
ENDBRANCH  16  17
ENDBRANCH  15  16
ENDBRANCH  14  15
ENDBRANCH  13  14
ENDBRANCH  12  13
ENDBRANCH   1  12
TORSDOF 16
ENDMDL
MODEL 8
REMARK VINA RESULT:    -3.595      2.549      5.678
REMARK INTER + INTRA:          -9.456
REMARK INTER:                  -6.509
REMARK INTRA:                  -2.947
REMARK UNBOUND:                -2.498
REMARK SMILES CCCCCCCCCCCCCCCCCC(=O)[O-]
REMARK SMILES IDX 10 1 11 2 12 3 13 4 14 5 15 6 16 7 17 8 18 9 19 10 20 11
REMARK SMILES IDX 9 12 8 13 7 14 6 15 5 16 4 17 3 18 2 19 1 20
REMARK H PARENT
REMARK Flexibility Score: inf
ROOT
ATOM      1  C   UNL     1     -33.343   7.315  -3.912  1.00  0.00     0.000 C 
ENDROOT
BRANCH   1   2
ATOM      2  C   UNL     1     -33.788   8.712  -3.445  1.00  0.00     0.000 C 
BRANCH   2   3
ATOM      3  C   UNL     1     -35.307   8.798  -3.239  1.00  0.00     0.000 C 
BRANCH   3   4
ATOM      4  C   UNL     1     -35.921   7.404  -3.040  1.00  0.00     0.000 C 
BRANCH   4   5
ATOM      5  C   UNL     1     -35.981   6.998  -1.551  1.00  0.00     0.000 C 
BRANCH   5   6
ATOM      6  C   UNL     1     -35.509   5.557  -1.278  1.00  0.00     0.000 C 
BRANCH   6   7
ATOM      7  C   UNL     1     -35.622   4.595  -2.473  1.00  0.00     0.006 C 
BRANCH   7   8
ATOM      8  C   UNL     1     -34.407   3.668  -2.609  1.00  0.00     0.053 C 
BRANCH   8   9
ATOM      9  C   UNL     1     -34.601   2.432  -1.789  1.00  0.00     0.041 C 
ATOM     10  O   UNL     1     -33.910   2.244  -0.754  1.00  0.00    -0.550 OA
ATOM     11  O   UNL     1     -35.579   1.510  -2.140  1.00  0.00    -0.550 OA
ENDBRANCH   8   9
ENDBRANCH   7   8
ENDBRANCH   6   7
ENDBRANCH   5   6
ENDBRANCH   4   5
ENDBRANCH   3   4
ENDBRANCH   2   3
ENDBRANCH   1   2
BRANCH   1  12
ATOM     12  C   UNL     1     -32.295   6.693  -2.972  1.00  0.00     0.000 C 
BRANCH  12  13
ATOM     13  C   UNL     1     -32.179   7.439  -1.630  1.00  0.00    -0.000 C 
BRANCH  13  14
ATOM     14  C   UNL     1     -31.757   6.563  -0.434  1.00  0.00    -0.000 C 
BRANCH  14  15
ATOM     15  C   UNL     1     -31.619   5.056  -0.736  1.00  0.00    -0.000 C 
BRANCH  15  16
ATOM     16  C   UNL     1     -30.188   4.502  -0.625  1.00  0.00    -0.000 C 
BRANCH  16  17
ATOM     17  C   UNL     1     -29.118   5.600  -0.683  1.00  0.00    -0.000 C 
BRANCH  17  18
ATOM     18  C   UNL     1     -28.320   5.519  -1.991  1.00  0.00    -0.000 C 
BRANCH  18  19
ATOM     19  C   UNL     1     -28.351   6.857  -2.739  1.00  0.00    -0.003 C 
ATOM     20  C   UNL     1     -28.490   8.027  -1.770  1.00  0.00     0.004 C 
ENDBRANCH  18  19
ENDBRANCH  17  18
ENDBRANCH  16  17
ENDBRANCH  15  16
ENDBRANCH  14  15
ENDBRANCH  13  14
ENDBRANCH  12  13
ENDBRANCH   1  12
TORSDOF 16
ENDMDL
MODEL 9
REMARK VINA RESULT:    -3.559      2.926      5.724
REMARK INTER + INTRA:          -9.386
REMARK INTER:                  -6.383
REMARK INTRA:                  -3.002
REMARK UNBOUND:                -2.498
REMARK SMILES CCCCCCCCCCCCCCCCCC(=O)[O-]
REMARK SMILES IDX 10 1 11 2 12 3 13 4 14 5 15 6 16 7 17 8 18 9 19 10 20 11
REMARK SMILES IDX 9 12 8 13 7 14 6 15 5 16 4 17 3 18 2 19 1 20
REMARK H PARENT
REMARK Flexibility Score: inf
ROOT
ATOM      1  C   UNL     1     -34.661   4.866  -1.020  1.00  0.00     0.000 C 
ENDROOT
BRANCH   1   2
ATOM      2  C   UNL     1     -35.970   5.536  -1.471  1.00  0.00     0.000 C 
BRANCH   2   3
ATOM      3  C   UNL     1     -35.819   7.056  -1.627  1.00  0.00     0.000 C 
BRANCH   3   4
ATOM      4  C   UNL     1     -35.952   7.480  -3.097  1.00  0.00     0.000 C 
BRANCH   4   5
ATOM      5  C   UNL     1     -35.210   8.801  -3.395  1.00  0.00     0.000 C 
BRANCH   5   6
ATOM      6  C   UNL     1     -33.766   8.608  -3.896  1.00  0.00     0.000 C 
BRANCH   6   7
ATOM      7  C   UNL     1     -32.669   9.087  -2.931  1.00  0.00     0.006 C 
BRANCH   7   8
ATOM      8  C   UNL     1     -31.260   8.669  -3.372  1.00  0.00     0.053 C 
BRANCH   8   9
ATOM      9  C   UNL     1     -30.289   8.840  -2.247  1.00  0.00     0.041 C 
ATOM     10  O   UNL     1     -30.539   8.349  -1.115  1.00  0.00    -0.550 OA
ATOM     11  O   UNL     1     -29.086   9.500  -2.461  1.00  0.00    -0.550 OA
ENDBRANCH   8   9
ENDBRANCH   7   8
ENDBRANCH   6   7
ENDBRANCH   5   6
ENDBRANCH   4   5
ENDBRANCH   3   4
ENDBRANCH   2   3
ENDBRANCH   1   2
BRANCH   1  12
ATOM     12  C   UNL     1     -33.477   5.850  -1.008  1.00  0.00     0.000 C 
BRANCH  12  13
ATOM     13  C   UNL     1     -32.336   5.421  -1.948  1.00  0.00    -0.000 C 
BRANCH  13  14
ATOM     14  C   UNL     1     -32.742   4.421  -3.049  1.00  0.00    -0.000 C 
BRANCH  14  15
ATOM     15  C   UNL     1     -33.187   5.054  -4.383  1.00  0.00    -0.000 C 
BRANCH  15  16
ATOM     16  C   UNL     1     -34.502   4.497  -4.957  1.00  0.00    -0.000 C 
BRANCH  16  17
ATOM     17  C   UNL     1     -34.295   3.223  -5.788  1.00  0.00    -0.000 C 
BRANCH  17  18
ATOM     18  C   UNL     1     -34.944   2.012  -5.106  1.00  0.00    -0.000 C 
BRANCH  18  19
ATOM     19  C   UNL     1     -35.835   2.451  -3.937  1.00  0.00    -0.003 C 
ATOM     20  C   UNL     1     -35.545   1.631  -2.685  1.00  0.00     0.004 C 
ENDBRANCH  18  19
ENDBRANCH  17  18
ENDBRANCH  16  17
ENDBRANCH  15  16
ENDBRANCH  14  15
ENDBRANCH  13  14
ENDBRANCH  12  13
ENDBRANCH   1  12
TORSDOF 16
ENDMDL
