MODEL 1
REMARK VINA RESULT:    -5.452      0.000      0.000
REMARK INTER + INTRA:          -9.334
REMARK INTER:                  -7.843
REMARK INTRA:                  -1.491
REMARK UNBOUND:                -1.491
REMARK SMILES O=c1c(O[C@H]2O[C@H](CO)[C@H](O)[C@@H](O)[C@@H]2O)c(-c2ccc(O)cc2)oc2cc(O)cc(O)c12
REMARK SMILES IDX 4 1 3 2 16 3 24 4 2 5 25 6 1 7 32 8 26 9 30 10 27 11 29 12
REMARK SMILES IDX 17 13 18 14 19 15 20 16 23 17 22 18 21 19 31 21 28 23 5 25
REMARK SMILES IDX 14 26 6 27 12 28 7 29 10 30 15 31 13 33 8 35 9 36 11 38
REMARK H PARENT 21 20 31 22 28 24 15 32 13 34 9 37 11 39
REMARK Flexibility Score: inf
ROOT
ATOM      1  O   UNL     1      -1.122  38.670   7.510  1.00  0.00    -0.454 OA
ENDROOT
BRANCH   1   2
ATOM      2  C   UNL     1      -2.090  39.607   7.919  1.00  0.00     0.214 A 
ATOM      3  C   UNL     1      -1.975  40.968   7.516  1.00  0.00     0.180 A 
ATOM      4  O   UNL     1      -2.814  41.863   8.037  1.00  0.00    -0.452 OA
ATOM      5  C   UNL     1      -3.212  39.240   8.701  1.00  0.00     0.239 A 
ATOM      6  C   UNL     1      -3.806  41.569   8.862  1.00  0.00     0.146 A 
ATOM      7  O   UNL     1      -3.476  38.026   8.895  1.00  0.00    -0.285 OA
ATOM      8  C   UNL     1      -4.067  40.233   9.219  1.00  0.00     0.111 A 
ATOM      9  C   UNL     1      -4.617  42.602   9.346  1.00  0.00     0.094 A 
ATOM     10  C   UNL     1      -5.175  39.947  10.054  1.00  0.00     0.134 A 
ATOM     11  C   UNL     1      -5.704  42.316  10.176  1.00  0.00     0.123 A 
ATOM     12  C   UNL     1      -5.980  40.994  10.528  1.00  0.00     0.093 A 
BRANCH   3  13
ATOM     13  C   UNL     1      -1.016  41.498   6.476  1.00  0.00     0.021 A 
ATOM     14  C   UNL     1      -1.402  42.144   5.276  1.00  0.00     0.016 A 
ATOM     15  C   UNL     1      -0.442  42.689   4.411  1.00  0.00     0.047 A 
ATOM     16  C   UNL     1       0.916  42.599   4.710  1.00  0.00     0.115 A 
ATOM     17  C   UNL     1       0.371  41.392   6.740  1.00  0.00     0.016 A 
ATOM     18  C   UNL     1       1.321  41.932   5.869  1.00  0.00     0.047 A 
BRANCH  16  19
ATOM     19  O   UNL     1       1.848  43.205   3.875  1.00  0.00    -0.508 OA
ATOM     20  H   UNL     1       2.806  42.876   3.824  1.00  0.00     0.293 HD
ENDBRANCH  16  19
ENDBRANCH   3  13
BRANCH  10  21
ATOM     21  O   UNL     1      -5.485  38.633  10.413  1.00  0.00    -0.507 OA
ATOM     22  H   UNL     1      -5.166  38.223  11.284  1.00  0.00     0.293 HD
ENDBRANCH  10  21
BRANCH  11  23
ATOM     23  O   UNL     1      -6.520  43.343  10.655  1.00  0.00    -0.508 OA
ATOM     24  H   UNL     1      -7.484  43.172  10.922  1.00  0.00     0.293 HD
ENDBRANCH  11  23
ENDBRANCH   1   2
BRANCH   1  25
ATOM     25  C   UNL     1      -1.150  37.797   6.368  1.00  0.00     0.339 C 
ATOM     26  C   UNL     1      -1.058  36.283   6.786  1.00  0.00     0.214 C 
ATOM     27  O   UNL     1      -0.107  38.192   5.483  1.00  0.00    -0.332 OA
ATOM     28  C   UNL     1      -0.259  35.462   5.746  1.00  0.00     0.180 C 
ATOM     29  C   UNL     1       1.134  37.607   5.849  1.00  0.00     0.179 C 
ATOM     30  C   UNL     1       1.133  36.097   5.486  1.00  0.00     0.177 C 
BRANCH  26  31
ATOM     31  O   UNL     1      -2.330  35.711   6.978  1.00  0.00    -0.384 OA
ATOM     32  H   UNL     1      -2.671  35.426   6.089  1.00  0.00     0.211 HD
ENDBRANCH  26  31
BRANCH  28  33
ATOM     33  O   UNL     1      -0.080  34.150   6.214  1.00  0.00    -0.387 OA
ATOM     34  H   UNL     1       0.200  34.210   7.168  1.00  0.00     0.211 HD
ENDBRANCH  28  33
BRANCH  29  35
ATOM     35  C   UNL     1       2.299  38.385   5.214  1.00  0.00     0.191 C 
BRANCH  35  36
ATOM     36  O   UNL     1       3.532  37.750   5.442  1.00  0.00    -0.394 OA
ATOM     37  H   UNL     1       3.388  36.780   5.282  1.00  0.00     0.210 HD
ENDBRANCH  35  36
ENDBRANCH  29  35
BRANCH  30  38
ATOM     38  O   UNL     1       1.523  35.873   4.153  1.00  0.00    -0.387 OA
ATOM     39  H   UNL     1       1.738  36.754   3.746  1.00  0.00     0.211 HD
ENDBRANCH  30  38
ENDBRANCH   1  25
TORSDOF 11
ENDMDL
MODEL 2
REMARK VINA RESULT:    -5.418      2.422      7.155
REMARK INTER + INTRA:          -9.285
REMARK INTER:                  -8.080
REMARK INTRA:                  -1.204
REMARK UNBOUND:                -1.491
REMARK SMILES O=c1c(O[C@H]2O[C@H](CO)[C@H](O)[C@@H](O)[C@@H]2O)c(-c2ccc(O)cc2)oc2cc(O)cc(O)c12
REMARK SMILES IDX 4 1 3 2 16 3 24 4 2 5 25 6 1 7 32 8 26 9 30 10 27 11 29 12
REMARK SMILES IDX 17 13 18 14 19 15 20 16 23 17 22 18 21 19 31 21 28 23 5 25
REMARK SMILES IDX 14 26 6 27 12 28 7 29 10 30 15 31 13 33 8 35 9 36 11 38
REMARK H PARENT 21 20 31 22 28 24 15 32 13 34 9 37 11 39
REMARK Flexibility Score: inf
ROOT
ATOM      1  O   UNL     1      -3.231  36.577   7.752  1.00  0.00    -0.454 OA
ENDROOT
BRANCH   1   2
ATOM      2  C   UNL     1      -2.048  37.067   7.168  1.00  0.00     0.214 A 
ATOM      3  C   UNL     1      -1.829  38.471   7.077  1.00  0.00     0.180 A 
ATOM      4  O   UNL     1      -0.777  38.912   6.388  1.00  0.00    -0.452 OA
ATOM      5  C   UNL     1      -1.030  36.206   6.690  1.00  0.00     0.239 A 
ATOM      6  C   UNL     1       0.134  38.131   5.830  1.00  0.00     0.146 A 
ATOM      7  O   UNL     1      -1.073  34.975   6.946  1.00  0.00    -0.285 OA
ATOM      8  C   UNL     1       0.062  36.732   5.973  1.00  0.00     0.111 A 
ATOM      9  C   UNL     1       1.193  38.716   5.126  1.00  0.00     0.094 A 
ATOM     10  C   UNL     1       1.088  35.929   5.417  1.00  0.00     0.134 A 
ATOM     11  C   UNL     1       2.199  37.919   4.572  1.00  0.00     0.123 A 
ATOM     12  C   UNL     1       2.144  36.532   4.718  1.00  0.00     0.093 A 
BRANCH   3  13
ATOM     13  C   UNL     1      -2.656  39.535   7.760  1.00  0.00     0.021 A 
ATOM     14  C   UNL     1      -3.138  39.453   9.090  1.00  0.00     0.016 A 
ATOM     15  C   UNL     1      -3.818  40.529   9.676  1.00  0.00     0.047 A 
ATOM     16  C   UNL     1      -4.044  41.702   8.960  1.00  0.00     0.115 A 
ATOM     17  C   UNL     1      -2.926  40.726   7.043  1.00  0.00     0.016 A 
ATOM     18  C   UNL     1      -3.611  41.790   7.633  1.00  0.00     0.047 A 
BRANCH  16  19
ATOM     19  O   UNL     1      -4.660  42.783   9.581  1.00  0.00    -0.508 OA
ATOM     20  H   UNL     1      -5.403  43.303   9.126  1.00  0.00     0.293 HD
ENDBRANCH  16  19
ENDBRANCH   3  13
BRANCH  10  21
ATOM     21  O   UNL     1       1.069  34.539   5.557  1.00  0.00    -0.507 OA
ATOM     22  H   UNL     1       0.864  34.090   6.442  1.00  0.00     0.293 HD
ENDBRANCH  10  21
BRANCH  11  23
ATOM     23  O   UNL     1       3.260  38.500   3.876  1.00  0.00    -0.508 OA
ATOM     24  H   UNL     1       3.320  38.450   2.864  1.00  0.00     0.293 HD
ENDBRANCH  11  23
ENDBRANCH   1   2
BRANCH   1  25
ATOM     25  C   UNL     1      -3.374  35.639   8.832  1.00  0.00     0.339 C 
ATOM     26  C   UNL     1      -4.262  34.407   8.423  1.00  0.00     0.214 C 
ATOM     27  O   UNL     1      -3.884  36.338   9.962  1.00  0.00    -0.332 OA
ATOM     28  C   UNL     1      -5.107  33.904   9.617  1.00  0.00     0.180 C 
ATOM     29  C   UNL     1      -5.300  36.439   9.916  1.00  0.00     0.179 C 
ATOM     30  C   UNL     1      -5.937  35.059  10.238  1.00  0.00     0.177 C 
BRANCH  26  31
ATOM     31  O   UNL     1      -3.490  33.351   7.899  1.00  0.00    -0.384 OA
ATOM     32  H   UNL     1      -4.109  32.605   7.678  1.00  0.00     0.211 HD
ENDBRANCH  26  31
BRANCH  28  33
ATOM     33  O   UNL     1      -5.985  32.895   9.185  1.00  0.00    -0.387 OA
ATOM     34  H   UNL     1      -6.136  32.282   9.956  1.00  0.00     0.211 HD
ENDBRANCH  28  33
BRANCH  29  35
ATOM     35  C   UNL     1      -5.786  37.565  10.844  1.00  0.00     0.191 C 
BRANCH  35  36
ATOM     36  O   UNL     1      -5.115  37.545  12.078  1.00  0.00    -0.394 OA
ATOM     37  H   UNL     1      -5.740  37.144  12.738  1.00  0.00     0.210 HD
ENDBRANCH  35  36
ENDBRANCH  29  35
BRANCH  30  38
ATOM     38  O   UNL     1      -6.087  34.855  11.621  1.00  0.00    -0.387 OA
ATOM     39  H   UNL     1      -6.944  35.275  11.901  1.00  0.00     0.211 HD
ENDBRANCH  30  38
ENDBRANCH   1  25
TORSDOF 11
ENDMDL
MODEL 3
REMARK VINA RESULT:    -5.370      3.232      8.198
REMARK INTER + INTRA:          -9.216
REMARK INTER:                  -7.781
REMARK INTRA:                  -1.434
REMARK UNBOUND:                -1.491
REMARK SMILES O=c1c(O[C@H]2O[C@H](CO)[C@H](O)[C@@H](O)[C@@H]2O)c(-c2ccc(O)cc2)oc2cc(O)cc(O)c12
REMARK SMILES IDX 4 1 3 2 16 3 24 4 2 5 25 6 1 7 32 8 26 9 30 10 27 11 29 12
REMARK SMILES IDX 17 13 18 14 19 15 20 16 23 17 22 18 21 19 31 21 28 23 5 25
REMARK SMILES IDX 14 26 6 27 12 28 7 29 10 30 15 31 13 33 8 35 9 36 11 38
REMARK H PARENT 21 20 31 22 28 24 15 32 13 34 9 37 11 39
REMARK Flexibility Score: inf
ROOT
ATOM      1  O   UNL     1       1.498  39.272   4.475  1.00  0.00    -0.454 OA
ENDROOT
BRANCH   1   2
ATOM      2  C   UNL     1       2.498  38.848   5.370  1.00  0.00     0.214 A 
ATOM      3  C   UNL     1       2.237  37.773   6.269  1.00  0.00     0.180 A 
ATOM      4  O   UNL     1       3.141  37.489   7.205  1.00  0.00    -0.452 OA
ATOM      5  C   UNL     1       3.788  39.431   5.392  1.00  0.00     0.239 A 
ATOM      6  C   UNL     1       4.312  38.094   7.325  1.00  0.00     0.146 A 
ATOM      7  O   UNL     1       4.138  40.223   4.479  1.00  0.00    -0.285 OA
ATOM      8  C   UNL     1       4.703  39.085   6.405  1.00  0.00     0.111 A 
ATOM      9  C   UNL     1       5.175  37.707   8.357  1.00  0.00     0.094 A 
ATOM     10  C   UNL     1       5.989  39.667   6.524  1.00  0.00     0.134 A 
ATOM     11  C   UNL     1       6.440  38.290   8.476  1.00  0.00     0.123 A 
ATOM     12  C   UNL     1       6.843  39.265   7.563  1.00  0.00     0.093 A 
BRANCH   3  13
ATOM     13  C   UNL     1       1.037  36.857   6.217  1.00  0.00     0.021 A 
ATOM     14  C   UNL     1       1.033  35.563   5.640  1.00  0.00     0.016 A 
ATOM     15  C   UNL     1      -0.101  34.744   5.720  1.00  0.00     0.047 A 
ATOM     16  C   UNL     1      -1.254  35.187   6.363  1.00  0.00     0.115 A 
ATOM     17  C   UNL     1      -0.157  37.296   6.837  1.00  0.00     0.016 A 
ATOM     18  C   UNL     1      -1.285  36.475   6.906  1.00  0.00     0.047 A 
BRANCH  16  19
ATOM     19  O   UNL     1      -2.345  34.334   6.493  1.00  0.00    -0.508 OA
ATOM     20  H   UNL     1      -3.294  34.660   6.341  1.00  0.00     0.293 HD
ENDBRANCH  16  19
ENDBRANCH   3  13
BRANCH  10  21
ATOM     21  O   UNL     1       6.427  40.636   5.619  1.00  0.00    -0.507 OA
ATOM     22  H   UNL     1       5.791  41.302   5.194  1.00  0.00     0.293 HD
ENDBRANCH  10  21
BRANCH  11  23
ATOM     23  O   UNL     1       7.306  37.901   9.500  1.00  0.00    -0.508 OA
ATOM     24  H   UNL     1       8.308  38.048   9.430  1.00  0.00     0.293 HD
ENDBRANCH  11  23
ENDBRANCH   1   2
BRANCH   1  25
ATOM     25  C   UNL     1       0.647  40.428   4.568  1.00  0.00     0.339 C 
ATOM     26  C   UNL     1       0.422  40.871   6.061  1.00  0.00     0.214 C 
ATOM     27  O   UNL     1      -0.568  40.140   3.886  1.00  0.00    -0.332 OA
ATOM     28  C   UNL     1      -1.004  41.435   6.269  1.00  0.00     0.180 C 
ATOM     29  C   UNL     1      -1.483  39.450   4.725  1.00  0.00     0.179 C 
ATOM     30  C   UNL     1      -2.077  40.429   5.774  1.00  0.00     0.177 C 
BRANCH  26  31
ATOM     31  O   UNL     1       1.380  41.814   6.481  1.00  0.00    -0.384 OA
ATOM     32  H   UNL     1       2.171  41.312   6.815  1.00  0.00     0.211 HD
ENDBRANCH  26  31
BRANCH  28  33
ATOM     33  O   UNL     1      -1.217  41.692   7.634  1.00  0.00    -0.387 OA
ATOM     34  H   UNL     1      -0.368  42.062   8.003  1.00  0.00     0.211 HD
ENDBRANCH  28  33
BRANCH  29  35
ATOM     35  C   UNL     1      -2.555  38.743   3.878  1.00  0.00     0.191 C 
BRANCH  35  36
ATOM     36  O   UNL     1      -3.584  38.218   4.677  1.00  0.00    -0.394 OA
ATOM     37  H   UNL     1      -4.159  38.983   4.943  1.00  0.00     0.210 HD
ENDBRANCH  35  36
ENDBRANCH  29  35
BRANCH  30  38
ATOM     38  O   UNL     1      -3.195  41.124   5.278  1.00  0.00    -0.387 OA
ATOM     39  H   UNL     1      -2.866  41.942   4.817  1.00  0.00     0.211 HD
ENDBRANCH  30  38
ENDBRANCH   1  25
TORSDOF 11
ENDMDL
MODEL 4
REMARK VINA RESULT:    -5.355      2.526      7.206
REMARK INTER + INTRA:          -9.194
REMARK INTER:                  -7.586
REMARK INTRA:                  -1.608
REMARK UNBOUND:                -1.491
REMARK SMILES O=c1c(O[C@H]2O[C@H](CO)[C@H](O)[C@@H](O)[C@@H]2O)c(-c2ccc(O)cc2)oc2cc(O)cc(O)c12
REMARK SMILES IDX 4 1 3 2 16 3 24 4 2 5 25 6 1 7 32 8 26 9 30 10 27 11 29 12
REMARK SMILES IDX 17 13 18 14 19 15 20 16 23 17 22 18 21 19 31 21 28 23 5 25
REMARK SMILES IDX 14 26 6 27 12 28 7 29 10 30 15 31 13 33 8 35 9 36 11 38
REMARK H PARENT 21 20 31 22 28 24 15 32 13 34 9 37 11 39
REMARK Flexibility Score: inf
ROOT
ATOM      1  O   UNL     1      -3.804  36.386   7.838  1.00  0.00    -0.454 OA
ENDROOT
BRANCH   1   2
ATOM      2  C   UNL     1      -2.546  36.847   7.408  1.00  0.00     0.214 A 
ATOM      3  C   UNL     1      -2.206  38.223   7.555  1.00  0.00     0.180 A 
ATOM      4  O   UNL     1      -1.075  38.664   7.006  1.00  0.00    -0.452 OA
ATOM      5  C   UNL     1      -1.572  35.979   6.858  1.00  0.00     0.239 A 
ATOM      6  C   UNL     1      -0.195  37.897   6.383  1.00  0.00     0.146 A 
ATOM      7  O   UNL     1      -1.735  34.733   6.910  1.00  0.00    -0.285 OA
ATOM      8  C   UNL     1      -0.392  36.506   6.297  1.00  0.00     0.111 A 
ATOM      9  C   UNL     1       0.956  38.483   5.843  1.00  0.00     0.094 A 
ATOM     10  C   UNL     1       0.600  35.706   5.679  1.00  0.00     0.134 A 
ATOM     11  C   UNL     1       1.929  37.691   5.227  1.00  0.00     0.123 A 
ATOM     12  C   UNL     1       1.750  36.309   5.146  1.00  0.00     0.093 A 
BRANCH   3  13
ATOM     13  C   UNL     1      -2.987  39.241   8.352  1.00  0.00     0.021 A 
ATOM     14  C   UNL     1      -3.484  39.032   9.662  1.00  0.00     0.016 A 
ATOM     15  C   UNL     1      -4.118  40.067  10.364  1.00  0.00     0.047 A 
ATOM     16  C   UNL     1      -4.282  41.323   9.784  1.00  0.00     0.115 A 
ATOM     17  C   UNL     1      -3.195  40.516   7.773  1.00  0.00     0.016 A 
ATOM     18  C   UNL     1      -3.835  41.539   8.477  1.00  0.00     0.047 A 
BRANCH  16  19
ATOM     19  O   UNL     1      -4.852  42.355  10.521  1.00  0.00    -0.508 OA
ATOM     20  H   UNL     1      -5.537  42.983  10.113  1.00  0.00     0.293 HD
ENDBRANCH  16  19
ENDBRANCH   3  13
BRANCH  10  21
ATOM     21  O   UNL     1       0.456  34.319   5.594  1.00  0.00    -0.507 OA
ATOM     22  H   UNL     1       1.189  33.724   5.223  1.00  0.00     0.293 HD
ENDBRANCH  10  21
BRANCH  11  23
ATOM     23  O   UNL     1       3.082  38.271   4.694  1.00  0.00    -0.508 OA
ATOM     24  H   UNL     1       3.430  38.010   3.777  1.00  0.00     0.293 HD
ENDBRANCH  11  23
ENDBRANCH   1   2
BRANCH   1  25
ATOM     25  C   UNL     1      -4.991  36.165   7.056  1.00  0.00     0.339 C 
ATOM     26  C   UNL     1      -4.859  36.771   5.610  1.00  0.00     0.214 C 
ATOM     27  O   UNL     1      -6.100  36.689   7.777  1.00  0.00    -0.332 OA
ATOM     28  C   UNL     1      -6.216  37.318   5.106  1.00  0.00     0.180 C 
ATOM     29  C   UNL     1      -6.258  38.082   7.549  1.00  0.00     0.179 C 
ATOM     30  C   UNL     1      -6.823  38.321   6.123  1.00  0.00     0.177 C 
BRANCH  26  31
ATOM     31  O   UNL     1      -4.344  35.836   4.692  1.00  0.00    -0.384 OA
ATOM     32  H   UNL     1      -3.978  36.342   3.918  1.00  0.00     0.211 HD
ENDBRANCH  26  31
BRANCH  28  33
ATOM     33  O   UNL     1      -6.036  37.971   3.875  1.00  0.00    -0.387 OA
ATOM     34  H   UNL     1      -6.774  37.679   3.273  1.00  0.00     0.211 HD
ENDBRANCH  28  33
BRANCH  29  35
ATOM     35  C   UNL     1      -7.120  38.710   8.658  1.00  0.00     0.191 C 
BRANCH  35  36
ATOM     36  O   UNL     1      -7.367  40.072   8.413  1.00  0.00    -0.394 OA
ATOM     37  H   UNL     1      -8.094  40.346   9.032  1.00  0.00     0.210 HD
ENDBRANCH  35  36
ENDBRANCH  29  35
BRANCH  30  38
ATOM     38  O   UNL     1      -8.228  38.248   6.090  1.00  0.00    -0.387 OA
ATOM     39  H   UNL     1      -8.567  39.079   5.662  1.00  0.00     0.211 HD
ENDBRANCH  30  38
ENDBRANCH   1  25
TORSDOF 11
ENDMDL
MODEL 5
REMARK VINA RESULT:    -5.344      3.060      6.605
REMARK INTER + INTRA:          -9.178
REMARK INTER:                  -7.785
REMARK INTRA:                  -1.393
REMARK UNBOUND:                -1.491
REMARK SMILES O=c1c(O[C@H]2O[C@H](CO)[C@H](O)[C@@H](O)[C@@H]2O)c(-c2ccc(O)cc2)oc2cc(O)cc(O)c12
REMARK SMILES IDX 4 1 3 2 16 3 24 4 2 5 25 6 1 7 32 8 26 9 30 10 27 11 29 12
REMARK SMILES IDX 17 13 18 14 19 15 20 16 23 17 22 18 21 19 31 21 28 23 5 25
REMARK SMILES IDX 14 26 6 27 12 28 7 29 10 30 15 31 13 33 8 35 9 36 11 38
REMARK H PARENT 21 20 31 22 28 24 15 32 13 34 9 37 11 39
REMARK Flexibility Score: inf
ROOT
ATOM      1  O   UNL     1      -3.672  37.701   9.774  1.00  0.00    -0.454 OA
ENDROOT
BRANCH   1   2
ATOM      2  C   UNL     1      -3.989  39.073   9.803  1.00  0.00     0.214 A 
ATOM      3  C   UNL     1      -4.904  39.570  10.775  1.00  0.00     0.180 A 
ATOM      4  O   UNL     1      -5.302  40.838  10.688  1.00  0.00    -0.452 OA
ATOM      5  C   UNL     1      -3.399  40.002   8.912  1.00  0.00     0.239 A 
ATOM      6  C   UNL     1      -4.855  41.705   9.794  1.00  0.00     0.146 A 
ATOM      7  O   UNL     1      -2.430  39.656   8.189  1.00  0.00    -0.285 OA
ATOM      8  C   UNL     1      -3.861  41.332   8.871  1.00  0.00     0.111 A 
ATOM      9  C   UNL     1      -5.358  43.011   9.803  1.00  0.00     0.094 A 
ATOM     10  C   UNL     1      -3.359  42.302   7.969  1.00  0.00     0.134 A 
ATOM     11  C   UNL     1      -4.866  43.964   8.906  1.00  0.00     0.123 A 
ATOM     12  C   UNL     1      -3.871  43.608   7.994  1.00  0.00     0.093 A 
BRANCH   3  13
ATOM     13  C   UNL     1      -5.424  38.800  11.966  1.00  0.00     0.021 A 
ATOM     14  C   UNL     1      -4.614  38.095  12.889  1.00  0.00     0.016 A 
ATOM     15  C   UNL     1      -5.174  37.486  14.020  1.00  0.00     0.047 A 
ATOM     16  C   UNL     1      -6.545  37.552  14.257  1.00  0.00     0.115 A 
ATOM     17  C   UNL     1      -6.818  38.826  12.212  1.00  0.00     0.016 A 
ATOM     18  C   UNL     1      -7.369  38.209  13.338  1.00  0.00     0.047 A 
BRANCH  16  19
ATOM     19  O   UNL     1      -7.074  37.001  15.419  1.00  0.00    -0.508 OA
ATOM     20  H   UNL     1      -7.261  36.007  15.496  1.00  0.00     0.293 HD
ENDBRANCH  16  19
ENDBRANCH   3  13
BRANCH  10  21
ATOM     21  O   UNL     1      -2.354  41.982   7.053  1.00  0.00    -0.507 OA
ATOM     22  H   UNL     1      -2.478  42.103   6.054  1.00  0.00     0.293 HD
ENDBRANCH  10  21
BRANCH  11  23
ATOM     23  O   UNL     1      -5.360  45.270   8.917  1.00  0.00    -0.508 OA
ATOM     24  H   UNL     1      -4.746  46.066   9.056  1.00  0.00     0.293 HD
ENDBRANCH  11  23
ENDBRANCH   1   2
BRANCH   1  25
ATOM     25  C   UNL     1      -4.382  36.633   9.124  1.00  0.00     0.339 C 
ATOM     26  C   UNL     1      -4.535  35.378  10.061  1.00  0.00     0.214 C 
ATOM     27  O   UNL     1      -3.714  36.335   7.904  1.00  0.00    -0.332 OA
ATOM     28  C   UNL     1      -4.466  34.062   9.250  1.00  0.00     0.180 C 
ATOM     29  C   UNL     1      -2.633  35.438   8.108  1.00  0.00     0.179 C 
ATOM     30  C   UNL     1      -3.178  34.010   8.384  1.00  0.00     0.177 C 
BRANCH  26  31
ATOM     31  O   UNL     1      -5.728  35.421  10.809  1.00  0.00    -0.384 OA
ATOM     32  H   UNL     1      -6.401  35.924  10.277  1.00  0.00     0.211 HD
ENDBRANCH  26  31
BRANCH  28  33
ATOM     33  O   UNL     1      -4.469  32.964  10.127  1.00  0.00    -0.387 OA
ATOM     34  H   UNL     1      -3.803  32.307   9.783  1.00  0.00     0.211 HD
ENDBRANCH  28  33
BRANCH  29  35
ATOM     35  C   UNL     1      -1.657  35.497   6.921  1.00  0.00     0.191 C 
BRANCH  35  36
ATOM     36  O   UNL     1      -0.835  34.358   6.868  1.00  0.00    -0.394 OA
ATOM     37  H   UNL     1      -1.149  33.814   6.098  1.00  0.00     0.210 HD
ENDBRANCH  35  36
ENDBRANCH  29  35
BRANCH  30  38
ATOM     38  O   UNL     1      -3.426  33.299   7.197  1.00  0.00    -0.387 OA
ATOM     39  H   UNL     1      -2.837  33.674   6.488  1.00  0.00     0.211 HD
ENDBRANCH  30  38
ENDBRANCH   1  25
TORSDOF 11
ENDMDL
MODEL 6
REMARK VINA RESULT:    -5.325      2.151      3.768
REMARK INTER + INTRA:          -9.150
REMARK INTER:                  -7.656
REMARK INTRA:                  -1.494
REMARK UNBOUND:                -1.491
REMARK SMILES O=c1c(O[C@H]2O[C@H](CO)[C@H](O)[C@@H](O)[C@@H]2O)c(-c2ccc(O)cc2)oc2cc(O)cc(O)c12
REMARK SMILES IDX 4 1 3 2 16 3 24 4 2 5 25 6 1 7 32 8 26 9 30 10 27 11 29 12
REMARK SMILES IDX 17 13 18 14 19 15 20 16 23 17 22 18 21 19 31 21 28 23 5 25
REMARK SMILES IDX 14 26 6 27 12 28 7 29 10 30 15 31 13 33 8 35 9 36 11 38
REMARK H PARENT 21 20 31 22 28 24 15 32 13 34 9 37 11 39
REMARK Flexibility Score: inf
ROOT
ATOM      1  O   UNL     1      -3.254  38.207   8.976  1.00  0.00    -0.454 OA
ENDROOT
BRANCH   1   2
ATOM      2  C   UNL     1      -3.557  39.562   8.748  1.00  0.00     0.214 A 
ATOM      3  C   UNL     1      -2.786  40.315   7.816  1.00  0.00     0.180 A 
ATOM      4  O   UNL     1      -2.992  41.629   7.729  1.00  0.00    -0.452 OA
ATOM      5  C   UNL     1      -4.637  40.212   9.392  1.00  0.00     0.239 A 
ATOM      6  C   UNL     1      -3.920  42.288   8.403  1.00  0.00     0.146 A 
ATOM      7  O   UNL     1      -5.477  39.543  10.047  1.00  0.00    -0.285 OA
ATOM      8  C   UNL     1      -4.806  41.604   9.256  1.00  0.00     0.111 A 
ATOM      9  C   UNL     1      -4.034  43.672   8.228  1.00  0.00     0.094 A 
ATOM     10  C   UNL     1      -5.829  42.331   9.914  1.00  0.00     0.134 A 
ATOM     11  C   UNL     1      -5.039  44.387   8.885  1.00  0.00     0.123 A 
ATOM     12  C   UNL     1      -5.931  43.718   9.724  1.00  0.00     0.093 A 
BRANCH   3  13
ATOM     13  C   UNL     1      -1.781  39.744   6.844  1.00  0.00     0.021 A 
ATOM     14  C   UNL     1      -0.439  39.422   7.164  1.00  0.00     0.016 A 
ATOM     15  C   UNL     1       0.398  38.808   6.223  1.00  0.00     0.047 A 
ATOM     16  C   UNL     1      -0.069  38.507   4.946  1.00  0.00     0.115 A 
ATOM     17  C   UNL     1      -2.222  39.457   5.529  1.00  0.00     0.016 A 
ATOM     18  C   UNL     1      -1.378  38.851   4.595  1.00  0.00     0.047 A 
BRANCH  16  19
ATOM     19  O   UNL     1       0.754  37.835   4.049  1.00  0.00    -0.508 OA
ATOM     20  H   UNL     1       1.340  37.062   4.344  1.00  0.00     0.293 HD
ENDBRANCH  16  19
ENDBRANCH   3  13
BRANCH  10  21
ATOM     21  O   UNL     1      -6.745  41.689  10.750  1.00  0.00    -0.507 OA
ATOM     22  H   UNL     1      -6.479  41.316  11.654  1.00  0.00     0.293 HD
ENDBRANCH  10  21
BRANCH  11  23
ATOM     23  O   UNL     1      -5.160  45.767   8.706  1.00  0.00    -0.508 OA
ATOM     24  H   UNL     1      -5.028  46.414   9.476  1.00  0.00     0.293 HD
ENDBRANCH  11  23
ENDBRANCH   1   2
BRANCH   1  25
ATOM     25  C   UNL     1      -4.014  37.045   8.600  1.00  0.00     0.339 C 
ATOM     26  C   UNL     1      -4.092  35.994   9.769  1.00  0.00     0.214 C 
ATOM     27  O   UNL     1      -3.446  36.510   7.410  1.00  0.00    -0.332 OA
ATOM     28  C   UNL     1      -4.088  34.547   9.222  1.00  0.00     0.180 C 
ATOM     29  C   UNL     1      -2.352  35.651   7.697  1.00  0.00     0.179 C 
ATOM     30  C   UNL     1      -2.874  34.311   8.283  1.00  0.00     0.177 C 
BRANCH  26  31
ATOM     31  O   UNL     1      -5.220  36.198  10.586  1.00  0.00    -0.384 OA
ATOM     32  H   UNL     1      -4.968  36.853  11.292  1.00  0.00     0.211 HD
ENDBRANCH  26  31
BRANCH  28  33
ATOM     33  O   UNL     1      -4.020  33.637  10.290  1.00  0.00    -0.387 OA
ATOM     34  H   UNL     1      -3.198  33.849  10.810  1.00  0.00     0.211 HD
ENDBRANCH  28  33
BRANCH  29  35
ATOM     35  C   UNL     1      -1.475  35.467   6.447  1.00  0.00     0.191 C 
BRANCH  35  36
ATOM     36  O   UNL     1      -0.602  34.374   6.582  1.00  0.00    -0.394 OA
ATOM     37  H   UNL     1      -1.114  33.565   6.317  1.00  0.00     0.210 HD
ENDBRANCH  35  36
ENDBRANCH  29  35
BRANCH  30  38
ATOM     38  O   UNL     1      -3.216  33.390   7.277  1.00  0.00    -0.387 OA
ATOM     39  H   UNL     1      -4.178  33.161   7.387  1.00  0.00     0.211 HD
ENDBRANCH  30  38
ENDBRANCH   1  25
TORSDOF 11
ENDMDL
MODEL 7
REMARK VINA RESULT:    -5.309      4.397      7.048
REMARK INTER + INTRA:          -9.128
REMARK INTER:                  -7.452
REMARK INTRA:                  -1.676
REMARK UNBOUND:                -1.491
REMARK SMILES O=c1c(O[C@H]2O[C@H](CO)[C@H](O)[C@@H](O)[C@@H]2O)c(-c2ccc(O)cc2)oc2cc(O)cc(O)c12
REMARK SMILES IDX 4 1 3 2 16 3 24 4 2 5 25 6 1 7 32 8 26 9 30 10 27 11 29 12
REMARK SMILES IDX 17 13 18 14 19 15 20 16 23 17 22 18 21 19 31 21 28 23 5 25
REMARK SMILES IDX 14 26 6 27 12 28 7 29 10 30 15 31 13 33 8 35 9 36 11 38
REMARK H PARENT 21 20 31 22 28 24 15 32 13 34 9 37 11 39
REMARK Flexibility Score: inf
ROOT
ATOM      1  O   UNL     1      -6.571  37.155  11.063  1.00  0.00    -0.454 OA
ENDROOT
BRANCH   1   2
ATOM      2  C   UNL     1      -6.224  38.394  10.492  1.00  0.00     0.214 A 
ATOM      3  C   UNL     1      -5.245  38.450   9.458  1.00  0.00     0.180 A 
ATOM      4  O   UNL     1      -4.825  39.643   9.039  1.00  0.00    -0.452 OA
ATOM      5  C   UNL     1      -6.843  39.605  10.884  1.00  0.00     0.239 A 
ATOM      6  C   UNL     1      -5.303  40.800   9.468  1.00  0.00     0.146 A 
ATOM      7  O   UNL     1      -7.859  39.584  11.625  1.00  0.00    -0.285 OA
ATOM      8  C   UNL     1      -6.356  40.836  10.401  1.00  0.00     0.111 A 
ATOM      9  C   UNL     1      -4.773  41.988   8.953  1.00  0.00     0.094 A 
ATOM     10  C   UNL     1      -6.887  42.090  10.792  1.00  0.00     0.134 A 
ATOM     11  C   UNL     1      -5.294  43.224   9.347  1.00  0.00     0.123 A 
ATOM     12  C   UNL     1      -6.346  43.272  10.263  1.00  0.00     0.093 A 
BRANCH   3  13
ATOM     13  C   UNL     1      -4.675  37.260   8.724  1.00  0.00     0.021 A 
ATOM     14  C   UNL     1      -3.293  36.970   8.605  1.00  0.00     0.016 A 
ATOM     15  C   UNL     1      -2.856  35.791   7.985  1.00  0.00     0.047 A 
ATOM     16  C   UNL     1      -3.772  34.880   7.464  1.00  0.00     0.115 A 
ATOM     17  C   UNL     1      -5.584  36.334   8.158  1.00  0.00     0.016 A 
ATOM     18  C   UNL     1      -5.139  35.165   7.536  1.00  0.00     0.047 A 
BRANCH  16  19
ATOM     19  O   UNL     1      -3.322  33.685   6.914  1.00  0.00    -0.508 OA
ATOM     20  H   UNL     1      -3.967  32.994   6.547  1.00  0.00     0.293 HD
ENDBRANCH  16  19
ENDBRANCH   3  13
BRANCH  10  21
ATOM     21  O   UNL     1      -7.949  42.172  11.696  1.00  0.00    -0.507 OA
ATOM     22  H   UNL     1      -8.119  41.455  12.393  1.00  0.00     0.293 HD
ENDBRANCH  10  21
BRANCH  11  23
ATOM     23  O   UNL     1      -4.773  44.411   8.830  1.00  0.00    -0.508 OA
ATOM     24  H   UNL     1      -5.342  45.040   8.272  1.00  0.00     0.293 HD
ENDBRANCH  11  23
ENDBRANCH   1   2
BRANCH   1  25
ATOM     25  C   UNL     1      -6.166  36.611  12.331  1.00  0.00     0.339 C 
ATOM     26  C   UNL     1      -5.124  37.537  13.059  1.00  0.00     0.214 C 
ATOM     27  O   UNL     1      -5.678  35.293  12.111  1.00  0.00    -0.332 OA
ATOM     28  C   UNL     1      -4.094  36.702  13.858  1.00  0.00     0.180 C 
ATOM     29  C   UNL     1      -4.311  35.302  11.725  1.00  0.00     0.179 C 
ATOM     30  C   UNL     1      -3.419  35.638  12.952  1.00  0.00     0.177 C 
BRANCH  26  31
ATOM     31  O   UNL     1      -5.750  38.470  13.908  1.00  0.00    -0.384 OA
ATOM     32  H   UNL     1      -5.092  38.734  14.606  1.00  0.00     0.211 HD
ENDBRANCH  26  31
BRANCH  28  33
ATOM     33  O   UNL     1      -3.102  37.548  14.382  1.00  0.00    -0.387 OA
ATOM     34  H   UNL     1      -3.443  38.482  14.318  1.00  0.00     0.211 HD
ENDBRANCH  28  33
BRANCH  29  35
ATOM     35  C   UNL     1      -3.938  33.973  11.048  1.00  0.00     0.191 C 
BRANCH  35  36
ATOM     36  O   UNL     1      -2.547  33.840  10.898  1.00  0.00    -0.394 OA
ATOM     37  H   UNL     1      -2.227  34.667  10.449  1.00  0.00     0.210 HD
ENDBRANCH  35  36
ENDBRANCH  29  35
BRANCH  30  38
ATOM     38  O   UNL     1      -3.105  34.494  13.707  1.00  0.00    -0.387 OA
ATOM     39  H   UNL     1      -2.308  34.065  13.294  1.00  0.00     0.211 HD
ENDBRANCH  30  38
ENDBRANCH   1  25
TORSDOF 11
ENDMDL
MODEL 8
REMARK VINA RESULT:    -5.271      2.002      5.024
REMARK INTER + INTRA:          -9.073
REMARK INTER:                  -7.331
REMARK INTRA:                  -1.742
REMARK UNBOUND:                -1.491
REMARK SMILES O=c1c(O[C@H]2O[C@H](CO)[C@H](O)[C@@H](O)[C@@H]2O)c(-c2ccc(O)cc2)oc2cc(O)cc(O)c12
REMARK SMILES IDX 4 1 3 2 16 3 24 4 2 5 25 6 1 7 32 8 26 9 30 10 27 11 29 12
REMARK SMILES IDX 17 13 18 14 19 15 20 16 23 17 22 18 21 19 31 21 28 23 5 25
REMARK SMILES IDX 14 26 6 27 12 28 7 29 10 30 15 31 13 33 8 35 9 36 11 38
REMARK H PARENT 21 20 31 22 28 24 15 32 13 34 9 37 11 39
REMARK Flexibility Score: inf
ROOT
ATOM      1  O   UNL     1      -2.786  39.585   6.956  1.00  0.00    -0.454 OA
ENDROOT
BRANCH   1   2
ATOM      2  C   UNL     1      -3.789  39.856   7.906  1.00  0.00     0.214 A 
ATOM      3  C   UNL     1      -4.620  38.801   8.382  1.00  0.00     0.180 A 
ATOM      4  O   UNL     1      -5.656  39.106   9.162  1.00  0.00    -0.452 OA
ATOM      5  C   UNL     1      -3.988  41.150   8.445  1.00  0.00     0.239 A 
ATOM      6  C   UNL     1      -5.938  40.325   9.593  1.00  0.00     0.146 A 
ATOM      7  O   UNL     1      -3.148  42.061   8.228  1.00  0.00    -0.285 OA
ATOM      8  C   UNL     1      -5.100  41.409   9.270  1.00  0.00     0.111 A 
ATOM      9  C   UNL     1      -7.061  40.516  10.406  1.00  0.00     0.094 A 
ATOM     10  C   UNL     1      -5.396  42.689   9.799  1.00  0.00     0.134 A 
ATOM     11  C   UNL     1      -7.353  41.783  10.920  1.00  0.00     0.123 A 
ATOM     12  C   UNL     1      -6.523  42.863  10.616  1.00  0.00     0.093 A 
BRANCH   3  13
ATOM     13  C   UNL     1      -4.395  37.328   8.138  1.00  0.00     0.021 A 
ATOM     14  C   UNL     1      -4.894  36.607   7.025  1.00  0.00     0.016 A 
ATOM     15  C   UNL     1      -4.556  35.261   6.830  1.00  0.00     0.047 A 
ATOM     16  C   UNL     1      -3.727  34.598   7.732  1.00  0.00     0.115 A 
ATOM     17  C   UNL     1      -3.580  36.622   9.057  1.00  0.00     0.016 A 
ATOM     18  C   UNL     1      -3.255  35.279   8.857  1.00  0.00     0.047 A 
BRANCH  16  19
ATOM     19  O   UNL     1      -3.349  33.283   7.484  1.00  0.00    -0.508 OA
ATOM     20  H   UNL     1      -2.794  32.756   8.151  1.00  0.00     0.293 HD
ENDBRANCH  16  19
ENDBRANCH   3  13
BRANCH  10  21
ATOM     21  O   UNL     1      -4.577  43.788   9.525  1.00  0.00    -0.507 OA
ATOM     22  H   UNL     1      -4.847  44.733   9.770  1.00  0.00     0.293 HD
ENDBRANCH  10  21
BRANCH  11  23
ATOM     23  O   UNL     1      -8.468  41.976  11.738  1.00  0.00    -0.508 OA
ATOM     24  H   UNL     1      -8.900  41.204  12.235  1.00  0.00     0.293 HD
ENDBRANCH  11  23
ENDBRANCH   1   2
BRANCH   1  25
ATOM     25  C   UNL     1      -1.381  39.370   7.176  1.00  0.00     0.339 C 
ATOM     26  C   UNL     1      -0.498  40.251   6.217  1.00  0.00     0.214 C 
ATOM     27  O   UNL     1      -1.121  37.978   7.046  1.00  0.00    -0.332 OA
ATOM     28  C   UNL     1       0.793  39.506   5.802  1.00  0.00     0.180 C 
ATOM     29  C   UNL     1      -0.923  37.610   5.688  1.00  0.00     0.179 C 
ATOM     30  C   UNL     1       0.463  38.113   5.202  1.00  0.00     0.177 C 
BRANCH  26  31
ATOM     31  O   UNL     1      -0.175  41.495   6.792  1.00  0.00    -0.384 OA
ATOM     32  H   UNL     1      -0.554  41.511   7.711  1.00  0.00     0.211 HD
ENDBRANCH  26  31
BRANCH  28  33
ATOM     33  O   UNL     1       1.489  40.261   4.843  1.00  0.00    -0.387 OA
ATOM     34  H   UNL     1       1.780  41.106   5.284  1.00  0.00     0.211 HD
ENDBRANCH  28  33
BRANCH  29  35
ATOM     35  C   UNL     1      -1.116  36.094   5.511  1.00  0.00     0.191 C 
BRANCH  35  36
ATOM     36  O   UNL     1      -0.547  35.372   6.574  1.00  0.00    -0.394 OA
ATOM     37  H   UNL     1       0.203  34.845   6.192  1.00  0.00     0.210 HD
ENDBRANCH  35  36
ENDBRANCH  29  35
BRANCH  30  38
ATOM     38  O   UNL     1       1.492  37.204   5.504  1.00  0.00    -0.387 OA
ATOM     39  H   UNL     1       2.236  37.360   4.862  1.00  0.00     0.211 HD
ENDBRANCH  30  38
ENDBRANCH   1  25
TORSDOF 11
ENDMDL
MODEL 9
REMARK VINA RESULT:    -5.086      2.529      6.796
REMARK INTER + INTRA:          -8.808
REMARK INTER:                  -7.783
REMARK INTRA:                  -1.025
REMARK UNBOUND:                -1.491
REMARK SMILES O=c1c(O[C@H]2O[C@H](CO)[C@H](O)[C@@H](O)[C@@H]2O)c(-c2ccc(O)cc2)oc2cc(O)cc(O)c12
REMARK SMILES IDX 4 1 3 2 16 3 24 4 2 5 25 6 1 7 32 8 26 9 30 10 27 11 29 12
REMARK SMILES IDX 17 13 18 14 19 15 20 16 23 17 22 18 21 19 31 21 28 23 5 25
REMARK SMILES IDX 14 26 6 27 12 28 7 29 10 30 15 31 13 33 8 35 9 36 11 38
REMARK H PARENT 21 20 31 22 28 24 15 32 13 34 9 37 11 39
REMARK Flexibility Score: inf
ROOT
ATOM      1  O   UNL     1      -3.078  37.422   6.281  1.00  0.00    -0.454 OA
ENDROOT
BRANCH   1   2
ATOM      2  C   UNL     1      -1.747  37.825   6.501  1.00  0.00     0.214 A 
ATOM      3  C   UNL     1      -1.479  39.025   7.220  1.00  0.00     0.180 A 
ATOM      4  O   UNL     1      -0.222  39.464   7.285  1.00  0.00    -0.452 OA
ATOM      5  C   UNL     1      -0.643  37.056   6.060  1.00  0.00     0.239 A 
ATOM      6  C   UNL     1       0.822  38.825   6.783  1.00  0.00     0.146 A 
ATOM      7  O   UNL     1      -0.821  35.891   5.621  1.00  0.00    -0.285 OA
ATOM      8  C   UNL     1       0.663  37.573   6.161  1.00  0.00     0.111 A 
ATOM      9  C   UNL     1       2.094  39.394   6.913  1.00  0.00     0.094 A 
ATOM     10  C   UNL     1       1.810  36.887   5.691  1.00  0.00     0.134 A 
ATOM     11  C   UNL     1       3.222  38.718   6.440  1.00  0.00     0.123 A 
ATOM     12  C   UNL     1       3.078  37.470   5.833  1.00  0.00     0.093 A 
BRANCH   3  13
ATOM     13  C   UNL     1      -2.495  39.832   7.993  1.00  0.00     0.021 A 
ATOM     14  C   UNL     1      -3.115  39.410   9.195  1.00  0.00     0.016 A 
ATOM     15  C   UNL     1      -3.977  40.263   9.898  1.00  0.00     0.047 A 
ATOM     16  C   UNL     1      -4.251  41.544   9.424  1.00  0.00     0.115 A 
ATOM     17  C   UNL     1      -2.815  41.126   7.516  1.00  0.00     0.016 A 
ATOM     18  C   UNL     1      -3.681  41.967   8.219  1.00  0.00     0.047 A 
BRANCH  16  19
ATOM     19  O   UNL     1      -5.055  42.399  10.170  1.00  0.00    -0.508 OA
ATOM     20  H   UNL     1      -4.701  43.280  10.529  1.00  0.00     0.293 HD
ENDBRANCH  16  19
ENDBRANCH   3  13
BRANCH  10  21
ATOM     21  O   UNL     1       1.701  35.630   5.090  1.00  0.00    -0.507 OA
ATOM     22  H   UNL     1       2.218  34.826   5.427  1.00  0.00     0.293 HD
ENDBRANCH  10  21
BRANCH  11  23
ATOM     23  O   UNL     1       4.493  39.279   6.575  1.00  0.00    -0.508 OA
ATOM     24  H   UNL     1       4.824  40.000   5.941  1.00  0.00     0.293 HD
ENDBRANCH  11  23
ENDBRANCH   1   2
BRANCH   1  25
ATOM     25  C   UNL     1      -3.639  36.101   6.370  1.00  0.00     0.339 C 
ATOM     26  C   UNL     1      -5.161  36.084   5.973  1.00  0.00     0.214 C 
ATOM     27  O   UNL     1      -3.402  35.607   7.683  1.00  0.00    -0.332 OA
ATOM     28  C   UNL     1      -5.947  35.049   6.813  1.00  0.00     0.180 C 
ATOM     29  C   UNL     1      -4.401  36.048   8.592  1.00  0.00     0.179 C 
ATOM     30  C   UNL     1      -5.726  35.282   8.331  1.00  0.00     0.177 C 
BRANCH  26  31
ATOM     31  O   UNL     1      -5.346  35.832   4.600  1.00  0.00    -0.384 OA
ATOM     32  H   UNL     1      -6.238  36.188   4.345  1.00  0.00     0.211 HD
ENDBRANCH  26  31
BRANCH  28  33
ATOM     33  O   UNL     1      -7.320  35.155   6.532  1.00  0.00    -0.387 OA
ATOM     34  H   UNL     1      -7.593  34.319   6.063  1.00  0.00     0.211 HD
ENDBRANCH  28  33
BRANCH  29  35
ATOM     35  C   UNL     1      -3.899  35.921  10.040  1.00  0.00     0.191 C 
BRANCH  35  36
ATOM     36  O   UNL     1      -3.057  34.808  10.201  1.00  0.00    -0.394 OA
ATOM     37  H   UNL     1      -2.124  35.150  10.177  1.00  0.00     0.210 HD
ENDBRANCH  35  36
ENDBRANCH  29  35
BRANCH  30  38
ATOM     38  O   UNL     1      -5.772  34.055   9.017  1.00  0.00    -0.387 OA
ATOM     39  H   UNL     1      -6.021  33.348   8.363  1.00  0.00     0.211 HD
ENDBRANCH  30  38
ENDBRANCH   1  25
TORSDOF 11
ENDMDL
