MODEL 1
REMARK VINA RESULT:    -3.712      0.000      0.000
REMARK INTER + INTRA:         -14.026
REMARK INTER:                  -9.789
REMARK INTRA:                  -4.237
REMARK UNBOUND:                -4.237
REMARK SMILES CCCCCCCCCCCCCCCCCCCCCCCCCCCCCC(=O)[O-]
REMARK SMILES IDX 16 1 17 2 18 3 19 4 20 5 21 6 22 7 23 8 24 9 25 10 26 11
REMARK SMILES IDX 27 12 28 13 29 14 30 15 31 16 32 17 15 18 14 19 13 20 12 21
REMARK SMILES IDX 11 22 10 23 9 24 8 25 7 26 6 27 5 28 4 29 3 30 2 31 1 32
REMARK H PARENT
REMARK Flexibility Score: inf
ROOT
ATOM      1  C   UNL     1     -26.350 -10.634  44.105  1.00  0.00     0.000 C 
ENDROOT
BRANCH   1   2
ATOM      2  C   UNL     1     -25.948 -11.903  44.877  1.00  0.00     0.000 C 
BRANCH   2   3
ATOM      3  C   UNL     1     -26.924 -13.067  44.643  1.00  0.00     0.000 C 
BRANCH   3   4
ATOM      4  C   UNL     1     -28.300 -12.596  44.140  1.00  0.00     0.000 C 
BRANCH   4   5
ATOM      5  C   UNL     1     -29.439 -13.532  44.573  1.00  0.00     0.000 C 
BRANCH   5   6
ATOM      6  C   UNL     1     -28.950 -14.685  45.467  1.00  0.00     0.000 C 
BRANCH   6   7
ATOM      7  C   UNL     1     -29.630 -14.702  46.845  1.00  0.00     0.000 C 
BRANCH   7   8
ATOM      8  C   UNL     1     -28.938 -15.655  47.836  1.00  0.00     0.000 C 
BRANCH   8   9
ATOM      9  C   UNL     1     -28.394 -14.918  49.070  1.00  0.00     0.000 C 
BRANCH   9  10
ATOM     10  C   UNL     1     -26.880 -15.107  49.247  1.00  0.00     0.000 C 
BRANCH  10  11
ATOM     11  C   UNL     1     -26.099 -14.195  48.288  1.00  0.00     0.000 C 
BRANCH  11  12
ATOM     12  C   UNL     1     -24.575 -14.314  48.465  1.00  0.00     0.000 C 
BRANCH  12  13
ATOM     13  C   UNL     1     -23.800 -13.856  47.218  1.00  0.00     0.006 C 
BRANCH  13  14
ATOM     14  C   UNL     1     -22.620 -12.941  47.571  1.00  0.00     0.053 C 
BRANCH  14  15
ATOM     15  C   UNL     1     -23.066 -11.695  48.272  1.00  0.00     0.041 C 
ATOM     16  O   UNL     1     -22.645 -11.434  49.430  1.00  0.00    -0.550 OA
ATOM     17  O   UNL     1     -23.955 -10.825  47.651  1.00  0.00    -0.550 OA
ENDBRANCH  14  15
ENDBRANCH  13  14
ENDBRANCH  12  13
ENDBRANCH  11  12
ENDBRANCH  10  11
ENDBRANCH   9  10
ENDBRANCH   8   9
ENDBRANCH   7   8
ENDBRANCH   6   7
ENDBRANCH   5   6
ENDBRANCH   4   5
ENDBRANCH   3   4
ENDBRANCH   2   3
ENDBRANCH   1   2
BRANCH   1  18
ATOM     18  C   UNL     1     -25.377 -10.293  42.963  1.00  0.00     0.000 C 
BRANCH  18  19
ATOM     19  C   UNL     1     -26.005  -9.527  41.783  1.00  0.00     0.000 C 
BRANCH  19  20
ATOM     20  C   UNL     1     -25.165  -9.503  40.491  1.00  0.00     0.000 C 
BRANCH  20  21
ATOM     21  C   UNL     1     -24.035 -10.547  40.427  1.00  0.00     0.000 C 
BRANCH  21  22
ATOM     22  C   UNL     1     -22.972 -10.223  39.368  1.00  0.00     0.000 C 
BRANCH  22  23
ATOM     23  C   UNL     1     -21.953 -11.367  39.252  1.00  0.00     0.000 C 
BRANCH  23  24
ATOM     24  C   UNL     1     -20.973 -11.407  40.444  1.00  0.00    -0.000 C 
BRANCH  24  25
ATOM     25  C   UNL     1     -20.944 -12.762  41.170  1.00  0.00    -0.000 C 
BRANCH  25  26
ATOM     26  C   UNL     1     -21.615 -13.886  40.362  1.00  0.00    -0.000 C 
BRANCH  26  27
ATOM     27  C   UNL     1     -23.002 -14.261  40.929  1.00  0.00    -0.000 C 
BRANCH  27  28
ATOM     28  C   UNL     1     -23.322 -13.602  42.282  1.00  0.00    -0.000 C 
BRANCH  28  29
ATOM     29  C   UNL     1     -23.650 -14.626  43.379  1.00  0.00    -0.000 C 
BRANCH  29  30
ATOM     30  C   UNL     1     -22.605 -15.752  43.486  1.00  0.00    -0.000 C 
BRANCH  30  31
ATOM     31  C   UNL     1     -21.663 -15.659  44.700  1.00  0.00    -0.003 C 
ATOM     32  C   UNL     1     -20.703 -14.471  44.631  1.00  0.00     0.004 C 
ENDBRANCH  30  31
ENDBRANCH  29  30
ENDBRANCH  28  29
ENDBRANCH  27  28
ENDBRANCH  26  27
ENDBRANCH  25  26
ENDBRANCH  24  25
ENDBRANCH  23  24
ENDBRANCH  22  23
ENDBRANCH  21  22
ENDBRANCH  20  21
ENDBRANCH  19  20
ENDBRANCH  18  19
ENDBRANCH   1  18
TORSDOF 28
ENDMDL
MODEL 2
REMARK VINA RESULT:    -3.608      1.426      2.013
REMARK INTER + INTRA:         -13.750
REMARK INTER:                 -10.402
REMARK INTRA:                  -3.348
REMARK UNBOUND:                -4.237
REMARK SMILES CCCCCCCCCCCCCCCCCCCCCCCCCCCCCC(=O)[O-]
REMARK SMILES IDX 16 1 17 2 18 3 19 4 20 5 21 6 22 7 23 8 24 9 25 10 26 11
REMARK SMILES IDX 27 12 28 13 29 14 30 15 31 16 32 17 15 18 14 19 13 20 12 21
REMARK SMILES IDX 11 22 10 23 9 24 8 25 7 26 6 27 5 28 4 29 3 30 2 31 1 32
REMARK H PARENT
REMARK Flexibility Score: inf
ROOT
ATOM      1  C   UNL     1     -26.386 -10.746  44.623  1.00  0.00     0.000 C 
ENDROOT
BRANCH   1   2
ATOM      2  C   UNL     1     -25.754 -12.144  44.503  1.00  0.00     0.000 C 
BRANCH   2   3
ATOM      3  C   UNL     1     -26.707 -13.261  44.960  1.00  0.00     0.000 C 
BRANCH   3   4
ATOM      4  C   UNL     1     -28.149 -13.049  44.468  1.00  0.00     0.000 C 
BRANCH   4   5
ATOM      5  C   UNL     1     -29.058 -14.251  44.768  1.00  0.00     0.000 C 
BRANCH   5   6
ATOM      6  C   UNL     1     -29.437 -14.350  46.256  1.00  0.00     0.000 C 
BRANCH   6   7
ATOM      7  C   UNL     1     -29.235 -15.760  46.831  1.00  0.00     0.000 C 
BRANCH   7   8
ATOM      8  C   UNL     1     -28.302 -15.772  48.055  1.00  0.00     0.000 C 
BRANCH   8   9
ATOM      9  C   UNL     1     -28.699 -14.719  49.102  1.00  0.00     0.000 C 
BRANCH   9  10
ATOM     10  C   UNL     1     -27.539 -13.777  49.456  1.00  0.00     0.000 C 
BRANCH  10  11
ATOM     11  C   UNL     1     -26.423 -13.863  48.404  1.00  0.00     0.000 C 
BRANCH  11  12
ATOM     12  C   UNL     1     -25.072 -13.345  48.927  1.00  0.00     0.000 C 
BRANCH  12  13
ATOM     13  C   UNL     1     -24.480 -12.240  48.036  1.00  0.00     0.006 C 
BRANCH  13  14
ATOM     14  C   UNL     1     -22.948 -12.296  47.982  1.00  0.00     0.053 C 
BRANCH  14  15
ATOM     15  C   UNL     1     -22.447 -13.676  47.684  1.00  0.00     0.041 C 
ATOM     16  O   UNL     1     -21.657 -14.250  48.480  1.00  0.00    -0.550 OA
ATOM     17  O   UNL     1     -22.845 -14.326  46.521  1.00  0.00    -0.550 OA
ENDBRANCH  14  15
ENDBRANCH  13  14
ENDBRANCH  12  13
ENDBRANCH  11  12
ENDBRANCH  10  11
ENDBRANCH   9  10
ENDBRANCH   8   9
ENDBRANCH   7   8
ENDBRANCH   6   7
ENDBRANCH   5   6
ENDBRANCH   4   5
ENDBRANCH   3   4
ENDBRANCH   2   3
ENDBRANCH   1   2
BRANCH   1  18
ATOM     18  C   UNL     1     -25.863  -9.759  43.565  1.00  0.00     0.000 C 
BRANCH  18  19
ATOM     19  C   UNL     1     -25.554 -10.386  42.191  1.00  0.00     0.000 C 
BRANCH  19  20
ATOM     20  C   UNL     1     -25.540  -9.401  41.006  1.00  0.00     0.000 C 
BRANCH  20  21
ATOM     21  C   UNL     1     -24.301  -9.490  40.096  1.00  0.00     0.000 C 
BRANCH  21  22
ATOM     22  C   UNL     1     -23.705 -10.902  40.023  1.00  0.00     0.000 C 
BRANCH  22  23
ATOM     23  C   UNL     1     -22.571 -10.961  38.988  1.00  0.00     0.000 C 
BRANCH  23  24
ATOM     24  C   UNL     1     -22.766 -12.099  37.963  1.00  0.00    -0.000 C 
BRANCH  24  25
ATOM     25  C   UNL     1     -23.960 -13.014  38.281  1.00  0.00    -0.000 C 
BRANCH  25  26
ATOM     26  C   UNL     1     -23.600 -14.147  39.257  1.00  0.00    -0.000 C 
BRANCH  26  27
ATOM     27  C   UNL     1     -22.439 -15.019  38.733  1.00  0.00    -0.000 C 
BRANCH  27  28
ATOM     28  C   UNL     1     -21.105 -14.788  39.464  1.00  0.00    -0.000 C 
BRANCH  28  29
ATOM     29  C   UNL     1     -21.292 -14.454  40.952  1.00  0.00    -0.000 C 
BRANCH  29  30
ATOM     30  C   UNL     1     -21.498 -15.703  41.830  1.00  0.00    -0.000 C 
BRANCH  30  31
ATOM     31  C   UNL     1     -22.328 -15.477  43.106  1.00  0.00    -0.003 C 
ATOM     32  C   UNL     1     -23.500 -14.517  42.903  1.00  0.00     0.004 C 
ENDBRANCH  30  31
ENDBRANCH  29  30
ENDBRANCH  28  29
ENDBRANCH  27  28
ENDBRANCH  26  27
ENDBRANCH  25  26
ENDBRANCH  24  25
ENDBRANCH  23  24
ENDBRANCH  22  23
ENDBRANCH  21  22
ENDBRANCH  20  21
ENDBRANCH  19  20
ENDBRANCH  18  19
ENDBRANCH   1  18
TORSDOF 28
ENDMDL
MODEL 3
REMARK VINA RESULT:    -3.527      2.953      9.110
REMARK INTER + INTRA:         -13.538
REMARK INTER:                 -10.068
REMARK INTRA:                  -3.469
REMARK UNBOUND:                -4.237
REMARK SMILES CCCCCCCCCCCCCCCCCCCCCCCCCCCCCC(=O)[O-]
REMARK SMILES IDX 16 1 17 2 18 3 19 4 20 5 21 6 22 7 23 8 24 9 25 10 26 11
REMARK SMILES IDX 27 12 28 13 29 14 30 15 31 16 32 17 15 18 14 19 13 20 12 21
REMARK SMILES IDX 11 22 10 23 9 24 8 25 7 26 6 27 5 28 4 29 3 30 2 31 1 32
REMARK H PARENT
REMARK Flexibility Score: inf
ROOT
ATOM      1  C   UNL     1     -26.216 -10.636  44.251  1.00  0.00     0.000 C 
ENDROOT
BRANCH   1   2
ATOM      2  C   UNL     1     -25.507 -10.725  42.887  1.00  0.00     0.000 C 
BRANCH   2   3
ATOM      3  C   UNL     1     -25.704  -9.458  42.039  1.00  0.00     0.000 C 
BRANCH   3   4
ATOM      4  C   UNL     1     -25.511  -9.715  40.535  1.00  0.00     0.000 C 
BRANCH   4   5
ATOM      5  C   UNL     1     -24.036  -9.661  40.111  1.00  0.00     0.000 C 
BRANCH   5   6
ATOM      6  C   UNL     1     -23.412 -11.060  39.958  1.00  0.00     0.000 C 
BRANCH   6   7
ATOM      7  C   UNL     1     -22.584 -11.207  38.672  1.00  0.00     0.000 C 
BRANCH   7   8
ATOM      8  C   UNL     1     -21.141 -11.667  38.944  1.00  0.00     0.000 C 
BRANCH   8   9
ATOM      9  C   UNL     1     -20.433 -10.779  39.981  1.00  0.00     0.000 C 
BRANCH   9  10
ATOM     10  C   UNL     1     -20.035 -11.556  41.245  1.00  0.00     0.000 C 
BRANCH  10  11
ATOM     11  C   UNL     1     -20.174 -13.070  41.023  1.00  0.00     0.000 C 
BRANCH  11  12
ATOM     12  C   UNL     1     -21.137 -13.731  42.024  1.00  0.00     0.000 C 
BRANCH  12  13
ATOM     13  C   UNL     1     -22.157 -14.656  41.338  1.00  0.00     0.006 C 
BRANCH  13  14
ATOM     14  C   UNL     1     -21.661 -15.157  39.976  1.00  0.00     0.053 C 
BRANCH  14  15
ATOM     15  C   UNL     1     -22.644 -14.876  38.882  1.00  0.00     0.041 C 
ATOM     16  O   UNL     1     -22.277 -14.903  37.677  1.00  0.00    -0.550 OA
ATOM     17  O   UNL     1     -23.966 -14.575  39.192  1.00  0.00    -0.550 OA
ENDBRANCH  14  15
ENDBRANCH  13  14
ENDBRANCH  12  13
ENDBRANCH  11  12
ENDBRANCH  10  11
ENDBRANCH   9  10
ENDBRANCH   8   9
ENDBRANCH   7   8
ENDBRANCH   6   7
ENDBRANCH   5   6
ENDBRANCH   4   5
ENDBRANCH   3   4
ENDBRANCH   2   3
ENDBRANCH   1   2
BRANCH   1  18
ATOM     18  C   UNL     1     -25.986 -11.879  45.128  1.00  0.00     0.000 C 
BRANCH  18  19
ATOM     19  C   UNL     1     -26.732 -13.146  44.665  1.00  0.00     0.000 C 
BRANCH  19  20
ATOM     20  C   UNL     1     -28.227 -12.950  44.346  1.00  0.00     0.000 C 
BRANCH  20  21
ATOM     21  C   UNL     1     -29.171 -13.996  44.967  1.00  0.00     0.000 C 
BRANCH  21  22
ATOM     22  C   UNL     1     -28.620 -14.615  46.260  1.00  0.00     0.000 C 
BRANCH  22  23
ATOM     23  C   UNL     1     -29.764 -14.995  47.211  1.00  0.00     0.000 C 
BRANCH  23  24
ATOM     24  C   UNL     1     -29.306 -15.075  48.683  1.00  0.00    -0.000 C 
BRANCH  24  25
ATOM     25  C   UNL     1     -29.726 -13.859  49.525  1.00  0.00    -0.000 C 
BRANCH  25  26
ATOM     26  C   UNL     1     -29.476 -14.059  51.029  1.00  0.00    -0.000 C 
BRANCH  26  27
ATOM     27  C   UNL     1     -28.951 -12.775  51.707  1.00  0.00    -0.000 C 
BRANCH  27  28
ATOM     28  C   UNL     1     -28.329 -11.762  50.730  1.00  0.00    -0.000 C 
BRANCH  28  29
ATOM     29  C   UNL     1     -26.809 -11.625  50.904  1.00  0.00    -0.000 C 
BRANCH  29  30
ATOM     30  C   UNL     1     -26.026 -12.829  50.349  1.00  0.00    -0.000 C 
BRANCH  30  31
ATOM     31  C   UNL     1     -26.172 -13.064  48.834  1.00  0.00    -0.003 C 
ATOM     32  C   UNL     1     -25.398 -14.285  48.335  1.00  0.00     0.004 C 
ENDBRANCH  30  31
ENDBRANCH  29  30
ENDBRANCH  28  29
ENDBRANCH  27  28
ENDBRANCH  26  27
ENDBRANCH  25  26
ENDBRANCH  24  25
ENDBRANCH  23  24
ENDBRANCH  22  23
ENDBRANCH  21  22
ENDBRANCH  20  21
ENDBRANCH  19  20
ENDBRANCH  18  19
ENDBRANCH   1  18
TORSDOF 28
ENDMDL
MODEL 4
REMARK VINA RESULT:    -3.414      2.621      8.932
REMARK INTER + INTRA:         -13.240
REMARK INTER:                  -9.526
REMARK INTRA:                  -3.714
REMARK UNBOUND:                -4.237
REMARK SMILES CCCCCCCCCCCCCCCCCCCCCCCCCCCCCC(=O)[O-]
REMARK SMILES IDX 16 1 17 2 18 3 19 4 20 5 21 6 22 7 23 8 24 9 25 10 26 11
REMARK SMILES IDX 27 12 28 13 29 14 30 15 31 16 32 17 15 18 14 19 13 20 12 21
REMARK SMILES IDX 11 22 10 23 9 24 8 25 7 26 6 27 5 28 4 29 3 30 2 31 1 32
REMARK H PARENT
REMARK Flexibility Score: inf
ROOT
ATOM      1  C   UNL     1     -28.098 -13.175  44.436  1.00  0.00     0.000 C 
ENDROOT
BRANCH   1   2
ATOM      2  C   UNL     1     -26.745 -13.096  45.165  1.00  0.00     0.000 C 
BRANCH   2   3
ATOM      3  C   UNL     1     -25.570 -12.872  44.200  1.00  0.00     0.000 C 
BRANCH   3   4
ATOM      4  C   UNL     1     -24.498 -13.971  44.306  1.00  0.00     0.000 C 
BRANCH   4   5
ATOM      5  C   UNL     1     -23.856 -14.301  42.950  1.00  0.00     0.000 C 
BRANCH   5   6
ATOM      6  C   UNL     1     -22.692 -15.301  43.073  1.00  0.00     0.000 C 
BRANCH   6   7
ATOM      7  C   UNL     1     -21.314 -14.628  42.980  1.00  0.00     0.000 C 
BRANCH   7   8
ATOM      8  C   UNL     1     -20.925 -14.270  41.534  1.00  0.00     0.000 C 
BRANCH   8   9
ATOM      9  C   UNL     1     -21.368 -15.346  40.529  1.00  0.00     0.000 C 
BRANCH   9  10
ATOM     10  C   UNL     1     -21.906 -14.742  39.223  1.00  0.00     0.000 C 
BRANCH  10  11
ATOM     11  C   UNL     1     -23.303 -14.138  39.433  1.00  0.00     0.000 C 
BRANCH  11  12
ATOM     12  C   UNL     1     -23.640 -13.048  38.402  1.00  0.00     0.000 C 
BRANCH  12  13
ATOM     13  C   UNL     1     -22.453 -12.108  38.129  1.00  0.00     0.006 C 
BRANCH  13  14
ATOM     14  C   UNL     1     -22.137 -11.207  39.330  1.00  0.00     0.053 C 
BRANCH  14  15
ATOM     15  C   UNL     1     -20.678 -11.214  39.668  1.00  0.00     0.041 C 
ATOM     16  O   UNL     1     -19.833 -11.612  38.822  1.00  0.00    -0.550 OA
ATOM     17  O   UNL     1     -20.250 -10.788  40.920  1.00  0.00    -0.550 OA
ENDBRANCH  14  15
ENDBRANCH  13  14
ENDBRANCH  12  13
ENDBRANCH  11  12
ENDBRANCH  10  11
ENDBRANCH   9  10
ENDBRANCH   8   9
ENDBRANCH   7   8
ENDBRANCH   6   7
ENDBRANCH   5   6
ENDBRANCH   4   5
ENDBRANCH   3   4
ENDBRANCH   2   3
ENDBRANCH   1   2
BRANCH   1  18
ATOM     18  C   UNL     1     -29.022 -14.265  45.005  1.00  0.00     0.000 C 
BRANCH  18  19
ATOM     19  C   UNL     1     -28.742 -14.652  46.471  1.00  0.00     0.000 C 
BRANCH  19  20
ATOM     20  C   UNL     1     -29.597 -15.810  47.021  1.00  0.00     0.000 C 
BRANCH  20  21
ATOM     21  C   UNL     1     -30.520 -15.440  48.196  1.00  0.00     0.000 C 
BRANCH  21  22
ATOM     22  C   UNL     1     -30.889 -13.950  48.229  1.00  0.00     0.000 C 
BRANCH  22  23
ATOM     23  C   UNL     1     -31.000 -13.449  49.676  1.00  0.00     0.000 C 
BRANCH  23  24
ATOM     24  C   UNL     1     -29.753 -13.796  50.518  1.00  0.00    -0.000 C 
BRANCH  24  25
ATOM     25  C   UNL     1     -28.641 -12.738  50.435  1.00  0.00    -0.000 C 
BRANCH  25  26
ATOM     26  C   UNL     1     -27.235 -13.334  50.611  1.00  0.00    -0.000 C 
BRANCH  26  27
ATOM     27  C   UNL     1     -27.240 -14.875  50.516  1.00  0.00    -0.000 C 
BRANCH  27  28
ATOM     28  C   UNL     1     -26.523 -15.427  49.271  1.00  0.00    -0.000 C 
BRANCH  28  29
ATOM     29  C   UNL     1     -25.864 -14.325  48.428  1.00  0.00    -0.000 C 
BRANCH  29  30
ATOM     30  C   UNL     1     -24.327 -14.418  48.407  1.00  0.00    -0.000 C 
BRANCH  30  31
ATOM     31  C   UNL     1     -23.602 -13.176  47.856  1.00  0.00    -0.003 C 
ATOM     32  C   UNL     1     -22.132 -13.432  47.523  1.00  0.00     0.004 C 
ENDBRANCH  30  31
ENDBRANCH  29  30
ENDBRANCH  28  29
ENDBRANCH  27  28
ENDBRANCH  26  27
ENDBRANCH  25  26
ENDBRANCH  24  25
ENDBRANCH  23  24
ENDBRANCH  22  23
ENDBRANCH  21  22
ENDBRANCH  20  21
ENDBRANCH  19  20
ENDBRANCH  18  19
ENDBRANCH   1  18
TORSDOF 28
ENDMDL
MODEL 5
REMARK VINA RESULT:    -3.407      1.568      4.489
REMARK INTER + INTRA:         -13.221
REMARK INTER:                  -9.464
REMARK INTRA:                  -3.757
REMARK UNBOUND:                -4.237
REMARK SMILES CCCCCCCCCCCCCCCCCCCCCCCCCCCCCC(=O)[O-]
REMARK SMILES IDX 16 1 17 2 18 3 19 4 20 5 21 6 22 7 23 8 24 9 25 10 26 11
REMARK SMILES IDX 27 12 28 13 29 14 30 15 31 16 32 17 15 18 14 19 13 20 12 21
REMARK SMILES IDX 11 22 10 23 9 24 8 25 7 26 6 27 5 28 4 29 3 30 2 31 1 32
REMARK H PARENT
REMARK Flexibility Score: inf
ROOT
ATOM      1  C   UNL     1     -25.625 -12.553  45.581  1.00  0.00     0.000 C 
ENDROOT
BRANCH   1   2
ATOM      2  C   UNL     1     -26.610 -13.269  44.639  1.00  0.00     0.000 C 
BRANCH   2   3
ATOM      3  C   UNL     1     -27.857 -12.421  44.339  1.00  0.00     0.000 C 
BRANCH   3   4
ATOM      4  C   UNL     1     -29.167 -13.204  44.530  1.00  0.00     0.000 C 
BRANCH   4   5
ATOM      5  C   UNL     1     -28.942 -14.586  45.161  1.00  0.00     0.000 C 
BRANCH   5   6
ATOM      6  C   UNL     1     -29.413 -14.652  46.625  1.00  0.00     0.000 C 
BRANCH   6   7
ATOM      7  C   UNL     1     -28.981 -15.945  47.333  1.00  0.00     0.000 C 
BRANCH   7   8
ATOM      8  C   UNL     1     -29.057 -15.836  48.867  1.00  0.00     0.000 C 
BRANCH   8   9
ATOM      9  C   UNL     1     -27.764 -15.272  49.476  1.00  0.00     0.000 C 
BRANCH   9  10
ATOM     10  C   UNL     1     -27.921 -13.816  49.943  1.00  0.00     0.000 C 
BRANCH  10  11
ATOM     11  C   UNL     1     -26.587 -13.262  50.465  1.00  0.00     0.000 C 
BRANCH  11  12
ATOM     12  C   UNL     1     -26.773 -12.068  51.418  1.00  0.00     0.000 C 
BRANCH  12  13
ATOM     13  C   UNL     1     -25.971 -10.832  50.977  1.00  0.00     0.006 C 
BRANCH  13  14
ATOM     14  C   UNL     1     -24.521 -10.871  51.476  1.00  0.00     0.053 C 
BRANCH  14  15
ATOM     15  C   UNL     1     -23.538 -10.829  50.348  1.00  0.00     0.041 C 
ATOM     16  O   UNL     1     -23.916 -10.514  49.188  1.00  0.00    -0.550 OA
ATOM     17  O   UNL     1     -22.203 -11.146  50.573  1.00  0.00    -0.550 OA
ENDBRANCH  14  15
ENDBRANCH  13  14
ENDBRANCH  12  13
ENDBRANCH  11  12
ENDBRANCH  10  11
ENDBRANCH   9  10
ENDBRANCH   8   9
ENDBRANCH   7   8
ENDBRANCH   6   7
ENDBRANCH   5   6
ENDBRANCH   4   5
ENDBRANCH   3   4
ENDBRANCH   2   3
ENDBRANCH   1   2
BRANCH   1  18
ATOM     18  C   UNL     1     -25.654 -13.112  47.014  1.00  0.00     0.000 C 
BRANCH  18  19
ATOM     19  C   UNL     1     -24.498 -14.073  47.358  1.00  0.00     0.000 C 
BRANCH  19  20
ATOM     20  C   UNL     1     -23.134 -13.400  47.605  1.00  0.00     0.000 C 
BRANCH  20  21
ATOM     21  C   UNL     1     -21.969 -13.959  46.767  1.00  0.00     0.000 C 
BRANCH  21  22
ATOM     22  C   UNL     1     -22.330 -15.246  46.012  1.00  0.00     0.000 C 
BRANCH  22  23
ATOM     23  C   UNL     1     -22.001 -15.111  44.518  1.00  0.00     0.000 C 
BRANCH  23  24
ATOM     24  C   UNL     1     -23.244 -14.775  43.667  1.00  0.00    -0.000 C 
BRANCH  24  25
ATOM     25  C   UNL     1     -22.907 -14.096  42.330  1.00  0.00    -0.000 C 
BRANCH  25  26
ATOM     26  C   UNL     1     -21.967 -14.939  41.452  1.00  0.00    -0.000 C 
BRANCH  26  27
ATOM     27  C   UNL     1     -20.845 -14.089  40.819  1.00  0.00    -0.000 C 
BRANCH  27  28
ATOM     28  C   UNL     1     -20.640 -12.721  41.494  1.00  0.00    -0.000 C 
BRANCH  28  29
ATOM     29  C   UNL     1     -20.803 -11.546  40.518  1.00  0.00    -0.000 C 
BRANCH  29  30
ATOM     30  C   UNL     1     -21.364 -11.972  39.148  1.00  0.00    -0.000 C 
BRANCH  30  31
ATOM     31  C   UNL     1     -22.607 -11.194  38.678  1.00  0.00    -0.003 C 
ATOM     32  C   UNL     1     -23.526 -10.773  39.825  1.00  0.00     0.004 C 
ENDBRANCH  30  31
ENDBRANCH  29  30
ENDBRANCH  28  29
ENDBRANCH  27  28
ENDBRANCH  26  27
ENDBRANCH  25  26
ENDBRANCH  24  25
ENDBRANCH  23  24
ENDBRANCH  22  23
ENDBRANCH  21  22
ENDBRANCH  20  21
ENDBRANCH  19  20
ENDBRANCH  18  19
ENDBRANCH   1  18
TORSDOF 28
ENDMDL
MODEL 6
REMARK VINA RESULT:    -3.367      1.904      4.131
REMARK INTER + INTRA:         -13.116
REMARK INTER:                  -9.176
REMARK INTRA:                  -3.940
REMARK UNBOUND:                -4.237
REMARK SMILES CCCCCCCCCCCCCCCCCCCCCCCCCCCCCC(=O)[O-]
REMARK SMILES IDX 16 1 17 2 18 3 19 4 20 5 21 6 22 7 23 8 24 9 25 10 26 11
REMARK SMILES IDX 27 12 28 13 29 14 30 15 31 16 32 17 15 18 14 19 13 20 12 21
REMARK SMILES IDX 11 22 10 23 9 24 8 25 7 26 6 27 5 28 4 29 3 30 2 31 1 32
REMARK H PARENT
REMARK Flexibility Score: inf
ROOT
ATOM      1  C   UNL     1     -25.379 -13.261  43.895  1.00  0.00     0.000 C 
ENDROOT
BRANCH   1   2
ATOM      2  C   UNL     1     -26.375 -13.154  45.064  1.00  0.00     0.000 C 
BRANCH   2   3
ATOM      3  C   UNL     1     -27.829 -13.016  44.586  1.00  0.00     0.000 C 
BRANCH   3   4
ATOM      4  C   UNL     1     -28.700 -14.222  44.979  1.00  0.00     0.000 C 
BRANCH   4   5
ATOM      5  C   UNL     1     -28.585 -14.572  46.470  1.00  0.00     0.000 C 
BRANCH   5   6
ATOM      6  C   UNL     1     -29.427 -15.801  46.857  1.00  0.00     0.000 C 
BRANCH   6   7
ATOM      7  C   UNL     1     -30.441 -15.503  47.972  1.00  0.00     0.000 C 
BRANCH   7   8
ATOM      8  C   UNL     1     -30.882 -14.029  47.995  1.00  0.00     0.000 C 
BRANCH   8   9
ATOM      9  C   UNL     1     -30.681 -13.382  49.375  1.00  0.00     0.000 C 
BRANCH   9  10
ATOM     10  C   UNL     1     -30.288 -14.405  50.452  1.00  0.00     0.000 C 
BRANCH  10  11
ATOM     11  C   UNL     1     -29.071 -13.917  51.252  1.00  0.00     0.000 C 
BRANCH  11  12
ATOM     12  C   UNL     1     -27.878 -14.885  51.166  1.00  0.00     0.000 C 
BRANCH  12  13
ATOM     13  C   UNL     1     -27.188 -14.848  49.792  1.00  0.00     0.006 C 
BRANCH  13  14
ATOM     14  C   UNL     1     -26.776 -13.427  49.387  1.00  0.00     0.053 C 
BRANCH  14  15
ATOM     15  C   UNL     1     -25.344 -13.359  48.953  1.00  0.00     0.041 C 
ATOM     16  O   UNL     1     -24.533 -14.259  49.300  1.00  0.00    -0.550 OA
ATOM     17  O   UNL     1     -24.901 -12.298  48.171  1.00  0.00    -0.550 OA
ENDBRANCH  14  15
ENDBRANCH  13  14
ENDBRANCH  12  13
ENDBRANCH  11  12
ENDBRANCH  10  11
ENDBRANCH   9  10
ENDBRANCH   8   9
ENDBRANCH   7   8
ENDBRANCH   6   7
ENDBRANCH   5   6
ENDBRANCH   4   5
ENDBRANCH   3   4
ENDBRANCH   2   3
ENDBRANCH   1   2
BRANCH   1  18
ATOM     18  C   UNL     1     -24.231 -14.246  44.175  1.00  0.00     0.000 C 
BRANCH  18  19
ATOM     19  C   UNL     1     -23.374 -14.609  42.946  1.00  0.00     0.000 C 
BRANCH  19  20
ATOM     20  C   UNL     1     -22.374 -15.762  43.157  1.00  0.00     0.000 C 
BRANCH  20  21
ATOM     21  C   UNL     1     -20.898 -15.400  42.914  1.00  0.00     0.000 C 
BRANCH  21  22
ATOM     22  C   UNL     1     -20.522 -14.008  43.442  1.00  0.00     0.000 C 
BRANCH  22  23
ATOM     23  C   UNL     1     -19.871 -13.164  42.336  1.00  0.00     0.000 C 
BRANCH  23  24
ATOM     24  C   UNL     1     -19.424 -14.016  41.129  1.00  0.00    -0.000 C 
BRANCH  24  25
ATOM     25  C   UNL     1     -19.583 -13.299  39.778  1.00  0.00    -0.000 C 
BRANCH  25  26
ATOM     26  C   UNL     1     -20.169 -14.209  38.685  1.00  0.00    -0.000 C 
BRANCH  26  27
ATOM     27  C   UNL     1     -21.226 -15.185  39.245  1.00  0.00    -0.000 C 
BRANCH  27  28
ATOM     28  C   UNL     1     -22.636 -14.981  38.661  1.00  0.00    -0.000 C 
BRANCH  28  29
ATOM     29  C   UNL     1     -23.402 -13.837  39.342  1.00  0.00    -0.000 C 
BRANCH  29  30
ATOM     30  C   UNL     1     -23.768 -12.696  38.374  1.00  0.00    -0.000 C 
BRANCH  30  31
ATOM     31  C   UNL     1     -22.761 -11.532  38.322  1.00  0.00    -0.003 C 
ATOM     32  C   UNL     1     -22.427 -10.960  39.700  1.00  0.00     0.004 C 
ENDBRANCH  30  31
ENDBRANCH  29  30
ENDBRANCH  28  29
ENDBRANCH  27  28
ENDBRANCH  26  27
ENDBRANCH  25  26
ENDBRANCH  24  25
ENDBRANCH  23  24
ENDBRANCH  22  23
ENDBRANCH  21  22
ENDBRANCH  20  21
ENDBRANCH  19  20
ENDBRANCH  18  19
ENDBRANCH   1  18
TORSDOF 28
ENDMDL
MODEL 7
REMARK VINA RESULT:    -3.358      1.588      4.517
REMARK INTER + INTRA:         -13.091
REMARK INTER:                  -9.765
REMARK INTRA:                  -3.325
REMARK UNBOUND:                -4.237
REMARK SMILES CCCCCCCCCCCCCCCCCCCCCCCCCCCCCC(=O)[O-]
REMARK SMILES IDX 16 1 17 2 18 3 19 4 20 5 21 6 22 7 23 8 24 9 25 10 26 11
REMARK SMILES IDX 27 12 28 13 29 14 30 15 31 16 32 17 15 18 14 19 13 20 12 21
REMARK SMILES IDX 11 22 10 23 9 24 8 25 7 26 6 27 5 28 4 29 3 30 2 31 1 32
REMARK H PARENT
REMARK Flexibility Score: inf
ROOT
ATOM      1  C   UNL     1     -24.585  -8.989  46.056  1.00  0.00     0.000 C 
ENDROOT
BRANCH   1   2
ATOM      2  C   UNL     1     -25.604  -9.541  45.042  1.00  0.00     0.000 C 
BRANCH   2   3
ATOM      3  C   UNL     1     -25.625 -11.077  45.009  1.00  0.00     0.000 C 
BRANCH   3   4
ATOM      4  C   UNL     1     -26.858 -11.638  44.280  1.00  0.00     0.000 C 
BRANCH   4   5
ATOM      5  C   UNL     1     -27.158 -13.096  44.662  1.00  0.00     0.000 C 
BRANCH   5   6
ATOM      6  C   UNL     1     -28.664 -13.411  44.658  1.00  0.00     0.000 C 
BRANCH   6   7
ATOM      7  C   UNL     1     -28.991 -14.771  45.292  1.00  0.00     0.000 C 
BRANCH   7   8
ATOM      8  C   UNL     1     -29.442 -14.649  46.759  1.00  0.00     0.000 C 
BRANCH   8   9
ATOM      9  C   UNL     1     -28.647 -15.576  47.693  1.00  0.00     0.000 C 
BRANCH   9  10
ATOM     10  C   UNL     1     -28.003 -14.817  48.863  1.00  0.00     0.000 C 
BRANCH  10  11
ATOM     11  C   UNL     1     -26.688 -14.152  48.426  1.00  0.00     0.000 C 
BRANCH  11  12
ATOM     12  C   UNL     1     -25.467 -14.694  49.190  1.00  0.00     0.000 C 
BRANCH  12  13
ATOM     13  C   UNL     1     -25.056 -13.787  50.363  1.00  0.00     0.006 C 
BRANCH  13  14
ATOM     14  C   UNL     1     -25.747 -12.419  50.308  1.00  0.00     0.053 C 
BRANCH  14  15
ATOM     15  C   UNL     1     -24.846 -11.316  50.773  1.00  0.00     0.041 C 
ATOM     16  O   UNL     1     -25.123 -10.116  50.508  1.00  0.00    -0.550 OA
ATOM     17  O   UNL     1     -23.695 -11.613  51.494  1.00  0.00    -0.550 OA
ENDBRANCH  14  15
ENDBRANCH  13  14
ENDBRANCH  12  13
ENDBRANCH  11  12
ENDBRANCH  10  11
ENDBRANCH   9  10
ENDBRANCH   8   9
ENDBRANCH   7   8
ENDBRANCH   6   7
ENDBRANCH   5   6
ENDBRANCH   4   5
ENDBRANCH   3   4
ENDBRANCH   2   3
ENDBRANCH   1   2
BRANCH   1  18
ATOM     18  C   UNL     1     -24.084 -10.057  47.043  1.00  0.00     0.000 C 
BRANCH  18  19
ATOM     19  C   UNL     1     -22.669  -9.809  47.603  1.00  0.00     0.000 C 
BRANCH  19  20
ATOM     20  C   UNL     1     -21.875 -11.077  47.971  1.00  0.00     0.000 C 
BRANCH  20  21
ATOM     21  C   UNL     1     -22.697 -12.379  47.997  1.00  0.00     0.000 C 
BRANCH  21  22
ATOM     22  C   UNL     1     -21.947 -13.579  47.403  1.00  0.00     0.000 C 
BRANCH  22  23
ATOM     23  C   UNL     1     -22.906 -14.485  46.617  1.00  0.00     0.000 C 
BRANCH  23  24
ATOM     24  C   UNL     1     -22.161 -15.500  45.723  1.00  0.00    -0.000 C 
BRANCH  24  25
ATOM     25  C   UNL     1     -21.723 -14.919  44.368  1.00  0.00    -0.000 C 
BRANCH  25  26
ATOM     26  C   UNL     1     -22.573 -15.436  43.195  1.00  0.00    -0.000 C 
BRANCH  26  27
ATOM     27  C   UNL     1     -23.433 -14.320  42.564  1.00  0.00    -0.000 C 
BRANCH  27  28
ATOM     28  C   UNL     1     -22.719 -13.535  41.450  1.00  0.00    -0.000 C 
BRANCH  28  29
ATOM     29  C   UNL     1     -22.515 -14.366  40.174  1.00  0.00    -0.000 C 
BRANCH  29  30
ATOM     30  C   UNL     1     -23.359 -13.867  38.986  1.00  0.00    -0.000 C 
BRANCH  30  31
ATOM     31  C   UNL     1     -23.738 -12.376  39.033  1.00  0.00    -0.003 C 
ATOM     32  C   UNL     1     -22.625 -11.453  38.536  1.00  0.00     0.004 C 
ENDBRANCH  30  31
ENDBRANCH  29  30
ENDBRANCH  28  29
ENDBRANCH  27  28
ENDBRANCH  26  27
ENDBRANCH  25  26
ENDBRANCH  24  25
ENDBRANCH  23  24
ENDBRANCH  22  23
ENDBRANCH  21  22
ENDBRANCH  20  21
ENDBRANCH  19  20
ENDBRANCH  18  19
ENDBRANCH   1  18
TORSDOF 28
ENDMDL
MODEL 8
REMARK VINA RESULT:    -3.334      1.519      3.781
REMARK INTER + INTRA:         -13.029
REMARK INTER:                  -9.139
REMARK INTRA:                  -3.889
REMARK UNBOUND:                -4.237
REMARK SMILES CCCCCCCCCCCCCCCCCCCCCCCCCCCCCC(=O)[O-]
REMARK SMILES IDX 16 1 17 2 18 3 19 4 20 5 21 6 22 7 23 8 24 9 25 10 26 11
REMARK SMILES IDX 27 12 28 13 29 14 30 15 31 16 32 17 15 18 14 19 13 20 12 21
REMARK SMILES IDX 11 22 10 23 9 24 8 25 7 26 6 27 5 28 4 29 3 30 2 31 1 32
REMARK H PARENT
REMARK Flexibility Score: inf
ROOT
ATOM      1  C   UNL     1     -25.744 -12.239  44.523  1.00  0.00     0.000 C 
ENDROOT
BRANCH   1   2
ATOM      2  C   UNL     1     -27.252 -12.535  44.603  1.00  0.00     0.000 C 
BRANCH   2   3
ATOM      3  C   UNL     1     -27.555 -13.855  45.331  1.00  0.00     0.000 C 
BRANCH   3   4
ATOM      4  C   UNL     1     -29.049 -14.220  45.302  1.00  0.00     0.000 C 
BRANCH   4   5
ATOM      5  C   UNL     1     -29.499 -14.964  46.568  1.00  0.00     0.000 C 
BRANCH   5   6
ATOM      6  C   UNL     1     -28.349 -15.185  47.566  1.00  0.00     0.000 C 
BRANCH   6   7
ATOM      7  C   UNL     1     -28.549 -14.424  48.885  1.00  0.00     0.000 C 
BRANCH   7   8
ATOM      8  C   UNL     1     -27.242 -13.818  49.425  1.00  0.00     0.000 C 
BRANCH   8   9
ATOM      9  C   UNL     1     -25.997 -14.530  48.873  1.00  0.00     0.000 C 
BRANCH   9  10
ATOM     10  C   UNL     1     -25.087 -13.587  48.072  1.00  0.00     0.000 C 
BRANCH  10  11
ATOM     11  C   UNL     1     -23.698 -14.210  47.865  1.00  0.00     0.000 C 
BRANCH  11  12
ATOM     12  C   UNL     1     -22.570 -13.363  48.481  1.00  0.00     0.000 C 
BRANCH  12  13
ATOM     13  C   UNL     1     -23.075 -12.433  49.598  1.00  0.00     0.006 C 
BRANCH  13  14
ATOM     14  C   UNL     1     -22.414 -11.050  49.544  1.00  0.00     0.053 C 
BRANCH  14  15
ATOM     15  C   UNL     1     -22.577 -10.401  48.204  1.00  0.00     0.041 C 
ATOM     16  O   UNL     1     -21.574  -9.944  47.595  1.00  0.00    -0.550 OA
ATOM     17  O   UNL     1     -23.839 -10.293  47.630  1.00  0.00    -0.550 OA
ENDBRANCH  14  15
ENDBRANCH  13  14
ENDBRANCH  12  13
ENDBRANCH  11  12
ENDBRANCH  10  11
ENDBRANCH   9  10
ENDBRANCH   8   9
ENDBRANCH   7   8
ENDBRANCH   6   7
ENDBRANCH   5   6
ENDBRANCH   4   5
ENDBRANCH   3   4
ENDBRANCH   2   3
ENDBRANCH   1   2
BRANCH   1  18
ATOM     18  C   UNL     1     -24.886 -13.515  44.456  1.00  0.00     0.000 C 
BRANCH  18  19
ATOM     19  C   UNL     1     -24.557 -14.000  43.030  1.00  0.00     0.000 C 
BRANCH  19  20
ATOM     20  C   UNL     1     -23.096 -14.438  42.805  1.00  0.00     0.000 C 
BRANCH  20  21
ATOM     21  C   UNL     1     -22.692 -15.749  43.503  1.00  0.00     0.000 C 
BRANCH  21  22
ATOM     22  C   UNL     1     -21.176 -15.884  43.706  1.00  0.00     0.000 C 
BRANCH  22  23
ATOM     23  C   UNL     1     -20.440 -14.667  43.126  1.00  0.00     0.000 C 
BRANCH  23  24
ATOM     24  C   UNL     1     -19.533 -15.040  41.933  1.00  0.00    -0.000 C 
BRANCH  24  25
ATOM     25  C   UNL     1     -20.030 -14.488  40.588  1.00  0.00    -0.000 C 
BRANCH  25  26
ATOM     26  C   UNL     1     -21.051 -15.413  39.904  1.00  0.00    -0.000 C 
BRANCH  26  27
ATOM     27  C   UNL     1     -21.802 -14.704  38.757  1.00  0.00    -0.000 C 
BRANCH  27  28
ATOM     28  C   UNL     1     -23.310 -14.529  39.012  1.00  0.00    -0.000 C 
BRANCH  28  29
ATOM     29  C   UNL     1     -23.821 -13.133  38.625  1.00  0.00    -0.000 C 
BRANCH  29  30
ATOM     30  C   UNL     1     -22.697 -12.085  38.527  1.00  0.00    -0.000 C 
BRANCH  30  31
ATOM     31  C   UNL     1     -22.454 -11.262  39.805  1.00  0.00    -0.003 C 
ATOM     32  C   UNL     1     -20.972 -11.047  40.113  1.00  0.00     0.004 C 
ENDBRANCH  30  31
ENDBRANCH  29  30
ENDBRANCH  28  29
ENDBRANCH  27  28
ENDBRANCH  26  27
ENDBRANCH  25  26
ENDBRANCH  24  25
ENDBRANCH  23  24
ENDBRANCH  22  23
ENDBRANCH  21  22
ENDBRANCH  20  21
ENDBRANCH  19  20
ENDBRANCH  18  19
ENDBRANCH   1  18
TORSDOF 28
ENDMDL
MODEL 9
REMARK VINA RESULT:    -3.306      1.492      4.440
REMARK INTER + INTRA:         -12.954
REMARK INTER:                  -8.662
REMARK INTRA:                  -4.292
REMARK UNBOUND:                -4.237
REMARK SMILES CCCCCCCCCCCCCCCCCCCCCCCCCCCCCC(=O)[O-]
REMARK SMILES IDX 16 1 17 2 18 3 19 4 20 5 21 6 22 7 23 8 24 9 25 10 26 11
REMARK SMILES IDX 27 12 28 13 29 14 30 15 31 16 32 17 15 18 14 19 13 20 12 21
REMARK SMILES IDX 11 22 10 23 9 24 8 25 7 26 6 27 5 28 4 29 3 30 2 31 1 32
REMARK H PARENT
REMARK Flexibility Score: inf
ROOT
ATOM      1  C   UNL     1     -25.912 -13.220  45.227  1.00  0.00     0.000 C 
ENDROOT
BRANCH   1   2
ATOM      2  C   UNL     1     -27.286 -12.726  44.740  1.00  0.00     0.000 C 
BRANCH   2   3
ATOM      3  C   UNL     1     -28.295 -13.872  44.568  1.00  0.00     0.000 C 
BRANCH   3   4
ATOM      4  C   UNL     1     -29.212 -14.044  45.791  1.00  0.00     0.000 C 
BRANCH   4   5
ATOM      5  C   UNL     1     -29.114 -15.446  46.411  1.00  0.00     0.000 C 
BRANCH   5   6
ATOM      6  C   UNL     1     -28.355 -15.450  47.750  1.00  0.00     0.000 C 
BRANCH   6   7
ATOM      7  C   UNL     1     -28.790 -14.313  48.686  1.00  0.00     0.000 C 
BRANCH   7   8
ATOM      8  C   UNL     1     -27.962 -14.263  49.983  1.00  0.00     0.000 C 
BRANCH   8   9
ATOM      9  C   UNL     1     -27.246 -12.915  50.166  1.00  0.00     0.000 C 
BRANCH   9  10
ATOM     10  C   UNL     1     -25.904 -13.058  50.899  1.00  0.00     0.000 C 
BRANCH  10  11
ATOM     11  C   UNL     1     -25.190 -14.354  50.485  1.00  0.00     0.000 C 
BRANCH  11  12
ATOM     12  C   UNL     1     -23.667 -14.284  50.690  1.00  0.00     0.000 C 
BRANCH  12  13
ATOM     13  C   UNL     1     -23.189 -12.874  51.077  1.00  0.00     0.006 C 
BRANCH  13  14
ATOM     14  C   UNL     1     -22.051 -12.378  50.175  1.00  0.00     0.053 C 
BRANCH  14  15
ATOM     15  C   UNL     1     -22.297 -10.987  49.677  1.00  0.00     0.041 C 
ATOM     16  O   UNL     1     -21.338 -10.285  49.258  1.00  0.00    -0.550 OA
ATOM     17  O   UNL     1     -23.583 -10.460  49.682  1.00  0.00    -0.550 OA
ENDBRANCH  14  15
ENDBRANCH  13  14
ENDBRANCH  12  13
ENDBRANCH  11  12
ENDBRANCH  10  11
ENDBRANCH   9  10
ENDBRANCH   8   9
ENDBRANCH   7   8
ENDBRANCH   6   7
ENDBRANCH   5   6
ENDBRANCH   4   5
ENDBRANCH   3   4
ENDBRANCH   2   3
ENDBRANCH   1   2
BRANCH   1  18
ATOM     18  C   UNL     1     -25.728 -13.076  46.748  1.00  0.00     0.000 C 
BRANCH  18  19
ATOM     19  C   UNL     1     -24.263 -12.981  47.217  1.00  0.00     0.000 C 
BRANCH  19  20
ATOM     20  C   UNL     1     -23.406 -14.235  46.959  1.00  0.00     0.000 C 
BRANCH  20  21
ATOM     21  C   UNL     1     -21.903 -13.969  46.755  1.00  0.00     0.000 C 
BRANCH  21  22
ATOM     22  C   UNL     1     -21.286 -14.816  45.633  1.00  0.00     0.000 C 
BRANCH  22  23
ATOM     23  C   UNL     1     -22.310 -15.821  45.085  1.00  0.00     0.000 C 
BRANCH  23  24
ATOM     24  C   UNL     1     -22.433 -15.759  43.547  1.00  0.00    -0.000 C 
BRANCH  24  25
ATOM     25  C   UNL     1     -23.398 -14.670  43.052  1.00  0.00    -0.000 C 
BRANCH  25  26
ATOM     26  C   UNL     1     -22.768 -13.752  41.991  1.00  0.00    -0.000 C 
BRANCH  26  27
ATOM     27  C   UNL     1     -22.419 -14.514  40.695  1.00  0.00    -0.000 C 
BRANCH  27  28
ATOM     28  C   UNL     1     -21.125 -14.031  40.015  1.00  0.00    -0.000 C 
BRANCH  28  29
ATOM     29  C   UNL     1     -20.872 -12.529  40.218  1.00  0.00    -0.000 C 
BRANCH  29  30
ATOM     30  C   UNL     1     -21.305 -11.676  39.011  1.00  0.00    -0.000 C 
BRANCH  30  31
ATOM     31  C   UNL     1     -22.825 -11.487  38.853  1.00  0.00    -0.003 C 
ATOM     32  C   UNL     1     -23.396 -10.399  39.764  1.00  0.00     0.004 C 
ENDBRANCH  30  31
ENDBRANCH  29  30
ENDBRANCH  28  29
ENDBRANCH  27  28
ENDBRANCH  26  27
ENDBRANCH  25  26
ENDBRANCH  24  25
ENDBRANCH  23  24
ENDBRANCH  22  23
ENDBRANCH  21  22
ENDBRANCH  20  21
ENDBRANCH  19  20
ENDBRANCH  18  19
ENDBRANCH   1  18
TORSDOF 28
ENDMDL
