MODEL 1
REMARK VINA RESULT:    65.300      0.000      0.000
REMARK INTER + INTRA:          70.692
REMARK INTER:                  71.026
REMARK INTRA:                  -0.334
REMARK UNBOUND:                -0.334
REMARK SMILES C[C@H]1[C@@H](C)CC[C@@]2(C(=O)[O-])CC[C@@]3(C)C(=CC[C@H]4[C@]5(C)CC[C@@H](O)C(C)(C)[C@H]5CC[C@]43C)[C@@H]12
REMARK SMILES IDX 7 1 6 2 11 3 33 4 5 5 12 6 15 7 2 8 3 9 13 10 16 11 1 12
REMARK SMILES IDX 4 13 14 14 31 15 17 16 18 17 30 18 32 19 19 20 29 21 28 22
REMARK SMILES IDX 21 23 20 24 25 25 22 26 23 27 26 28 27 29 8 30 9 31 10 32
REMARK SMILES IDX 24 33
REMARK H PARENT 24 34
REMARK Flexibility Score: inf
ROOT
ATOM      1  C   UNL     1      19.487  26.461  34.632  1.00  0.00     0.017 C 
ATOM      2  C   UNL     1      18.588  27.738  34.727  1.00  0.00     0.014 C 
ATOM      3  C   UNL     1      20.827  26.852  35.313  1.00  0.00     0.014 C 
ATOM      4  C   UNL     1      18.834  25.163  35.299  1.00  0.00     0.030 C 
ATOM      5  C   UNL     1      17.099  27.543  34.403  1.00  0.00     0.004 C 
ATOM      6  C   UNL     1      21.724  25.648  35.558  1.00  0.00     0.013 C 
ATOM      7  C   UNL     1      19.719  24.318  36.258  1.00  0.00    -0.063 C 
ATOM      8  C   UNL     1      17.392  25.421  35.866  1.00  0.00    -0.003 C 
ATOM      9  C   UNL     1      16.530  26.170  34.816  1.00  0.00    -0.011 C 
ATOM     10  C   UNL     1      21.163  24.676  36.641  1.00  0.00    -0.006 C 
ATOM     11  C   UNL     1      19.185  23.203  36.791  1.00  0.00    -0.027 C 
ATOM     12  C   UNL     1      17.373  26.040  37.283  1.00  0.00     0.008 C 
ATOM     13  C   UNL     1      15.048  26.280  35.216  1.00  0.00     0.008 C 
ATOM     14  C   UNL     1      21.107  25.450  37.998  1.00  0.00     0.017 C 
ATOM     15  C   UNL     1      22.096  23.343  36.778  1.00  0.00    -0.020 C 
ATOM     16  C   UNL     1      19.867  22.438  37.877  1.00  0.00     0.032 C 
ATOM     17  C   UNL     1      21.350  22.138  37.543  1.00  0.00     0.006 C 
ATOM     18  C   UNL     1      22.558  22.831  35.377  1.00  0.00     0.008 C 
ATOM     19  C   UNL     1      23.401  23.731  37.558  1.00  0.00     0.012 C 
ATOM     20  C   UNL     1      21.562  20.654  36.961  1.00  0.00    -0.025 C 
ATOM     21  C   UNL     1      23.403  21.537  35.378  1.00  0.00     0.005 C 
ATOM     22  C   UNL     1      23.057  20.532  36.508  1.00  0.00     0.003 C 
ATOM     23  C   UNL     1      21.303  19.631  38.125  1.00  0.00     0.010 C 
ATOM     24  C   UNL     1      20.583  20.332  35.778  1.00  0.00     0.012 C 
ATOM     25  C   UNL     1      23.625  19.072  36.267  1.00  0.00    -0.006 C 
ATOM     26  C   UNL     1      21.805  18.209  37.850  1.00  0.00     0.033 C 
ATOM     27  C   UNL     1      23.301  18.200  37.519  1.00  0.00     0.120 C 
ATOM     28  C   UNL     1      23.096  18.387  34.974  1.00  0.00     0.014 C 
ATOM     29  C   UNL     1      25.169  19.146  36.138  1.00  0.00     0.014 C 
ENDROOT
BRANCH   1  30
ATOM     30  C   UNL     1      19.713  26.197  33.138  1.00  0.00     0.048 C 
ATOM     31  O   UNL     1      20.299  27.059  32.433  1.00  0.00    -0.550 OA
ATOM     32  O   UNL     1      19.323  25.004  32.538  1.00  0.00    -0.550 OA
ENDBRANCH   1  30
BRANCH  27  33
ATOM     33  O   UNL     1      23.730  16.875  37.326  1.00  0.00    -0.393 OA
ATOM     34  H   UNL     1      23.005  16.283  37.659  1.00  0.00     0.210 HD
ENDBRANCH  27  33
TORSDOF 2
ENDMDL
MODEL 2
REMARK VINA RESULT:    65.644      4.274      9.616
REMARK INTER + INTRA:          71.067
REMARK INTER:                  71.338
REMARK INTRA:                  -0.271
REMARK UNBOUND:                -0.334
REMARK SMILES C[C@H]1[C@@H](C)CC[C@@]2(C(=O)[O-])CC[C@@]3(C)C(=CC[C@H]4[C@]5(C)CC[C@@H](O)C(C)(C)[C@H]5CC[C@]43C)[C@@H]12
REMARK SMILES IDX 7 1 6 2 11 3 33 4 5 5 12 6 15 7 2 8 3 9 13 10 16 11 1 12
REMARK SMILES IDX 4 13 14 14 31 15 17 16 18 17 30 18 32 19 19 20 29 21 28 22
REMARK SMILES IDX 21 23 20 24 25 25 22 26 23 27 26 28 27 29 8 30 9 31 10 32
REMARK SMILES IDX 24 33
REMARK H PARENT 24 34
REMARK Flexibility Score: inf
ROOT
ATOM      1  C   UNL     1      29.440  20.200  33.439  1.00  0.00     0.017 C 
ATOM      2  C   UNL     1      30.778  19.615  32.877  1.00  0.00     0.014 C 
ATOM      3  C   UNL     1      28.471  20.246  32.226  1.00  0.00     0.014 C 
ATOM      4  C   UNL     1      28.832  19.363  34.658  1.00  0.00     0.030 C 
ATOM      5  C   UNL     1      31.816  19.177  33.922  1.00  0.00     0.004 C 
ATOM      6  C   UNL     1      27.036  20.530  32.641  1.00  0.00     0.013 C 
ATOM      7  C   UNL     1      27.321  19.003  34.608  1.00  0.00    -0.063 C 
ATOM      8  C   UNL     1      29.736  18.150  35.083  1.00  0.00    -0.003 C 
ATOM      9  C   UNL     1      31.213  18.605  35.222  1.00  0.00    -0.011 C 
ATOM     10  C   UNL     1      26.386  19.359  33.442  1.00  0.00    -0.006 C 
ATOM     11  C   UNL     1      26.797  18.332  35.651  1.00  0.00    -0.027 C 
ATOM     12  C   UNL     1      29.526  16.878  34.230  1.00  0.00     0.008 C 
ATOM     13  C   UNL     1      32.125  17.527  35.830  1.00  0.00     0.008 C 
ATOM     14  C   UNL     1      26.318  18.114  32.501  1.00  0.00     0.017 C 
ATOM     15  C   UNL     1      24.894  19.762  33.970  1.00  0.00    -0.020 C 
ATOM     16  C   UNL     1      25.420  17.758  35.614  1.00  0.00     0.032 C 
ATOM     17  C   UNL     1      24.365  18.790  35.140  1.00  0.00     0.006 C 
ATOM     18  C   UNL     1      24.859  21.233  34.493  1.00  0.00     0.008 C 
ATOM     19  C   UNL     1      23.907  19.704  32.752  1.00  0.00     0.012 C 
ATOM     20  C   UNL     1      23.578  19.472  36.364  1.00  0.00    -0.025 C 
ATOM     21  C   UNL     1      23.507  21.709  35.073  1.00  0.00     0.005 C 
ATOM     22  C   UNL     1      22.671  20.604  35.772  1.00  0.00     0.003 C 
ATOM     23  C   UNL     1      22.657  18.382  37.021  1.00  0.00     0.010 C 
ATOM     24  C   UNL     1      24.551  20.038  37.457  1.00  0.00     0.012 C 
ATOM     25  C   UNL     1      21.512  21.164  36.697  1.00  0.00    -0.006 C 
ATOM     26  C   UNL     1      21.580  18.936  37.960  1.00  0.00     0.033 C 
ATOM     27  C   UNL     1      20.689  19.958  37.245  1.00  0.00     0.120 C 
ATOM     28  C   UNL     1      22.006  22.064  37.866  1.00  0.00     0.014 C 
ATOM     29  C   UNL     1      20.553  22.029  35.837  1.00  0.00     0.014 C 
ENDROOT
BRANCH   1  30
ATOM     30  C   UNL     1      29.753  21.624  33.915  1.00  0.00     0.048 C 
ATOM     31  O   UNL     1      29.141  22.101  34.906  1.00  0.00    -0.550 OA
ATOM     32  O   UNL     1      30.734  22.401  33.306  1.00  0.00    -0.550 OA
ENDBRANCH   1  30
BRANCH  27  33
ATOM     33  O   UNL     1      19.685  20.400  38.124  1.00  0.00    -0.393 OA
ATOM     34  H   UNL     1      19.939  21.314  38.420  1.00  0.00     0.210 HD
ENDBRANCH  27  33
TORSDOF 2
ENDMDL
