MODEL 1
REMARK VINA RESULT:    -3.234      0.000      0.000
REMARK INTER + INTRA:         -10.747
REMARK INTER:                  -7.015
REMARK INTRA:                  -3.732
REMARK UNBOUND:                -3.732
REMARK SMILES CCCCCCCCCCCCCCCCCCCCCC(=O)[O-]
REMARK SMILES IDX 12 1 11 2 10 3 9 4 8 5 7 6 6 7 5 8 4 9 3 10 2 11 1 12 13 13
REMARK SMILES IDX 14 14 15 15 16 16 17 17 18 18 19 19 20 20 21 21 22 22 23 23
REMARK SMILES IDX 24 24
REMARK H PARENT
REMARK Flexibility Score: inf
ROOT
ATOM      1  C   UNL     1      21.496   3.306  23.602  1.00  0.00     0.000 C 
ENDROOT
BRANCH   1   2
ATOM      2  C   UNL     1      21.280   4.621  24.370  1.00  0.00     0.000 C 
BRANCH   2   3
ATOM      3  C   UNL     1      19.901   5.244  24.099  1.00  0.00     0.000 C 
BRANCH   3   4
ATOM      4  C   UNL     1      19.817   6.712  24.542  1.00  0.00    -0.000 C 
BRANCH   4   5
ATOM      5  C   UNL     1      20.461   6.907  25.923  1.00  0.00    -0.000 C 
BRANCH   5   6
ATOM      6  C   UNL     1      19.536   7.631  26.919  1.00  0.00    -0.000 C 
BRANCH   6   7
ATOM      7  C   UNL     1      18.193   6.926  27.186  1.00  0.00    -0.000 C 
BRANCH   7   8
ATOM      8  C   UNL     1      16.946   7.727  26.770  1.00  0.00    -0.000 C 
BRANCH   8   9
ATOM      9  C   UNL     1      17.272   9.050  26.045  1.00  0.00    -0.000 C 
BRANCH   9  10
ATOM     10  C   UNL     1      16.457   9.224  24.751  1.00  0.00    -0.000 C 
BRANCH  10  11
ATOM     11  C   UNL     1      17.275   8.905  23.491  1.00  0.00    -0.003 C 
ATOM     12  C   UNL     1      18.449   9.865  23.294  1.00  0.00     0.004 C 
ENDBRANCH  10  11
ENDBRANCH   9  10
ENDBRANCH   8   9
ENDBRANCH   7   8
ENDBRANCH   6   7
ENDBRANCH   5   6
ENDBRANCH   4   5
ENDBRANCH   3   4
ENDBRANCH   2   3
ENDBRANCH   1   2
BRANCH   1  13
ATOM     13  C   UNL     1      22.357   2.294  24.379  1.00  0.00     0.000 C 
BRANCH  13  14
ATOM     14  C   UNL     1      21.569   1.150  25.040  1.00  0.00     0.000 C 
BRANCH  14  15
ATOM     15  C   UNL     1      20.047   1.293  24.870  1.00  0.00     0.000 C 
BRANCH  15  16
ATOM     16  C   UNL     1      19.324   1.442  26.224  1.00  0.00     0.000 C 
BRANCH  16  17
ATOM     17  C   UNL     1      18.753   2.848  26.477  1.00  0.00     0.000 C 
BRANCH  17  18
ATOM     18  C   UNL     1      19.355   3.569  27.703  1.00  0.00     0.000 C 
BRANCH  18  19
ATOM     19  C   UNL     1      20.760   3.088  28.125  1.00  0.00     0.000 C 
BRANCH  19  20
ATOM     20  C   UNL     1      21.921   4.048  27.798  1.00  0.00     0.006 C 
BRANCH  20  21
ATOM     21  C   UNL     1      23.295   3.364  27.803  1.00  0.00     0.053 C 
BRANCH  21  22
ATOM     22  C   UNL     1      24.272   4.130  26.966  1.00  0.00     0.041 C 
ATOM     23  O   UNL     1      25.147   3.519  26.296  1.00  0.00    -0.550 OA
ATOM     24  O   UNL     1      24.213   5.517  26.919  1.00  0.00    -0.550 OA
ENDBRANCH  21  22
ENDBRANCH  20  21
ENDBRANCH  19  20
ENDBRANCH  18  19
ENDBRANCH  17  18
ENDBRANCH  16  17
ENDBRANCH  15  16
ENDBRANCH  14  15
ENDBRANCH  13  14
ENDBRANCH   1  13
TORSDOF 20
ENDMDL
MODEL 2
REMARK VINA RESULT:    -3.220      1.480      3.652
REMARK INTER + INTRA:         -10.716
REMARK INTER:                  -6.951
REMARK INTRA:                  -3.765
REMARK UNBOUND:                -3.732
REMARK SMILES CCCCCCCCCCCCCCCCCCCCCC(=O)[O-]
REMARK SMILES IDX 12 1 11 2 10 3 9 4 8 5 7 6 6 7 5 8 4 9 3 10 2 11 1 12 13 13
REMARK SMILES IDX 14 14 15 15 16 16 17 17 18 18 19 19 20 20 21 21 22 22 23 23
REMARK SMILES IDX 24 24
REMARK H PARENT
REMARK Flexibility Score: inf
ROOT
ATOM      1  C   UNL     1      19.045   5.566  24.499  1.00  0.00     0.000 C 
ENDROOT
BRANCH   1   2
ATOM      2  C   UNL     1      17.987   6.439  23.801  1.00  0.00     0.000 C 
BRANCH   2   3
ATOM      3  C   UNL     1      17.134   7.243  24.795  1.00  0.00     0.000 C 
BRANCH   3   4
ATOM      4  C   UNL     1      16.971   8.714  24.382  1.00  0.00    -0.000 C 
BRANCH   4   5
ATOM      5  C   UNL     1      17.622   8.975  23.016  1.00  0.00    -0.000 C 
BRANCH   5   6
ATOM      6  C   UNL     1      18.784   9.984  23.089  1.00  0.00    -0.000 C 
BRANCH   6   7
ATOM      7  C   UNL     1      20.183   9.375  22.884  1.00  0.00    -0.000 C 
BRANCH   7   8
ATOM      8  C   UNL     1      20.806   8.742  24.142  1.00  0.00    -0.000 C 
BRANCH   8   9
ATOM      9  C   UNL     1      20.771   9.662  25.381  1.00  0.00    -0.000 C 
BRANCH   9  10
ATOM     10  C   UNL     1      20.305   8.921  26.646  1.00  0.00    -0.000 C 
BRANCH  10  11
ATOM     11  C   UNL     1      19.042   9.542  27.262  1.00  0.00    -0.003 C 
ATOM     12  C   UNL     1      18.240   8.542  28.094  1.00  0.00     0.004 C 
ENDBRANCH  10  11
ENDBRANCH   9  10
ENDBRANCH   8   9
ENDBRANCH   7   8
ENDBRANCH   6   7
ENDBRANCH   5   6
ENDBRANCH   4   5
ENDBRANCH   3   4
ENDBRANCH   2   3
ENDBRANCH   1   2
BRANCH   1  13
ATOM     13  C   UNL     1      18.882   5.540  26.030  1.00  0.00     0.000 C 
BRANCH  13  14
ATOM     14  C   UNL     1      20.145   5.127  26.805  1.00  0.00     0.000 C 
BRANCH  14  15
ATOM     15  C   UNL     1      19.990   3.780  27.532  1.00  0.00     0.000 C 
BRANCH  15  16
ATOM     16  C   UNL     1      18.756   2.997  27.043  1.00  0.00     0.000 C 
BRANCH  16  17
ATOM     17  C   UNL     1      19.042   2.051  25.862  1.00  0.00     0.000 C 
BRANCH  17  18
ATOM     18  C   UNL     1      20.533   1.688  25.685  1.00  0.00     0.000 C 
BRANCH  18  19
ATOM     19  C   UNL     1      21.220   2.311  24.451  1.00  0.00     0.000 C 
BRANCH  19  20
ATOM     20  C   UNL     1      22.599   2.953  24.706  1.00  0.00     0.006 C 
BRANCH  20  21
ATOM     21  C   UNL     1      23.081   2.799  26.155  1.00  0.00     0.053 C 
BRANCH  21  22
ATOM     22  C   UNL     1      24.129   3.819  26.478  1.00  0.00     0.041 C 
ATOM     23  O   UNL     1      25.347   3.552  26.301  1.00  0.00    -0.550 OA
ATOM     24  O   UNL     1      23.760   5.067  26.966  1.00  0.00    -0.550 OA
ENDBRANCH  21  22
ENDBRANCH  20  21
ENDBRANCH  19  20
ENDBRANCH  18  19
ENDBRANCH  17  18
ENDBRANCH  16  17
ENDBRANCH  15  16
ENDBRANCH  14  15
ENDBRANCH  13  14
ENDBRANCH   1  13
TORSDOF 20
ENDMDL
MODEL 3
REMARK VINA RESULT:    -3.214      2.273      3.722
REMARK INTER + INTRA:         -10.704
REMARK INTER:                  -7.518
REMARK INTRA:                  -3.186
REMARK UNBOUND:                -3.732
REMARK SMILES CCCCCCCCCCCCCCCCCCCCCC(=O)[O-]
REMARK SMILES IDX 12 1 11 2 10 3 9 4 8 5 7 6 6 7 5 8 4 9 3 10 2 11 1 12 13 13
REMARK SMILES IDX 14 14 15 15 16 16 17 17 18 18 19 19 20 20 21 21 22 22 23 23
REMARK SMILES IDX 24 24
REMARK H PARENT
REMARK Flexibility Score: inf
ROOT
ATOM      1  C   UNL     1      20.440   1.570  25.807  1.00  0.00     0.000 C 
ENDROOT
BRANCH   1   2
ATOM      2  C   UNL     1      19.142   2.386  25.936  1.00  0.00     0.000 C 
BRANCH   2   3
ATOM      3  C   UNL     1      19.287   3.580  26.893  1.00  0.00     0.000 C 
BRANCH   3   4
ATOM      4  C   UNL     1      19.086   4.931  26.189  1.00  0.00    -0.000 C 
BRANCH   4   5
ATOM      5  C   UNL     1      18.995   4.749  24.667  1.00  0.00    -0.000 C 
BRANCH   5   6
ATOM      6  C   UNL     1      20.015   5.609  23.897  1.00  0.00    -0.000 C 
BRANCH   6   7
ATOM      7  C   UNL     1      20.398   6.931  24.589  1.00  0.00    -0.000 C 
BRANCH   7   8
ATOM      8  C   UNL     1      19.891   8.203  23.884  1.00  0.00    -0.000 C 
BRANCH   8   9
ATOM      9  C   UNL     1      19.003   9.094  24.779  1.00  0.00    -0.000 C 
BRANCH   9  10
ATOM     10  C   UNL     1      17.739   8.362  25.262  1.00  0.00    -0.000 C 
BRANCH  10  11
ATOM     11  C   UNL     1      16.595   8.425  24.238  1.00  0.00    -0.003 C 
ATOM     12  C   UNL     1      16.477   7.146  23.408  1.00  0.00     0.004 C 
ENDBRANCH  10  11
ENDBRANCH   9  10
ENDBRANCH   8   9
ENDBRANCH   7   8
ENDBRANCH   6   7
ENDBRANCH   5   6
ENDBRANCH   4   5
ENDBRANCH   3   4
ENDBRANCH   2   3
ENDBRANCH   1   2
BRANCH   1  13
ATOM     13  C   UNL     1      20.889   1.389  24.346  1.00  0.00     0.000 C 
BRANCH  13  14
ATOM     14  C   UNL     1      22.168   2.155  23.965  1.00  0.00     0.000 C 
BRANCH  14  15
ATOM     15  C   UNL     1      22.438   3.364  24.877  1.00  0.00     0.000 C 
BRANCH  15  16
ATOM     16  C   UNL     1      23.687   3.159  25.757  1.00  0.00     0.000 C 
BRANCH  16  17
ATOM     17  C   UNL     1      23.684   3.991  27.051  1.00  0.00     0.000 C 
BRANCH  17  18
ATOM     18  C   UNL     1      22.777   5.241  27.002  1.00  0.00     0.000 C 
BRANCH  18  19
ATOM     19  C   UNL     1      23.318   6.476  27.754  1.00  0.00     0.000 C 
BRANCH  19  20
ATOM     20  C   UNL     1      23.011   7.840  27.104  1.00  0.00     0.006 C 
BRANCH  20  21
ATOM     21  C   UNL     1      23.744   9.010  27.773  1.00  0.00     0.053 C 
BRANCH  21  22
ATOM     22  C   UNL     1      25.126   9.160  27.216  1.00  0.00     0.041 C 
ATOM     23  O   UNL     1      26.115   9.241  27.991  1.00  0.00    -0.550 OA
ATOM     24  O   UNL     1      25.322   9.201  25.841  1.00  0.00    -0.550 OA
ENDBRANCH  21  22
ENDBRANCH  20  21
ENDBRANCH  19  20
ENDBRANCH  18  19
ENDBRANCH  17  18
ENDBRANCH  16  17
ENDBRANCH  15  16
ENDBRANCH  14  15
ENDBRANCH  13  14
ENDBRANCH   1  13
TORSDOF 20
ENDMDL
MODEL 4
REMARK VINA RESULT:    -3.153      2.285      4.051
REMARK INTER + INTRA:         -10.572
REMARK INTER:                  -7.221
REMARK INTRA:                  -3.351
REMARK UNBOUND:                -3.732
REMARK SMILES CCCCCCCCCCCCCCCCCCCCCC(=O)[O-]
REMARK SMILES IDX 12 1 11 2 10 3 9 4 8 5 7 6 6 7 5 8 4 9 3 10 2 11 1 12 13 13
REMARK SMILES IDX 14 14 15 15 16 16 17 17 18 18 19 19 20 20 21 21 22 22 23 23
REMARK SMILES IDX 24 24
REMARK H PARENT
REMARK Flexibility Score: inf
ROOT
ATOM      1  C   UNL     1      21.801   1.964  23.781  1.00  0.00     0.000 C 
ENDROOT
BRANCH   1   2
ATOM      2  C   UNL     1      20.882   1.002  24.554  1.00  0.00     0.000 C 
BRANCH   2   3
ATOM      3  C   UNL     1      19.782   1.737  25.337  1.00  0.00     0.000 C 
BRANCH   3   4
ATOM      4  C   UNL     1      19.834   1.448  26.845  1.00  0.00    -0.000 C 
BRANCH   4   5
ATOM      5  C   UNL     1      19.421   2.686  27.655  1.00  0.00    -0.000 C 
BRANCH   5   6
ATOM      6  C   UNL     1      18.909   3.838  26.771  1.00  0.00    -0.000 C 
BRANCH   6   7
ATOM      7  C   UNL     1      19.180   5.249  27.326  1.00  0.00    -0.000 C 
BRANCH   7   8
ATOM      8  C   UNL     1      19.211   6.368  26.269  1.00  0.00    -0.000 C 
BRANCH   8   9
ATOM      9  C   UNL     1      18.878   5.881  24.842  1.00  0.00    -0.000 C 
BRANCH   9  10
ATOM     10  C   UNL     1      19.697   6.619  23.767  1.00  0.00    -0.000 C 
BRANCH  10  11
ATOM     11  C   UNL     1      19.428   8.131  23.757  1.00  0.00    -0.003 C 
ATOM     12  C   UNL     1      20.697   8.956  23.972  1.00  0.00     0.004 C 
ENDBRANCH  10  11
ENDBRANCH   9  10
ENDBRANCH   8   9
ENDBRANCH   7   8
ENDBRANCH   6   7
ENDBRANCH   5   6
ENDBRANCH   4   5
ENDBRANCH   3   4
ENDBRANCH   2   3
ENDBRANCH   1   2
BRANCH   1  13
ATOM     13  C   UNL     1      21.443   3.443  24.005  1.00  0.00     0.000 C 
BRANCH  13  14
ATOM     14  C   UNL     1      22.136   4.100  25.211  1.00  0.00     0.000 C 
BRANCH  14  15
ATOM     15  C   UNL     1      23.405   3.350  25.655  1.00  0.00     0.000 C 
BRANCH  15  16
ATOM     16  C   UNL     1      23.432   3.107  27.177  1.00  0.00     0.000 C 
BRANCH  16  17
ATOM     17  C   UNL     1      22.767   4.225  28.001  1.00  0.00     0.000 C 
BRANCH  17  18
ATOM     18  C   UNL     1      23.438   5.608  27.854  1.00  0.00     0.000 C 
BRANCH  18  19
ATOM     19  C   UNL     1      22.490   6.818  27.998  1.00  0.00     0.000 C 
BRANCH  19  20
ATOM     20  C   UNL     1      22.716   7.967  26.994  1.00  0.00     0.006 C 
BRANCH  20  21
ATOM     21  C   UNL     1      23.574   9.107  27.559  1.00  0.00     0.053 C 
BRANCH  21  22
ATOM     22  C   UNL     1      24.760   9.364  26.681  1.00  0.00     0.041 C 
ATOM     23  O   UNL     1      24.595   9.719  25.484  1.00  0.00    -0.550 OA
ATOM     24  O   UNL     1      26.046   9.221  27.187  1.00  0.00    -0.550 OA
ENDBRANCH  21  22
ENDBRANCH  20  21
ENDBRANCH  19  20
ENDBRANCH  18  19
ENDBRANCH  17  18
ENDBRANCH  16  17
ENDBRANCH  15  16
ENDBRANCH  14  15
ENDBRANCH  13  14
ENDBRANCH   1  13
TORSDOF 20
ENDMDL
MODEL 5
REMARK VINA RESULT:    -3.111      2.119      3.035
REMARK INTER + INTRA:         -10.480
REMARK INTER:                  -7.212
REMARK INTRA:                  -3.268
REMARK UNBOUND:                -3.732
REMARK SMILES CCCCCCCCCCCCCCCCCCCCCC(=O)[O-]
REMARK SMILES IDX 12 1 11 2 10 3 9 4 8 5 7 6 6 7 5 8 4 9 3 10 2 11 1 12 13 13
REMARK SMILES IDX 14 14 15 15 16 16 17 17 18 18 19 19 20 20 21 21 22 22 23 23
REMARK SMILES IDX 24 24
REMARK H PARENT
REMARK Flexibility Score: inf
ROOT
ATOM      1  C   UNL     1      21.276   2.593  23.612  1.00  0.00     0.000 C 
ENDROOT
BRANCH   1   2
ATOM      2  C   UNL     1      21.594   3.980  24.196  1.00  0.00     0.000 C 
BRANCH   2   3
ATOM      3  C   UNL     1      20.475   5.002  23.937  1.00  0.00     0.000 C 
BRANCH   3   4
ATOM      4  C   UNL     1      19.198   4.696  24.734  1.00  0.00    -0.000 C 
BRANCH   4   5
ATOM      5  C   UNL     1      19.363   5.090  26.209  1.00  0.00    -0.000 C 
BRANCH   5   6
ATOM      6  C   UNL     1      18.880   6.523  26.505  1.00  0.00    -0.000 C 
BRANCH   6   7
ATOM      7  C   UNL     1      19.870   7.634  26.109  1.00  0.00    -0.000 C 
BRANCH   7   8
ATOM      8  C   UNL     1      19.226   8.886  25.486  1.00  0.00    -0.000 C 
BRANCH   8   9
ATOM      9  C   UNL     1      19.504   9.038  23.975  1.00  0.00    -0.000 C 
BRANCH   9  10
ATOM     10  C   UNL     1      18.210   9.162  23.151  1.00  0.00    -0.000 C 
BRANCH  10  11
ATOM     11  C   UNL     1      16.980   8.636  23.905  1.00  0.00    -0.003 C 
ATOM     12  C   UNL     1      16.628   7.197  23.525  1.00  0.00     0.004 C 
ENDBRANCH  10  11
ENDBRANCH   9  10
ENDBRANCH   8   9
ENDBRANCH   7   8
ENDBRANCH   6   7
ENDBRANCH   5   6
ENDBRANCH   4   5
ENDBRANCH   3   4
ENDBRANCH   2   3
ENDBRANCH   1   2
BRANCH   1  13
ATOM     13  C   UNL     1      21.352   1.470  24.661  1.00  0.00     0.000 C 
BRANCH  13  14
ATOM     14  C   UNL     1      20.149   1.398  25.617  1.00  0.00     0.000 C 
BRANCH  14  15
ATOM     15  C   UNL     1      20.527   1.679  27.081  1.00  0.00     0.000 C 
BRANCH  15  16
ATOM     16  C   UNL     1      22.024   2.009  27.240  1.00  0.00     0.000 C 
BRANCH  16  17
ATOM     17  C   UNL     1      22.300   3.288  28.052  1.00  0.00     0.000 C 
BRANCH  17  18
ATOM     18  C   UNL     1      23.346   4.231  27.417  1.00  0.00     0.000 C 
BRANCH  18  19
ATOM     19  C   UNL     1      22.874   5.684  27.195  1.00  0.00     0.000 C 
BRANCH  19  20
ATOM     20  C   UNL     1      23.856   6.782  27.649  1.00  0.00     0.006 C 
BRANCH  20  21
ATOM     21  C   UNL     1      23.427   8.193  27.226  1.00  0.00     0.053 C 
BRANCH  21  22
ATOM     22  C   UNL     1      24.604   8.987  26.751  1.00  0.00     0.041 C 
ATOM     23  O   UNL     1      25.755   8.745  27.204  1.00  0.00    -0.550 OA
ATOM     24  O   UNL     1      24.434   9.988  25.802  1.00  0.00    -0.550 OA
ENDBRANCH  21  22
ENDBRANCH  20  21
ENDBRANCH  19  20
ENDBRANCH  18  19
ENDBRANCH  17  18
ENDBRANCH  16  17
ENDBRANCH  15  16
ENDBRANCH  14  15
ENDBRANCH  13  14
ENDBRANCH   1  13
TORSDOF 20
ENDMDL
MODEL 6
REMARK VINA RESULT:    -3.096      3.056      6.737
REMARK INTER + INTRA:         -10.448
REMARK INTER:                  -6.864
REMARK INTRA:                  -3.584
REMARK UNBOUND:                -3.732
REMARK SMILES CCCCCCCCCCCCCCCCCCCCCC(=O)[O-]
REMARK SMILES IDX 12 1 11 2 10 3 9 4 8 5 7 6 6 7 5 8 4 9 3 10 2 11 1 12 13 13
REMARK SMILES IDX 14 14 15 15 16 16 17 17 18 18 19 19 20 20 21 21 22 22 23 23
REMARK SMILES IDX 24 24
REMARK H PARENT
REMARK Flexibility Score: inf
ROOT
ATOM      1  C   UNL     1      22.888   4.092  27.935  1.00  0.00     0.000 C 
ENDROOT
BRANCH   1   2
ATOM      2  C   UNL     1      23.502   2.695  27.744  1.00  0.00     0.000 C 
BRANCH   2   3
ATOM      3  C   UNL     1      22.442   1.583  27.706  1.00  0.00     0.000 C 
BRANCH   3   4
ATOM      4  C   UNL     1      21.013   2.131  27.567  1.00  0.00    -0.000 C 
BRANCH   4   5
ATOM      5  C   UNL     1      20.351   1.615  26.281  1.00  0.00    -0.000 C 
BRANCH   5   6
ATOM      6  C   UNL     1      21.372   1.202  25.204  1.00  0.00    -0.000 C 
BRANCH   6   7
ATOM      7  C   UNL     1      21.341   2.055  23.923  1.00  0.00    -0.000 C 
BRANCH   7   8
ATOM      8  C   UNL     1      21.871   3.491  24.086  1.00  0.00    -0.000 C 
BRANCH   8   9
ATOM      9  C   UNL     1      20.771   4.571  24.000  1.00  0.00    -0.000 C 
BRANCH   9  10
ATOM     10  C   UNL     1      20.666   5.402  25.291  1.00  0.00    -0.000 C 
BRANCH  10  11
ATOM     11  C   UNL     1      19.288   5.281  25.959  1.00  0.00    -0.003 C 
ATOM     12  C   UNL     1      19.359   5.405  27.481  1.00  0.00     0.004 C 
ENDBRANCH  10  11
ENDBRANCH   9  10
ENDBRANCH   8   9
ENDBRANCH   7   8
ENDBRANCH   6   7
ENDBRANCH   5   6
ENDBRANCH   4   5
ENDBRANCH   3   4
ENDBRANCH   2   3
ENDBRANCH   1   2
BRANCH   1  13
ATOM     13  C   UNL     1      23.740   5.210  27.307  1.00  0.00     0.000 C 
BRANCH  13  14
ATOM     14  C   UNL     1      23.294   6.639  27.665  1.00  0.00     0.000 C 
BRANCH  14  15
ATOM     15  C   UNL     1      24.342   7.704  27.300  1.00  0.00     0.000 C 
BRANCH  15  16
ATOM     16  C   UNL     1      23.692   9.007  26.793  1.00  0.00     0.000 C 
BRANCH  16  17
ATOM     17  C   UNL     1      22.190   8.876  26.481  1.00  0.00     0.000 C 
BRANCH  17  18
ATOM     18  C   UNL     1      21.742   9.605  25.195  1.00  0.00     0.000 C 
BRANCH  18  19
ATOM     19  C   UNL     1      20.826   8.786  24.260  1.00  0.00     0.000 C 
BRANCH  19  20
ATOM     20  C   UNL     1      19.316   8.881  24.554  1.00  0.00     0.006 C 
BRANCH  20  21
ATOM     21  C   UNL     1      18.447   8.197  23.490  1.00  0.00     0.053 C 
BRANCH  21  22
ATOM     22  C   UNL     1      17.166   7.702  24.089  1.00  0.00     0.041 C 
ATOM     23  O   UNL     1      16.314   7.118  23.367  1.00  0.00    -0.550 OA
ATOM     24  O   UNL     1      16.916   7.879  25.444  1.00  0.00    -0.550 OA
ENDBRANCH  21  22
ENDBRANCH  20  21
ENDBRANCH  19  20
ENDBRANCH  18  19
ENDBRANCH  17  18
ENDBRANCH  16  17
ENDBRANCH  15  16
ENDBRANCH  14  15
ENDBRANCH  13  14
ENDBRANCH   1  13
TORSDOF 20
ENDMDL
MODEL 7
REMARK VINA RESULT:    -3.092      2.692      5.597
REMARK INTER + INTRA:         -10.440
REMARK INTER:                  -7.171
REMARK INTRA:                  -3.269
REMARK UNBOUND:                -3.732
REMARK SMILES CCCCCCCCCCCCCCCCCCCCCC(=O)[O-]
REMARK SMILES IDX 12 1 11 2 10 3 9 4 8 5 7 6 6 7 5 8 4 9 3 10 2 11 1 12 13 13
REMARK SMILES IDX 14 14 15 15 16 16 17 17 18 18 19 19 20 20 21 21 22 22 23 23
REMARK SMILES IDX 24 24
REMARK H PARENT
REMARK Flexibility Score: inf
ROOT
ATOM      1  C   UNL     1      21.936   2.282  24.302  1.00  0.00     0.000 C 
ENDROOT
BRANCH   1   2
ATOM      2  C   UNL     1      20.740   1.564  24.953  1.00  0.00     0.000 C 
BRANCH   2   3
ATOM      3  C   UNL     1      20.843   1.515  26.486  1.00  0.00     0.000 C 
BRANCH   3   4
ATOM      4  C   UNL     1      22.262   1.817  26.995  1.00  0.00    -0.000 C 
BRANCH   4   5
ATOM      5  C   UNL     1      22.251   2.989  27.986  1.00  0.00    -0.000 C 
BRANCH   5   6
ATOM      6  C   UNL     1      20.953   3.817  27.922  1.00  0.00    -0.000 C 
BRANCH   6   7
ATOM      7  C   UNL     1      21.160   5.342  27.890  1.00  0.00    -0.000 C 
BRANCH   7   8
ATOM      8  C   UNL     1      22.426   5.810  27.150  1.00  0.00    -0.000 C 
BRANCH   8   9
ATOM      9  C   UNL     1      23.196   6.929  27.885  1.00  0.00    -0.000 C 
BRANCH   9  10
ATOM     10  C   UNL     1      24.470   7.352  27.133  1.00  0.00    -0.000 C 
BRANCH  10  11
ATOM     11  C   UNL     1      25.125   8.602  27.741  1.00  0.00    -0.003 C 
ATOM     12  C   UNL     1      25.744   9.515  26.683  1.00  0.00     0.004 C 
ENDBRANCH  10  11
ENDBRANCH   9  10
ENDBRANCH   8   9
ENDBRANCH   7   8
ENDBRANCH   6   7
ENDBRANCH   5   6
ENDBRANCH   4   5
ENDBRANCH   3   4
ENDBRANCH   2   3
ENDBRANCH   1   2
BRANCH   1  13
ATOM     13  C   UNL     1      21.631   3.748  23.946  1.00  0.00     0.000 C 
BRANCH  13  14
ATOM     14  C   UNL     1      20.211   4.217  24.309  1.00  0.00     0.000 C 
BRANCH  14  15
ATOM     15  C   UNL     1      20.045   5.744  24.224  1.00  0.00     0.000 C 
BRANCH  15  16
ATOM     16  C   UNL     1      18.617   6.150  23.807  1.00  0.00     0.000 C 
BRANCH  16  17
ATOM     17  C   UNL     1      17.934   7.127  24.780  1.00  0.00     0.000 C 
BRANCH  17  18
ATOM     18  C   UNL     1      18.256   6.870  26.269  1.00  0.00     0.000 C 
BRANCH  18  19
ATOM     19  C   UNL     1      18.663   8.120  27.080  1.00  0.00     0.000 C 
BRANCH  19  20
ATOM     20  C   UNL     1      20.090   8.644  26.827  1.00  0.00     0.006 C 
BRANCH  20  21
ATOM     21  C   UNL     1      20.145   9.785  25.803  1.00  0.00     0.053 C 
BRANCH  21  22
ATOM     22  C   UNL     1      21.220   9.537  24.789  1.00  0.00     0.041 C 
ATOM     23  O   UNL     1      22.432   9.657  25.111  1.00  0.00    -0.550 OA
ATOM     24  O   UNL     1      20.884   9.167  23.493  1.00  0.00    -0.550 OA
ENDBRANCH  21  22
ENDBRANCH  20  21
ENDBRANCH  19  20
ENDBRANCH  18  19
ENDBRANCH  17  18
ENDBRANCH  16  17
ENDBRANCH  15  16
ENDBRANCH  14  15
ENDBRANCH  13  14
ENDBRANCH   1  13
TORSDOF 20
ENDMDL
MODEL 8
REMARK VINA RESULT:    -3.083      2.450      4.278
REMARK INTER + INTRA:         -10.419
REMARK INTER:                  -6.920
REMARK INTRA:                  -3.499
REMARK UNBOUND:                -3.732
REMARK SMILES CCCCCCCCCCCCCCCCCCCCCC(=O)[O-]
REMARK SMILES IDX 12 1 11 2 10 3 9 4 8 5 7 6 6 7 5 8 4 9 3 10 2 11 1 12 13 13
REMARK SMILES IDX 14 14 15 15 16 16 17 17 18 18 19 19 20 20 21 21 22 22 23 23
REMARK SMILES IDX 24 24
REMARK H PARENT
REMARK Flexibility Score: inf
ROOT
ATOM      1  C   UNL     1      21.699   6.228  27.481  1.00  0.00     0.000 C 
ENDROOT
BRANCH   1   2
ATOM      2  C   UNL     1      21.237   7.183  26.366  1.00  0.00     0.000 C 
BRANCH   2   3
ATOM      3  C   UNL     1      21.069   8.629  26.859  1.00  0.00     0.000 C 
BRANCH   3   4
ATOM      4  C   UNL     1      20.555   9.574  25.761  1.00  0.00    -0.000 C 
BRANCH   4   5
ATOM      5  C   UNL     1      21.327   9.362  24.450  1.00  0.00    -0.000 C 
BRANCH   5   6
ATOM      6  C   UNL     1      20.405   9.265  23.220  1.00  0.00    -0.000 C 
BRANCH   6   7
ATOM      7  C   UNL     1      19.379   8.119  23.270  1.00  0.00    -0.000 C 
BRANCH   7   8
ATOM      8  C   UNL     1      17.905   8.566  23.273  1.00  0.00    -0.000 C 
BRANCH   8   9
ATOM      9  C   UNL     1      16.949   7.545  23.925  1.00  0.00    -0.000 C 
BRANCH   9  10
ATOM     10  C   UNL     1      16.224   8.125  25.153  1.00  0.00    -0.000 C 
BRANCH  10  11
ATOM     11  C   UNL     1      17.144   8.247  26.377  1.00  0.00    -0.003 C 
ATOM     12  C   UNL     1      17.686   6.895  26.843  1.00  0.00     0.004 C 
ENDBRANCH  10  11
ENDBRANCH   9  10
ENDBRANCH   8   9
ENDBRANCH   7   8
ENDBRANCH   6   7
ENDBRANCH   5   6
ENDBRANCH   4   5
ENDBRANCH   3   4
ENDBRANCH   2   3
ENDBRANCH   1   2
BRANCH   1  13
ATOM     13  C   UNL     1      22.812   5.270  27.022  1.00  0.00     0.000 C 
BRANCH  13  14
ATOM     14  C   UNL     1      22.733   3.855  27.622  1.00  0.00     0.000 C 
BRANCH  14  15
ATOM     15  C   UNL     1      23.035   2.750  26.595  1.00  0.00     0.000 C 
BRANCH  15  16
ATOM     16  C   UNL     1      22.995   3.277  25.147  1.00  0.00     0.000 C 
BRANCH  16  17
ATOM     17  C   UNL     1      21.704   2.922  24.388  1.00  0.00     0.000 C 
BRANCH  17  18
ATOM     18  C   UNL     1      20.841   4.141  23.996  1.00  0.00     0.000 C 
BRANCH  18  19
ATOM     19  C   UNL     1      19.478   4.241  24.716  1.00  0.00     0.000 C 
BRANCH  19  20
ATOM     20  C   UNL     1      19.396   3.547  26.090  1.00  0.00     0.006 C 
BRANCH  20  21
ATOM     21  C   UNL     1      18.548   2.269  26.074  1.00  0.00     0.053 C 
BRANCH  21  22
ATOM     22  C   UNL     1      18.926   1.366  27.208  1.00  0.00     0.041 C 
ATOM     23  O   UNL     1      20.026   1.524  27.802  1.00  0.00    -0.550 OA
ATOM     24  O   UNL     1      18.062   0.356  27.614  1.00  0.00    -0.550 OA
ENDBRANCH  21  22
ENDBRANCH  20  21
ENDBRANCH  19  20
ENDBRANCH  18  19
ENDBRANCH  17  18
ENDBRANCH  16  17
ENDBRANCH  15  16
ENDBRANCH  14  15
ENDBRANCH  13  14
ENDBRANCH   1  13
TORSDOF 20
ENDMDL
MODEL 9
REMARK VINA RESULT:    -3.079      2.764      5.393
REMARK INTER + INTRA:         -10.411
REMARK INTER:                  -7.414
REMARK INTRA:                  -2.997
REMARK UNBOUND:                -3.732
REMARK SMILES CCCCCCCCCCCCCCCCCCCCCC(=O)[O-]
REMARK SMILES IDX 12 1 11 2 10 3 9 4 8 5 7 6 6 7 5 8 4 9 3 10 2 11 1 12 13 13
REMARK SMILES IDX 14 14 15 15 16 16 17 17 18 18 19 19 20 20 21 21 22 22 23 23
REMARK SMILES IDX 24 24
REMARK H PARENT
REMARK Flexibility Score: inf
ROOT
ATOM      1  C   UNL     1      20.357   1.052  24.571  1.00  0.00     0.000 C 
ENDROOT
BRANCH   1   2
ATOM      2  C   UNL     1      21.641   1.706  24.032  1.00  0.00     0.000 C 
BRANCH   2   3
ATOM      3  C   UNL     1      21.462   3.203  23.733  1.00  0.00     0.000 C 
BRANCH   3   4
ATOM      4  C   UNL     1      22.115   4.101  24.796  1.00  0.00    -0.000 C 
BRANCH   4   5
ATOM      5  C   UNL     1      23.183   3.330  25.585  1.00  0.00    -0.000 C 
BRANCH   5   6
ATOM      6  C   UNL     1      22.983   3.418  27.110  1.00  0.00    -0.000 C 
BRANCH   6   7
ATOM      7  C   UNL     1      23.817   4.508  27.809  1.00  0.00    -0.000 C 
BRANCH   7   8
ATOM      8  C   UNL     1      23.124   5.878  27.930  1.00  0.00    -0.000 C 
BRANCH   8   9
ATOM      9  C   UNL     1      24.025   7.065  27.526  1.00  0.00    -0.000 C 
BRANCH   9  10
ATOM     10  C   UNL     1      23.210   8.297  27.095  1.00  0.00    -0.000 C 
BRANCH  10  11
ATOM     11  C   UNL     1      24.074   9.560  26.966  1.00  0.00    -0.003 C 
ATOM     12  C   UNL     1      25.561   9.242  26.808  1.00  0.00     0.004 C 
ENDBRANCH  10  11
ENDBRANCH   9  10
ENDBRANCH   8   9
ENDBRANCH   7   8
ENDBRANCH   6   7
ENDBRANCH   5   6
ENDBRANCH   4   5
ENDBRANCH   3   4
ENDBRANCH   2   3
ENDBRANCH   1   2
BRANCH   1  13
ATOM     13  C   UNL     1      20.004   1.514  25.996  1.00  0.00     0.000 C 
BRANCH  13  14
ATOM     14  C   UNL     1      18.652   2.238  26.122  1.00  0.00     0.000 C 
BRANCH  14  15
ATOM     15  C   UNL     1      18.360   2.717  27.555  1.00  0.00     0.000 C 
BRANCH  15  16
ATOM     16  C   UNL     1      18.264   4.253  27.644  1.00  0.00     0.000 C 
BRANCH  16  17
ATOM     17  C   UNL     1      19.618   4.973  27.513  1.00  0.00     0.000 C 
BRANCH  17  18
ATOM     18  C   UNL     1      19.686   5.995  26.357  1.00  0.00     0.000 C 
BRANCH  18  19
ATOM     19  C   UNL     1      18.791   5.674  25.141  1.00  0.00     0.000 C 
BRANCH  19  20
ATOM     20  C   UNL     1      18.778   6.736  24.022  1.00  0.00     0.006 C 
BRANCH  20  21
ATOM     21  C   UNL     1      20.173   7.278  23.683  1.00  0.00     0.053 C 
BRANCH  21  22
ATOM     22  C   UNL     1      20.188   8.774  23.733  1.00  0.00     0.041 C 
ATOM     23  O   UNL     1      20.476   9.439  22.703  1.00  0.00    -0.550 OA
ATOM     24  O   UNL     1      19.875   9.436  24.915  1.00  0.00    -0.550 OA
ENDBRANCH  21  22
ENDBRANCH  20  21
ENDBRANCH  19  20
ENDBRANCH  18  19
ENDBRANCH  17  18
ENDBRANCH  16  17
ENDBRANCH  15  16
ENDBRANCH  14  15
ENDBRANCH  13  14
ENDBRANCH   1  13
TORSDOF 20
ENDMDL
