MODEL 1
REMARK VINA RESULT:    -3.335      0.000      0.000
REMARK INTER + INTRA:         -13.234
REMARK INTER:                  -8.405
REMARK INTRA:                  -4.829
REMARK UNBOUND:                -4.829
REMARK SMILES CCCCCCCCCCCCCCCCCCCCCCCCCCCC(=O)[O-]
REMARK SMILES IDX 15 1 16 2 17 3 18 4 19 5 20 6 21 7 22 8 23 9 24 10 25 11
REMARK SMILES IDX 26 12 27 13 28 14 29 15 30 16 14 17 13 18 12 19 11 20 10 21
REMARK SMILES IDX 9 22 8 23 7 24 6 25 5 26 4 27 3 28 2 29 1 30
REMARK H PARENT
REMARK Flexibility Score: inf
ROOT
ATOM      1  C   UNL     1      25.549  22.827  15.186  1.00  0.00     0.000 C 
ENDROOT
BRANCH   1   2
ATOM      2  C   UNL     1      24.843  23.299  13.902  1.00  0.00     0.000 C 
BRANCH   2   3
ATOM      3  C   UNL     1      23.407  22.765  13.779  1.00  0.00     0.000 C 
BRANCH   3   4
ATOM      4  C   UNL     1      22.637  22.837  15.112  1.00  0.00     0.000 C 
BRANCH   4   5
ATOM      5  C   UNL     1      21.427  21.885  15.193  1.00  0.00     0.000 C 
BRANCH   5   6
ATOM      6  C   UNL     1      21.087  21.415  16.621  1.00  0.00     0.000 C 
BRANCH   6   7
ATOM      7  C   UNL     1      21.945  20.221  17.068  1.00  0.00     0.000 C 
BRANCH   7   8
ATOM      8  C   UNL     1      22.807  20.586  18.285  1.00  0.00     0.000 C 
BRANCH   8   9
ATOM      9  C   UNL     1      24.195  21.126  17.897  1.00  0.00     0.000 C 
BRANCH   9  10
ATOM     10  C   UNL     1      24.964  21.816  19.038  1.00  0.00     0.000 C 
BRANCH  10  11
ATOM     11  C   UNL     1      26.486  21.615  18.940  1.00  0.00     0.000 C 
BRANCH  11  12
ATOM     12  C   UNL     1      26.898  20.696  17.774  1.00  0.00     0.006 C 
BRANCH  12  13
ATOM     13  C   UNL     1      27.880  19.583  18.179  1.00  0.00     0.053 C 
BRANCH  13  14
ATOM     14  C   UNL     1      28.915  19.314  17.131  1.00  0.00     0.041 C 
ATOM     15  O   UNL     1      29.447  18.176  17.040  1.00  0.00    -0.550 OA
ATOM     16  O   UNL     1      29.304  20.326  16.263  1.00  0.00    -0.550 OA
ENDBRANCH  13  14
ENDBRANCH  12  13
ENDBRANCH  11  12
ENDBRANCH  10  11
ENDBRANCH   9  10
ENDBRANCH   8   9
ENDBRANCH   7   8
ENDBRANCH   6   7
ENDBRANCH   5   6
ENDBRANCH   4   5
ENDBRANCH   3   4
ENDBRANCH   2   3
ENDBRANCH   1   2
BRANCH   1  17
ATOM     17  C   UNL     1      26.111  23.982  16.042  1.00  0.00     0.000 C 
BRANCH  17  18
ATOM     18  C   UNL     1      25.051  24.573  16.990  1.00  0.00     0.000 C 
BRANCH  18  19
ATOM     19  C   UNL     1      25.613  25.685  17.891  1.00  0.00     0.000 C 
BRANCH  19  20
ATOM     20  C   UNL     1      25.291  25.458  19.378  1.00  0.00     0.000 C 
BRANCH  20  21
ATOM     21  C   UNL     1      25.079  26.772  20.154  1.00  0.00     0.000 C 
BRANCH  21  22
ATOM     22  C   UNL     1      25.438  28.056  19.384  1.00  0.00    -0.000 C 
BRANCH  22  23
ATOM     23  C   UNL     1      24.499  29.233  19.705  1.00  0.00    -0.000 C 
BRANCH  23  24
ATOM     24  C   UNL     1      23.200  29.185  18.884  1.00  0.00    -0.000 C 
BRANCH  24  25
ATOM     25  C   UNL     1      21.996  28.706  19.715  1.00  0.00    -0.000 C 
BRANCH  25  26
ATOM     26  C   UNL     1      21.284  27.500  19.083  1.00  0.00    -0.000 C 
BRANCH  26  27
ATOM     27  C   UNL     1      21.994  26.981  17.824  1.00  0.00    -0.000 C 
BRANCH  27  28
ATOM     28  C   UNL     1      21.580  25.537  17.516  1.00  0.00    -0.000 C 
BRANCH  28  29
ATOM     29  C   UNL     1      20.962  24.865  18.748  1.00  0.00    -0.003 C 
ATOM     30  C   UNL     1      21.936  23.880  19.386  1.00  0.00     0.004 C 
ENDBRANCH  28  29
ENDBRANCH  27  28
ENDBRANCH  26  27
ENDBRANCH  25  26
ENDBRANCH  24  25
ENDBRANCH  23  24
ENDBRANCH  22  23
ENDBRANCH  21  22
ENDBRANCH  20  21
ENDBRANCH  19  20
ENDBRANCH  18  19
ENDBRANCH  17  18
ENDBRANCH   1  17
TORSDOF 26
ENDMDL
MODEL 2
REMARK VINA RESULT:    -3.100      1.124      2.872
REMARK INTER + INTRA:         -12.640
REMARK INTER:                  -8.192
REMARK INTRA:                  -4.448
REMARK UNBOUND:                -4.829
REMARK SMILES CCCCCCCCCCCCCCCCCCCCCCCCCCCC(=O)[O-]
REMARK SMILES IDX 15 1 16 2 17 3 18 4 19 5 20 6 21 7 22 8 23 9 24 10 25 11
REMARK SMILES IDX 26 12 27 13 28 14 29 15 30 16 14 17 13 18 12 19 11 20 10 21
REMARK SMILES IDX 9 22 8 23 7 24 6 25 5 26 4 27 3 28 2 29 1 30
REMARK H PARENT
REMARK Flexibility Score: inf
ROOT
ATOM      1  C   UNL     1      25.409  22.739  14.795  1.00  0.00     0.000 C 
ENDROOT
BRANCH   1   2
ATOM      2  C   UNL     1      24.174  23.311  14.077  1.00  0.00     0.000 C 
BRANCH   2   3
ATOM      3  C   UNL     1      22.912  22.460  14.288  1.00  0.00     0.000 C 
BRANCH   3   4
ATOM      4  C   UNL     1      22.014  23.010  15.414  1.00  0.00     0.000 C 
BRANCH   4   5
ATOM      5  C   UNL     1      21.708  21.992  16.531  1.00  0.00     0.000 C 
BRANCH   5   6
ATOM      6  C   UNL     1      22.586  22.152  17.788  1.00  0.00     0.000 C 
BRANCH   6   7
ATOM      7  C   UNL     1      23.857  21.290  17.733  1.00  0.00     0.000 C 
BRANCH   7   8
ATOM      8  C   UNL     1      24.641  21.379  19.049  1.00  0.00     0.000 C 
BRANCH   8   9
ATOM      9  C   UNL     1      26.146  21.623  18.836  1.00  0.00     0.000 C 
BRANCH   9  10
ATOM     10  C   UNL     1      26.799  20.737  17.761  1.00  0.00     0.000 C 
BRANCH  10  11
ATOM     11  C   UNL     1      27.852  19.775  18.339  1.00  0.00     0.000 C 
BRANCH  11  12
ATOM     12  C   UNL     1      28.586  18.964  17.254  1.00  0.00     0.006 C 
BRANCH  12  13
ATOM     13  C   UNL     1      29.568  19.798  16.414  1.00  0.00     0.053 C 
BRANCH  13  14
ATOM     14  C   UNL     1      29.891  19.162  15.098  1.00  0.00     0.041 C 
ATOM     15  O   UNL     1      30.727  19.696  14.322  1.00  0.00    -0.550 OA
ATOM     16  O   UNL     1      29.257  17.985  14.722  1.00  0.00    -0.550 OA
ENDBRANCH  13  14
ENDBRANCH  12  13
ENDBRANCH  11  12
ENDBRANCH  10  11
ENDBRANCH   9  10
ENDBRANCH   8   9
ENDBRANCH   7   8
ENDBRANCH   6   7
ENDBRANCH   5   6
ENDBRANCH   4   5
ENDBRANCH   3   4
ENDBRANCH   2   3
ENDBRANCH   1   2
BRANCH   1  17
ATOM     17  C   UNL     1      26.065  23.730  15.780  1.00  0.00     0.000 C 
BRANCH  17  18
ATOM     18  C   UNL     1      25.023  24.476  16.635  1.00  0.00     0.000 C 
BRANCH  18  19
ATOM     19  C   UNL     1      25.666  25.377  17.702  1.00  0.00     0.000 C 
BRANCH  19  20
ATOM     20  C   UNL     1      25.144  25.080  19.118  1.00  0.00     0.000 C 
BRANCH  20  21
ATOM     21  C   UNL     1      23.950  25.968  19.517  1.00  0.00     0.000 C 
BRANCH  21  22
ATOM     22  C   UNL     1      22.687  25.209  19.965  1.00  0.00    -0.000 C 
BRANCH  22  23
ATOM     23  C   UNL     1      21.408  25.705  19.269  1.00  0.00    -0.000 C 
BRANCH  23  24
ATOM     24  C   UNL     1      21.570  25.795  17.742  1.00  0.00    -0.000 C 
BRANCH  24  25
ATOM     25  C   UNL     1      21.314  27.215  17.206  1.00  0.00    -0.000 C 
BRANCH  25  26
ATOM     26  C   UNL     1      21.223  28.262  18.328  1.00  0.00    -0.000 C 
BRANCH  26  27
ATOM     27  C   UNL     1      22.396  29.254  18.314  1.00  0.00    -0.000 C 
BRANCH  27  28
ATOM     28  C   UNL     1      23.002  29.406  19.714  1.00  0.00    -0.000 C 
BRANCH  28  29
ATOM     29  C   UNL     1      24.448  29.912  19.637  1.00  0.00    -0.003 C 
ATOM     30  C   UNL     1      25.258  29.452  20.844  1.00  0.00     0.004 C 
ENDBRANCH  28  29
ENDBRANCH  27  28
ENDBRANCH  26  27
ENDBRANCH  25  26
ENDBRANCH  24  25
ENDBRANCH  23  24
ENDBRANCH  22  23
ENDBRANCH  21  22
ENDBRANCH  20  21
ENDBRANCH  19  20
ENDBRANCH  18  19
ENDBRANCH  17  18
ENDBRANCH   1  17
TORSDOF 26
ENDMDL
MODEL 3
REMARK VINA RESULT:    -2.967      2.739      7.276
REMARK INTER + INTRA:         -12.305
REMARK INTER:                  -8.245
REMARK INTRA:                  -4.060
REMARK UNBOUND:                -4.829
REMARK SMILES CCCCCCCCCCCCCCCCCCCCCCCCCCCC(=O)[O-]
REMARK SMILES IDX 15 1 16 2 17 3 18 4 19 5 20 6 21 7 22 8 23 9 24 10 25 11
REMARK SMILES IDX 26 12 27 13 28 14 29 15 30 16 14 17 13 18 12 19 11 20 10 21
REMARK SMILES IDX 9 22 8 23 7 24 6 25 5 26 4 27 3 28 2 29 1 30
REMARK H PARENT
REMARK Flexibility Score: inf
ROOT
ATOM      1  C   UNL     1      24.942  23.528  14.031  1.00  0.00     0.000 C 
ENDROOT
BRANCH   1   2
ATOM      2  C   UNL     1      23.851  22.523  13.621  1.00  0.00     0.000 C 
BRANCH   2   3
ATOM      3  C   UNL     1      22.447  23.147  13.582  1.00  0.00     0.000 C 
BRANCH   3   4
ATOM      4  C   UNL     1      21.439  22.381  14.463  1.00  0.00     0.000 C 
BRANCH   4   5
ATOM      5  C   UNL     1      22.019  21.895  15.806  1.00  0.00     0.000 C 
BRANCH   5   6
ATOM      6  C   UNL     1      21.173  22.284  17.036  1.00  0.00     0.000 C 
BRANCH   6   7
ATOM      7  C   UNL     1      21.122  23.803  17.259  1.00  0.00     0.000 C 
BRANCH   7   8
ATOM      8  C   UNL     1      20.955  24.137  18.748  1.00  0.00     0.000 C 
BRANCH   8   9
ATOM      9  C   UNL     1      21.423  25.560  19.100  1.00  0.00     0.000 C 
BRANCH   9  10
ATOM     10  C   UNL     1      22.458  25.638  20.236  1.00  0.00     0.000 C 
BRANCH  10  11
ATOM     11  C   UNL     1      23.055  27.047  20.405  1.00  0.00     0.000 C 
BRANCH  11  12
ATOM     12  C   UNL     1      23.161  27.819  19.076  1.00  0.00     0.006 C 
BRANCH  12  13
ATOM     13  C   UNL     1      24.233  28.923  19.083  1.00  0.00     0.053 C 
BRANCH  13  14
ATOM     14  C   UNL     1      25.572  28.427  19.531  1.00  0.00     0.041 C 
ATOM     15  O   UNL     1      26.089  28.864  20.594  1.00  0.00    -0.550 OA
ATOM     16  O   UNL     1      26.258  27.492  18.767  1.00  0.00    -0.550 OA
ENDBRANCH  13  14
ENDBRANCH  12  13
ENDBRANCH  11  12
ENDBRANCH  10  11
ENDBRANCH   9  10
ENDBRANCH   8   9
ENDBRANCH   7   8
ENDBRANCH   6   7
ENDBRANCH   5   6
ENDBRANCH   4   5
ENDBRANCH   3   4
ENDBRANCH   2   3
ENDBRANCH   1   2
BRANCH   1  17
ATOM     17  C   UNL     1      25.624  23.187  15.373  1.00  0.00     0.000 C 
BRANCH  17  18
ATOM     18  C   UNL     1      25.844  24.435  16.248  1.00  0.00     0.000 C 
BRANCH  18  19
ATOM     19  C   UNL     1      24.781  24.583  17.349  1.00  0.00     0.000 C 
BRANCH  19  20
ATOM     20  C   UNL     1      25.123  23.776  18.612  1.00  0.00     0.000 C 
BRANCH  20  21
ATOM     21  C   UNL     1      24.297  22.482  18.741  1.00  0.00     0.000 C 
BRANCH  21  22
ATOM     22  C   UNL     1      25.074  21.178  18.487  1.00  0.00    -0.000 C 
BRANCH  22  23
ATOM     23  C   UNL     1      26.600  21.357  18.590  1.00  0.00    -0.000 C 
BRANCH  23  24
ATOM     24  C   UNL     1      27.347  20.695  17.421  1.00  0.00    -0.000 C 
BRANCH  24  25
ATOM     25  C   UNL     1      28.031  19.379  17.830  1.00  0.00    -0.000 C 
BRANCH  25  26
ATOM     26  C   UNL     1      29.476  19.279  17.315  1.00  0.00    -0.000 C 
BRANCH  26  27
ATOM     27  C   UNL     1      29.665  19.931  15.938  1.00  0.00    -0.000 C 
BRANCH  27  28
ATOM     28  C   UNL     1      30.048  18.886  14.884  1.00  0.00    -0.000 C 
BRANCH  28  29
ATOM     29  C   UNL     1      28.812  18.126  14.386  1.00  0.00    -0.003 C 
ATOM     30  C   UNL     1      28.829  16.676  14.860  1.00  0.00     0.004 C 
ENDBRANCH  28  29
ENDBRANCH  27  28
ENDBRANCH  26  27
ENDBRANCH  25  26
ENDBRANCH  24  25
ENDBRANCH  23  24
ENDBRANCH  22  23
ENDBRANCH  21  22
ENDBRANCH  20  21
ENDBRANCH  19  20
ENDBRANCH  18  19
ENDBRANCH  17  18
ENDBRANCH   1  17
TORSDOF 26
ENDMDL
MODEL 4
REMARK VINA RESULT:    -2.767      1.256      4.273
REMARK INTER + INTRA:         -11.802
REMARK INTER:                  -7.854
REMARK INTRA:                  -3.948
REMARK UNBOUND:                -4.829
REMARK SMILES CCCCCCCCCCCCCCCCCCCCCCCCCCCC(=O)[O-]
REMARK SMILES IDX 15 1 16 2 17 3 18 4 19 5 20 6 21 7 22 8 23 9 24 10 25 11
REMARK SMILES IDX 26 12 27 13 28 14 29 15 30 16 14 17 13 18 12 19 11 20 10 21
REMARK SMILES IDX 9 22 8 23 7 24 6 25 5 26 4 27 3 28 2 29 1 30
REMARK H PARENT
REMARK Flexibility Score: inf
ROOT
ATOM      1  C   UNL     1      21.970  25.281  17.496  1.00  0.00     0.000 C 
ENDROOT
BRANCH   1   2
ATOM      2  C   UNL     1      21.972  24.233  18.622  1.00  0.00     0.000 C 
BRANCH   2   3
ATOM      3  C   UNL     1      20.894  23.153  18.438  1.00  0.00     0.000 C 
BRANCH   3   4
ATOM      4  C   UNL     1      21.497  21.762  18.162  1.00  0.00     0.000 C 
BRANCH   4   5
ATOM      5  C   UNL     1      22.723  21.781  17.226  1.00  0.00     0.000 C 
BRANCH   5   6
ATOM      6  C   UNL     1      23.928  20.973  17.748  1.00  0.00     0.000 C 
BRANCH   6   7
ATOM      7  C   UNL     1      24.426  21.473  19.113  1.00  0.00     0.000 C 
BRANCH   7   8
ATOM      8  C   UNL     1      25.935  21.752  19.081  1.00  0.00     0.000 C 
BRANCH   8   9
ATOM      9  C   UNL     1      26.667  20.967  17.978  1.00  0.00     0.000 C 
BRANCH   9  10
ATOM     10  C   UNL     1      27.690  19.936  18.486  1.00  0.00     0.000 C 
BRANCH  10  11
ATOM     11  C   UNL     1      27.988  18.833  17.457  1.00  0.00     0.000 C 
BRANCH  11  12
ATOM     12  C   UNL     1      29.477  18.759  17.068  1.00  0.00     0.006 C 
BRANCH  12  13
ATOM     13  C   UNL     1      29.931  19.894  16.133  1.00  0.00     0.053 C 
BRANCH  13  14
ATOM     14  C   UNL     1      30.085  19.447  14.712  1.00  0.00     0.041 C 
ATOM     15  O   UNL     1      29.680  18.309  14.356  1.00  0.00    -0.550 OA
ATOM     16  O   UNL     1      30.692  20.283  13.784  1.00  0.00    -0.550 OA
ENDBRANCH  13  14
ENDBRANCH  12  13
ENDBRANCH  11  12
ENDBRANCH  10  11
ENDBRANCH   9  10
ENDBRANCH   8   9
ENDBRANCH   7   8
ENDBRANCH   6   7
ENDBRANCH   5   6
ENDBRANCH   4   5
ENDBRANCH   3   4
ENDBRANCH   2   3
ENDBRANCH   1   2
BRANCH   1  17
ATOM     17  C   UNL     1      20.951  26.420  17.713  1.00  0.00     0.000 C 
BRANCH  17  18
ATOM     18  C   UNL     1      21.575  27.810  17.494  1.00  0.00     0.000 C 
BRANCH  18  19
ATOM     19  C   UNL     1      21.451  28.719  18.728  1.00  0.00     0.000 C 
BRANCH  19  20
ATOM     20  C   UNL     1      22.754  28.793  19.540  1.00  0.00     0.000 C 
BRANCH  20  21
ATOM     21  C   UNL     1      22.751  27.861  20.767  1.00  0.00     0.000 C 
BRANCH  21  22
ATOM     22  C   UNL     1      23.812  26.745  20.747  1.00  0.00    -0.000 C 
BRANCH  22  23
ATOM     23  C   UNL     1      24.859  26.931  19.635  1.00  0.00    -0.000 C 
BRANCH  23  24
ATOM     24  C   UNL     1      25.420  25.591  19.128  1.00  0.00    -0.000 C 
BRANCH  24  25
ATOM     25  C   UNL     1      25.658  25.590  17.608  1.00  0.00    -0.000 C 
BRANCH  25  26
ATOM     26  C   UNL     1      25.725  24.170  17.022  1.00  0.00    -0.000 C 
BRANCH  26  27
ATOM     27  C   UNL     1      25.633  24.154  15.489  1.00  0.00    -0.000 C 
BRANCH  27  28
ATOM     28  C   UNL     1      25.502  22.720  14.963  1.00  0.00    -0.000 C 
BRANCH  28  29
ATOM     29  C   UNL     1      24.867  22.700  13.567  1.00  0.00    -0.003 C 
ATOM     30  C   UNL     1      23.344  22.706  13.654  1.00  0.00     0.004 C 
ENDBRANCH  28  29
ENDBRANCH  27  28
ENDBRANCH  26  27
ENDBRANCH  25  26
ENDBRANCH  24  25
ENDBRANCH  23  24
ENDBRANCH  22  23
ENDBRANCH  21  22
ENDBRANCH  20  21
ENDBRANCH  19  20
ENDBRANCH  18  19
ENDBRANCH  17  18
ENDBRANCH   1  17
TORSDOF 26
ENDMDL
MODEL 5
REMARK VINA RESULT:    -2.478      1.237      3.557
REMARK INTER + INTRA:         -11.073
REMARK INTER:                  -7.505
REMARK INTRA:                  -3.568
REMARK UNBOUND:                -4.829
REMARK SMILES CCCCCCCCCCCCCCCCCCCCCCCCCCCC(=O)[O-]
REMARK SMILES IDX 15 1 16 2 17 3 18 4 19 5 20 6 21 7 22 8 23 9 24 10 25 11
REMARK SMILES IDX 26 12 27 13 28 14 29 15 30 16 14 17 13 18 12 19 11 20 10 21
REMARK SMILES IDX 9 22 8 23 7 24 6 25 5 26 4 27 3 28 2 29 1 30
REMARK H PARENT
REMARK Flexibility Score: inf
ROOT
ATOM      1  C   UNL     1      22.700  22.295  18.115  1.00  0.00     0.000 C 
ENDROOT
BRANCH   1   2
ATOM      2  C   UNL     1      22.012  22.766  16.822  1.00  0.00     0.000 C 
BRANCH   2   3
ATOM      3  C   UNL     1      21.333  21.621  16.053  1.00  0.00     0.000 C 
BRANCH   3   4
ATOM      4  C   UNL     1      21.142  21.949  14.559  1.00  0.00     0.000 C 
BRANCH   4   5
ATOM      5  C   UNL     1      22.072  23.061  14.034  1.00  0.00     0.000 C 
BRANCH   5   6
ATOM      6  C   UNL     1      23.465  22.565  13.600  1.00  0.00     0.000 C 
BRANCH   6   7
ATOM      7  C   UNL     1      24.597  23.479  14.097  1.00  0.00     0.000 C 
BRANCH   7   8
ATOM      8  C   UNL     1      25.763  22.655  14.661  1.00  0.00     0.000 C 
BRANCH   8   9
ATOM      9  C   UNL     1      25.539  22.219  16.120  1.00  0.00     0.000 C 
BRANCH   9  10
ATOM     10  C   UNL     1      26.825  22.047  16.948  1.00  0.00     0.000 C 
BRANCH  10  11
ATOM     11  C   UNL     1      26.751  20.863  17.928  1.00  0.00     0.000 C 
BRANCH  11  12
ATOM     12  C   UNL     1      27.957  19.911  17.814  1.00  0.00     0.006 C 
BRANCH  12  13
ATOM     13  C   UNL     1      28.873  20.212  16.615  1.00  0.00     0.053 C 
BRANCH  13  14
ATOM     14  C   UNL     1      29.492  18.979  16.034  1.00  0.00     0.041 C 
ATOM     15  O   UNL     1      29.994  19.003  14.880  1.00  0.00    -0.550 OA
ATOM     16  O   UNL     1      29.501  17.797  16.764  1.00  0.00    -0.550 OA
ENDBRANCH  13  14
ENDBRANCH  12  13
ENDBRANCH  11  12
ENDBRANCH  10  11
ENDBRANCH   9  10
ENDBRANCH   8   9
ENDBRANCH   7   8
ENDBRANCH   6   7
ENDBRANCH   5   6
ENDBRANCH   4   5
ENDBRANCH   3   4
ENDBRANCH   2   3
ENDBRANCH   1   2
BRANCH   1  17
ATOM     17  C   UNL     1      22.552  23.284  19.290  1.00  0.00     0.000 C 
BRANCH  17  18
ATOM     18  C   UNL     1      21.307  24.179  19.144  1.00  0.00     0.000 C 
BRANCH  18  19
ATOM     19  C   UNL     1      21.342  25.404  20.073  1.00  0.00     0.000 C 
BRANCH  19  20
ATOM     20  C   UNL     1      20.999  26.711  19.339  1.00  0.00     0.000 C 
BRANCH  20  21
ATOM     21  C   UNL     1      21.124  27.956  20.238  1.00  0.00     0.000 C 
BRANCH  21  22
ATOM     22  C   UNL     1      21.215  29.299  19.491  1.00  0.00    -0.000 C 
BRANCH  22  23
ATOM     23  C   UNL     1      22.040  29.211  18.194  1.00  0.00    -0.000 C 
BRANCH  23  24
ATOM     24  C   UNL     1      23.293  30.101  18.237  1.00  0.00    -0.000 C 
BRANCH  24  25
ATOM     25  C   UNL     1      24.020  30.030  19.591  1.00  0.00    -0.000 C 
BRANCH  25  26
ATOM     26  C   UNL     1      25.096  28.933  19.628  1.00  0.00    -0.000 C 
BRANCH  26  27
ATOM     27  C   UNL     1      24.748  27.789  20.591  1.00  0.00    -0.000 C 
BRANCH  27  28
ATOM     28  C   UNL     1      25.312  26.456  20.086  1.00  0.00    -0.000 C 
BRANCH  28  29
ATOM     29  C   UNL     1      24.636  26.030  18.777  1.00  0.00    -0.003 C 
ATOM     30  C   UNL     1      25.623  25.329  17.850  1.00  0.00     0.004 C 
ENDBRANCH  28  29
ENDBRANCH  27  28
ENDBRANCH  26  27
ENDBRANCH  25  26
ENDBRANCH  24  25
ENDBRANCH  23  24
ENDBRANCH  22  23
ENDBRANCH  21  22
ENDBRANCH  20  21
ENDBRANCH  19  20
ENDBRANCH  18  19
ENDBRANCH  17  18
ENDBRANCH   1  17
TORSDOF 26
ENDMDL
MODEL 6
REMARK VINA RESULT:    -2.151      1.184      2.780
REMARK INTER + INTRA:         -10.248
REMARK INTER:                  -6.920
REMARK INTRA:                  -3.328
REMARK UNBOUND:                -4.829
REMARK SMILES CCCCCCCCCCCCCCCCCCCCCCCCCCCC(=O)[O-]
REMARK SMILES IDX 15 1 16 2 17 3 18 4 19 5 20 6 21 7 22 8 23 9 24 10 25 11
REMARK SMILES IDX 26 12 27 13 28 14 29 15 30 16 14 17 13 18 12 19 11 20 10 21
REMARK SMILES IDX 9 22 8 23 7 24 6 25 5 26 4 27 3 28 2 29 1 30
REMARK H PARENT
REMARK Flexibility Score: inf
ROOT
ATOM      1  C   UNL     1      25.844  23.407  15.290  1.00  0.00     0.000 C 
ENDROOT
BRANCH   1   2
ATOM      2  C   UNL     1      24.990  23.638  14.031  1.00  0.00     0.000 C 
BRANCH   2   3
ATOM      3  C   UNL     1      23.839  22.628  13.894  1.00  0.00     0.000 C 
BRANCH   3   4
ATOM      4  C   UNL     1      22.597  23.241  13.219  1.00  0.00     0.000 C 
BRANCH   4   5
ATOM      5  C   UNL     1      21.256  22.693  13.749  1.00  0.00     0.000 C 
BRANCH   5   6
ATOM      6  C   UNL     1      21.171  22.615  15.287  1.00  0.00     0.000 C 
BRANCH   6   7
ATOM      7  C   UNL     1      21.074  21.170  15.798  1.00  0.00     0.000 C 
BRANCH   7   8
ATOM      8  C   UNL     1      21.086  21.126  17.333  1.00  0.00     0.000 C 
BRANCH   8   9
ATOM      9  C   UNL     1      22.357  20.473  17.904  1.00  0.00     0.000 C 
BRANCH   9  10
ATOM     10  C   UNL     1      23.619  21.352  17.846  1.00  0.00     0.000 C 
BRANCH  10  11
ATOM     11  C   UNL     1      24.914  20.554  18.078  1.00  0.00     0.000 C 
BRANCH  11  12
ATOM     12  C   UNL     1      26.094  21.439  18.522  1.00  0.00     0.006 C 
BRANCH  12  13
ATOM     13  C   UNL     1      27.273  21.444  17.533  1.00  0.00     0.053 C 
BRANCH  13  14
ATOM     14  C   UNL     1      28.000  20.136  17.492  1.00  0.00     0.041 C 
ATOM     15  O   UNL     1      27.761  19.249  18.353  1.00  0.00    -0.550 OA
ATOM     16  O   UNL     1      28.954  19.903  16.510  1.00  0.00    -0.550 OA
ENDBRANCH  13  14
ENDBRANCH  12  13
ENDBRANCH  11  12
ENDBRANCH  10  11
ENDBRANCH   9  10
ENDBRANCH   8   9
ENDBRANCH   7   8
ENDBRANCH   6   7
ENDBRANCH   5   6
ENDBRANCH   4   5
ENDBRANCH   3   4
ENDBRANCH   2   3
ENDBRANCH   1   2
BRANCH   1  17
ATOM     17  C   UNL     1      25.651  24.488  16.375  1.00  0.00     0.000 C 
BRANCH  17  18
ATOM     18  C   UNL     1      24.244  24.442  16.999  1.00  0.00     0.000 C 
BRANCH  18  19
ATOM     19  C   UNL     1      24.195  25.072  18.401  1.00  0.00     0.000 C 
BRANCH  19  20
ATOM     20  C   UNL     1      23.017  24.552  19.241  1.00  0.00     0.000 C 
BRANCH  20  21
ATOM     21  C   UNL     1      22.468  25.603  20.224  1.00  0.00     0.000 C 
BRANCH  21  22
ATOM     22  C   UNL     1      21.047  26.111  19.918  1.00  0.00    -0.000 C 
BRANCH  22  23
ATOM     23  C   UNL     1      21.000  27.618  19.610  1.00  0.00    -0.000 C 
BRANCH  23  24
ATOM     24  C   UNL     1      21.173  27.914  18.110  1.00  0.00    -0.000 C 
BRANCH  24  25
ATOM     25  C   UNL     1      21.926  29.230  17.853  1.00  0.00    -0.000 C 
BRANCH  25  26
ATOM     26  C   UNL     1      22.477  29.858  19.144  1.00  0.00    -0.000 C 
BRANCH  26  27
ATOM     27  C   UNL     1      24.012  29.896  19.180  1.00  0.00    -0.000 C 
BRANCH  27  28
ATOM     28  C   UNL     1      24.594  28.481  19.277  1.00  0.00    -0.000 C 
BRANCH  28  29
ATOM     29  C   UNL     1      26.087  28.521  19.622  1.00  0.00    -0.003 C 
ATOM     30  C   UNL     1      26.899  27.662  18.659  1.00  0.00     0.004 C 
ENDBRANCH  28  29
ENDBRANCH  27  28
ENDBRANCH  26  27
ENDBRANCH  25  26
ENDBRANCH  24  25
ENDBRANCH  23  24
ENDBRANCH  22  23
ENDBRANCH  21  22
ENDBRANCH  20  21
ENDBRANCH  19  20
ENDBRANCH  18  19
ENDBRANCH  17  18
ENDBRANCH   1  17
TORSDOF 26
ENDMDL
MODEL 7
REMARK VINA RESULT:    -2.061      1.902      4.221
REMARK INTER + INTRA:         -10.024
REMARK INTER:                  -6.162
REMARK INTRA:                  -3.862
REMARK UNBOUND:                -4.829
REMARK SMILES CCCCCCCCCCCCCCCCCCCCCCCCCCCC(=O)[O-]
REMARK SMILES IDX 15 1 16 2 17 3 18 4 19 5 20 6 21 7 22 8 23 9 24 10 25 11
REMARK SMILES IDX 26 12 27 13 28 14 29 15 30 16 14 17 13 18 12 19 11 20 10 21
REMARK SMILES IDX 9 22 8 23 7 24 6 25 5 26 4 27 3 28 2 29 1 30
REMARK H PARENT
REMARK Flexibility Score: inf
ROOT
ATOM      1  C   UNL     1      26.473  22.244  16.869  1.00  0.00     0.000 C 
ENDROOT
BRANCH   1   2
ATOM      2  C   UNL     1      26.351  21.724  18.313  1.00  0.00     0.000 C 
BRANCH   2   3
ATOM      3  C   UNL     1      24.958  21.154  18.627  1.00  0.00     0.000 C 
BRANCH   3   4
ATOM      4  C   UNL     1      24.042  22.186  19.314  1.00  0.00     0.000 C 
BRANCH   4   5
ATOM      5  C   UNL     1      22.565  22.106  18.878  1.00  0.00     0.000 C 
BRANCH   5   6
ATOM      6  C   UNL     1      21.940  23.467  18.514  1.00  0.00     0.000 C 
BRANCH   6   7
ATOM      7  C   UNL     1      20.923  23.360  17.367  1.00  0.00     0.000 C 
BRANCH   7   8
ATOM      8  C   UNL     1      20.899  21.941  16.782  1.00  0.00     0.000 C 
BRANCH   8   9
ATOM      9  C   UNL     1      20.877  21.927  15.243  1.00  0.00     0.000 C 
BRANCH   9  10
ATOM     10  C   UNL     1      21.639  23.084  14.574  1.00  0.00     0.000 C 
BRANCH  10  11
ATOM     11  C   UNL     1      21.515  23.073  13.040  1.00  0.00     0.000 C 
BRANCH  11  12
ATOM     12  C   UNL     1      22.809  22.623  12.335  1.00  0.00     0.006 C 
BRANCH  12  13
ATOM     13  C   UNL     1      24.031  22.552  13.267  1.00  0.00     0.053 C 
BRANCH  13  14
ATOM     14  C   UNL     1      25.163  21.767  12.681  1.00  0.00     0.041 C 
ATOM     15  O   UNL     1      24.994  21.100  11.626  1.00  0.00    -0.550 OA
ATOM     16  O   UNL     1      26.402  21.760  13.309  1.00  0.00    -0.550 OA
ENDBRANCH  13  14
ENDBRANCH  12  13
ENDBRANCH  11  12
ENDBRANCH  10  11
ENDBRANCH   9  10
ENDBRANCH   8   9
ENDBRANCH   7   8
ENDBRANCH   6   7
ENDBRANCH   5   6
ENDBRANCH   4   5
ENDBRANCH   3   4
ENDBRANCH   2   3
ENDBRANCH   1   2
BRANCH   1  17
ATOM     17  C   UNL     1      25.136  22.731  16.273  1.00  0.00     0.000 C 
BRANCH  17  18
ATOM     18  C   UNL     1      24.867  24.216  16.582  1.00  0.00     0.000 C 
BRANCH  18  19
ATOM     19  C   UNL     1      26.156  25.008  16.858  1.00  0.00     0.000 C 
BRANCH  19  20
ATOM     20  C   UNL     1      25.968  26.080  17.945  1.00  0.00     0.000 C 
BRANCH  20  21
ATOM     21  C   UNL     1      24.747  25.815  18.846  1.00  0.00     0.000 C 
BRANCH  21  22
ATOM     22  C   UNL     1      24.896  26.279  20.307  1.00  0.00    -0.000 C 
BRANCH  22  23
ATOM     23  C   UNL     1      24.204  27.625  20.584  1.00  0.00    -0.000 C 
BRANCH  23  24
ATOM     24  C   UNL     1      25.151  28.821  20.392  1.00  0.00    -0.000 C 
BRANCH  24  25
ATOM     25  C   UNL     1      24.530  29.930  19.525  1.00  0.00    -0.000 C 
BRANCH  25  26
ATOM     26  C   UNL     1      23.011  30.057  19.726  1.00  0.00    -0.000 C 
BRANCH  26  27
ATOM     27  C   UNL     1      22.225  29.953  18.411  1.00  0.00    -0.000 C 
BRANCH  27  28
ATOM     28  C   UNL     1      20.925  29.165  18.611  1.00  0.00    -0.000 C 
BRANCH  28  29
ATOM     29  C   UNL     1      21.207  27.666  18.772  1.00  0.00    -0.003 C 
ATOM     30  C   UNL     1      21.540  27.021  17.431  1.00  0.00     0.004 C 
ENDBRANCH  28  29
ENDBRANCH  27  28
ENDBRANCH  26  27
ENDBRANCH  25  26
ENDBRANCH  24  25
ENDBRANCH  23  24
ENDBRANCH  22  23
ENDBRANCH  21  22
ENDBRANCH  20  21
ENDBRANCH  19  20
ENDBRANCH  18  19
ENDBRANCH  17  18
ENDBRANCH   1  17
TORSDOF 26
ENDMDL
MODEL 8
REMARK VINA RESULT:    -2.019      1.402      3.726
REMARK INTER + INTRA:          -9.916
REMARK INTER:                  -6.184
REMARK INTRA:                  -3.732
REMARK UNBOUND:                -4.829
REMARK SMILES CCCCCCCCCCCCCCCCCCCCCCCCCCCC(=O)[O-]
REMARK SMILES IDX 15 1 16 2 17 3 18 4 19 5 20 6 21 7 22 8 23 9 24 10 25 11
REMARK SMILES IDX 26 12 27 13 28 14 29 15 30 16 14 17 13 18 12 19 11 20 10 21
REMARK SMILES IDX 9 22 8 23 7 24 6 25 5 26 4 27 3 28 2 29 1 30
REMARK H PARENT
REMARK Flexibility Score: inf
ROOT
ATOM      1  C   UNL     1      24.234  20.978  18.231  1.00  0.00     0.000 C 
ENDROOT
BRANCH   1   2
ATOM      2  C   UNL     1      23.384  21.500  17.060  1.00  0.00     0.000 C 
BRANCH   2   3
ATOM      3  C   UNL     1      22.014  20.809  16.959  1.00  0.00     0.000 C 
BRANCH   3   4
ATOM      4  C   UNL     1      21.136  21.407  15.842  1.00  0.00     0.000 C 
BRANCH   4   5
ATOM      5  C   UNL     1      21.664  22.738  15.270  1.00  0.00     0.000 C 
BRANCH   5   6
ATOM      6  C   UNL     1      22.236  22.628  13.842  1.00  0.00     0.000 C 
BRANCH   6   7
ATOM      7  C   UNL     1      23.539  23.423  13.667  1.00  0.00     0.000 C 
BRANCH   7   8
ATOM      8  C   UNL     1      24.718  22.704  14.337  1.00  0.00     0.000 C 
BRANCH   8   9
ATOM      9  C   UNL     1      25.604  23.651  15.167  1.00  0.00     0.000 C 
BRANCH   9  10
ATOM     10  C   UNL     1      26.500  22.953  16.205  1.00  0.00     0.000 C 
BRANCH  10  11
ATOM     11  C   UNL     1      26.989  21.570  15.740  1.00  0.00     0.000 C 
BRANCH  11  12
ATOM     12  C   UNL     1      28.043  20.956  16.681  1.00  0.00     0.006 C 
BRANCH  12  13
ATOM     13  C   UNL     1      29.358  20.578  15.977  1.00  0.00     0.053 C 
BRANCH  13  14
ATOM     14  C   UNL     1      29.629  19.106  16.007  1.00  0.00     0.041 C 
ATOM     15  O   UNL     1      30.270  18.598  16.965  1.00  0.00    -0.550 OA
ATOM     16  O   UNL     1      29.187  18.296  14.969  1.00  0.00    -0.550 OA
ENDBRANCH  13  14
ENDBRANCH  12  13
ENDBRANCH  11  12
ENDBRANCH  10  11
ENDBRANCH   9  10
ENDBRANCH   8   9
ENDBRANCH   7   8
ENDBRANCH   6   7
ENDBRANCH   5   6
ENDBRANCH   4   5
ENDBRANCH   3   4
ENDBRANCH   2   3
ENDBRANCH   1   2
BRANCH   1  17
ATOM     17  C   UNL     1      24.246  21.919  19.454  1.00  0.00     0.000 C 
BRANCH  17  18
ATOM     18  C   UNL     1      23.463  23.219  19.195  1.00  0.00     0.000 C 
BRANCH  18  19
ATOM     19  C   UNL     1      24.362  24.366  18.702  1.00  0.00     0.000 C 
BRANCH  19  20
ATOM     20  C   UNL     1      23.607  25.366  17.811  1.00  0.00     0.000 C 
BRANCH  20  21
ATOM     21  C   UNL     1      22.133  24.977  17.585  1.00  0.00     0.000 C 
BRANCH  21  22
ATOM     22  C   UNL     1      21.175  26.154  17.330  1.00  0.00    -0.000 C 
BRANCH  22  23
ATOM     23  C   UNL     1      21.699  27.489  17.889  1.00  0.00    -0.000 C 
BRANCH  23  24
ATOM     24  C   UNL     1      21.073  27.840  19.249  1.00  0.00    -0.000 C 
BRANCH  24  25
ATOM     25  C   UNL     1      21.430  26.819  20.342  1.00  0.00    -0.000 C 
BRANCH  25  26
ATOM     26  C   UNL     1      22.773  27.128  21.024  1.00  0.00    -0.000 C 
BRANCH  26  27
ATOM     27  C   UNL     1      23.063  28.633  21.115  1.00  0.00    -0.000 C 
BRANCH  27  28
ATOM     28  C   UNL     1      24.571  28.904  21.077  1.00  0.00    -0.000 C 
BRANCH  28  29
ATOM     29  C   UNL     1      24.891  30.124  20.204  1.00  0.00    -0.003 C 
ATOM     30  C   UNL     1      24.160  30.053  18.868  1.00  0.00     0.004 C 
ENDBRANCH  28  29
ENDBRANCH  27  28
ENDBRANCH  26  27
ENDBRANCH  25  26
ENDBRANCH  24  25
ENDBRANCH  23  24
ENDBRANCH  22  23
ENDBRANCH  21  22
ENDBRANCH  20  21
ENDBRANCH  19  20
ENDBRANCH  18  19
ENDBRANCH  17  18
ENDBRANCH   1  17
TORSDOF 26
ENDMDL
MODEL 9
REMARK VINA RESULT:    -1.606     17.738     21.155
REMARK INTER + INTRA:          -8.877
REMARK INTER:                  -7.477
REMARK INTRA:                  -1.400
REMARK UNBOUND:                -4.829
REMARK SMILES CCCCCCCCCCCCCCCCCCCCCCCCCCCC(=O)[O-]
REMARK SMILES IDX 15 1 16 2 17 3 18 4 19 5 20 6 21 7 22 8 23 9 24 10 25 11
REMARK SMILES IDX 26 12 27 13 28 14 29 15 30 16 14 17 13 18 12 19 11 20 10 21
REMARK SMILES IDX 9 22 8 23 7 24 6 25 5 26 4 27 3 28 2 29 1 30
REMARK H PARENT
REMARK Flexibility Score: inf
ROOT
ATOM      1  C   UNL     1      39.450  21.927   2.723  1.00  0.00     0.000 C 
ENDROOT
BRANCH   1   2
ATOM      2  C   UNL     1      40.342  21.787   1.477  1.00  0.00     0.000 C 
BRANCH   2   3
ATOM      3  C   UNL     1      41.025  23.105   1.079  1.00  0.00     0.000 C 
BRANCH   3   4
ATOM      4  C   UNL     1      40.692  24.255   2.050  1.00  0.00     0.000 C 
BRANCH   4   5
ATOM      5  C   UNL     1      40.863  25.662   1.442  1.00  0.00     0.000 C 
BRANCH   5   6
ATOM      6  C   UNL     1      39.552  26.291   0.929  1.00  0.00     0.000 C 
BRANCH   6   7
ATOM      7  C   UNL     1      38.316  25.451   1.288  1.00  0.00     0.000 C 
BRANCH   7   8
ATOM      8  C   UNL     1      37.241  26.314   1.963  1.00  0.00     0.000 C 
BRANCH   8   9
ATOM      9  C   UNL     1      37.813  27.587   2.612  1.00  0.00     0.000 C 
BRANCH   9  10
ATOM     10  C   UNL     1      37.001  28.868   2.349  1.00  0.00     0.000 C 
BRANCH  10  11
ATOM     11  C   UNL     1      36.328  28.875   0.965  1.00  0.00     0.000 C 
BRANCH  11  12
ATOM     12  C   UNL     1      34.790  28.888   1.044  1.00  0.00     0.006 C 
BRANCH  12  13
ATOM     13  C   UNL     1      34.148  27.499   0.882  1.00  0.00     0.053 C 
BRANCH  13  14
ATOM     14  C   UNL     1      32.824  27.388   1.571  1.00  0.00     0.041 C 
ATOM     15  O   UNL     1      32.010  26.486   1.242  1.00  0.00    -0.550 OA
ATOM     16  O   UNL     1      32.482  28.293   2.568  1.00  0.00    -0.550 OA
ENDBRANCH  13  14
ENDBRANCH  12  13
ENDBRANCH  11  12
ENDBRANCH  10  11
ENDBRANCH   9  10
ENDBRANCH   8   9
ENDBRANCH   7   8
ENDBRANCH   6   7
ENDBRANCH   5   6
ENDBRANCH   4   5
ENDBRANCH   3   4
ENDBRANCH   2   3
ENDBRANCH   1   2
BRANCH   1  17
ATOM     17  C   UNL     1      37.966  21.592   2.462  1.00  0.00     0.000 C 
BRANCH  17  18
ATOM     18  C   UNL     1      37.517  22.001   1.047  1.00  0.00     0.000 C 
BRANCH  18  19
ATOM     19  C   UNL     1      36.210  22.812   1.048  1.00  0.00     0.000 C 
BRANCH  19  20
ATOM     20  C   UNL     1      34.962  21.917   0.979  1.00  0.00     0.000 C 
BRANCH  20  21
ATOM     21  C   UNL     1      34.557  21.342   2.350  1.00  0.00     0.000 C 
BRANCH  21  22
ATOM     22  C   UNL     1      35.593  20.406   3.001  1.00  0.00    -0.000 C 
BRANCH  22  23
ATOM     23  C   UNL     1      35.542  20.431   4.539  1.00  0.00    -0.000 C 
BRANCH  23  24
ATOM     24  C   UNL     1      36.610  19.524   5.174  1.00  0.00    -0.000 C 
BRANCH  24  25
ATOM     25  C   UNL     1      36.899  19.894   6.639  1.00  0.00    -0.000 C 
BRANCH  25  26
ATOM     26  C   UNL     1      38.149  19.188   7.191  1.00  0.00    -0.000 C 
BRANCH  26  27
ATOM     27  C   UNL     1      39.458  19.839   6.720  1.00  0.00    -0.000 C 
BRANCH  27  28
ATOM     28  C   UNL     1      39.265  21.340   6.472  1.00  0.00    -0.000 C 
BRANCH  28  29
ATOM     29  C   UNL     1      40.480  21.940   5.754  1.00  0.00    -0.003 C 
ATOM     30  C   UNL     1      41.068  23.103   6.545  1.00  0.00     0.004 C 
ENDBRANCH  28  29
ENDBRANCH  27  28
ENDBRANCH  26  27
ENDBRANCH  25  26
ENDBRANCH  24  25
ENDBRANCH  23  24
ENDBRANCH  22  23
ENDBRANCH  21  22
ENDBRANCH  20  21
ENDBRANCH  19  20
ENDBRANCH  18  19
ENDBRANCH  17  18
ENDBRANCH   1  17
TORSDOF 26
ENDMDL
