MODEL 1
REMARK VINA RESULT:    -8.121      0.000      0.000
REMARK INTER + INTRA:          -9.521
REMARK INTER:                  -9.546
REMARK INTRA:                   0.024
REMARK UNBOUND:                 0.024
REMARK SMILES O=c1c(O)c(-c2ccc(O)cc2)oc2cc(O)cc(O)c12
REMARK SMILES IDX 5 1 3 2 2 3 1 4 21 5 19 6 18 7 16 8 15 9 14 10 13 11 6 12
REMARK SMILES IDX 7 13 8 14 9 15 12 16 11 17 10 18 4 20 20 22 17 24
REMARK H PARENT 10 19 4 21 20 23 17 25
REMARK Flexibility Score: inf
ROOT
ATOM      1  C   UNL     1       7.917  75.612  -2.183  1.00  0.00     0.180 A 
ATOM      2  C   UNL     1       7.880  75.805  -3.575  1.00  0.00     0.208 A 
ATOM      3  C   UNL     1       8.318  74.770  -4.417  1.00  0.00     0.238 A 
ATOM      4  O   UNL     1       8.212  74.920  -5.662  1.00  0.00    -0.285 OA
ATOM      5  C   UNL     1       8.838  73.577  -3.858  1.00  0.00     0.111 A 
ATOM      6  C   UNL     1       9.350  72.479  -4.615  1.00  0.00     0.134 A 
ATOM      7  C   UNL     1       9.740  71.308  -3.956  1.00  0.00     0.093 A 
ATOM      8  C   UNL     1       9.698  71.215  -2.566  1.00  0.00     0.123 A 
ATOM      9  C   UNL     1       9.251  72.301  -1.811  1.00  0.00     0.094 A 
ATOM     10  C   UNL     1       8.819  73.470  -2.442  1.00  0.00     0.146 A 
ATOM     11  O   UNL     1       8.380  74.471  -1.689  1.00  0.00    -0.452 OA
ENDROOT
BRANCH   1  12
ATOM     12  C   UNL     1       7.461  76.651  -1.232  1.00  0.00     0.021 A 
ATOM     13  C   UNL     1       7.934  77.974  -1.309  1.00  0.00     0.016 A 
ATOM     14  C   UNL     1       7.469  78.944  -0.415  1.00  0.00     0.047 A 
ATOM     15  C   UNL     1       6.519  78.609   0.556  1.00  0.00     0.115 A 
ATOM     16  C   UNL     1       6.491  76.328  -0.269  1.00  0.00     0.016 A 
ATOM     17  C   UNL     1       6.029  77.299   0.625  1.00  0.00     0.047 A 
BRANCH  15  18
ATOM     18  O   UNL     1       6.067  79.585   1.440  1.00  0.00    -0.508 OA
ATOM     19  H   UNL     1       6.664  80.351   1.734  1.00  0.00     0.293 HD
ENDBRANCH  15  18
ENDBRANCH   1  12
BRANCH   2  20
ATOM     20  O   UNL     1       7.436  77.018  -4.107  1.00  0.00    -0.502 OA
ATOM     21  H   UNL     1       6.497  77.367  -3.955  1.00  0.00     0.293 HD
ENDBRANCH   2  20
BRANCH   6  22
ATOM     22  O   UNL     1       9.519  72.497  -6.003  1.00  0.00    -0.507 OA
ATOM     23  H   UNL     1       9.003  71.927  -6.656  1.00  0.00     0.293 HD
ENDBRANCH   6  22
BRANCH   8  24
ATOM     24  O   UNL     1      10.111  70.039  -1.942  1.00  0.00    -0.508 OA
ATOM     25  H   UNL     1      11.042  69.944  -1.552  1.00  0.00     0.293 HD
ENDBRANCH   8  24
TORSDOF 5
ENDMDL
MODEL 2
REMARK VINA RESULT:    -8.062      0.072      1.059
REMARK INTER + INTRA:          -9.452
REMARK INTER:                  -9.479
REMARK INTRA:                   0.027
REMARK UNBOUND:                 0.024
REMARK SMILES O=c1c(O)c(-c2ccc(O)cc2)oc2cc(O)cc(O)c12
REMARK SMILES IDX 5 1 3 2 2 3 1 4 21 5 19 6 18 7 16 8 15 9 14 10 13 11 6 12
REMARK SMILES IDX 7 13 8 14 9 15 12 16 11 17 10 18 4 20 20 22 17 24
REMARK H PARENT 10 19 4 21 20 23 17 25
REMARK Flexibility Score: inf
ROOT
ATOM      1  C   UNL     1       7.889  75.639  -2.187  1.00  0.00     0.180 A 
ATOM      2  C   UNL     1       7.853  75.813  -3.582  1.00  0.00     0.208 A 
ATOM      3  C   UNL     1       8.302  74.772  -4.410  1.00  0.00     0.238 A 
ATOM      4  O   UNL     1       8.196  74.905  -5.656  1.00  0.00    -0.285 OA
ATOM      5  C   UNL     1       8.832  73.592  -3.834  1.00  0.00     0.111 A 
ATOM      6  C   UNL     1       9.357  72.489  -4.576  1.00  0.00     0.134 A 
ATOM      7  C   UNL     1       9.757  71.330  -3.901  1.00  0.00     0.093 A 
ATOM      8  C   UNL     1       9.714  71.255  -2.510  1.00  0.00     0.123 A 
ATOM      9  C   UNL     1       9.254  72.346  -1.770  1.00  0.00     0.094 A 
ATOM     10  C   UNL     1       8.812  73.503  -2.417  1.00  0.00     0.146 A 
ATOM     11  O   UNL     1       8.362  74.509  -1.678  1.00  0.00    -0.452 OA
ENDROOT
BRANCH   1  12
ATOM     12  C   UNL     1       7.421  76.686  -1.250  1.00  0.00     0.021 A 
ATOM     13  C   UNL     1       6.506  76.393  -0.222  1.00  0.00     0.016 A 
ATOM     14  C   UNL     1       6.098  77.394   0.666  1.00  0.00     0.047 A 
ATOM     15  C   UNL     1       6.608  78.691   0.549  1.00  0.00     0.115 A 
ATOM     16  C   UNL     1       7.945  77.985  -1.348  1.00  0.00     0.016 A 
ATOM     17  C   UNL     1       7.535  78.984  -0.460  1.00  0.00     0.047 A 
BRANCH  15  18
ATOM     18  O   UNL     1       6.191  79.677   1.440  1.00  0.00    -0.508 OA
ATOM     19  H   UNL     1       6.026  79.470   2.418  1.00  0.00     0.293 HD
ENDBRANCH  15  18
ENDBRANCH   1  12
BRANCH   2  20
ATOM     20  O   UNL     1       7.397  77.015  -4.130  1.00  0.00    -0.502 OA
ATOM     21  H   UNL     1       6.838  77.675  -3.603  1.00  0.00     0.293 HD
ENDBRANCH   2  20
BRANCH   6  22
ATOM     22  O   UNL     1       9.528  72.491  -5.963  1.00  0.00    -0.507 OA
ATOM     23  H   UNL     1       8.794  72.331  -6.637  1.00  0.00     0.293 HD
ENDBRANCH   6  22
BRANCH   8  24
ATOM     24  O   UNL     1      10.137  70.091  -1.870  1.00  0.00    -0.508 OA
ATOM     25  H   UNL     1      10.935  70.091  -1.245  1.00  0.00     0.293 HD
ENDBRANCH   8  24
TORSDOF 5
ENDMDL
MODEL 3
REMARK VINA RESULT:    -7.790      1.655      7.049
REMARK INTER + INTRA:          -9.132
REMARK INTER:                  -9.069
REMARK INTRA:                  -0.062
REMARK UNBOUND:                 0.024
REMARK SMILES O=c1c(O)c(-c2ccc(O)cc2)oc2cc(O)cc(O)c12
REMARK SMILES IDX 5 1 3 2 2 3 1 4 21 5 19 6 18 7 16 8 15 9 14 10 13 11 6 12
REMARK SMILES IDX 7 13 8 14 9 15 12 16 11 17 10 18 4 20 20 22 17 24
REMARK H PARENT 10 19 4 21 20 23 17 25
REMARK Flexibility Score: inf
ROOT
ATOM      1  C   UNL     1       8.011  75.272  -2.487  1.00  0.00     0.180 A 
ATOM      2  C   UNL     1       7.077  74.975  -1.480  1.00  0.00     0.208 A 
ATOM      3  C   UNL     1       6.674  75.995  -0.603  1.00  0.00     0.238 A 
ATOM      4  O   UNL     1       5.783  75.741   0.248  1.00  0.00    -0.285 OA
ATOM      5  C   UNL     1       7.249  77.284  -0.709  1.00  0.00     0.111 A 
ATOM      6  C   UNL     1       6.948  78.383   0.153  1.00  0.00     0.134 A 
ATOM      7  C   UNL     1       7.499  79.642  -0.113  1.00  0.00     0.093 A 
ATOM      8  C   UNL     1       8.389  79.830  -1.170  1.00  0.00     0.123 A 
ATOM      9  C   UNL     1       8.734  78.752  -1.986  1.00  0.00     0.094 A 
ATOM     10  C   UNL     1       8.171  77.491  -1.769  1.00  0.00     0.146 A 
ATOM     11  O   UNL     1       8.509  76.499  -2.582  1.00  0.00    -0.452 OA
ENDROOT
BRANCH   1  12
ATOM     12  C   UNL     1       8.475  74.253  -3.456  1.00  0.00     0.021 A 
ATOM     13  C   UNL     1       9.093  73.063  -3.030  1.00  0.00     0.016 A 
ATOM     14  C   UNL     1       9.500  72.105  -3.964  1.00  0.00     0.047 A 
ATOM     15  C   UNL     1       9.283  72.315  -5.330  1.00  0.00     0.115 A 
ATOM     16  C   UNL     1       8.241  74.448  -4.828  1.00  0.00     0.016 A 
ATOM     17  C   UNL     1       8.650  73.489  -5.760  1.00  0.00     0.047 A 
BRANCH  15  18
ATOM     18  O   UNL     1       9.695  71.352  -6.247  1.00  0.00    -0.508 OA
ATOM     19  H   UNL     1       9.748  70.371  -5.998  1.00  0.00     0.293 HD
ENDBRANCH  15  18
ENDBRANCH   1  12
BRANCH   2  20
ATOM     20  O   UNL     1       6.579  73.677  -1.342  1.00  0.00    -0.502 OA
ATOM     21  H   UNL     1       5.609  73.445  -1.522  1.00  0.00     0.293 HD
ENDBRANCH   2  20
BRANCH   6  22
ATOM     22  O   UNL     1       6.140  78.286   1.290  1.00  0.00    -0.507 OA
ATOM     23  H   UNL     1       6.121  77.500   1.921  1.00  0.00     0.293 HD
ENDBRANCH   6  22
BRANCH   8  24
ATOM     24  O   UNL     1       8.933  81.093  -1.395  1.00  0.00    -0.508 OA
ATOM     25  H   UNL     1       9.729  81.226  -2.008  1.00  0.00     0.293 HD
ENDBRANCH   8  24
TORSDOF 5
ENDMDL
MODEL 4
REMARK VINA RESULT:    -7.578      1.019      1.470
REMARK INTER + INTRA:          -8.883
REMARK INTER:                  -8.684
REMARK INTRA:                  -0.199
REMARK UNBOUND:                 0.024
REMARK SMILES O=c1c(O)c(-c2ccc(O)cc2)oc2cc(O)cc(O)c12
REMARK SMILES IDX 5 1 3 2 2 3 1 4 21 5 19 6 18 7 16 8 15 9 14 10 13 11 6 12
REMARK SMILES IDX 7 13 8 14 9 15 12 16 11 17 10 18 4 20 20 22 17 24
REMARK H PARENT 10 19 4 21 20 23 17 25
REMARK Flexibility Score: inf
ROOT
ATOM      1  C   UNL     1       8.141  75.682  -1.856  1.00  0.00     0.180 A 
ATOM      2  C   UNL     1       7.820  75.486  -3.210  1.00  0.00     0.208 A 
ATOM      3  C   UNL     1       8.432  74.433  -3.909  1.00  0.00     0.238 A 
ATOM      4  O   UNL     1       8.085  74.218  -5.099  1.00  0.00    -0.285 OA
ATOM      5  C   UNL     1       9.398  73.624  -3.262  1.00  0.00     0.111 A 
ATOM      6  C   UNL     1      10.113  72.556  -3.886  1.00  0.00     0.134 A 
ATOM      7  C   UNL     1      10.967  71.755  -3.117  1.00  0.00     0.093 A 
ATOM      8  C   UNL     1      11.181  72.021  -1.765  1.00  0.00     0.123 A 
ATOM      9  C   UNL     1      10.528  73.095  -1.158  1.00  0.00     0.094 A 
ATOM     10  C   UNL     1       9.641  73.889  -1.889  1.00  0.00     0.146 A 
ATOM     11  O   UNL     1       9.025  74.887  -1.268  1.00  0.00    -0.452 OA
ENDROOT
BRANCH   1  12
ATOM     12  C   UNL     1       7.527  76.762  -1.050  1.00  0.00     0.021 A 
ATOM     13  C   UNL     1       6.599  76.478  -0.031  1.00  0.00     0.016 A 
ATOM     14  C   UNL     1       6.052  77.514   0.734  1.00  0.00     0.047 A 
ATOM     15  C   UNL     1       6.435  78.839   0.503  1.00  0.00     0.115 A 
ATOM     16  C   UNL     1       7.923  78.093  -1.262  1.00  0.00     0.016 A 
ATOM     17  C   UNL     1       7.375  79.126  -0.496  1.00  0.00     0.047 A 
BRANCH  15  18
ATOM     18  O   UNL     1       5.881  79.859   1.272  1.00  0.00    -0.508 OA
ATOM     19  H   UNL     1       6.437  80.380   1.940  1.00  0.00     0.293 HD
ENDBRANCH  15  18
ENDBRANCH   1  12
BRANCH   2  20
ATOM     20  O   UNL     1       6.923  76.343  -3.853  1.00  0.00    -0.502 OA
ATOM     21  H   UNL     1       6.680  77.253  -3.481  1.00  0.00     0.293 HD
ENDBRANCH   2  20
BRANCH   6  22
ATOM     22  O   UNL     1      10.043  72.258  -5.249  1.00  0.00    -0.507 OA
ATOM     23  H   UNL     1      10.412  72.838  -5.988  1.00  0.00     0.293 HD
ENDBRANCH   6  22
BRANCH   8  24
ATOM     24  O   UNL     1      12.051  71.213  -1.035  1.00  0.00    -0.508 OA
ATOM     25  H   UNL     1      12.943  70.918  -1.414  1.00  0.00     0.293 HD
ENDBRANCH   8  24
TORSDOF 5
ENDMDL
MODEL 5
REMARK VINA RESULT:    -7.526      1.581      2.882
REMARK INTER + INTRA:          -8.822
REMARK INTER:                  -8.530
REMARK INTRA:                  -0.292
REMARK UNBOUND:                 0.024
REMARK SMILES O=c1c(O)c(-c2ccc(O)cc2)oc2cc(O)cc(O)c12
REMARK SMILES IDX 5 1 3 2 2 3 1 4 21 5 19 6 18 7 16 8 15 9 14 10 13 11 6 12
REMARK SMILES IDX 7 13 8 14 9 15 12 16 11 17 10 18 4 20 20 22 17 24
REMARK H PARENT 10 19 4 21 20 23 17 25
REMARK Flexibility Score: inf
ROOT
ATOM      1  C   UNL     1       8.473  75.995  -1.328  1.00  0.00     0.180 A 
ATOM      2  C   UNL     1       9.625  75.413  -0.771  1.00  0.00     0.208 A 
ATOM      3  C   UNL     1      10.321  74.440  -1.506  1.00  0.00     0.238 A 
ATOM      4  O   UNL     1      11.392  73.979  -1.034  1.00  0.00    -0.285 OA
ATOM      5  C   UNL     1       9.826  74.021  -2.766  1.00  0.00     0.111 A 
ATOM      6  C   UNL     1      10.426  73.011  -3.579  1.00  0.00     0.134 A 
ATOM      7  C   UNL     1       9.909  72.754  -4.855  1.00  0.00     0.093 A 
ATOM      8  C   UNL     1       8.778  73.423  -5.322  1.00  0.00     0.123 A 
ATOM      9  C   UNL     1       8.152  74.373  -4.514  1.00  0.00     0.094 A 
ATOM     10  C   UNL     1       8.666  74.679  -3.252  1.00  0.00     0.146 A 
ATOM     11  O   UNL     1       8.053  75.604  -2.525  1.00  0.00    -0.452 OA
ENDROOT
BRANCH   1  12
ATOM     12  C   UNL     1       7.695  77.036  -0.620  1.00  0.00     0.021 A 
ATOM     13  C   UNL     1       7.934  78.405  -0.837  1.00  0.00     0.016 A 
ATOM     14  C   UNL     1       7.167  79.370  -0.174  1.00  0.00     0.047 A 
ATOM     15  C   UNL     1       6.146  78.980   0.699  1.00  0.00     0.115 A 
ATOM     16  C   UNL     1       6.654  76.653   0.242  1.00  0.00     0.016 A 
ATOM     17  C   UNL     1       5.890  77.619   0.904  1.00  0.00     0.047 A 
BRANCH  15  18
ATOM     18  O   UNL     1       5.393  79.952   1.353  1.00  0.00    -0.508 OA
ATOM     19  H   UNL     1       4.772  80.571   0.845  1.00  0.00     0.293 HD
ENDBRANCH  15  18
ENDBRANCH   1  12
BRANCH   2  20
ATOM     20  O   UNL     1      10.054  75.785   0.506  1.00  0.00    -0.502 OA
ATOM     21  H   UNL     1      10.964  76.195   0.676  1.00  0.00     0.293 HD
ENDBRANCH   2  20
BRANCH   6  22
ATOM     22  O   UNL     1      11.506  72.220  -3.176  1.00  0.00    -0.507 OA
ATOM     23  H   UNL     1      12.250  72.524  -2.567  1.00  0.00     0.293 HD
ENDBRANCH   6  22
BRANCH   8  24
ATOM     24  O   UNL     1       8.280  73.130  -6.590  1.00  0.00    -0.508 OA
ATOM     25  H   UNL     1       8.867  73.183  -7.415  1.00  0.00     0.293 HD
ENDBRANCH   8  24
TORSDOF 5
ENDMDL
MODEL 6
REMARK VINA RESULT:    -7.163      2.816      6.820
REMARK INTER + INTRA:          -8.395
REMARK INTER:                  -8.098
REMARK INTRA:                  -0.297
REMARK UNBOUND:                 0.024
REMARK SMILES O=c1c(O)c(-c2ccc(O)cc2)oc2cc(O)cc(O)c12
REMARK SMILES IDX 5 1 3 2 2 3 1 4 21 5 19 6 18 7 16 8 15 9 14 10 13 11 6 12
REMARK SMILES IDX 7 13 8 14 9 15 12 16 11 17 10 18 4 20 20 22 17 24
REMARK H PARENT 10 19 4 21 20 23 17 25
REMARK Flexibility Score: inf
ROOT
ATOM      1  C   UNL     1       9.328  75.680  -2.966  1.00  0.00     0.180 A 
ATOM      2  C   UNL     1       8.208  76.197  -2.293  1.00  0.00     0.208 A 
ATOM      3  C   UNL     1       8.364  77.336  -1.487  1.00  0.00     0.238 A 
ATOM      4  O   UNL     1       7.344  77.838  -0.948  1.00  0.00    -0.285 OA
ATOM      5  C   UNL     1       9.648  77.911  -1.319  1.00  0.00     0.111 A 
ATOM      6  C   UNL     1       9.931  79.041  -0.492  1.00  0.00     0.134 A 
ATOM      7  C   UNL     1      11.220  79.588  -0.487  1.00  0.00     0.093 A 
ATOM      8  C   UNL     1      12.250  79.011  -1.227  1.00  0.00     0.123 A 
ATOM      9  C   UNL     1      11.998  77.874  -1.997  1.00  0.00     0.094 A 
ATOM     10  C   UNL     1      10.714  77.327  -2.053  1.00  0.00     0.146 A 
ATOM     11  O   UNL     1      10.512  76.260  -2.815  1.00  0.00    -0.452 OA
ENDROOT
BRANCH   1  12
ATOM     12  C   UNL     1       9.241  74.490  -3.843  1.00  0.00     0.021 A 
ATOM     13  C   UNL     1       8.962  74.612  -5.217  1.00  0.00     0.016 A 
ATOM     14  C   UNL     1       8.909  73.475  -6.030  1.00  0.00     0.047 A 
ATOM     15  C   UNL     1       9.147  72.208  -5.487  1.00  0.00     0.115 A 
ATOM     16  C   UNL     1       9.499  73.217  -3.309  1.00  0.00     0.016 A 
ATOM     17  C   UNL     1       9.445  72.082  -4.124  1.00  0.00     0.047 A 
BRANCH  15  18
ATOM     18  O   UNL     1       9.089  71.086  -6.309  1.00  0.00    -0.508 OA
ATOM     19  H   UNL     1       9.474  70.195  -6.017  1.00  0.00     0.293 HD
ENDBRANCH  15  18
ENDBRANCH   1  12
BRANCH   2  20
ATOM     20  O   UNL     1       6.965  75.570  -2.410  1.00  0.00    -0.502 OA
ATOM     21  H   UNL     1       6.694  74.787  -1.828  1.00  0.00     0.293 HD
ENDBRANCH   2  20
BRANCH   6  22
ATOM     22  O   UNL     1       8.997  79.643   0.357  1.00  0.00    -0.507 OA
ATOM     23  H   UNL     1       8.636  80.578   0.249  1.00  0.00     0.293 HD
ENDBRANCH   6  22
BRANCH   8  24
ATOM     24  O   UNL     1      13.525  79.571  -1.184  1.00  0.00    -0.508 OA
ATOM     25  H   UNL     1      13.703  80.449  -0.710  1.00  0.00     0.293 HD
ENDBRANCH   8  24
TORSDOF 5
ENDMDL
MODEL 7
REMARK VINA RESULT:    -6.960      3.894      5.244
REMARK INTER + INTRA:          -8.157
REMARK INTER:                  -7.862
REMARK INTRA:                  -0.295
REMARK UNBOUND:                 0.024
REMARK SMILES O=c1c(O)c(-c2ccc(O)cc2)oc2cc(O)cc(O)c12
REMARK SMILES IDX 5 1 3 2 2 3 1 4 21 5 19 6 18 7 16 8 15 9 14 10 13 11 6 12
REMARK SMILES IDX 7 13 8 14 9 15 12 16 11 17 10 18 4 20 20 22 17 24
REMARK H PARENT 10 19 4 21 20 23 17 25
REMARK Flexibility Score: inf
ROOT
ATOM      1  C   UNL     1      11.885  75.395  -2.763  1.00  0.00     0.180 A 
ATOM      2  C   UNL     1      12.085  74.463  -1.730  1.00  0.00     0.208 A 
ATOM      3  C   UNL     1      11.544  73.174  -1.862  1.00  0.00     0.238 A 
ATOM      4  O   UNL     1      11.791  72.323  -0.969  1.00  0.00    -0.285 OA
ATOM      5  C   UNL     1      10.764  72.850  -2.998  1.00  0.00     0.111 A 
ATOM      6  C   UNL     1      10.130  71.587  -3.215  1.00  0.00     0.134 A 
ATOM      7  C   UNL     1       9.471  71.345  -4.427  1.00  0.00     0.093 A 
ATOM      8  C   UNL     1       9.366  72.337  -5.401  1.00  0.00     0.123 A 
ATOM      9  C   UNL     1       9.935  73.592  -5.177  1.00  0.00     0.094 A 
ATOM     10  C   UNL     1      10.632  73.852  -3.995  1.00  0.00     0.146 A 
ATOM     11  O   UNL     1      11.176  75.051  -3.831  1.00  0.00    -0.452 OA
ENDROOT
BRANCH   1  12
ATOM     12  C   UNL     1      12.435  76.768  -2.703  1.00  0.00     0.021 A 
ATOM     13  C   UNL     1      13.694  77.079  -3.250  1.00  0.00     0.016 A 
ATOM     14  C   UNL     1      14.181  78.389  -3.203  1.00  0.00     0.047 A 
ATOM     15  C   UNL     1      13.413  79.406  -2.624  1.00  0.00     0.115 A 
ATOM     16  C   UNL     1      11.661  77.799  -2.143  1.00  0.00     0.016 A 
ATOM     17  C   UNL     1      12.150  79.108  -2.097  1.00  0.00     0.047 A 
BRANCH  15  18
ATOM     18  O   UNL     1      13.913  80.705  -2.584  1.00  0.00    -0.508 OA
ATOM     19  H   UNL     1      14.369  81.122  -3.387  1.00  0.00     0.293 HD
ENDBRANCH  15  18
ENDBRANCH   1  12
BRANCH   2  20
ATOM     20  O   UNL     1      12.794  74.826  -0.582  1.00  0.00    -0.502 OA
ATOM     21  H   UNL     1      12.479  74.586   0.350  1.00  0.00     0.293 HD
ENDBRANCH   2  20
BRANCH   6  22
ATOM     22  O   UNL     1      10.097  70.556  -2.272  1.00  0.00    -0.507 OA
ATOM     23  H   UNL     1      10.767  69.804  -2.213  1.00  0.00     0.293 HD
ENDBRANCH   6  22
BRANCH   8  24
ATOM     24  O   UNL     1       8.687  72.066  -6.588  1.00  0.00    -0.508 OA
ATOM     25  H   UNL     1       7.726  72.356  -6.726  1.00  0.00     0.293 HD
ENDBRANCH   8  24
TORSDOF 5
ENDMDL
MODEL 8
REMARK VINA RESULT:    -6.938      2.635      7.125
REMARK INTER + INTRA:          -8.130
REMARK INTER:                  -7.870
REMARK INTRA:                  -0.260
REMARK UNBOUND:                 0.024
REMARK SMILES O=c1c(O)c(-c2ccc(O)cc2)oc2cc(O)cc(O)c12
REMARK SMILES IDX 5 1 3 2 2 3 1 4 21 5 19 6 18 7 16 8 15 9 14 10 13 11 6 12
REMARK SMILES IDX 7 13 8 14 9 15 12 16 11 17 10 18 4 20 20 22 17 24
REMARK H PARENT 10 19 4 21 20 23 17 25
REMARK Flexibility Score: inf
ROOT
ATOM      1  C   UNL     1      10.020  75.492  -3.018  1.00  0.00     0.180 A 
ATOM      2  C   UNL     1      11.281  75.775  -2.464  1.00  0.00     0.208 A 
ATOM      3  C   UNL     1      11.423  76.896  -1.631  1.00  0.00     0.238 A 
ATOM      4  O   UNL     1      12.535  77.099  -1.078  1.00  0.00    -0.285 OA
ATOM      5  C   UNL     1      10.317  77.752  -1.406  1.00  0.00     0.111 A 
ATOM      6  C   UNL     1      10.357  78.940  -0.614  1.00  0.00     0.134 A 
ATOM      7  C   UNL     1       9.175  79.651  -0.375  1.00  0.00     0.093 A 
ATOM      8  C   UNL     1       7.968  79.255  -0.949  1.00  0.00     0.123 A 
ATOM      9  C   UNL     1       7.927  78.126  -1.769  1.00  0.00     0.094 A 
ATOM     10  C   UNL     1       9.082  77.374  -1.995  1.00  0.00     0.146 A 
ATOM     11  O   UNL     1       8.995  76.296  -2.763  1.00  0.00    -0.452 OA
ENDROOT
BRANCH   1  12
ATOM     12  C   UNL     1       9.789  74.322  -3.895  1.00  0.00     0.021 A 
ATOM     13  C   UNL     1       9.655  73.025  -3.366  1.00  0.00     0.016 A 
ATOM     14  C   UNL     1       9.412  71.939  -4.213  1.00  0.00     0.047 A 
ATOM     15  C   UNL     1       9.286  72.135  -5.593  1.00  0.00     0.115 A 
ATOM     16  C   UNL     1       9.640  74.514  -5.279  1.00  0.00     0.016 A 
ATOM     17  C   UNL     1       9.398  73.427  -6.123  1.00  0.00     0.047 A 
BRANCH  15  18
ATOM     18  O   UNL     1       9.046  71.043  -6.423  1.00  0.00    -0.508 OA
ATOM     19  H   UNL     1       9.136  70.092  -6.085  1.00  0.00     0.293 HD
ENDBRANCH  15  18
ENDBRANCH   1  12
BRANCH   2  20
ATOM     20  O   UNL     1      12.378  74.961  -2.760  1.00  0.00    -0.502 OA
ATOM     21  H   UNL     1      13.082  74.726  -2.071  1.00  0.00     0.293 HD
ENDBRANCH   2  20
BRANCH   6  22
ATOM     22  O   UNL     1      11.526  79.476  -0.065  1.00  0.00    -0.507 OA
ATOM     23  H   UNL     1      12.099  80.183  -0.501  1.00  0.00     0.293 HD
ENDBRANCH   6  22
BRANCH   8  24
ATOM     24  O   UNL     1       6.813  79.997  -0.704  1.00  0.00    -0.508 OA
ATOM     25  H   UNL     1       5.950  79.814  -1.202  1.00  0.00     0.293 HD
ENDBRANCH   8  24
TORSDOF 5
ENDMDL
MODEL 9
REMARK VINA RESULT:    -6.922      3.939      7.562
REMARK INTER + INTRA:          -8.111
REMARK INTER:                  -7.835
REMARK INTRA:                  -0.277
REMARK UNBOUND:                 0.024
REMARK SMILES O=c1c(O)c(-c2ccc(O)cc2)oc2cc(O)cc(O)c12
REMARK SMILES IDX 5 1 3 2 2 3 1 4 21 5 19 6 18 7 16 8 15 9 14 10 13 11 6 12
REMARK SMILES IDX 7 13 8 14 9 15 12 16 11 17 10 18 4 20 20 22 17 24
REMARK H PARENT 10 19 4 21 20 23 17 25
REMARK Flexibility Score: inf
ROOT
ATOM      1  C   UNL     1      11.672  74.196  -2.259  1.00  0.00     0.180 A 
ATOM      2  C   UNL     1      12.847  73.819  -1.586  1.00  0.00     0.208 A 
ATOM      3  C   UNL     1      13.379  74.678  -0.611  1.00  0.00     0.238 A 
ATOM      4  O   UNL     1      14.388  74.300   0.039  1.00  0.00    -0.285 OA
ATOM      5  C   UNL     1      12.762  75.927  -0.359  1.00  0.00     0.111 A 
ATOM      6  C   UNL     1      13.239  76.896   0.576  1.00  0.00     0.134 A 
ATOM      7  C   UNL     1      12.487  78.052   0.819  1.00  0.00     0.093 A 
ATOM      8  C   UNL     1      11.310  78.306   0.116  1.00  0.00     0.123 A 
ATOM      9  C   UNL     1      10.862  77.392  -0.839  1.00  0.00     0.094 A 
ATOM     10  C   UNL     1      11.570  76.212  -1.077  1.00  0.00     0.146 A 
ATOM     11  O   UNL     1      11.098  75.360  -1.978  1.00  0.00    -0.452 OA
ENDROOT
BRANCH   1  12
ATOM     12  C   UNL     1      11.044  73.339  -3.289  1.00  0.00     0.021 A 
ATOM     13  C   UNL     1      10.227  72.248  -2.937  1.00  0.00     0.016 A 
ATOM     14  C   UNL     1       9.625  71.468  -3.930  1.00  0.00     0.047 A 
ATOM     15  C   UNL     1       9.817  71.775  -5.281  1.00  0.00     0.115 A 
ATOM     16  C   UNL     1      11.215  73.653  -4.648  1.00  0.00     0.016 A 
ATOM     17  C   UNL     1      10.612  72.872  -5.638  1.00  0.00     0.047 A 
BRANCH  15  18
ATOM     18  O   UNL     1       9.212  70.987  -6.257  1.00  0.00    -0.508 OA
ATOM     19  H   UNL     1       9.264  71.230  -7.240  1.00  0.00     0.293 HD
ENDBRANCH  15  18
ENDBRANCH   1  12
BRANCH   2  20
ATOM     20  O   UNL     1      13.484  72.617  -1.903  1.00  0.00    -0.502 OA
ATOM     21  H   UNL     1      13.268  72.092  -2.742  1.00  0.00     0.293 HD
ENDBRANCH   2  20
BRANCH   6  22
ATOM     22  O   UNL     1      14.448  76.785   1.269  1.00  0.00    -0.507 OA
ATOM     23  H   UNL     1      15.248  76.257   0.955  1.00  0.00     0.293 HD
ENDBRANCH   6  22
BRANCH   8  24
ATOM     24  O   UNL     1      10.595  79.475   0.371  1.00  0.00    -0.508 OA
ATOM     25  H   UNL     1       9.582  79.487   0.374  1.00  0.00     0.293 HD
ENDBRANCH   8  24
TORSDOF 5
ENDMDL
