MODEL 1
REMARK VINA RESULT:    -6.695      0.000      0.000
REMARK INTER + INTRA:          -8.362
REMARK INTER:                  -8.065
REMARK INTRA:                  -0.297
REMARK UNBOUND:                -0.297
REMARK SMILES O=c1c(O)c(-c2ccc(O)c(O)c2)oc2cc(O)cc(O)c12
REMARK SMILES IDX 5 1 3 2 2 3 1 4 22 5 20 6 19 7 17 8 16 9 15 10 14 11 6 12
REMARK SMILES IDX 7 13 8 14 9 15 13 16 11 17 10 18 12 20 4 22 21 24 18 26
REMARK H PARENT 10 19 12 21 4 23 21 25 18 27
REMARK Flexibility Score: inf
ROOT
ATOM      1  C   UNL     1       8.577  16.238 -19.172  1.00  0.00     0.180 A 
ATOM      2  C   UNL     1       8.514  15.823 -20.513  1.00  0.00     0.208 A 
ATOM      3  C   UNL     1       8.777  14.479 -20.824  1.00  0.00     0.238 A 
ATOM      4  O   UNL     1       8.665  14.101 -22.019  1.00  0.00    -0.285 OA
ATOM      5  C   UNL     1       9.115  13.571 -19.792  1.00  0.00     0.111 A 
ATOM      6  C   UNL     1       9.440  12.196 -19.996  1.00  0.00     0.134 A 
ATOM      7  C   UNL     1       9.631  11.360 -18.889  1.00  0.00     0.093 A 
ATOM      8  C   UNL     1       9.576  11.860 -17.590  1.00  0.00     0.123 A 
ATOM      9  C   UNL     1       9.317  13.216 -17.380  1.00  0.00     0.094 A 
ATOM     10  C   UNL     1       9.086  14.068 -18.463  1.00  0.00     0.146 A 
ATOM     11  O   UNL     1       8.833  15.348 -18.220  1.00  0.00    -0.452 OA
ENDROOT
BRANCH   1  12
ATOM     12  C   UNL     1       8.338  17.643 -18.769  1.00  0.00     0.025 A 
ATOM     13  C   UNL     1       7.124  17.987 -18.155  1.00  0.00     0.016 A 
ATOM     14  C   UNL     1       6.884  19.303 -17.748  1.00  0.00     0.051 A 
ATOM     15  C   UNL     1       7.862  20.288 -17.936  1.00  0.00     0.157 A 
ATOM     16  C   UNL     1       9.324  18.631 -18.938  1.00  0.00     0.062 A 
ATOM     17  C   UNL     1       9.086  19.951 -18.528  1.00  0.00     0.158 A 
BRANCH  15  18
ATOM     18  O   UNL     1       7.627  21.602 -17.534  1.00  0.00    -0.504 OA
ATOM     19  H   UNL     1       7.116  21.813 -16.686  1.00  0.00     0.293 HD
ENDBRANCH  15  18
BRANCH  17  20
ATOM     20  O   UNL     1      10.062  20.931 -18.701  1.00  0.00    -0.504 OA
ATOM     21  H   UNL     1       9.823  21.914 -18.754  1.00  0.00     0.293 HD
ENDBRANCH  17  20
ENDBRANCH   1  12
BRANCH   2  22
ATOM     22  O   UNL     1       8.156  16.731 -21.514  1.00  0.00    -0.502 OA
ATOM     23  H   UNL     1       8.226  17.734 -21.388  1.00  0.00     0.293 HD
ENDBRANCH   2  22
BRANCH   6  24
ATOM     24  O   UNL     1       9.612  11.614 -21.255  1.00  0.00    -0.507 OA
ATOM     25  H   UNL     1       9.010  10.905 -21.648  1.00  0.00     0.293 HD
ENDBRANCH   6  24
BRANCH   8  26
ATOM     26  O   UNL     1       9.787  11.003 -16.513  1.00  0.00    -0.508 OA
ATOM     27  H   UNL     1       9.311  11.135 -15.628  1.00  0.00     0.293 HD
ENDBRANCH   8  26
TORSDOF 6
ENDMDL
MODEL 2
REMARK VINA RESULT:    -6.363      3.251      7.688
REMARK INTER + INTRA:          -7.962
REMARK INTER:                  -7.641
REMARK INTRA:                  -0.321
REMARK UNBOUND:                -0.297
REMARK SMILES O=c1c(O)c(-c2ccc(O)c(O)c2)oc2cc(O)cc(O)c12
REMARK SMILES IDX 5 1 3 2 2 3 1 4 22 5 20 6 19 7 17 8 16 9 15 10 14 11 6 12
REMARK SMILES IDX 7 13 8 14 9 15 13 16 11 17 10 18 12 20 4 22 21 24 18 26
REMARK H PARENT 10 19 12 21 4 23 21 25 18 27
REMARK Flexibility Score: inf
ROOT
ATOM      1  C   UNL     1       9.523  11.973 -17.083  1.00  0.00     0.180 A 
ATOM      2  C   UNL     1      10.301  13.101 -16.769  1.00  0.00     0.208 A 
ATOM      3  C   UNL     1      10.315  14.187 -17.659  1.00  0.00     0.238 A 
ATOM      4  O   UNL     1      10.969  15.216 -17.347  1.00  0.00    -0.285 OA
ATOM      5  C   UNL     1       9.564  14.126 -18.857  1.00  0.00     0.111 A 
ATOM      6  C   UNL     1       9.536  15.152 -19.849  1.00  0.00     0.134 A 
ATOM      7  C   UNL     1       8.656  15.040 -20.933  1.00  0.00     0.093 A 
ATOM      8  C   UNL     1       7.853  13.914 -21.096  1.00  0.00     0.123 A 
ATOM      9  C   UNL     1       7.915  12.877 -20.163  1.00  0.00     0.094 A 
ATOM     10  C   UNL     1       8.756  12.976 -19.052  1.00  0.00     0.146 A 
ATOM     11  O   UNL     1       8.778  11.973 -18.182  1.00  0.00    -0.452 OA
ENDROOT
BRANCH   1  12
ATOM     12  C   UNL     1       9.477  10.779 -16.208  1.00  0.00     0.025 A 
ATOM     13  C   UNL     1      10.402   9.742 -16.405  1.00  0.00     0.016 A 
ATOM     14  C   UNL     1      10.390   8.616 -15.579  1.00  0.00     0.051 A 
ATOM     15  C   UNL     1       9.465   8.518 -14.532  1.00  0.00     0.157 A 
ATOM     16  C   UNL     1       8.562  10.686 -15.144  1.00  0.00     0.062 A 
ATOM     17  C   UNL     1       8.551   9.557 -14.312  1.00  0.00     0.158 A 
BRANCH  15  18
ATOM     18  O   UNL     1       9.448   7.395 -13.706  1.00  0.00    -0.504 OA
ATOM     19  H   UNL     1      10.035   6.592 -13.892  1.00  0.00     0.293 HD
ENDBRANCH  15  18
BRANCH  17  20
ATOM     20  O   UNL     1       7.640   9.464 -13.261  1.00  0.00    -0.504 OA
ATOM     21  H   UNL     1       7.340  10.282 -12.745  1.00  0.00     0.293 HD
ENDBRANCH  17  20
ENDBRANCH   1  12
BRANCH   2  22
ATOM     22  O   UNL     1      11.017  13.149 -15.570  1.00  0.00    -0.502 OA
ATOM     23  H   UNL     1      11.971  12.817 -15.492  1.00  0.00     0.293 HD
ENDBRANCH   2  22
BRANCH   6  24
ATOM     24  O   UNL     1      10.365  16.277 -19.832  1.00  0.00    -0.507 OA
ATOM     25  H   UNL     1      10.074  17.201 -19.549  1.00  0.00     0.293 HD
ENDBRANCH   6  24
BRANCH   8  26
ATOM     26  O   UNL     1       7.001  13.829 -22.195  1.00  0.00    -0.508 OA
ATOM     27  H   UNL     1       6.569  12.953 -22.466  1.00  0.00     0.293 HD
ENDBRANCH   8  26
TORSDOF 6
ENDMDL
MODEL 3
REMARK VINA RESULT:    -6.331      2.837      5.006
REMARK INTER + INTRA:          -7.923
REMARK INTER:                  -7.713
REMARK INTRA:                  -0.210
REMARK UNBOUND:                -0.297
REMARK SMILES O=c1c(O)c(-c2ccc(O)c(O)c2)oc2cc(O)cc(O)c12
REMARK SMILES IDX 5 1 3 2 2 3 1 4 22 5 20 6 19 7 17 8 16 9 15 10 14 11 6 12
REMARK SMILES IDX 7 13 8 14 9 15 13 16 11 17 10 18 12 20 4 22 21 24 18 26
REMARK H PARENT 10 19 12 21 4 23 21 25 18 27
REMARK Flexibility Score: inf
ROOT
ATOM      1  C   UNL     1       9.103  12.267 -18.279  1.00  0.00     0.180 A 
ATOM      2  C   UNL     1       9.695  11.073 -18.726  1.00  0.00     0.208 A 
ATOM      3  C   UNL     1       9.799   9.990 -17.838  1.00  0.00     0.238 A 
ATOM      4  O   UNL     1      10.280   8.906 -18.259  1.00  0.00    -0.285 OA
ATOM      5  C   UNL     1       9.326  10.120 -16.510  1.00  0.00     0.111 A 
ATOM      6  C   UNL     1       9.417   9.102 -15.514  1.00  0.00     0.134 A 
ATOM      7  C   UNL     1       8.798   9.294 -14.272  1.00  0.00     0.093 A 
ATOM      8  C   UNL     1       8.150  10.489 -13.967  1.00  0.00     0.123 A 
ATOM      9  C   UNL     1       8.106  11.515 -14.913  1.00  0.00     0.094 A 
ATOM     10  C   UNL     1       8.682  11.339 -16.174  1.00  0.00     0.146 A 
ATOM     11  O   UNL     1       8.609  12.335 -17.048  1.00  0.00    -0.452 OA
ENDROOT
BRANCH   1  12
ATOM     12  C   UNL     1       8.980  13.459 -19.149  1.00  0.00     0.025 A 
ATOM     13  C   UNL     1       8.059  13.449 -20.208  1.00  0.00     0.016 A 
ATOM     14  C   UNL     1       7.911  14.570 -21.029  1.00  0.00     0.051 A 
ATOM     15  C   UNL     1       8.671  15.722 -20.792  1.00  0.00     0.157 A 
ATOM     16  C   UNL     1       9.727  14.625 -18.903  1.00  0.00     0.062 A 
ATOM     17  C   UNL     1       9.578  15.751 -19.725  1.00  0.00     0.158 A 
BRANCH  15  18
ATOM     18  O   UNL     1       8.529  16.842 -21.610  1.00  0.00    -0.504 OA
ATOM     19  H   UNL     1       8.426  16.756 -22.613  1.00  0.00     0.293 HD
ENDBRANCH  15  18
BRANCH  17  20
ATOM     20  O   UNL     1      10.323  16.905 -19.483  1.00  0.00    -0.504 OA
ATOM     21  H   UNL     1      11.122  17.150 -20.057  1.00  0.00     0.293 HD
ENDBRANCH  17  20
ENDBRANCH   1  12
BRANCH   2  22
ATOM     22  O   UNL     1      10.135  10.958 -20.048  1.00  0.00    -0.502 OA
ATOM     23  H   UNL     1       9.919  11.651 -20.755  1.00  0.00     0.293 HD
ENDBRANCH   2  22
BRANCH   6  24
ATOM     24  O   UNL     1      10.121   7.906 -15.682  1.00  0.00    -0.507 OA
ATOM     25  H   UNL     1      10.278   7.225 -14.954  1.00  0.00     0.293 HD
ENDBRANCH   6  24
BRANCH   8  26
ATOM     26  O   UNL     1       7.559  10.651 -12.717  1.00  0.00    -0.508 OA
ATOM     27  H   UNL     1       6.861  10.002 -12.371  1.00  0.00     0.293 HD
ENDBRANCH   8  26
TORSDOF 6
ENDMDL
MODEL 4
REMARK VINA RESULT:    -6.272      3.442      6.355
REMARK INTER + INTRA:          -7.852
REMARK INTER:                  -7.609
REMARK INTRA:                  -0.243
REMARK UNBOUND:                -0.297
REMARK SMILES O=c1c(O)c(-c2ccc(O)c(O)c2)oc2cc(O)cc(O)c12
REMARK SMILES IDX 5 1 3 2 2 3 1 4 22 5 20 6 19 7 17 8 16 9 15 10 14 11 6 12
REMARK SMILES IDX 7 13 8 14 9 15 13 16 11 17 10 18 12 20 4 22 21 24 18 26
REMARK H PARENT 10 19 12 21 4 23 21 25 18 27
REMARK Flexibility Score: inf
ROOT
ATOM      1  C   UNL     1       9.639  11.503 -16.382  1.00  0.00     0.180 A 
ATOM      2  C   UNL     1      10.020  10.279 -16.960  1.00  0.00     0.208 A 
ATOM      3  C   UNL     1       9.734   9.086 -16.278  1.00  0.00     0.238 A 
ATOM      4  O   UNL     1      10.028   7.991 -16.826  1.00  0.00    -0.285 OA
ATOM      5  C   UNL     1       9.087   9.130 -15.020  1.00  0.00     0.111 A 
ATOM      6  C   UNL     1       8.785   7.986 -14.223  1.00  0.00     0.134 A 
ATOM      7  C   UNL     1       8.026   8.138 -13.056  1.00  0.00     0.093 A 
ATOM      8  C   UNL     1       7.615   9.397 -12.623  1.00  0.00     0.123 A 
ATOM      9  C   UNL     1       7.956  10.531 -13.364  1.00  0.00     0.094 A 
ATOM     10  C   UNL     1       8.681  10.407 -14.552  1.00  0.00     0.146 A 
ATOM     11  O   UNL     1       8.975  11.508 -15.232  1.00  0.00    -0.452 OA
ENDROOT
BRANCH   1  12
ATOM     12  C   UNL     1       9.928  12.803 -17.028  1.00  0.00     0.025 A 
ATOM     13  C   UNL     1      10.971  13.603 -16.536  1.00  0.00     0.016 A 
ATOM     14  C   UNL     1      11.274  14.825 -17.143  1.00  0.00     0.051 A 
ATOM     15  C   UNL     1      10.549  15.255 -18.261  1.00  0.00     0.157 A 
ATOM     16  C   UNL     1       9.215  13.231 -18.163  1.00  0.00     0.062 A 
ATOM     17  C   UNL     1       9.521  14.456 -18.775  1.00  0.00     0.158 A 
BRANCH  15  18
ATOM     18  O   UNL     1      10.847  16.474 -18.869  1.00  0.00    -0.504 OA
ATOM     19  H   UNL     1      10.522  17.352 -18.483  1.00  0.00     0.293 HD
ENDBRANCH  15  18
BRANCH  17  20
ATOM     20  O   UNL     1       8.810  14.881 -19.897  1.00  0.00    -0.504 OA
ATOM     21  H   UNL     1       8.130  14.283 -20.352  1.00  0.00     0.293 HD
ENDBRANCH  17  20
ENDBRANCH   1  12
BRANCH   2  22
ATOM     22  O   UNL     1      10.637  10.257 -18.214  1.00  0.00    -0.502 OA
ATOM     23  H   UNL     1      10.700  11.078 -18.804  1.00  0.00     0.293 HD
ENDBRANCH   2  22
BRANCH   6  24
ATOM     24  O   UNL     1       9.226   6.692 -14.515  1.00  0.00    -0.507 OA
ATOM     25  H   UNL     1      10.192   6.398 -14.503  1.00  0.00     0.293 HD
ENDBRANCH   6  24
BRANCH   8  26
ATOM     26  O   UNL     1       6.875   9.513 -11.449  1.00  0.00    -0.508 OA
ATOM     27  H   UNL     1       7.280   9.305 -10.543  1.00  0.00     0.293 HD
ENDBRANCH   8  26
TORSDOF 6
ENDMDL
MODEL 5
REMARK VINA RESULT:    -6.261      2.796      7.494
REMARK INTER + INTRA:          -7.838
REMARK INTER:                  -7.546
REMARK INTRA:                  -0.292
REMARK UNBOUND:                -0.297
REMARK SMILES O=c1c(O)c(-c2ccc(O)c(O)c2)oc2cc(O)cc(O)c12
REMARK SMILES IDX 5 1 3 2 2 3 1 4 22 5 20 6 19 7 17 8 16 9 15 10 14 11 6 12
REMARK SMILES IDX 7 13 8 14 9 15 13 16 11 17 10 18 12 20 4 22 21 24 18 26
REMARK H PARENT 10 19 12 21 4 23 21 25 18 27
REMARK Flexibility Score: inf
ROOT
ATOM      1  C   UNL     1       8.979  11.434 -17.860  1.00  0.00     0.180 A 
ATOM      2  C   UNL     1       8.242  11.134 -19.018  1.00  0.00     0.208 A 
ATOM      3  C   UNL     1       8.058  12.135 -19.986  1.00  0.00     0.238 A 
ATOM      4  O   UNL     1       7.444  11.846 -21.046  1.00  0.00    -0.285 OA
ATOM      5  C   UNL     1       8.600  13.426 -19.776  1.00  0.00     0.111 A 
ATOM      6  C   UNL     1       8.441  14.526 -20.671  1.00  0.00     0.134 A 
ATOM      7  C   UNL     1       9.130  15.721 -20.426  1.00  0.00     0.093 A 
ATOM      8  C   UNL     1       9.917  15.877 -19.287  1.00  0.00     0.123 A 
ATOM      9  C   UNL     1      10.032  14.827 -18.374  1.00  0.00     0.094 A 
ATOM     10  C   UNL     1       9.387  13.611 -18.610  1.00  0.00     0.146 A 
ATOM     11  O   UNL     1       9.530  12.635 -17.723  1.00  0.00    -0.452 OA
ENDROOT
BRANCH   1  12
ATOM     12  C   UNL     1       9.195  10.440 -16.783  1.00  0.00     0.025 A 
ATOM     13  C   UNL     1      10.206   9.477 -16.925  1.00  0.00     0.016 A 
ATOM     14  C   UNL     1      10.440   8.541 -15.914  1.00  0.00     0.051 A 
ATOM     15  C   UNL     1       9.677   8.567 -14.739  1.00  0.00     0.157 A 
ATOM     16  C   UNL     1       8.444  10.474 -15.594  1.00  0.00     0.062 A 
ATOM     17  C   UNL     1       8.680   9.537 -14.577  1.00  0.00     0.158 A 
BRANCH  15  18
ATOM     18  O   UNL     1       9.906   7.635 -13.728  1.00  0.00    -0.504 OA
ATOM     19  H   UNL     1      10.396   6.767 -13.909  1.00  0.00     0.293 HD
ENDBRANCH  15  18
BRANCH  17  20
ATOM     20  O   UNL     1       7.932   9.569 -13.401  1.00  0.00    -0.504 OA
ATOM     21  H   UNL     1       8.139   8.952 -12.625  1.00  0.00     0.293 HD
ENDBRANCH  17  20
ENDBRANCH   1  12
BRANCH   2  22
ATOM     22  O   UNL     1       7.735   9.847 -19.215  1.00  0.00    -0.502 OA
ATOM     23  H   UNL     1       7.836   9.351 -20.093  1.00  0.00     0.293 HD
ENDBRANCH   2  22
BRANCH   6  24
ATOM     24  O   UNL     1       7.604  14.508 -21.791  1.00  0.00    -0.507 OA
ATOM     25  H   UNL     1       7.866  14.153 -22.698  1.00  0.00     0.293 HD
ENDBRANCH   6  24
BRANCH   8  26
ATOM     26  O   UNL     1      10.575  17.085 -19.067  1.00  0.00    -0.508 OA
ATOM     27  H   UNL     1      11.476  17.121 -18.602  1.00  0.00     0.293 HD
ENDBRANCH   8  26
TORSDOF 6
ENDMDL
MODEL 6
REMARK VINA RESULT:    -6.143      2.955      5.340
REMARK INTER + INTRA:          -7.697
REMARK INTER:                  -7.581
REMARK INTRA:                  -0.116
REMARK UNBOUND:                -0.297
REMARK SMILES O=c1c(O)c(-c2ccc(O)c(O)c2)oc2cc(O)cc(O)c12
REMARK SMILES IDX 5 1 3 2 2 3 1 4 22 5 20 6 19 7 17 8 16 9 15 10 14 11 6 12
REMARK SMILES IDX 7 13 8 14 9 15 13 16 11 17 10 18 12 20 4 22 21 24 18 26
REMARK H PARENT 10 19 12 21 4 23 21 25 18 27
REMARK Flexibility Score: inf
ROOT
ATOM      1  C   UNL     1       9.285  12.209 -17.955  1.00  0.00     0.180 A 
ATOM      2  C   UNL     1       9.759  10.979 -18.445  1.00  0.00     0.208 A 
ATOM      3  C   UNL     1       9.733   9.856 -17.603  1.00  0.00     0.238 A 
ATOM      4  O   UNL     1      10.107   8.746 -18.064  1.00  0.00    -0.285 OA
ATOM      5  C   UNL     1       9.249   9.979 -16.278  1.00  0.00     0.111 A 
ATOM      6  C   UNL     1       9.214   8.916 -15.326  1.00  0.00     0.134 A 
ATOM      7  C   UNL     1       8.593   9.119 -14.087  1.00  0.00     0.093 A 
ATOM      8  C   UNL     1       8.067  10.361 -13.740  1.00  0.00     0.123 A 
ATOM      9  C   UNL     1       8.148  11.425 -14.641  1.00  0.00     0.094 A 
ATOM     10  C   UNL     1       8.728  11.243 -15.899  1.00  0.00     0.146 A 
ATOM     11  O   UNL     1       8.776  12.277 -16.730  1.00  0.00    -0.452 OA
ENDROOT
BRANCH   1  12
ATOM     12  C   UNL     1       9.303  13.443 -18.774  1.00  0.00     0.025 A 
ATOM     13  C   UNL     1      10.092  14.530 -18.367  1.00  0.00     0.016 A 
ATOM     14  C   UNL     1      10.141  15.696 -19.135  1.00  0.00     0.051 A 
ATOM     15  C   UNL     1       9.414  15.785 -20.329  1.00  0.00     0.157 A 
ATOM     16  C   UNL     1       8.590  13.530 -19.983  1.00  0.00     0.062 A 
ATOM     17  C   UNL     1       8.640  14.699 -20.756  1.00  0.00     0.158 A 
BRANCH  15  18
ATOM     18  O   UNL     1       9.458  16.948 -21.097  1.00  0.00    -0.504 OA
ATOM     19  H   UNL     1      10.070  17.719 -20.857  1.00  0.00     0.293 HD
ENDBRANCH  15  18
BRANCH  17  20
ATOM     20  O   UNL     1       7.928  14.786 -21.952  1.00  0.00    -0.504 OA
ATOM     21  H   UNL     1       7.988  14.062 -22.658  1.00  0.00     0.293 HD
ENDBRANCH  17  20
ENDBRANCH   1  12
BRANCH   2  22
ATOM     22  O   UNL     1      10.211  10.875 -19.763  1.00  0.00    -0.502 OA
ATOM     23  H   UNL     1       9.708  11.279 -20.544  1.00  0.00     0.293 HD
ENDBRANCH   2  22
BRANCH   6  24
ATOM     24  O   UNL     1       9.793   7.661 -15.535  1.00  0.00    -0.507 OA
ATOM     25  H   UNL     1      10.786   7.479 -15.530  1.00  0.00     0.293 HD
ENDBRANCH   6  24
BRANCH   8  26
ATOM     26  O   UNL     1       7.471  10.532 -12.493  1.00  0.00    -0.508 OA
ATOM     27  H   UNL     1       6.470  10.663 -12.396  1.00  0.00     0.293 HD
ENDBRANCH   8  26
TORSDOF 6
ENDMDL
MODEL 7
REMARK VINA RESULT:    -6.107      2.479      7.316
REMARK INTER + INTRA:          -7.653
REMARK INTER:                  -7.734
REMARK INTRA:                   0.081
REMARK UNBOUND:                -0.297
REMARK SMILES O=c1c(O)c(-c2ccc(O)c(O)c2)oc2cc(O)cc(O)c12
REMARK SMILES IDX 5 1 3 2 2 3 1 4 22 5 20 6 19 7 17 8 16 9 15 10 14 11 6 12
REMARK SMILES IDX 7 13 8 14 9 15 13 16 11 17 10 18 12 20 4 22 21 24 18 26
REMARK H PARENT 10 19 12 21 4 23 21 25 18 27
REMARK Flexibility Score: inf
ROOT
ATOM      1  C   UNL     1       9.434  13.259 -18.622  1.00  0.00     0.180 A 
ATOM      2  C   UNL     1       8.966  14.317 -17.823  1.00  0.00     0.208 A 
ATOM      3  C   UNL     1       8.588  15.520 -18.439  1.00  0.00     0.238 A 
ATOM      4  O   UNL     1       8.119  16.444 -17.725  1.00  0.00    -0.285 OA
ATOM      5  C   UNL     1       8.698  15.657 -19.844  1.00  0.00     0.111 A 
ATOM      6  C   UNL     1       8.382  16.844 -20.570  1.00  0.00     0.134 A 
ATOM      7  C   UNL     1       8.404  16.824 -21.970  1.00  0.00     0.093 A 
ATOM      8  C   UNL     1       8.793  15.683 -22.668  1.00  0.00     0.123 A 
ATOM      9  C   UNL     1       9.162  14.533 -21.967  1.00  0.00     0.094 A 
ATOM     10  C   UNL     1       9.115  14.511 -20.571  1.00  0.00     0.146 A 
ATOM     11  O   UNL     1       9.463  13.395 -19.942  1.00  0.00    -0.452 OA
ENDROOT
BRANCH   1  12
ATOM     12  C   UNL     1       9.874  11.969 -18.042  1.00  0.00     0.025 A 
ATOM     13  C   UNL     1      10.712  11.968 -16.917  1.00  0.00     0.016 A 
ATOM     14  C   UNL     1      11.123  10.762 -16.341  1.00  0.00     0.051 A 
ATOM     15  C   UNL     1      10.688   9.542 -16.873  1.00  0.00     0.157 A 
ATOM     16  C   UNL     1       9.424  10.742 -18.562  1.00  0.00     0.062 A 
ATOM     17  C   UNL     1       9.833   9.532 -17.983  1.00  0.00     0.158 A 
BRANCH  15  18
ATOM     18  O   UNL     1      11.097   8.337 -16.303  1.00  0.00    -0.504 OA
ATOM     19  H   UNL     1      10.961   7.453 -16.778  1.00  0.00     0.293 HD
ENDBRANCH  15  18
BRANCH  17  20
ATOM     20  O   UNL     1       9.391   8.315 -18.502  1.00  0.00    -0.504 OA
ATOM     21  H   UNL     1       8.405   8.119 -18.625  1.00  0.00     0.293 HD
ENDBRANCH  17  20
ENDBRANCH   1  12
BRANCH   2  22
ATOM     22  O   UNL     1       8.844  14.152 -16.440  1.00  0.00    -0.502 OA
ATOM     23  H   UNL     1       8.507  14.890 -15.832  1.00  0.00     0.293 HD
ENDBRANCH   2  22
BRANCH   6  24
ATOM     24  O   UNL     1       8.070  18.067 -19.969  1.00  0.00    -0.507 OA
ATOM     25  H   UNL     1       7.133  18.391 -19.778  1.00  0.00     0.293 HD
ENDBRANCH   6  24
BRANCH   8  26
ATOM     26  O   UNL     1       8.819  15.703 -24.061  1.00  0.00    -0.508 OA
ATOM     27  H   UNL     1       8.802  16.574 -24.579  1.00  0.00     0.293 HD
ENDBRANCH   8  26
TORSDOF 6
ENDMDL
MODEL 8
REMARK VINA RESULT:    -5.998      2.728      7.685
REMARK INTER + INTRA:          -7.522
REMARK INTER:                  -7.377
REMARK INTRA:                  -0.144
REMARK UNBOUND:                -0.297
REMARK SMILES O=c1c(O)c(-c2ccc(O)c(O)c2)oc2cc(O)cc(O)c12
REMARK SMILES IDX 5 1 3 2 2 3 1 4 22 5 20 6 19 7 17 8 16 9 15 10 14 11 6 12
REMARK SMILES IDX 7 13 8 14 9 15 13 16 11 17 10 18 12 20 4 22 21 24 18 26
REMARK H PARENT 10 19 12 21 4 23 21 25 18 27
REMARK Flexibility Score: inf
ROOT
ATOM      1  C   UNL     1       9.145  12.219 -18.513  1.00  0.00     0.180 A 
ATOM      2  C   UNL     1       9.573  13.209 -17.612  1.00  0.00     0.208 A 
ATOM      3  C   UNL     1       9.731  14.526 -18.073  1.00  0.00     0.238 A 
ATOM      4  O   UNL     1      10.062  15.419 -17.250  1.00  0.00    -0.285 OA
ATOM      5  C   UNL     1       9.475  14.833 -19.431  1.00  0.00     0.111 A 
ATOM      6  C   UNL     1       9.640  16.125 -20.016  1.00  0.00     0.134 A 
ATOM      7  C   UNL     1       9.232  16.342 -21.337  1.00  0.00     0.093 A 
ATOM      8  C   UNL     1       8.727  15.302 -22.115  1.00  0.00     0.123 A 
ATOM      9  C   UNL     1       8.615  14.021 -21.573  1.00  0.00     0.094 A 
ATOM     10  C   UNL     1       8.980  13.781 -20.246  1.00  0.00     0.146 A 
ATOM     11  O   UNL     1       8.849  12.551 -19.764  1.00  0.00    -0.452 OA
ENDROOT
BRANCH   1  12
ATOM     12  C   UNL     1       8.979  10.804 -18.108  1.00  0.00     0.025 A 
ATOM     13  C   UNL     1       7.732  10.181 -18.270  1.00  0.00     0.016 A 
ATOM     14  C   UNL     1       7.558   8.841 -17.913  1.00  0.00     0.051 A 
ATOM     15  C   UNL     1       8.634   8.101 -17.406  1.00  0.00     0.157 A 
ATOM     16  C   UNL     1      10.061  10.052 -17.616  1.00  0.00     0.062 A 
ATOM     17  C   UNL     1       9.889   8.706 -17.261  1.00  0.00     0.158 A 
BRANCH  15  18
ATOM     18  O   UNL     1       8.465   6.764 -17.047  1.00  0.00    -0.504 OA
ATOM     19  H   UNL     1       7.731   6.475 -16.413  1.00  0.00     0.293 HD
ENDBRANCH  15  18
BRANCH  17  20
ATOM     20  O   UNL     1      10.961   7.963 -16.768  1.00  0.00    -0.504 OA
ATOM     21  H   UNL     1      11.751   8.408 -16.316  1.00  0.00     0.293 HD
ENDBRANCH  17  20
ENDBRANCH   1  12
BRANCH   2  22
ATOM     22  O   UNL     1       9.799  12.889 -16.271  1.00  0.00    -0.502 OA
ATOM     23  H   UNL     1      10.710  12.613 -15.923  1.00  0.00     0.293 HD
ENDBRANCH   2  22
BRANCH   6  24
ATOM     24  O   UNL     1      10.221  17.211 -19.355  1.00  0.00    -0.507 OA
ATOM     25  H   UNL     1      10.073  18.179 -19.601  1.00  0.00     0.293 HD
ENDBRANCH   6  24
BRANCH   8  26
ATOM     26  O   UNL     1       8.345  15.551 -23.432  1.00  0.00    -0.508 OA
ATOM     27  H   UNL     1       8.007  16.461 -23.724  1.00  0.00     0.293 HD
ENDBRANCH   8  26
TORSDOF 6
ENDMDL
MODEL 9
REMARK VINA RESULT:    -5.978      2.641      4.887
REMARK INTER + INTRA:          -7.497
REMARK INTER:                  -7.249
REMARK INTRA:                  -0.249
REMARK UNBOUND:                -0.297
REMARK SMILES O=c1c(O)c(-c2ccc(O)c(O)c2)oc2cc(O)cc(O)c12
REMARK SMILES IDX 5 1 3 2 2 3 1 4 22 5 20 6 19 7 17 8 16 9 15 10 14 11 6 12
REMARK SMILES IDX 7 13 8 14 9 15 13 16 11 17 10 18 12 20 4 22 21 24 18 26
REMARK H PARENT 10 19 12 21 4 23 21 25 18 27
REMARK Flexibility Score: inf
ROOT
ATOM      1  C   UNL     1       9.023  12.938 -17.864  1.00  0.00     0.180 A 
ATOM      2  C   UNL     1       8.283  12.963 -16.669  1.00  0.00     0.208 A 
ATOM      3  C   UNL     1       8.406  11.892 -15.769  1.00  0.00     0.238 A 
ATOM      4  O   UNL     1       7.784  11.946 -14.677  1.00  0.00    -0.285 OA
ATOM      5  C   UNL     1       9.254  10.802 -16.083  1.00  0.00     0.111 A 
ATOM      6  C   UNL     1       9.424   9.646 -15.264  1.00  0.00     0.134 A 
ATOM      7  C   UNL     1      10.387   8.690 -15.610  1.00  0.00     0.093 A 
ATOM      8  C   UNL     1      11.139   8.815 -16.776  1.00  0.00     0.123 A 
ATOM      9  C   UNL     1      10.939   9.912 -17.616  1.00  0.00     0.094 A 
ATOM     10  C   UNL     1      10.011  10.901 -17.279  1.00  0.00     0.146 A 
ATOM     11  O   UNL     1       9.859  11.933 -18.099  1.00  0.00    -0.452 OA
ENDROOT
BRANCH   1  12
ATOM     12  C   UNL     1       8.927  14.018 -18.873  1.00  0.00     0.025 A 
ATOM     13  C   UNL     1       8.182  13.805 -20.044  1.00  0.00     0.016 A 
ATOM     14  C   UNL     1       8.061  14.817 -21.000  1.00  0.00     0.051 A 
ATOM     15  C   UNL     1       8.669  16.061 -20.791  1.00  0.00     0.157 A 
ATOM     16  C   UNL     1       9.520  15.275 -18.659  1.00  0.00     0.062 A 
ATOM     17  C   UNL     1       9.397  16.292 -19.616  1.00  0.00     0.158 A 
BRANCH  15  18
ATOM     18  O   UNL     1       8.553  17.073 -21.743  1.00  0.00    -0.504 OA
ATOM     19  H   UNL     1       9.340  17.357 -22.313  1.00  0.00     0.293 HD
ENDBRANCH  15  18
BRANCH  17  20
ATOM     20  O   UNL     1       9.990  17.536 -19.405  1.00  0.00    -0.504 OA
ATOM     21  H   UNL     1       9.739  18.344 -19.961  1.00  0.00     0.293 HD
ENDBRANCH  17  20
ENDBRANCH   1  12
BRANCH   2  22
ATOM     22  O   UNL     1       7.469  14.059 -16.369  1.00  0.00    -0.502 OA
ATOM     23  H   UNL     1       6.765  14.031 -15.641  1.00  0.00     0.293 HD
ENDBRANCH   2  22
BRANCH   6  24
ATOM     24  O   UNL     1       8.659   9.377 -14.125  1.00  0.00    -0.507 OA
ATOM     25  H   UNL     1       8.892   9.681 -13.191  1.00  0.00     0.293 HD
ENDBRANCH   6  24
BRANCH   8  26
ATOM     26  O   UNL     1      12.077   7.837 -17.098  1.00  0.00    -0.508 OA
ATOM     27  H   UNL     1      12.810   7.571 -16.449  1.00  0.00     0.293 HD
ENDBRANCH   8  26
TORSDOF 6
ENDMDL
