MODEL 1
REMARK VINA RESULT:    -2.238      0.000      0.000
REMARK INTER + INTRA:          -7.125
REMARK INTER:                  -5.639
REMARK INTRA:                  -1.485
REMARK UNBOUND:                -1.485
REMARK SMILES CCCCCCCCCCCCCCCCCCCCCCCCCCCC(=O)[O-]
REMARK SMILES IDX 15 1 16 2 17 3 18 4 19 5 20 6 21 7 22 8 23 9 24 10 25 11
REMARK SMILES IDX 26 12 27 13 28 14 29 15 30 16 14 17 13 18 12 19 11 20 10 21
REMARK SMILES IDX 9 22 8 23 7 24 6 25 5 26 4 27 3 28 2 29 1 30
REMARK H PARENT
REMARK Flexibility Score: inf
ROOT
ATOM      1  C   UNL     1      -2.413 -21.755  15.876  1.00  0.00     0.000 C 
ENDROOT
BRANCH   1   2
ATOM      2  C   UNL     1      -0.947 -21.615  16.311  1.00  0.00     0.000 C 
BRANCH   2   3
ATOM      3  C   UNL     1      -0.206 -22.954  16.173  1.00  0.00     0.000 C 
BRANCH   3   4
ATOM      4  C   UNL     1       0.699 -23.008  14.928  1.00  0.00     0.000 C 
BRANCH   4   5
ATOM      5  C   UNL     1       2.206 -22.918  15.236  1.00  0.00     0.000 C 
BRANCH   5   6
ATOM      6  C   UNL     1       3.071 -22.976  13.965  1.00  0.00     0.000 C 
BRANCH   6   7
ATOM      7  C   UNL     1       4.519 -22.525  14.216  1.00  0.00     0.000 C 
BRANCH   7   8
ATOM      8  C   UNL     1       4.964 -22.733  15.674  1.00  0.00     0.000 C 
BRANCH   8   9
ATOM      9  C   UNL     1       6.461 -23.061  15.789  1.00  0.00     0.000 C 
BRANCH   9  10
ATOM     10  C   UNL     1       7.287 -21.874  16.312  1.00  0.00     0.000 C 
BRANCH  10  11
ATOM     11  C   UNL     1       8.214 -21.284  15.226  1.00  0.00     0.000 C 
BRANCH  11  12
ATOM     12  C   UNL     1       7.929 -21.834  13.816  1.00  0.00     0.006 C 
BRANCH  12  13
ATOM     13  C   UNL     1       9.047 -21.556  12.801  1.00  0.00     0.053 C 
BRANCH  13  14
ATOM     14  C   UNL     1       8.581 -20.667  11.688  1.00  0.00     0.041 C 
ATOM     15  O   UNL     1       7.808 -21.111  10.800  1.00  0.00    -0.550 OA
ATOM     16  O   UNL     1       8.994 -19.341  11.640  1.00  0.00    -0.550 OA
ENDBRANCH  13  14
ENDBRANCH  12  13
ENDBRANCH  11  12
ENDBRANCH  10  11
ENDBRANCH   9  10
ENDBRANCH   8   9
ENDBRANCH   7   8
ENDBRANCH   6   7
ENDBRANCH   5   6
ENDBRANCH   4   5
ENDBRANCH   3   4
ENDBRANCH   2   3
ENDBRANCH   1   2
BRANCH   1  17
ATOM     17  C   UNL     1      -3.017 -23.125  16.236  1.00  0.00     0.000 C 
BRANCH  17  18
ATOM     18  C   UNL     1      -4.339 -23.070  17.030  1.00  0.00     0.000 C 
BRANCH  18  19
ATOM     19  C   UNL     1      -5.157 -21.778  16.852  1.00  0.00     0.000 C 
BRANCH  19  20
ATOM     20  C   UNL     1      -6.351 -21.892  15.885  1.00  0.00     0.000 C 
BRANCH  20  21
ATOM     21  C   UNL     1      -7.244 -23.125  16.140  1.00  0.00     0.000 C 
BRANCH  21  22
ATOM     22  C   UNL     1      -8.429 -22.813  17.072  1.00  0.00    -0.000 C 
BRANCH  22  23
ATOM     23  C   UNL     1      -9.114 -21.481  16.730  1.00  0.00    -0.000 C 
BRANCH  23  24
ATOM     24  C   UNL     1     -10.185 -21.085  17.761  1.00  0.00    -0.000 C 
BRANCH  24  25
ATOM     25  C   UNL     1      -9.696 -21.223  19.212  1.00  0.00    -0.000 C 
BRANCH  25  26
ATOM     26  C   UNL     1     -10.527 -20.407  20.225  1.00  0.00    -0.000 C 
BRANCH  26  27
ATOM     27  C   UNL     1     -10.751 -18.958  19.761  1.00  0.00    -0.000 C 
BRANCH  27  28
ATOM     28  C   UNL     1     -10.971 -17.989  20.935  1.00  0.00    -0.000 C 
BRANCH  28  29
ATOM     29  C   UNL     1      -9.655 -17.568  21.608  1.00  0.00    -0.003 C 
ATOM     30  C   UNL     1      -9.443 -18.320  22.918  1.00  0.00     0.004 C 
ENDBRANCH  28  29
ENDBRANCH  27  28
ENDBRANCH  26  27
ENDBRANCH  25  26
ENDBRANCH  24  25
ENDBRANCH  23  24
ENDBRANCH  22  23
ENDBRANCH  21  22
ENDBRANCH  20  21
ENDBRANCH  19  20
ENDBRANCH  18  19
ENDBRANCH  17  18
ENDBRANCH   1  17
TORSDOF 26
ENDMDL
MODEL 2
REMARK VINA RESULT:    -1.834      5.556     15.489
REMARK INTER + INTRA:          -6.107
REMARK INTER:                  -4.896
REMARK INTRA:                  -1.211
REMARK UNBOUND:                -1.485
REMARK SMILES CCCCCCCCCCCCCCCCCCCCCCCCCCCC(=O)[O-]
REMARK SMILES IDX 15 1 16 2 17 3 18 4 19 5 20 6 21 7 22 8 23 9 24 10 25 11
REMARK SMILES IDX 26 12 27 13 28 14 29 15 30 16 14 17 13 18 12 19 11 20 10 21
REMARK SMILES IDX 9 22 8 23 7 24 6 25 5 26 4 27 3 28 2 29 1 30
REMARK H PARENT
REMARK Flexibility Score: inf
ROOT
ATOM      1  C   UNL     1      -3.237 -23.038  16.235  1.00  0.00     0.000 C 
ENDROOT
BRANCH   1   2
ATOM      2  C   UNL     1      -4.465 -22.494  16.981  1.00  0.00     0.000 C 
BRANCH   2   3
ATOM      3  C   UNL     1      -5.503 -21.940  15.992  1.00  0.00     0.000 C 
BRANCH   3   4
ATOM      4  C   UNL     1      -6.925 -22.462  16.269  1.00  0.00     0.000 C 
BRANCH   4   5
ATOM      5  C   UNL     1      -7.290 -22.543  17.764  1.00  0.00     0.000 C 
BRANCH   5   6
ATOM      6  C   UNL     1      -8.484 -21.642  18.128  1.00  0.00     0.000 C 
BRANCH   6   7
ATOM      7  C   UNL     1      -9.837 -22.313  17.844  1.00  0.00     0.000 C 
BRANCH   7   8
ATOM      8  C   UNL     1     -10.447 -22.977  19.092  1.00  0.00     0.000 C 
BRANCH   8   9
ATOM      9  C   UNL     1      -9.471 -23.001  20.279  1.00  0.00     0.000 C 
BRANCH   9  10
ATOM     10  C   UNL     1     -10.109 -22.481  21.578  1.00  0.00     0.000 C 
BRANCH  10  11
ATOM     11  C   UNL     1     -10.334 -20.953  21.547  1.00  0.00     0.000 C 
BRANCH  11  12
ATOM     12  C   UNL     1     -10.432 -20.322  22.948  1.00  0.00     0.006 C 
BRANCH  12  13
ATOM     13  C   UNL     1     -10.913 -18.863  22.942  1.00  0.00     0.053 C 
BRANCH  13  14
ATOM     14  C   UNL     1      -9.940 -17.958  22.250  1.00  0.00     0.041 C 
ATOM     15  O   UNL     1     -10.031 -17.755  21.010  1.00  0.00    -0.550 OA
ATOM     16  O   UNL     1      -8.938 -17.329  22.977  1.00  0.00    -0.550 OA
ENDBRANCH  13  14
ENDBRANCH  12  13
ENDBRANCH  11  12
ENDBRANCH  10  11
ENDBRANCH   9  10
ENDBRANCH   8   9
ENDBRANCH   7   8
ENDBRANCH   6   7
ENDBRANCH   5   6
ENDBRANCH   4   5
ENDBRANCH   3   4
ENDBRANCH   2   3
ENDBRANCH   1   2
BRANCH   1  17
ATOM     17  C   UNL     1      -2.276 -21.929  15.771  1.00  0.00     0.000 C 
BRANCH  17  18
ATOM     18  C   UNL     1      -0.827 -22.061  16.285  1.00  0.00     0.000 C 
BRANCH  18  19
ATOM     19  C   UNL     1       0.075 -23.004  15.468  1.00  0.00     0.000 C 
BRANCH  19  20
ATOM     20  C   UNL     1       1.523 -23.125  15.978  1.00  0.00     0.000 C 
BRANCH  20  21
ATOM     21  C   UNL     1       2.574 -22.529  15.018  1.00  0.00     0.000 C 
BRANCH  21  22
ATOM     22  C   UNL     1       3.627 -21.679  15.749  1.00  0.00    -0.000 C 
BRANCH  22  23
ATOM     23  C   UNL     1       4.831 -22.508  16.222  1.00  0.00    -0.000 C 
BRANCH  23  24
ATOM     24  C   UNL     1       5.594 -21.838  17.378  1.00  0.00    -0.000 C 
BRANCH  24  25
ATOM     25  C   UNL     1       7.058 -21.529  17.026  1.00  0.00    -0.000 C 
BRANCH  25  26
ATOM     26  C   UNL     1       7.660 -22.490  15.979  1.00  0.00    -0.000 C 
BRANCH  26  27
ATOM     27  C   UNL     1       9.031 -22.014  15.471  1.00  0.00    -0.000 C 
BRANCH  27  28
ATOM     28  C   UNL     1       8.916 -21.004  14.317  1.00  0.00    -0.000 C 
BRANCH  28  29
ATOM     29  C   UNL     1       7.748 -21.320  13.370  1.00  0.00    -0.003 C 
ATOM     30  C   UNL     1       7.667 -20.299  12.239  1.00  0.00     0.004 C 
ENDBRANCH  28  29
ENDBRANCH  27  28
ENDBRANCH  26  27
ENDBRANCH  25  26
ENDBRANCH  24  25
ENDBRANCH  23  24
ENDBRANCH  22  23
ENDBRANCH  21  22
ENDBRANCH  20  21
ENDBRANCH  19  20
ENDBRANCH  18  19
ENDBRANCH  17  18
ENDBRANCH   1  17
TORSDOF 26
ENDMDL
MODEL 3
REMARK VINA RESULT:    -1.828      5.562     15.820
REMARK INTER + INTRA:          -6.092
REMARK INTER:                  -4.808
REMARK INTRA:                  -1.285
REMARK UNBOUND:                -1.485
REMARK SMILES CCCCCCCCCCCCCCCCCCCCCCCCCCCC(=O)[O-]
REMARK SMILES IDX 15 1 16 2 17 3 18 4 19 5 20 6 21 7 22 8 23 9 24 10 25 11
REMARK SMILES IDX 26 12 27 13 28 14 29 15 30 16 14 17 13 18 12 19 11 20 10 21
REMARK SMILES IDX 9 22 8 23 7 24 6 25 5 26 4 27 3 28 2 29 1 30
REMARK H PARENT
REMARK Flexibility Score: inf
ROOT
ATOM      1  C   UNL     1      -0.637 -21.604  16.501  1.00  0.00     0.000 C 
ENDROOT
BRANCH   1   2
ATOM      2  C   UNL     1      -1.428 -22.587  15.625  1.00  0.00     0.000 C 
BRANCH   2   3
ATOM      3  C   UNL     1      -2.655 -23.125  16.378  1.00  0.00     0.000 C 
BRANCH   3   4
ATOM      4  C   UNL     1      -3.866 -22.177  16.293  1.00  0.00     0.000 C 
BRANCH   4   5
ATOM      5  C   UNL     1      -5.231 -22.884  16.395  1.00  0.00     0.000 C 
BRANCH   5   6
ATOM      6  C   UNL     1      -6.210 -22.143  17.324  1.00  0.00     0.000 C 
BRANCH   6   7
ATOM      7  C   UNL     1      -7.401 -23.019  17.745  1.00  0.00     0.000 C 
BRANCH   7   8
ATOM      8  C   UNL     1      -8.757 -22.328  17.519  1.00  0.00     0.000 C 
BRANCH   8   9
ATOM      9  C   UNL     1      -9.137 -21.390  18.676  1.00  0.00     0.000 C 
BRANCH   9  10
ATOM     10  C   UNL     1     -10.449 -21.802  19.364  1.00  0.00     0.000 C 
BRANCH  10  11
ATOM     11  C   UNL     1     -10.502 -21.347  20.840  1.00  0.00     0.000 C 
BRANCH  11  12
ATOM     12  C   UNL     1     -10.503 -19.816  21.007  1.00  0.00     0.006 C 
BRANCH  12  13
ATOM     13  C   UNL     1      -9.984 -19.338  22.371  1.00  0.00     0.053 C 
BRANCH  13  14
ATOM     14  C   UNL     1      -9.616 -17.885  22.349  1.00  0.00     0.041 C 
ATOM     15  O   UNL     1      -9.074 -17.350  23.352  1.00  0.00    -0.550 OA
ATOM     16  O   UNL     1      -9.862 -17.123  21.213  1.00  0.00    -0.550 OA
ENDBRANCH  13  14
ENDBRANCH  12  13
ENDBRANCH  11  12
ENDBRANCH  10  11
ENDBRANCH   9  10
ENDBRANCH   8   9
ENDBRANCH   7   8
ENDBRANCH   6   7
ENDBRANCH   5   6
ENDBRANCH   4   5
ENDBRANCH   3   4
ENDBRANCH   2   3
ENDBRANCH   1   2
BRANCH   1  17
ATOM     17  C   UNL     1       0.848 -21.985  16.640  1.00  0.00     0.000 C 
BRANCH  17  18
ATOM     18  C   UNL     1       1.547 -22.387  15.324  1.00  0.00     0.000 C 
BRANCH  18  19
ATOM     19  C   UNL     1       2.887 -23.125  15.492  1.00  0.00     0.000 C 
BRANCH  19  20
ATOM     20  C   UNL     1       4.140 -22.241  15.347  1.00  0.00     0.000 C 
BRANCH  20  21
ATOM     21  C   UNL     1       5.332 -22.703  16.211  1.00  0.00     0.000 C 
BRANCH  21  22
ATOM     22  C   UNL     1       5.994 -21.542  16.974  1.00  0.00    -0.000 C 
BRANCH  22  23
ATOM     23  C   UNL     1       7.503 -21.752  17.177  1.00  0.00    -0.000 C 
BRANCH  23  24
ATOM     24  C   UNL     1       7.982 -23.123  16.671  1.00  0.00    -0.000 C 
BRANCH  24  25
ATOM     25  C   UNL     1       8.920 -23.016  15.458  1.00  0.00    -0.000 C 
BRANCH  25  26
ATOM     26  C   UNL     1       8.923 -21.621  14.798  1.00  0.00    -0.000 C 
BRANCH  26  27
ATOM     27  C   UNL     1       7.929 -21.529  13.627  1.00  0.00    -0.000 C 
BRANCH  27  28
ATOM     28  C   UNL     1       8.566 -21.910  12.280  1.00  0.00    -0.000 C 
BRANCH  28  29
ATOM     29  C   UNL     1       8.033 -21.065  11.114  1.00  0.00    -0.003 C 
ATOM     30  C   UNL     1       8.645 -21.511   9.789  1.00  0.00     0.004 C 
ENDBRANCH  28  29
ENDBRANCH  27  28
ENDBRANCH  26  27
ENDBRANCH  25  26
ENDBRANCH  24  25
ENDBRANCH  23  24
ENDBRANCH  22  23
ENDBRANCH  21  22
ENDBRANCH  20  21
ENDBRANCH  19  20
ENDBRANCH  18  19
ENDBRANCH  17  18
ENDBRANCH   1  17
TORSDOF 26
ENDMDL
MODEL 4
REMARK VINA RESULT:    -1.805      1.533      2.579
REMARK INTER + INTRA:          -6.034
REMARK INTER:                  -4.682
REMARK INTRA:                  -1.352
REMARK UNBOUND:                -1.485
REMARK SMILES CCCCCCCCCCCCCCCCCCCCCCCCCCCC(=O)[O-]
REMARK SMILES IDX 15 1 16 2 17 3 18 4 19 5 20 6 21 7 22 8 23 9 24 10 25 11
REMARK SMILES IDX 26 12 27 13 28 14 29 15 30 16 14 17 13 18 12 19 11 20 10 21
REMARK SMILES IDX 9 22 8 23 7 24 6 25 5 26 4 27 3 28 2 29 1 30
REMARK H PARENT
REMARK Flexibility Score: inf
ROOT
ATOM      1  C   UNL     1      -4.442 -21.751  16.227  1.00  0.00     0.000 C 
ENDROOT
BRANCH   1   2
ATOM      2  C   UNL     1      -3.154 -22.036  15.440  1.00  0.00     0.000 C 
BRANCH   2   3
ATOM      3  C   UNL     1      -2.058 -22.584  16.367  1.00  0.00     0.000 C 
BRANCH   3   4
ATOM      4  C   UNL     1      -0.661 -22.031  16.028  1.00  0.00     0.000 C 
BRANCH   4   5
ATOM      5  C   UNL     1       0.305 -23.073  15.433  1.00  0.00     0.000 C 
BRANCH   5   6
ATOM      6  C   UNL     1       1.640 -22.451  14.986  1.00  0.00     0.000 C 
BRANCH   6   7
ATOM      7  C   UNL     1       2.813 -22.857  15.892  1.00  0.00     0.000 C 
BRANCH   7   8
ATOM      8  C   UNL     1       3.442 -21.660  16.626  1.00  0.00     0.000 C 
BRANCH   8   9
ATOM      9  C   UNL     1       4.755 -22.031  17.334  1.00  0.00     0.000 C 
BRANCH   9  10
ATOM     10  C   UNL     1       5.981 -21.355  16.697  1.00  0.00     0.000 C 
BRANCH  10  11
ATOM     11  C   UNL     1       7.062 -22.377  16.283  1.00  0.00     0.000 C 
BRANCH  11  12
ATOM     12  C   UNL     1       7.508 -22.233  14.816  1.00  0.00     0.006 C 
BRANCH  12  13
ATOM     13  C   UNL     1       8.478 -21.068  14.571  1.00  0.00     0.053 C 
BRANCH  13  14
ATOM     14  C   UNL     1       8.426 -20.588  13.152  1.00  0.00     0.041 C 
ATOM     15  O   UNL     1       8.299 -19.362  12.899  1.00  0.00    -0.550 OA
ATOM     16  O   UNL     1       8.530 -21.499  12.107  1.00  0.00    -0.550 OA
ENDBRANCH  13  14
ENDBRANCH  12  13
ENDBRANCH  11  12
ENDBRANCH  10  11
ENDBRANCH   9  10
ENDBRANCH   8   9
ENDBRANCH   7   8
ENDBRANCH   6   7
ENDBRANCH   5   6
ENDBRANCH   4   5
ENDBRANCH   3   4
ENDBRANCH   2   3
ENDBRANCH   1   2
BRANCH   1  17
ATOM     17  C   UNL     1      -5.202 -23.031  16.619  1.00  0.00     0.000 C 
BRANCH  17  18
ATOM     18  C   UNL     1      -6.647 -23.125  16.083  1.00  0.00     0.000 C 
BRANCH  18  19
ATOM     19  C   UNL     1      -7.680 -22.262  16.830  1.00  0.00     0.000 C 
BRANCH  19  20
ATOM     20  C   UNL     1      -8.439 -22.986  17.958  1.00  0.00     0.000 C 
BRANCH  20  21
ATOM     21  C   UNL     1      -9.959 -22.716  17.958  1.00  0.00     0.000 C 
BRANCH  21  22
ATOM     22  C   UNL     1     -10.378 -21.698  19.033  1.00  0.00    -0.000 C 
BRANCH  22  23
ATOM     23  C   UNL     1     -10.672 -22.359  20.389  1.00  0.00    -0.000 C 
BRANCH  23  24
ATOM     24  C   UNL     1      -9.407 -22.539  21.246  1.00  0.00    -0.000 C 
BRANCH  24  25
ATOM     25  C   UNL     1      -9.723 -22.825  22.723  1.00  0.00    -0.000 C 
BRANCH  25  26
ATOM     26  C   UNL     1     -10.290 -21.607  23.482  1.00  0.00    -0.000 C 
BRANCH  26  27
ATOM     27  C   UNL     1      -9.573 -20.300  23.103  1.00  0.00    -0.000 C 
BRANCH  27  28
ATOM     28  C   UNL     1     -10.553 -19.147  22.827  1.00  0.00    -0.000 C 
BRANCH  28  29
ATOM     29  C   UNL     1      -9.943 -18.051  21.940  1.00  0.00    -0.003 C 
ATOM     30  C   UNL     1     -10.329 -18.251  20.478  1.00  0.00     0.004 C 
ENDBRANCH  28  29
ENDBRANCH  27  28
ENDBRANCH  26  27
ENDBRANCH  25  26
ENDBRANCH  24  25
ENDBRANCH  23  24
ENDBRANCH  22  23
ENDBRANCH  21  22
ENDBRANCH  20  21
ENDBRANCH  19  20
ENDBRANCH  18  19
ENDBRANCH  17  18
ENDBRANCH   1  17
TORSDOF 26
ENDMDL
MODEL 5
REMARK VINA RESULT:    -1.692      1.361      2.154
REMARK INTER + INTRA:          -5.748
REMARK INTER:                  -4.568
REMARK INTRA:                  -1.180
REMARK UNBOUND:                -1.485
REMARK SMILES CCCCCCCCCCCCCCCCCCCCCCCCCCCC(=O)[O-]
REMARK SMILES IDX 15 1 16 2 17 3 18 4 19 5 20 6 21 7 22 8 23 9 24 10 25 11
REMARK SMILES IDX 26 12 27 13 28 14 29 15 30 16 14 17 13 18 12 19 11 20 10 21
REMARK SMILES IDX 9 22 8 23 7 24 6 25 5 26 4 27 3 28 2 29 1 30
REMARK H PARENT
REMARK Flexibility Score: inf
ROOT
ATOM      1  C   UNL     1      -0.493 -22.473  16.390  1.00  0.00     0.000 C 
ENDROOT
BRANCH   1   2
ATOM      2  C   UNL     1       0.453 -22.184  15.214  1.00  0.00     0.000 C 
BRANCH   2   3
ATOM      3  C   UNL     1       1.668 -23.124  15.248  1.00  0.00     0.000 C 
BRANCH   3   4
ATOM      4  C   UNL     1       3.006 -22.371  15.131  1.00  0.00     0.000 C 
BRANCH   4   5
ATOM      5  C   UNL     1       4.030 -22.726  16.226  1.00  0.00     0.000 C 
BRANCH   5   6
ATOM      6  C   UNL     1       4.515 -21.489  17.003  1.00  0.00     0.000 C 
BRANCH   6   7
ATOM      7  C   UNL     1       5.984 -21.605  17.440  1.00  0.00     0.000 C 
BRANCH   7   8
ATOM      8  C   UNL     1       6.828 -22.452  16.472  1.00  0.00     0.000 C 
BRANCH   8   9
ATOM      9  C   UNL     1       8.268 -21.933  16.342  1.00  0.00     0.000 C 
BRANCH   9  10
ATOM     10  C   UNL     1       8.981 -22.473  15.090  1.00  0.00     0.000 C 
BRANCH  10  11
ATOM     11  C   UNL     1       8.042 -22.534  13.866  1.00  0.00     0.000 C 
BRANCH  11  12
ATOM     12  C   UNL     1       8.757 -22.955  12.568  1.00  0.00     0.006 C 
BRANCH  12  13
ATOM     13  C   UNL     1       7.937 -22.705  11.294  1.00  0.00     0.053 C 
BRANCH  13  14
ATOM     14  C   UNL     1       8.397 -21.479  10.567  1.00  0.00     0.041 C 
ATOM     15  O   UNL     1       8.531 -21.493   9.315  1.00  0.00    -0.550 OA
ATOM     16  O   UNL     1       8.669 -20.313  11.273  1.00  0.00    -0.550 OA
ENDBRANCH  13  14
ENDBRANCH  12  13
ENDBRANCH  11  12
ENDBRANCH  10  11
ENDBRANCH   9  10
ENDBRANCH   8   9
ENDBRANCH   7   8
ENDBRANCH   6   7
ENDBRANCH   5   6
ENDBRANCH   4   5
ENDBRANCH   3   4
ENDBRANCH   2   3
ENDBRANCH   1   2
BRANCH   1  17
ATOM     17  C   UNL     1      -1.843 -23.061  15.944  1.00  0.00     0.000 C 
BRANCH  17  18
ATOM     18  C   UNL     1      -3.034 -22.081  15.998  1.00  0.00     0.000 C 
BRANCH  18  19
ATOM     19  C   UNL     1      -4.425 -22.741  16.036  1.00  0.00     0.000 C 
BRANCH  19  20
ATOM     20  C   UNL     1      -4.973 -23.022  17.448  1.00  0.00     0.000 C 
BRANCH  20  21
ATOM     21  C   UNL     1      -6.177 -22.136  17.836  1.00  0.00     0.000 C 
BRANCH  21  22
ATOM     22  C   UNL     1      -7.430 -22.961  18.178  1.00  0.00    -0.000 C 
BRANCH  22  23
ATOM     23  C   UNL     1      -8.717 -22.120  18.144  1.00  0.00    -0.000 C 
BRANCH  23  24
ATOM     24  C   UNL     1      -9.976 -22.955  18.434  1.00  0.00    -0.000 C 
BRANCH  24  25
ATOM     25  C   UNL     1     -10.730 -22.482  19.687  1.00  0.00    -0.000 C 
BRANCH  25  26
ATOM     26  C   UNL     1      -9.995 -21.374  20.471  1.00  0.00    -0.000 C 
BRANCH  26  27
ATOM     27  C   UNL     1     -10.023 -21.618  21.989  1.00  0.00    -0.000 C 
BRANCH  27  28
ATOM     28  C   UNL     1      -9.535 -20.401  22.792  1.00  0.00    -0.000 C 
BRANCH  28  29
ATOM     29  C   UNL     1     -10.229 -19.097  22.371  1.00  0.00    -0.003 C 
ATOM     30  C   UNL     1      -9.552 -17.885  23.005  1.00  0.00     0.004 C 
ENDBRANCH  28  29
ENDBRANCH  27  28
ENDBRANCH  26  27
ENDBRANCH  25  26
ENDBRANCH  24  25
ENDBRANCH  23  24
ENDBRANCH  22  23
ENDBRANCH  21  22
ENDBRANCH  20  21
ENDBRANCH  19  20
ENDBRANCH  18  19
ENDBRANCH  17  18
ENDBRANCH   1  17
TORSDOF 26
ENDMDL
MODEL 6
REMARK VINA RESULT:    -1.309      5.769     15.810
REMARK INTER + INTRA:          -4.785
REMARK INTER:                  -3.076
REMARK INTRA:                  -1.709
REMARK UNBOUND:                -1.485
REMARK SMILES CCCCCCCCCCCCCCCCCCCCCCCCCCCC(=O)[O-]
REMARK SMILES IDX 15 1 16 2 17 3 18 4 19 5 20 6 21 7 22 8 23 9 24 10 25 11
REMARK SMILES IDX 26 12 27 13 28 14 29 15 30 16 14 17 13 18 12 19 11 20 10 21
REMARK SMILES IDX 9 22 8 23 7 24 6 25 5 26 4 27 3 28 2 29 1 30
REMARK H PARENT
REMARK Flexibility Score: inf
ROOT
ATOM      1  C   UNL     1      -1.361 -21.734  16.401  1.00  0.00     0.000 C 
ENDROOT
BRANCH   1   2
ATOM      2  C   UNL     1      -2.117 -22.372  15.226  1.00  0.00     0.000 C 
BRANCH   2   3
ATOM      3  C   UNL     1      -3.464 -22.946  15.692  1.00  0.00     0.000 C 
BRANCH   3   4
ATOM      4  C   UNL     1      -3.586 -23.008  17.226  1.00  0.00     0.000 C 
BRANCH   4   5
ATOM      5  C   UNL     1      -5.035 -22.977  17.747  1.00  0.00     0.000 C 
BRANCH   5   6
ATOM      6  C   UNL     1      -5.931 -22.019  16.941  1.00  0.00     0.000 C 
BRANCH   6   7
ATOM      7  C   UNL     1      -7.422 -22.377  17.046  1.00  0.00     0.000 C 
BRANCH   7   8
ATOM      8  C   UNL     1      -7.875 -22.621  18.496  1.00  0.00     0.000 C 
BRANCH   8   9
ATOM      9  C   UNL     1      -9.372 -22.339  18.697  1.00  0.00     0.000 C 
BRANCH   9  10
ATOM     10  C   UNL     1      -9.911 -21.282  17.719  1.00  0.00     0.000 C 
BRANCH  10  11
ATOM     11  C   UNL     1     -10.817 -20.246  18.420  1.00  0.00     0.000 C 
BRANCH  11  12
ATOM     12  C   UNL     1     -10.587 -20.163  19.940  1.00  0.00     0.006 C 
BRANCH  12  13
ATOM     13  C   UNL     1     -10.290 -18.745  20.450  1.00  0.00     0.053 C 
BRANCH  13  14
ATOM     14  C   UNL     1     -10.122 -18.712  21.939  1.00  0.00     0.041 C 
ATOM     15  O   UNL     1      -9.589 -17.717  22.497  1.00  0.00    -0.550 OA
ATOM     16  O   UNL     1     -10.565 -19.778  22.712  1.00  0.00    -0.550 OA
ENDBRANCH  13  14
ENDBRANCH  12  13
ENDBRANCH  11  12
ENDBRANCH  10  11
ENDBRANCH   9  10
ENDBRANCH   8   9
ENDBRANCH   7   8
ENDBRANCH   6   7
ENDBRANCH   5   6
ENDBRANCH   4   5
ENDBRANCH   3   4
ENDBRANCH   2   3
ENDBRANCH   1   2
BRANCH   1  17
ATOM     17  C   UNL     1       0.140 -22.074  16.405  1.00  0.00     0.000 C 
BRANCH  17  18
ATOM     18  C   UNL     1       0.604 -23.002  15.262  1.00  0.00     0.000 C 
BRANCH  18  19
ATOM     19  C   UNL     1       2.090 -22.880  14.880  1.00  0.00     0.000 C 
BRANCH  19  20
ATOM     20  C   UNL     1       2.963 -22.120  15.897  1.00  0.00     0.000 C 
BRANCH  20  21
ATOM     21  C   UNL     1       4.343 -22.767  16.139  1.00  0.00     0.000 C 
BRANCH  21  22
ATOM     22  C   UNL     1       5.066 -23.124  14.829  1.00  0.00    -0.000 C 
BRANCH  22  23
ATOM     23  C   UNL     1       6.536 -22.675  14.824  1.00  0.00    -0.000 C 
BRANCH  23  24
ATOM     24  C   UNL     1       7.184 -22.786  13.433  1.00  0.00    -0.000 C 
BRANCH  24  25
ATOM     25  C   UNL     1       6.154 -22.999  12.311  1.00  0.00    -0.000 C 
BRANCH  25  26
ATOM     26  C   UNL     1       6.605 -22.443  10.944  1.00  0.00    -0.000 C 
BRANCH  26  27
ATOM     27  C   UNL     1       7.722 -21.394  11.082  1.00  0.00    -0.000 C 
BRANCH  27  28
ATOM     28  C   UNL     1       9.044 -21.853  10.445  1.00  0.00    -0.000 C 
BRANCH  28  29
ATOM     29  C   UNL     1       8.832 -22.827   9.277  1.00  0.00    -0.003 C 
ATOM     30  C   UNL     1       9.125 -22.153   7.940  1.00  0.00     0.004 C 
ENDBRANCH  28  29
ENDBRANCH  27  28
ENDBRANCH  26  27
ENDBRANCH  25  26
ENDBRANCH  24  25
ENDBRANCH  23  24
ENDBRANCH  22  23
ENDBRANCH  21  22
ENDBRANCH  20  21
ENDBRANCH  19  20
ENDBRANCH  18  19
ENDBRANCH  17  18
ENDBRANCH   1  17
TORSDOF 26
ENDMDL
MODEL 7
REMARK VINA RESULT:    -1.299      5.837     15.122
REMARK INTER + INTRA:          -4.758
REMARK INTER:                  -3.927
REMARK INTRA:                  -0.830
REMARK UNBOUND:                -1.485
REMARK SMILES CCCCCCCCCCCCCCCCCCCCCCCCCCCC(=O)[O-]
REMARK SMILES IDX 15 1 16 2 17 3 18 4 19 5 20 6 21 7 22 8 23 9 24 10 25 11
REMARK SMILES IDX 26 12 27 13 28 14 29 15 30 16 14 17 13 18 12 19 11 20 10 21
REMARK SMILES IDX 9 22 8 23 7 24 6 25 5 26 4 27 3 28 2 29 1 30
REMARK H PARENT
REMARK Flexibility Score: inf
ROOT
ATOM      1  C   UNL     1      -4.596 -22.378  16.298  1.00  0.00     0.000 C 
ENDROOT
BRANCH   1   2
ATOM      2  C   UNL     1      -5.185 -22.713  17.677  1.00  0.00     0.000 C 
BRANCH   2   3
ATOM      3  C   UNL     1      -6.720 -22.754  17.620  1.00  0.00     0.000 C 
BRANCH   3   4
ATOM      4  C   UNL     1      -7.308 -21.706  16.656  1.00  0.00     0.000 C 
BRANCH   4   5
ATOM      5  C   UNL     1      -8.847 -21.679  16.613  1.00  0.00     0.000 C 
BRANCH   5   6
ATOM      6  C   UNL     1      -9.477 -22.908  17.292  1.00  0.00     0.000 C 
BRANCH   6   7
ATOM      7  C   UNL     1     -10.764 -22.563  18.059  1.00  0.00     0.000 C 
BRANCH   7   8
ATOM      8  C   UNL     1     -10.722 -21.162  18.694  1.00  0.00     0.000 C 
BRANCH   8   9
ATOM      9  C   UNL     1     -10.946 -21.201  20.214  1.00  0.00     0.000 C 
BRANCH   9  10
ATOM     10  C   UNL     1     -10.275 -22.414  20.879  1.00  0.00     0.000 C 
BRANCH  10  11
ATOM     11  C   UNL     1      -8.901 -22.059  21.489  1.00  0.00     0.000 C 
BRANCH  11  12
ATOM     12  C   UNL     1      -8.996 -21.105  22.694  1.00  0.00     0.006 C 
BRANCH  12  13
ATOM     13  C   UNL     1     -10.409 -20.556  22.945  1.00  0.00     0.053 C 
BRANCH  13  14
ATOM     14  C   UNL     1     -10.467 -19.068  22.770  1.00  0.00     0.041 C 
ATOM     15  O   UNL     1     -11.118 -18.357  23.581  1.00  0.00    -0.550 OA
ATOM     16  O   UNL     1      -9.793 -18.465  21.716  1.00  0.00    -0.550 OA
ENDBRANCH  13  14
ENDBRANCH  12  13
ENDBRANCH  11  12
ENDBRANCH  10  11
ENDBRANCH   9  10
ENDBRANCH   8   9
ENDBRANCH   7   8
ENDBRANCH   6   7
ENDBRANCH   5   6
ENDBRANCH   4   5
ENDBRANCH   3   4
ENDBRANCH   2   3
ENDBRANCH   1   2
BRANCH   1  17
ATOM     17  C   UNL     1      -3.262 -23.096  16.025  1.00  0.00     0.000 C 
BRANCH  17  18
ATOM     18  C   UNL     1      -2.000 -22.231  16.225  1.00  0.00     0.000 C 
BRANCH  18  19
ATOM     19  C   UNL     1      -0.664 -22.952  15.971  1.00  0.00     0.000 C 
BRANCH  19  20
ATOM     20  C   UNL     1       0.178 -22.374  14.818  1.00  0.00     0.000 C 
BRANCH  20  21
ATOM     21  C   UNL     1       1.506 -23.125  14.579  1.00  0.00     0.000 C 
BRANCH  21  22
ATOM     22  C   UNL     1       2.701 -22.447  15.272  1.00  0.00    -0.000 C 
BRANCH  22  23
ATOM     23  C   UNL     1       4.046 -23.083  14.886  1.00  0.00    -0.000 C 
BRANCH  23  24
ATOM     24  C   UNL     1       4.466 -22.749  13.444  1.00  0.00    -0.000 C 
BRANCH  24  25
ATOM     25  C   UNL     1       5.825 -22.034  13.370  1.00  0.00    -0.000 C 
BRANCH  25  26
ATOM     26  C   UNL     1       6.991 -22.858  13.955  1.00  0.00    -0.000 C 
BRANCH  26  27
ATOM     27  C   UNL     1       7.593 -22.206  15.211  1.00  0.00    -0.000 C 
BRANCH  27  28
ATOM     28  C   UNL     1       7.026 -22.796  16.513  1.00  0.00    -0.000 C 
BRANCH  28  29
ATOM     29  C   UNL     1       6.686 -21.717  17.552  1.00  0.00    -0.003 C 
ATOM     30  C   UNL     1       5.224 -21.294  17.446  1.00  0.00     0.004 C 
ENDBRANCH  28  29
ENDBRANCH  27  28
ENDBRANCH  26  27
ENDBRANCH  25  26
ENDBRANCH  24  25
ENDBRANCH  23  24
ENDBRANCH  22  23
ENDBRANCH  21  22
ENDBRANCH  20  21
ENDBRANCH  19  20
ENDBRANCH  18  19
ENDBRANCH  17  18
ENDBRANCH   1  17
TORSDOF 26
ENDMDL
MODEL 8
REMARK VINA RESULT:    -1.217      5.852     15.413
REMARK INTER + INTRA:          -4.552
REMARK INTER:                  -3.311
REMARK INTRA:                  -1.241
REMARK UNBOUND:                -1.485
REMARK SMILES CCCCCCCCCCCCCCCCCCCCCCCCCCCC(=O)[O-]
REMARK SMILES IDX 15 1 16 2 17 3 18 4 19 5 20 6 21 7 22 8 23 9 24 10 25 11
REMARK SMILES IDX 26 12 27 13 28 14 29 15 30 16 14 17 13 18 12 19 11 20 10 21
REMARK SMILES IDX 9 22 8 23 7 24 6 25 5 26 4 27 3 28 2 29 1 30
REMARK H PARENT
REMARK Flexibility Score: inf
ROOT
ATOM      1  C   UNL     1      -5.606 -21.451  16.293  1.00  0.00     0.000 C 
ENDROOT
BRANCH   1   2
ATOM      2  C   UNL     1      -6.718 -22.472  16.008  1.00  0.00     0.000 C 
BRANCH   2   3
ATOM      3  C   UNL     1      -8.020 -21.763  15.605  1.00  0.00     0.000 C 
BRANCH   3   4
ATOM      4  C   UNL     1      -9.170 -22.022  16.596  1.00  0.00     0.000 C 
BRANCH   4   5
ATOM      5  C   UNL     1     -10.393 -21.106  16.399  1.00  0.00     0.000 C 
BRANCH   5   6
ATOM      6  C   UNL     1     -11.102 -20.776  17.725  1.00  0.00     0.000 C 
BRANCH   6   7
ATOM      7  C   UNL     1     -10.223 -21.068  18.951  1.00  0.00     0.000 C 
BRANCH   7   8
ATOM      8  C   UNL     1     -10.980 -21.816  20.063  1.00  0.00     0.000 C 
BRANCH   8   9
ATOM      9  C   UNL     1     -10.070 -22.773  20.850  1.00  0.00     0.000 C 
BRANCH   9  10
ATOM     10  C   UNL     1     -10.369 -22.765  22.359  1.00  0.00     0.000 C 
BRANCH  10  11
ATOM     11  C   UNL     1      -9.684 -21.585  23.083  1.00  0.00     0.000 C 
BRANCH  11  12
ATOM     12  C   UNL     1     -10.575 -20.333  23.190  1.00  0.00     0.006 C 
BRANCH  12  13
ATOM     13  C   UNL     1     -10.119 -19.166  22.301  1.00  0.00     0.053 C 
BRANCH  13  14
ATOM     14  C   UNL     1      -9.860 -17.925  23.100  1.00  0.00     0.041 C 
ATOM     15  O   UNL     1      -8.861 -17.203  22.848  1.00  0.00    -0.550 OA
ATOM     16  O   UNL     1     -10.732 -17.560  24.118  1.00  0.00    -0.550 OA
ENDBRANCH  13  14
ENDBRANCH  12  13
ENDBRANCH  11  12
ENDBRANCH  10  11
ENDBRANCH   9  10
ENDBRANCH   8   9
ENDBRANCH   7   8
ENDBRANCH   6   7
ENDBRANCH   5   6
ENDBRANCH   4   5
ENDBRANCH   3   4
ENDBRANCH   2   3
ENDBRANCH   1   2
BRANCH   1  17
ATOM     17  C   UNL     1      -4.261 -21.833  15.649  1.00  0.00     0.000 C 
BRANCH  17  18
ATOM     18  C   UNL     1      -3.616 -23.125  16.196  1.00  0.00     0.000 C 
BRANCH  18  19
ATOM     19  C   UNL     1      -2.140 -22.995  16.612  1.00  0.00     0.000 C 
BRANCH  19  20
ATOM     20  C   UNL     1      -1.268 -22.151  15.663  1.00  0.00     0.000 C 
BRANCH  20  21
ATOM     21  C   UNL     1       0.197 -22.006  16.126  1.00  0.00     0.000 C 
BRANCH  21  22
ATOM     22  C   UNL     1       1.203 -22.475  15.061  1.00  0.00    -0.000 C 
BRANCH  22  23
ATOM     23  C   UNL     1       2.453 -23.125  15.674  1.00  0.00    -0.000 C 
BRANCH  23  24
ATOM     24  C   UNL     1       3.620 -22.134  15.826  1.00  0.00    -0.000 C 
BRANCH  24  25
ATOM     25  C   UNL     1       4.995 -22.804  15.668  1.00  0.00    -0.000 C 
BRANCH  25  26
ATOM     26  C   UNL     1       6.134 -22.058  16.395  1.00  0.00    -0.000 C 
BRANCH  26  27
ATOM     27  C   UNL     1       7.470 -22.156  15.639  1.00  0.00    -0.000 C 
BRANCH  27  28
ATOM     28  C   UNL     1       7.337 -21.779  14.154  1.00  0.00    -0.000 C 
BRANCH  28  29
ATOM     29  C   UNL     1       8.431 -20.806  13.690  1.00  0.00    -0.003 C 
ATOM     30  C   UNL     1       8.046 -20.133  12.376  1.00  0.00     0.004 C 
ENDBRANCH  28  29
ENDBRANCH  27  28
ENDBRANCH  26  27
ENDBRANCH  25  26
ENDBRANCH  24  25
ENDBRANCH  23  24
ENDBRANCH  22  23
ENDBRANCH  21  22
ENDBRANCH  20  21
ENDBRANCH  19  20
ENDBRANCH  18  19
ENDBRANCH  17  18
ENDBRANCH   1  17
TORSDOF 26
ENDMDL
