MODEL 1
REMARK VINA RESULT:    -4.908      0.000      0.000
REMARK INTER + INTRA:          -5.051
REMARK INTER:                  -5.051
REMARK INTRA:                   0.000
REMARK UNBOUND:                 0.000
REMARK SMILES O=c1ccc2ccc(O)cc2o1
REMARK SMILES IDX 6 1 7 2 8 3 10 4 11 5 5 6 4 7 3 8 2 9 1 10 12 11 9 12
REMARK H PARENT 9 13
REMARK Flexibility Score: inf
ROOT
ATOM      1  C   UNL     1      -8.453 -16.809 -22.980  1.00  0.00     0.016 A 
ATOM      2  C   UNL     1      -9.030 -15.593 -22.602  1.00  0.00     0.047 A 
ATOM      3  C   UNL     1      -8.248 -14.595 -22.001  1.00  0.00     0.119 A 
ATOM      4  C   UNL     1      -6.884 -14.817 -21.778  1.00  0.00     0.094 A 
ATOM      5  C   UNL     1      -6.298 -16.030 -22.153  1.00  0.00     0.142 A 
ATOM      6  C   UNL     1      -7.087 -17.034 -22.759  1.00  0.00     0.018 A 
ATOM      7  C   UNL     1      -6.473 -18.236 -23.123  1.00  0.00     0.019 A 
ATOM      8  C   UNL     1      -5.111 -18.409 -22.879  1.00  0.00     0.094 A 
ATOM      9  C   UNL     1      -4.391 -17.372 -22.276  1.00  0.00     0.336 A 
ATOM     10  O   UNL     1      -3.161 -17.509 -22.050  1.00  0.00    -0.246 OA
ATOM     11  O   UNL     1      -5.001 -16.238 -21.940  1.00  0.00    -0.423 OA
ENDROOT
BRANCH   3  12
ATOM     12  O   UNL     1      -8.817 -13.381 -21.622  1.00  0.00    -0.508 OA
ATOM     13  H   UNL     1      -9.093 -13.202 -20.664  1.00  0.00     0.293 HD
ENDBRANCH   3  12
TORSDOF 1
ENDMDL
MODEL 2
REMARK VINA RESULT:    -4.351     20.733     21.980
REMARK INTER + INTRA:          -4.478
REMARK INTER:                  -4.478
REMARK INTRA:                   0.000
REMARK UNBOUND:                 0.000
REMARK SMILES O=c1ccc2ccc(O)cc2o1
REMARK SMILES IDX 6 1 7 2 8 3 10 4 11 5 5 6 4 7 3 8 2 9 1 10 12 11 9 12
REMARK H PARENT 9 13
REMARK Flexibility Score: inf
ROOT
ATOM      1  C   UNL     1      -4.098  -1.073  -5.818  1.00  0.00     0.016 A 
ATOM      2  C   UNL     1      -4.794  -0.805  -7.001  1.00  0.00     0.047 A 
ATOM      3  C   UNL     1      -5.806  -1.673  -7.438  1.00  0.00     0.119 A 
ATOM      4  C   UNL     1      -6.121  -2.812  -6.688  1.00  0.00     0.094 A 
ATOM      5  C   UNL     1      -5.430  -3.089  -5.504  1.00  0.00     0.142 A 
ATOM      6  C   UNL     1      -4.411  -2.213  -5.065  1.00  0.00     0.018 A 
ATOM      7  C   UNL     1      -3.738  -2.515  -3.878  1.00  0.00     0.019 A 
ATOM      8  C   UNL     1      -4.088  -3.663  -3.166  1.00  0.00     0.094 A 
ATOM      9  C   UNL     1      -5.107  -4.484  -3.660  1.00  0.00     0.336 A 
ATOM     10  O   UNL     1      -5.437  -5.523  -3.032  1.00  0.00    -0.246 OA
ATOM     11  O   UNL     1      -5.731  -4.173  -4.794  1.00  0.00    -0.423 OA
ENDROOT
BRANCH   3  12
ATOM     12  O   UNL     1      -6.504  -1.412  -8.616  1.00  0.00    -0.508 OA
ATOM     13  H   UNL     1      -6.737  -0.466  -8.894  1.00  0.00     0.293 HD
ENDBRANCH   3  12
TORSDOF 1
ENDMDL
MODEL 3
REMARK VINA RESULT:    -4.243     20.913     22.165
REMARK INTER + INTRA:          -4.367
REMARK INTER:                  -4.367
REMARK INTRA:                   0.000
REMARK UNBOUND:                 0.000
REMARK SMILES O=c1ccc2ccc(O)cc2o1
REMARK SMILES IDX 6 1 7 2 8 3 10 4 11 5 5 6 4 7 3 8 2 9 1 10 12 11 9 12
REMARK H PARENT 9 13
REMARK Flexibility Score: inf
ROOT
ATOM      1  C   UNL     1      -3.816  -2.505  -3.841  1.00  0.00     0.016 A 
ATOM      2  C   UNL     1      -4.089  -3.674  -3.125  1.00  0.00     0.047 A 
ATOM      3  C   UNL     1      -5.062  -4.575  -3.584  1.00  0.00     0.119 A 
ATOM      4  C   UNL     1      -5.765  -4.301  -4.763  1.00  0.00     0.094 A 
ATOM      5  C   UNL     1      -5.499  -3.133  -5.486  1.00  0.00     0.142 A 
ATOM      6  C   UNL     1      -4.518  -2.228  -5.023  1.00  0.00     0.018 A 
ATOM      7  C   UNL     1      -4.275  -1.070  -5.766  1.00  0.00     0.019 A 
ATOM      8  C   UNL     1      -5.001  -0.842  -6.935  1.00  0.00     0.094 A 
ATOM      9  C   UNL     1      -5.957  -1.782  -7.334  1.00  0.00     0.336 A 
ATOM     10  O   UNL     1      -6.622  -1.594  -8.385  1.00  0.00    -0.246 OA
ATOM     11  O   UNL     1      -6.169  -2.877  -6.607  1.00  0.00    -0.423 OA
ENDROOT
BRANCH   3  12
ATOM     12  O   UNL     1      -5.339  -5.742  -2.875  1.00  0.00    -0.508 OA
ATOM     13  H   UNL     1      -6.166  -5.827  -2.297  1.00  0.00     0.293 HD
ENDBRANCH   3  12
TORSDOF 1
ENDMDL
MODEL 4
REMARK VINA RESULT:    -4.112     12.992     13.439
REMARK INTER + INTRA:          -4.232
REMARK INTER:                  -4.232
REMARK INTRA:                   0.000
REMARK UNBOUND:                 0.000
REMARK SMILES O=c1ccc2ccc(O)cc2o1
REMARK SMILES IDX 6 1 7 2 8 3 10 4 11 5 5 6 4 7 3 8 2 9 1 10 12 11 9 12
REMARK H PARENT 9 13
REMARK Flexibility Score: inf
ROOT
ATOM      1  C   UNL     1      -5.514 -19.933 -10.678  1.00  0.00     0.016 A 
ATOM      2  C   UNL     1      -6.581 -20.031 -11.575  1.00  0.00     0.047 A 
ATOM      3  C   UNL     1      -7.726 -19.238 -11.403  1.00  0.00     0.119 A 
ATOM      4  C   UNL     1      -7.801 -18.345 -10.327  1.00  0.00     0.094 A 
ATOM      5  C   UNL     1      -6.739 -18.241  -9.423  1.00  0.00     0.142 A 
ATOM      6  C   UNL     1      -5.586 -19.040  -9.599  1.00  0.00     0.018 A 
ATOM      7  C   UNL     1      -4.540 -18.913  -8.680  1.00  0.00     0.019 A 
ATOM      8  C   UNL     1      -4.664 -18.010  -7.624  1.00  0.00     0.094 A 
ATOM      9  C   UNL     1      -5.833 -17.251  -7.512  1.00  0.00     0.336 A 
ATOM     10  O   UNL     1      -5.962 -16.431  -6.567  1.00  0.00    -0.246 OA
ATOM     11  O   UNL     1      -6.814 -17.391  -8.402  1.00  0.00    -0.423 OA
ENDROOT
BRANCH   3  12
ATOM     12  O   UNL     1      -8.793 -19.330 -12.294  1.00  0.00    -0.508 OA
ATOM     13  H   UNL     1      -8.659 -19.637 -13.250  1.00  0.00     0.293 HD
ENDBRANCH   3  12
TORSDOF 1
ENDMDL
MODEL 5
REMARK VINA RESULT:    -4.078      1.401      2.241
REMARK INTER + INTRA:          -4.197
REMARK INTER:                  -4.197
REMARK INTRA:                   0.000
REMARK UNBOUND:                 0.000
REMARK SMILES O=c1ccc2ccc(O)cc2o1
REMARK SMILES IDX 6 1 7 2 8 3 10 4 11 5 5 6 4 7 3 8 2 9 1 10 12 11 9 12
REMARK H PARENT 9 13
REMARK Flexibility Score: inf
ROOT
ATOM      1  C   UNL     1      -6.606 -18.273 -23.125  1.00  0.00     0.016 A 
ATOM      2  C   UNL     1      -7.234 -17.032 -22.978  1.00  0.00     0.047 A 
ATOM      3  C   UNL     1      -6.540 -15.950 -22.416  1.00  0.00     0.119 A 
ATOM      4  C   UNL     1      -5.214 -16.112 -21.998  1.00  0.00     0.094 A 
ATOM      5  C   UNL     1      -4.577 -17.350 -22.141  1.00  0.00     0.142 A 
ATOM      6  C   UNL     1      -5.277 -18.438 -22.708  1.00  0.00     0.018 A 
ATOM      7  C   UNL     1      -4.615 -19.663 -22.838  1.00  0.00     0.019 A 
ATOM      8  C   UNL     1      -3.293 -19.774 -22.407  1.00  0.00     0.094 A 
ATOM      9  C   UNL     1      -2.662 -18.654 -21.855  1.00  0.00     0.336 A 
ATOM     10  O   UNL     1      -1.470 -18.735 -21.461  1.00  0.00    -0.246 OA
ATOM     11  O   UNL     1      -3.316 -17.500 -21.743  1.00  0.00    -0.423 OA
ENDROOT
BRANCH   3  12
ATOM     12  O   UNL     1      -7.160 -14.711 -22.267  1.00  0.00    -0.508 OA
ATOM     13  H   UNL     1      -7.203 -14.046 -23.030  1.00  0.00     0.293 HD
ENDBRANCH   3  12
TORSDOF 1
ENDMDL
MODEL 6
REMARK VINA RESULT:    -3.939     13.696     14.276
REMARK INTER + INTRA:          -4.054
REMARK INTER:                  -4.054
REMARK INTRA:                   0.000
REMARK UNBOUND:                 0.000
REMARK SMILES O=c1ccc2ccc(O)cc2o1
REMARK SMILES IDX 6 1 7 2 8 3 10 4 11 5 5 6 4 7 3 8 2 9 1 10 12 11 9 12
REMARK H PARENT 9 13
REMARK Flexibility Score: inf
ROOT
ATOM      1  C   UNL     1      -6.545 -17.278  -7.279  1.00  0.00     0.016 A 
ATOM      2  C   UNL     1      -5.419 -17.247  -6.452  1.00  0.00     0.047 A 
ATOM      3  C   UNL     1      -4.253 -17.938  -6.817  1.00  0.00     0.119 A 
ATOM      4  C   UNL     1      -4.217 -18.662  -8.015  1.00  0.00     0.094 A 
ATOM      5  C   UNL     1      -5.340 -18.699  -8.849  1.00  0.00     0.142 A 
ATOM      6  C   UNL     1      -6.512 -18.002  -8.479  1.00  0.00     0.018 A 
ATOM      7  C   UNL     1      -7.618 -18.057  -9.333  1.00  0.00     0.019 A 
ATOM      8  C   UNL     1      -7.533 -18.792 -10.515  1.00  0.00     0.094 A 
ATOM      9  C   UNL     1      -6.340 -19.457 -10.817  1.00  0.00     0.336 A 
ATOM     10  O   UNL     1      -6.244 -20.125 -11.879  1.00  0.00    -0.246 OA
ATOM     11  O   UNL     1      -5.302 -19.388  -9.986  1.00  0.00    -0.423 OA
ENDROOT
BRANCH   3  12
ATOM     12  O   UNL     1      -3.127 -17.911  -5.997  1.00  0.00    -0.508 OA
ATOM     13  H   UNL     1      -2.897 -17.097  -5.440  1.00  0.00     0.293 HD
ENDBRANCH   3  12
TORSDOF 1
ENDMDL
MODEL 7
REMARK VINA RESULT:    -3.887     14.275     14.994
REMARK INTER + INTRA:          -4.001
REMARK INTER:                  -4.001
REMARK INTRA:                   0.000
REMARK UNBOUND:                 0.000
REMARK SMILES O=c1ccc2ccc(O)cc2o1
REMARK SMILES IDX 6 1 7 2 8 3 10 4 11 5 5 6 4 7 3 8 2 9 1 10 12 11 9 12
REMARK H PARENT 9 13
REMARK Flexibility Score: inf
ROOT
ATOM      1  C   UNL     1      -3.817 -18.704  -8.799  1.00  0.00     0.016 A 
ATOM      2  C   UNL     1      -4.461 -19.369  -9.847  1.00  0.00     0.047 A 
ATOM      3  C   UNL     1      -5.852 -19.261 -10.004  1.00  0.00     0.119 A 
ATOM      4  C   UNL     1      -6.597 -18.486  -9.109  1.00  0.00     0.094 A 
ATOM      5  C   UNL     1      -5.961 -17.817  -8.058  1.00  0.00     0.142 A 
ATOM      6  C   UNL     1      -4.561 -17.926  -7.901  1.00  0.00     0.018 A 
ATOM      7  C   UNL     1      -3.954 -17.246  -6.841  1.00  0.00     0.019 A 
ATOM      8  C   UNL     1      -4.741 -16.486  -5.976  1.00  0.00     0.094 A 
ATOM      9  C   UNL     1      -6.121 -16.424  -6.191  1.00  0.00     0.336 A 
ATOM     10  O   UNL     1      -6.847 -15.743  -5.422  1.00  0.00    -0.246 OA
ATOM     11  O   UNL     1      -6.674 -17.081  -7.209  1.00  0.00    -0.423 OA
ENDROOT
BRANCH   3  12
ATOM     12  O   UNL     1      -6.500 -19.921 -11.046  1.00  0.00    -0.508 OA
ATOM     13  H   UNL     1      -6.015 -20.592 -11.630  1.00  0.00     0.293 HD
ENDBRANCH   3  12
TORSDOF 1
ENDMDL
MODEL 8
REMARK VINA RESULT:    -3.814     14.447     14.916
REMARK INTER + INTRA:          -3.926
REMARK INTER:                  -3.926
REMARK INTRA:                   0.000
REMARK UNBOUND:                 0.000
REMARK SMILES O=c1ccc2ccc(O)cc2o1
REMARK SMILES IDX 6 1 7 2 8 3 10 4 11 5 5 6 4 7 3 8 2 9 1 10 12 11 9 12
REMARK H PARENT 9 13
REMARK Flexibility Score: inf
ROOT
ATOM      1  C   UNL     1      -3.920 -17.242  -6.813  1.00  0.00     0.016 A 
ATOM      2  C   UNL     1      -4.622 -16.470  -5.882  1.00  0.00     0.047 A 
ATOM      3  C   UNL     1      -6.020 -16.376  -5.952  1.00  0.00     0.119 A 
ATOM      4  C   UNL     1      -6.716 -17.055  -6.958  1.00  0.00     0.094 A 
ATOM      5  C   UNL     1      -6.023 -17.829  -7.895  1.00  0.00     0.142 A 
ATOM      6  C   UNL     1      -4.615 -17.924  -7.822  1.00  0.00     0.018 A 
ATOM      7  C   UNL     1      -3.949 -18.706  -8.771  1.00  0.00     0.019 A 
ATOM      8  C   UNL     1      -4.688 -19.363  -9.755  1.00  0.00     0.094 A 
ATOM      9  C   UNL     1      -6.079 -19.225  -9.766  1.00  0.00     0.336 A 
ATOM     10  O   UNL     1      -6.763 -19.811 -10.644  1.00  0.00    -0.246 OA
ATOM     11  O   UNL     1      -6.688 -18.474  -8.850  1.00  0.00    -0.423 OA
ENDROOT
BRANCH   3  12
ATOM     12  O   UNL     1      -6.725 -15.609  -5.027  1.00  0.00    -0.508 OA
ATOM     13  H   UNL     1      -6.269 -14.890  -4.478  1.00  0.00     0.293 HD
ENDBRANCH   3  12
TORSDOF 1
ENDMDL
MODEL 9
REMARK VINA RESULT:    -3.785     14.438     15.227
REMARK INTER + INTRA:          -3.895
REMARK INTER:                  -3.895
REMARK INTRA:                   0.000
REMARK UNBOUND:                 0.000
REMARK SMILES O=c1ccc2ccc(O)cc2o1
REMARK SMILES IDX 6 1 7 2 8 3 10 4 11 5 5 6 4 7 3 8 2 9 1 10 12 11 9 12
REMARK H PARENT 9 13
REMARK Flexibility Score: inf
ROOT
ATOM      1  C   UNL     1      -6.300 -18.914  -9.342  1.00  0.00     0.016 A 
ATOM      2  C   UNL     1      -5.058 -19.382  -9.780  1.00  0.00     0.047 A 
ATOM      3  C   UNL     1      -3.885 -19.018  -9.102  1.00  0.00     0.119 A 
ATOM      4  C   UNL     1      -3.957 -18.181  -7.982  1.00  0.00     0.094 A 
ATOM      5  C   UNL     1      -5.196 -17.707  -7.536  1.00  0.00     0.142 A 
ATOM      6  C   UNL     1      -6.376 -18.076  -8.220  1.00  0.00     0.018 A 
ATOM      7  C   UNL     1      -7.599 -17.587  -7.751  1.00  0.00     0.019 A 
ATOM      8  C   UNL     1      -7.619 -16.756  -6.631  1.00  0.00     0.094 A 
ATOM      9  C   UNL     1      -6.412 -16.433  -6.004  1.00  0.00     0.336 A 
ATOM     10  O   UNL     1      -6.410 -15.685  -4.992  1.00  0.00    -0.246 OA
ATOM     11  O   UNL     1      -5.261 -16.912  -6.471  1.00  0.00    -0.423 OA
ENDROOT
BRANCH   3  12
ATOM     12  O   UNL     1      -2.644 -19.481  -9.533  1.00  0.00    -0.508 OA
ATOM     13  H   UNL     1      -1.800 -18.938  -9.397  1.00  0.00     0.293 HD
ENDBRANCH   3  12
TORSDOF 1
ENDMDL
