MODEL 1
REMARK VINA RESULT:    -3.596      0.000      0.000
REMARK INTER + INTRA:          -8.214
REMARK INTER:                  -6.539
REMARK INTRA:                  -1.675
REMARK UNBOUND:                -1.675
REMARK SMILES CCCCCCCCCCCCCCCC(=O)[O-]
REMARK SMILES IDX 9 1 10 2 11 3 12 4 13 5 14 6 15 7 16 8 17 9 18 10 8 11 7 12
REMARK SMILES IDX 6 13 5 14 4 15 3 16 2 17 1 18
REMARK H PARENT
REMARK Flexibility Score: inf
ROOT
ATOM      1  C   UNL     1      31.565   0.069 -34.333  1.00  0.00     0.000 C 
ENDROOT
BRANCH   1   2
ATOM      2  C   UNL     1      32.991   0.617 -34.552  1.00  0.00     0.000 C 
BRANCH   2   3
ATOM      3  C   UNL     1      33.373   1.748 -33.581  1.00  0.00     0.000 C 
BRANCH   3   4
ATOM      4  C   UNL     1      32.180   2.630 -33.191  1.00  0.00     0.000 C 
BRANCH   4   5
ATOM      5  C   UNL     1      32.604   4.095 -33.038  1.00  0.00     0.000 C 
BRANCH   5   6
ATOM      6  C   UNL     1      34.131   4.236 -33.111  1.00  0.00     0.006 C 
BRANCH   6   7
ATOM      7  C   UNL     1      34.595   5.671 -32.825  1.00  0.00     0.053 C 
BRANCH   7   8
ATOM      8  C   UNL     1      35.214   5.793 -31.467  1.00  0.00     0.041 C 
ATOM      9  O   UNL     1      36.030   6.720 -31.222  1.00  0.00    -0.550 OA
ATOM     10  O   UNL     1      34.912   4.864 -30.479  1.00  0.00    -0.550 OA
ENDBRANCH   7   8
ENDBRANCH   6   7
ENDBRANCH   5   6
ENDBRANCH   4   5
ENDBRANCH   3   4
ENDBRANCH   2   3
ENDBRANCH   1   2
BRANCH   1  11
ATOM     11  C   UNL     1      30.825  -0.171 -35.658  1.00  0.00     0.000 C 
BRANCH  11  12
ATOM     12  C   UNL     1      31.102   0.963 -36.656  1.00  0.00    -0.000 C 
BRANCH  12  13
ATOM     13  C   UNL     1      31.416   0.446 -38.068  1.00  0.00    -0.000 C 
BRANCH  13  14
ATOM     14  C   UNL     1      32.758  -0.299 -38.142  1.00  0.00    -0.000 C 
BRANCH  14  15
ATOM     15  C   UNL     1      32.572  -1.701 -38.745  1.00  0.00    -0.000 C 
BRANCH  15  16
ATOM     16  C   UNL     1      32.851  -2.829 -37.734  1.00  0.00    -0.000 C 
BRANCH  16  17
ATOM     17  C   UNL     1      33.647  -2.400 -36.489  1.00  0.00    -0.003 C 
ATOM     18  C   UNL     1      33.159  -3.074 -35.207  1.00  0.00     0.004 C 
ENDBRANCH  16  17
ENDBRANCH  15  16
ENDBRANCH  14  15
ENDBRANCH  13  14
ENDBRANCH  12  13
ENDBRANCH  11  12
ENDBRANCH   1  11
TORSDOF 14
ENDMDL
MODEL 2
REMARK VINA RESULT:    -3.466      1.321      2.450
REMARK INTER + INTRA:          -7.979
REMARK INTER:                  -6.136
REMARK INTRA:                  -1.843
REMARK UNBOUND:                -1.675
REMARK SMILES CCCCCCCCCCCCCCCC(=O)[O-]
REMARK SMILES IDX 9 1 10 2 11 3 12 4 13 5 14 6 15 7 16 8 17 9 18 10 8 11 7 12
REMARK SMILES IDX 6 13 5 14 4 15 3 16 2 17 1 18
REMARK H PARENT
REMARK Flexibility Score: inf
ROOT
ATOM      1  C   UNL     1      33.580  -0.592 -35.811  1.00  0.00     0.000 C 
ENDROOT
BRANCH   1   2
ATOM      2  C   UNL     1      33.375   0.456 -34.696  1.00  0.00     0.000 C 
BRANCH   2   3
ATOM      3  C   UNL     1      31.976   1.096 -34.701  1.00  0.00     0.000 C 
BRANCH   3   4
ATOM      4  C   UNL     1      31.895   2.362 -33.838  1.00  0.00     0.000 C 
BRANCH   4   5
ATOM      5  C   UNL     1      33.293   2.840 -33.427  1.00  0.00     0.000 C 
BRANCH   5   6
ATOM      6  C   UNL     1      33.276   4.328 -33.048  1.00  0.00     0.006 C 
BRANCH   6   7
ATOM      7  C   UNL     1      34.690   4.902 -32.886  1.00  0.00     0.053 C 
BRANCH   7   8
ATOM      8  C   UNL     1      34.786   5.813 -31.701  1.00  0.00     0.041 C 
ATOM      9  O   UNL     1      34.352   6.993 -31.771  1.00  0.00    -0.550 OA
ATOM     10  O   UNL     1      35.382   5.369 -30.528  1.00  0.00    -0.550 OA
ENDBRANCH   7   8
ENDBRANCH   6   7
ENDBRANCH   5   6
ENDBRANCH   4   5
ENDBRANCH   3   4
ENDBRANCH   2   3
ENDBRANCH   1   2
BRANCH   1  11
ATOM     11  C   UNL     1      33.432   0.015 -37.214  1.00  0.00     0.000 C 
BRANCH  11  12
ATOM     12  C   UNL     1      32.902  -1.026 -38.211  1.00  0.00    -0.000 C 
BRANCH  12  13
ATOM     13  C   UNL     1      31.542  -0.635 -38.810  1.00  0.00    -0.000 C 
BRANCH  13  14
ATOM     14  C   UNL     1      31.134   0.806 -38.465  1.00  0.00    -0.000 C 
BRANCH  14  15
ATOM     15  C   UNL     1      29.798   0.830 -37.707  1.00  0.00    -0.000 C 
BRANCH  15  16
ATOM     16  C   UNL     1      29.267  -0.578 -37.383  1.00  0.00    -0.000 C 
BRANCH  16  17
ATOM     17  C   UNL     1      29.257  -0.938 -35.887  1.00  0.00    -0.003 C 
ATOM     18  C   UNL     1      30.178  -2.110 -35.548  1.00  0.00     0.004 C 
ENDBRANCH  16  17
ENDBRANCH  15  16
ENDBRANCH  14  15
ENDBRANCH  13  14
ENDBRANCH  12  13
ENDBRANCH  11  12
ENDBRANCH   1  11
TORSDOF 14
ENDMDL
MODEL 3
REMARK VINA RESULT:    -3.455      5.808      8.290
REMARK INTER + INTRA:          -7.959
REMARK INTER:                  -5.558
REMARK INTRA:                  -2.401
REMARK UNBOUND:                -1.675
REMARK SMILES CCCCCCCCCCCCCCCC(=O)[O-]
REMARK SMILES IDX 9 1 10 2 11 3 12 4 13 5 14 6 15 7 16 8 17 9 18 10 8 11 7 12
REMARK SMILES IDX 6 13 5 14 4 15 3 16 2 17 1 18
REMARK H PARENT
REMARK Flexibility Score: inf
ROOT
ATOM      1  C   UNL     1      32.452  -2.727 -35.216  1.00  0.00     0.000 C 
ENDROOT
BRANCH   1   2
ATOM      2  C   UNL     1      31.464  -3.857 -35.573  1.00  0.00     0.000 C 
BRANCH   2   3
ATOM      3  C   UNL     1      30.105  -3.350 -36.085  1.00  0.00     0.000 C 
BRANCH   3   4
ATOM      4  C   UNL     1      29.536  -4.209 -37.222  1.00  0.00     0.000 C 
BRANCH   4   5
ATOM      5  C   UNL     1      28.206  -3.641 -37.731  1.00  0.00     0.000 C 
BRANCH   5   6
ATOM      6  C   UNL     1      27.239  -3.380 -36.567  1.00  0.00     0.006 C 
BRANCH   6   7
ATOM      7  C   UNL     1      26.585  -4.671 -36.055  1.00  0.00     0.053 C 
BRANCH   7   8
ATOM      8  C   UNL     1      26.610  -4.749 -34.560  1.00  0.00     0.041 C 
ATOM      9  O   UNL     1      27.566  -4.246 -33.913  1.00  0.00    -0.550 OA
ATOM     10  O   UNL     1      25.590  -5.406 -33.881  1.00  0.00    -0.550 OA
ENDBRANCH   7   8
ENDBRANCH   6   7
ENDBRANCH   5   6
ENDBRANCH   4   5
ENDBRANCH   3   4
ENDBRANCH   2   3
ENDBRANCH   1   2
BRANCH   1  11
ATOM     11  C   UNL     1      33.376  -2.370 -36.390  1.00  0.00     0.000 C 
BRANCH  11  12
ATOM     12  C   UNL     1      33.326  -0.865 -36.691  1.00  0.00    -0.000 C 
BRANCH  12  13
ATOM     13  C   UNL     1      32.991  -0.565 -38.161  1.00  0.00    -0.000 C 
BRANCH  13  14
ATOM     14  C   UNL     1      32.270  -1.731 -38.855  1.00  0.00    -0.000 C 
BRANCH  14  15
ATOM     15  C   UNL     1      30.805  -1.373 -39.145  1.00  0.00    -0.000 C 
BRANCH  15  16
ATOM     16  C   UNL     1      30.390  -0.016 -38.547  1.00  0.00    -0.000 C 
BRANCH  16  17
ATOM     17  C   UNL     1      29.377  -0.100 -37.392  1.00  0.00    -0.003 C 
ATOM     18  C   UNL     1      29.892   0.530 -36.098  1.00  0.00     0.004 C 
ENDBRANCH  16  17
ENDBRANCH  15  16
ENDBRANCH  14  15
ENDBRANCH  13  14
ENDBRANCH  12  13
ENDBRANCH  11  12
ENDBRANCH   1  11
TORSDOF 14
ENDMDL
MODEL 4
REMARK VINA RESULT:    -3.444      5.774      8.158
REMARK INTER + INTRA:          -7.938
REMARK INTER:                  -5.387
REMARK INTRA:                  -2.552
REMARK UNBOUND:                -1.675
REMARK SMILES CCCCCCCCCCCCCCCC(=O)[O-]
REMARK SMILES IDX 9 1 10 2 11 3 12 4 13 5 14 6 15 7 16 8 17 9 18 10 8 11 7 12
REMARK SMILES IDX 6 13 5 14 4 15 3 16 2 17 1 18
REMARK H PARENT
REMARK Flexibility Score: inf
ROOT
ATOM      1  C   UNL     1      32.557  -0.179 -37.915  1.00  0.00     0.000 C 
ENDROOT
BRANCH   1   2
ATOM      2  C   UNL     1      32.852  -1.365 -38.857  1.00  0.00     0.000 C 
BRANCH   2   3
ATOM      3  C   UNL     1      31.678  -2.349 -38.996  1.00  0.00     0.000 C 
BRANCH   3   4
ATOM      4  C   UNL     1      30.354  -1.655 -39.343  1.00  0.00     0.000 C 
BRANCH   4   5
ATOM      5  C   UNL     1      29.232  -2.680 -39.550  1.00  0.00     0.000 C 
BRANCH   5   6
ATOM      6  C   UNL     1      28.234  -2.646 -38.384  1.00  0.00     0.006 C 
BRANCH   6   7
ATOM      7  C   UNL     1      28.219  -3.962 -37.595  1.00  0.00     0.053 C 
BRANCH   7   8
ATOM      8  C   UNL     1      26.985  -4.091 -36.756  1.00  0.00     0.041 C 
ATOM      9  O   UNL     1      26.329  -3.068 -36.429  1.00  0.00    -0.550 OA
ATOM     10  O   UNL     1      26.575  -5.342 -36.309  1.00  0.00    -0.550 OA
ENDBRANCH   7   8
ENDBRANCH   6   7
ENDBRANCH   5   6
ENDBRANCH   4   5
ENDBRANCH   3   4
ENDBRANCH   2   3
ENDBRANCH   1   2
BRANCH   1  11
ATOM     11  C   UNL     1      33.379  -0.248 -36.619  1.00  0.00     0.000 C 
BRANCH  11  12
ATOM     12  C   UNL     1      32.473  -0.499 -35.405  1.00  0.00    -0.000 C 
BRANCH  12  13
ATOM     13  C   UNL     1      30.983  -0.546 -35.777  1.00  0.00    -0.000 C 
BRANCH  13  14
ATOM     14  C   UNL     1      30.316  -1.874 -35.388  1.00  0.00    -0.000 C 
BRANCH  14  15
ATOM     15  C   UNL     1      31.362  -2.891 -34.907  1.00  0.00    -0.000 C 
BRANCH  15  16
ATOM     16  C   UNL     1      31.518  -4.088 -35.863  1.00  0.00    -0.000 C 
BRANCH  16  17
ATOM     17  C   UNL     1      32.898  -4.768 -35.829  1.00  0.00    -0.003 C 
ATOM     18  C   UNL     1      34.017  -3.877 -36.367  1.00  0.00     0.004 C 
ENDBRANCH  16  17
ENDBRANCH  15  16
ENDBRANCH  14  15
ENDBRANCH  13  14
ENDBRANCH  12  13
ENDBRANCH  11  12
ENDBRANCH   1  11
TORSDOF 14
ENDMDL
MODEL 5
REMARK VINA RESULT:    -3.441      6.303      8.423
REMARK INTER + INTRA:          -7.932
REMARK INTER:                  -5.597
REMARK INTRA:                  -2.336
REMARK UNBOUND:                -1.675
REMARK SMILES CCCCCCCCCCCCCCCC(=O)[O-]
REMARK SMILES IDX 9 1 10 2 11 3 12 4 13 5 14 6 15 7 16 8 17 9 18 10 8 11 7 12
REMARK SMILES IDX 6 13 5 14 4 15 3 16 2 17 1 18
REMARK H PARENT
REMARK Flexibility Score: inf
ROOT
ATOM      1  C   UNL     1      29.443   0.418 -38.725  1.00  0.00     0.000 C 
ENDROOT
BRANCH   1   2
ATOM      2  C   UNL     1      29.105  -0.684 -39.752  1.00  0.00     0.000 C 
BRANCH   2   3
ATOM      3  C   UNL     1      28.403  -1.907 -39.137  1.00  0.00     0.000 C 
BRANCH   3   4
ATOM      4  C   UNL     1      28.085  -1.727 -37.647  1.00  0.00     0.000 C 
BRANCH   4   5
ATOM      5  C   UNL     1      27.018  -2.726 -37.186  1.00  0.00     0.000 C 
BRANCH   5   6
ATOM      6  C   UNL     1      27.403  -3.361 -35.841  1.00  0.00     0.006 C 
BRANCH   6   7
ATOM      7  C   UNL     1      26.604  -4.640 -35.553  1.00  0.00     0.053 C 
BRANCH   7   8
ATOM      8  C   UNL     1      26.168  -4.710 -34.122  1.00  0.00     0.041 C 
ATOM      9  O   UNL     1      24.944  -4.709 -33.831  1.00  0.00    -0.550 OA
ATOM     10  O   UNL     1      27.117  -4.748 -33.107  1.00  0.00    -0.550 OA
ENDBRANCH   7   8
ENDBRANCH   6   7
ENDBRANCH   5   6
ENDBRANCH   4   5
ENDBRANCH   3   4
ENDBRANCH   2   3
ENDBRANCH   1   2
BRANCH   1  11
ATOM     11  C   UNL     1      30.919   0.838 -38.789  1.00  0.00     0.000 C 
BRANCH  11  12
ATOM     12  C   UNL     1      31.778  -0.029 -37.857  1.00  0.00    -0.000 C 
BRANCH  12  13
ATOM     13  C   UNL     1      32.715  -0.975 -38.625  1.00  0.00    -0.000 C 
BRANCH  13  14
ATOM     14  C   UNL     1      32.309  -2.451 -38.488  1.00  0.00    -0.000 C 
BRANCH  14  15
ATOM     15  C   UNL     1      31.552  -2.690 -37.172  1.00  0.00    -0.000 C 
BRANCH  15  16
ATOM     16  C   UNL     1      30.992  -4.119 -37.055  1.00  0.00    -0.000 C 
BRANCH  16  17
ATOM     17  C   UNL     1      30.611  -4.777 -38.393  1.00  0.00    -0.003 C 
ATOM     18  C   UNL     1      29.263  -5.495 -38.344  1.00  0.00     0.004 C 
ENDBRANCH  16  17
ENDBRANCH  15  16
ENDBRANCH  14  15
ENDBRANCH  13  14
ENDBRANCH  12  13
ENDBRANCH  11  12
ENDBRANCH   1  11
TORSDOF 14
ENDMDL
MODEL 6
REMARK VINA RESULT:    -3.422      2.179      3.924
REMARK INTER + INTRA:          -7.898
REMARK INTER:                  -6.758
REMARK INTRA:                  -1.139
REMARK UNBOUND:                -1.675
REMARK SMILES CCCCCCCCCCCCCCCC(=O)[O-]
REMARK SMILES IDX 9 1 10 2 11 3 12 4 13 5 14 6 15 7 16 8 17 9 18 10 8 11 7 12
REMARK SMILES IDX 6 13 5 14 4 15 3 16 2 17 1 18
REMARK H PARENT
REMARK Flexibility Score: inf
ROOT
ATOM      1  C   UNL     1      33.141   3.325 -31.828  1.00  0.00     0.000 C 
ENDROOT
BRANCH   1   2
ATOM      2  C   UNL     1      33.463   4.220 -33.044  1.00  0.00     0.000 C 
BRANCH   2   3
ATOM      3  C   UNL     1      34.715   5.092 -32.855  1.00  0.00     0.000 C 
BRANCH   3   4
ATOM      4  C   UNL     1      35.097   5.278 -31.380  1.00  0.00     0.000 C 
BRANCH   4   5
ATOM      5  C   UNL     1      35.520   6.724 -31.098  1.00  0.00     0.000 C 
BRANCH   5   6
ATOM      6  C   UNL     1      34.307   7.666 -31.115  1.00  0.00     0.006 C 
BRANCH   6   7
ATOM      7  C   UNL     1      33.232   7.245 -30.104  1.00  0.00     0.053 C 
BRANCH   7   8
ATOM      8  C   UNL     1      31.855   7.351 -30.684  1.00  0.00     0.041 C 
ATOM      9  O   UNL     1      31.379   6.406 -31.367  1.00  0.00    -0.550 OA
ATOM     10  O   UNL     1      31.107   8.507 -30.494  1.00  0.00    -0.550 OA
ENDBRANCH   7   8
ENDBRANCH   6   7
ENDBRANCH   5   6
ENDBRANCH   4   5
ENDBRANCH   3   4
ENDBRANCH   2   3
ENDBRANCH   1   2
BRANCH   1  11
ATOM     11  C   UNL     1      32.764   1.895 -32.243  1.00  0.00     0.000 C 
BRANCH  11  12
ATOM     12  C   UNL     1      33.121   1.636 -33.714  1.00  0.00    -0.000 C 
BRANCH  12  13
ATOM     13  C   UNL     1      32.088   0.750 -34.427  1.00  0.00    -0.000 C 
BRANCH  13  14
ATOM     14  C   UNL     1      32.689  -0.570 -34.935  1.00  0.00    -0.000 C 
BRANCH  14  15
ATOM     15  C   UNL     1      33.515  -0.341 -36.210  1.00  0.00    -0.000 C 
BRANCH  15  16
ATOM     16  C   UNL     1      33.299  -1.438 -37.268  1.00  0.00    -0.000 C 
BRANCH  16  17
ATOM     17  C   UNL     1      32.786  -0.934 -38.628  1.00  0.00    -0.003 C 
ATOM     18  C   UNL     1      31.764   0.196 -38.499  1.00  0.00     0.004 C 
ENDBRANCH  16  17
ENDBRANCH  15  16
ENDBRANCH  14  15
ENDBRANCH  13  14
ENDBRANCH  12  13
ENDBRANCH  11  12
ENDBRANCH   1  11
TORSDOF 14
ENDMDL
MODEL 7
REMARK VINA RESULT:    -3.393      4.777      6.689
REMARK INTER + INTRA:          -7.845
REMARK INTER:                  -5.213
REMARK INTRA:                  -2.632
REMARK UNBOUND:                -1.675
REMARK SMILES CCCCCCCCCCCCCCCC(=O)[O-]
REMARK SMILES IDX 9 1 10 2 11 3 12 4 13 5 14 6 15 7 16 8 17 9 18 10 8 11 7 12
REMARK SMILES IDX 6 13 5 14 4 15 3 16 2 17 1 18
REMARK H PARENT
REMARK Flexibility Score: inf
ROOT
ATOM      1  C   UNL     1      28.970  -2.846 -39.605  1.00  0.00     0.000 C 
ENDROOT
BRANCH   1   2
ATOM      2  C   UNL     1      28.332  -1.442 -39.641  1.00  0.00     0.000 C 
BRANCH   2   3
ATOM      3  C   UNL     1      28.808  -0.518 -38.506  1.00  0.00     0.000 C 
BRANCH   3   4
ATOM      4  C   UNL     1      29.274   0.854 -39.008  1.00  0.00     0.000 C 
BRANCH   4   5
ATOM      5  C   UNL     1      30.795   1.001 -38.882  1.00  0.00     0.000 C 
BRANCH   5   6
ATOM      6  C   UNL     1      31.331   0.173 -37.704  1.00  0.00     0.006 C 
BRANCH   6   7
ATOM      7  C   UNL     1      32.777  -0.290 -37.931  1.00  0.00     0.053 C 
BRANCH   7   8
ATOM      8  C   UNL     1      33.409  -0.775 -36.663  1.00  0.00     0.041 C 
ATOM      9  O   UNL     1      33.760   0.045 -35.775  1.00  0.00    -0.550 OA
ATOM     10  O   UNL     1      33.638  -2.133 -36.475  1.00  0.00    -0.550 OA
ENDBRANCH   7   8
ENDBRANCH   6   7
ENDBRANCH   5   6
ENDBRANCH   4   5
ENDBRANCH   3   4
ENDBRANCH   2   3
ENDBRANCH   1   2
BRANCH   1  11
ATOM     11  C   UNL     1      30.492  -2.798 -39.808  1.00  0.00     0.000 C 
BRANCH  11  12
ATOM     12  C   UNL     1      31.218  -3.616 -38.729  1.00  0.00    -0.000 C 
BRANCH  12  13
ATOM     13  C   UNL     1      30.254  -4.224 -37.698  1.00  0.00    -0.000 C 
BRANCH  13  14
ATOM     14  C   UNL     1      30.613  -3.844 -36.254  1.00  0.00    -0.000 C 
BRANCH  14  15
ATOM     15  C   UNL     1      29.734  -2.685 -35.758  1.00  0.00    -0.000 C 
BRANCH  15  16
ATOM     16  C   UNL     1      28.359  -3.152 -35.247  1.00  0.00    -0.000 C 
BRANCH  16  17
ATOM     17  C   UNL     1      27.191  -2.908 -36.218  1.00  0.00    -0.003 C 
ATOM     18  C   UNL     1      26.555  -4.201 -36.726  1.00  0.00     0.004 C 
ENDBRANCH  16  17
ENDBRANCH  15  16
ENDBRANCH  14  15
ENDBRANCH  13  14
ENDBRANCH  12  13
ENDBRANCH  11  12
ENDBRANCH   1  11
TORSDOF 14
ENDMDL
MODEL 8
REMARK VINA RESULT:    -3.343      5.738      8.234
REMARK INTER + INTRA:          -7.755
REMARK INTER:                  -5.461
REMARK INTRA:                  -2.293
REMARK UNBOUND:                -1.675
REMARK SMILES CCCCCCCCCCCCCCCC(=O)[O-]
REMARK SMILES IDX 9 1 10 2 11 3 12 4 13 5 14 6 15 7 16 8 17 9 18 10 8 11 7 12
REMARK SMILES IDX 6 13 5 14 4 15 3 16 2 17 1 18
REMARK H PARENT
REMARK Flexibility Score: inf
ROOT
ATOM      1  C   UNL     1      32.050  -1.514 -38.691  1.00  0.00     0.000 C 
ENDROOT
BRANCH   1   2
ATOM      2  C   UNL     1      30.563  -1.772 -39.016  1.00  0.00     0.000 C 
BRANCH   2   3
ATOM      3  C   UNL     1      29.590  -1.043 -38.073  1.00  0.00     0.000 C 
BRANCH   3   4
ATOM      4  C   UNL     1      28.866  -1.994 -37.111  1.00  0.00     0.000 C 
BRANCH   4   5
ATOM      5  C   UNL     1      27.949  -2.958 -37.873  1.00  0.00     0.000 C 
BRANCH   5   6
ATOM      6  C   UNL     1      27.860  -4.314 -37.159  1.00  0.00     0.006 C 
BRANCH   6   7
ATOM      7  C   UNL     1      26.524  -4.498 -36.427  1.00  0.00     0.053 C 
BRANCH   7   8
ATOM      8  C   UNL     1      26.711  -4.573 -34.943  1.00  0.00     0.041 C 
ATOM      9  O   UNL     1      25.835  -5.116 -34.219  1.00  0.00    -0.550 OA
ATOM     10  O   UNL     1      27.839  -4.014 -34.354  1.00  0.00    -0.550 OA
ENDBRANCH   7   8
ENDBRANCH   6   7
ENDBRANCH   5   6
ENDBRANCH   4   5
ENDBRANCH   3   4
ENDBRANCH   2   3
ENDBRANCH   1   2
BRANCH   1  11
ATOM     11  C   UNL     1      32.277  -0.125 -38.076  1.00  0.00     0.000 C 
BRANCH  11  12
ATOM     12  C   UNL     1      33.167  -0.215 -36.827  1.00  0.00    -0.000 C 
BRANCH  12  13
ATOM     13  C   UNL     1      33.404  -1.663 -36.371  1.00  0.00    -0.000 C 
BRANCH  13  14
ATOM     14  C   UNL     1      32.808  -1.955 -34.986  1.00  0.00    -0.000 C 
BRANCH  14  15
ATOM     15  C   UNL     1      31.597  -2.894 -35.098  1.00  0.00    -0.000 C 
BRANCH  15  16
ATOM     16  C   UNL     1      31.987  -4.327 -35.503  1.00  0.00    -0.000 C 
BRANCH  16  17
ATOM     17  C   UNL     1      31.464  -4.775 -36.880  1.00  0.00    -0.003 C 
ATOM     18  C   UNL     1      32.583  -5.048 -37.884  1.00  0.00     0.004 C 
ENDBRANCH  16  17
ENDBRANCH  15  16
ENDBRANCH  14  15
ENDBRANCH  13  14
ENDBRANCH  12  13
ENDBRANCH  11  12
ENDBRANCH   1  11
TORSDOF 14
ENDMDL
MODEL 9
REMARK VINA RESULT:    -3.338      6.036      8.091
REMARK INTER + INTRA:          -7.746
REMARK INTER:                  -5.244
REMARK INTRA:                  -2.502
REMARK UNBOUND:                -1.675
REMARK SMILES CCCCCCCCCCCCCCCC(=O)[O-]
REMARK SMILES IDX 9 1 10 2 11 3 12 4 13 5 14 6 15 7 16 8 17 9 18 10 8 11 7 12
REMARK SMILES IDX 6 13 5 14 4 15 3 16 2 17 1 18
REMARK H PARENT
REMARK Flexibility Score: inf
ROOT
ATOM      1  C   UNL     1      30.486   0.839 -36.883  1.00  0.00     0.000 C 
ENDROOT
BRANCH   1   2
ATOM      2  C   UNL     1      29.946   0.931 -38.326  1.00  0.00     0.000 C 
BRANCH   2   3
ATOM      3  C   UNL     1      28.911  -0.154 -38.667  1.00  0.00     0.000 C 
BRANCH   3   4
ATOM      4  C   UNL     1      29.412  -1.147 -39.724  1.00  0.00     0.000 C 
BRANCH   4   5
ATOM      5  C   UNL     1      29.178  -2.595 -39.276  1.00  0.00     0.000 C 
BRANCH   5   6
ATOM      6  C   UNL     1      28.406  -2.642 -37.949  1.00  0.00     0.006 C 
BRANCH   6   7
ATOM      7  C   UNL     1      27.991  -4.070 -37.570  1.00  0.00     0.053 C 
BRANCH   7   8
ATOM      8  C   UNL     1      26.791  -4.079 -36.675  1.00  0.00     0.041 C 
ATOM      9  O   UNL     1      26.548  -5.079 -35.949  1.00  0.00    -0.550 OA
ATOM     10  O   UNL     1      25.922  -2.995 -36.665  1.00  0.00    -0.550 OA
ENDBRANCH   7   8
ENDBRANCH   6   7
ENDBRANCH   5   6
ENDBRANCH   4   5
ENDBRANCH   3   4
ENDBRANCH   2   3
ENDBRANCH   1   2
BRANCH   1  11
ATOM     11  C   UNL     1      31.867   0.168 -36.821  1.00  0.00     0.000 C 
BRANCH  11  12
ATOM     12  C   UNL     1      32.525   0.134 -38.208  1.00  0.00    -0.000 C 
BRANCH  12  13
ATOM     13  C   UNL     1      33.022  -1.268 -38.594  1.00  0.00    -0.000 C 
BRANCH  13  14
ATOM     14  C   UNL     1      33.070  -2.230 -37.398  1.00  0.00    -0.000 C 
BRANCH  14  15
ATOM     15  C   UNL     1      32.373  -3.557 -37.735  1.00  0.00    -0.000 C 
BRANCH  15  16
ATOM     16  C   UNL     1      31.551  -4.118 -36.560  1.00  0.00    -0.000 C 
BRANCH  16  17
ATOM     17  C   UNL     1      31.162  -3.082 -35.491  1.00  0.00    -0.003 C 
ATOM     18  C   UNL     1      30.098  -3.595 -34.520  1.00  0.00     0.004 C 
ENDBRANCH  16  17
ENDBRANCH  15  16
ENDBRANCH  14  15
ENDBRANCH  13  14
ENDBRANCH  12  13
ENDBRANCH  11  12
ENDBRANCH   1  11
TORSDOF 14
ENDMDL
