MODEL 1
REMARK VINA RESULT:    -3.522      0.000      0.000
REMARK INTER + INTRA:          -7.983
REMARK INTER:                  -5.993
REMARK INTRA:                  -1.990
REMARK UNBOUND:                -1.990
REMARK SMILES CCCCCCCCCCCCCC(=O)[O-]
REMARK SMILES IDX 8 1 9 2 10 3 11 4 12 5 13 6 14 7 15 8 16 9 7 10 6 11 5 12
REMARK SMILES IDX 4 13 3 14 2 15 1 16
REMARK H PARENT
REMARK Flexibility Score: inf
ROOT
ATOM      1  C   UNL     1      27.779  28.327 -18.276  1.00  0.00     0.000 C 
ENDROOT
BRANCH   1   2
ATOM      2  C   UNL     1      27.609  29.851 -18.264  1.00  0.00     0.000 C 
BRANCH   2   3
ATOM      3  C   UNL     1      26.895  30.335 -19.535  1.00  0.00     0.000 C 
BRANCH   3   4
ATOM      4  C   UNL     1      25.585  31.079 -19.231  1.00  0.00     0.000 C 
BRANCH   4   5
ATOM      5  C   UNL     1      25.366  31.304 -17.727  1.00  0.00     0.006 C 
BRANCH   5   6
ATOM      6  C   UNL     1      24.228  32.299 -17.482  1.00  0.00     0.053 C 
BRANCH   6   7
ATOM      7  C   UNL     1      23.054  31.610 -16.860  1.00  0.00     0.041 C 
ATOM      8  O   UNL     1      22.201  31.034 -17.584  1.00  0.00    -0.550 OA
ATOM      9  O   UNL     1      22.876  31.647 -15.482  1.00  0.00    -0.550 OA
ENDBRANCH   6   7
ENDBRANCH   5   6
ENDBRANCH   4   5
ENDBRANCH   3   4
ENDBRANCH   2   3
ENDBRANCH   1   2
BRANCH   1  10
ATOM     10  C   UNL     1      27.314  27.732 -19.613  1.00  0.00     0.000 C 
BRANCH  10  11
ATOM     11  C   UNL     1      26.313  26.578 -19.436  1.00  0.00    -0.000 C 
BRANCH  11  12
ATOM     12  C   UNL     1      24.853  27.029 -19.620  1.00  0.00    -0.000 C 
BRANCH  12  13
ATOM     13  C   UNL     1      24.015  26.848 -18.344  1.00  0.00    -0.000 C 
BRANCH  13  14
ATOM     14  C   UNL     1      24.155  28.032 -17.370  1.00  0.00    -0.000 C 
BRANCH  14  15
ATOM     15  C   UNL     1      25.017  27.687 -16.146  1.00  0.00    -0.003 C 
ATOM     16  C   UNL     1      24.929  28.740 -15.042  1.00  0.00     0.004 C 
ENDBRANCH  14  15
ENDBRANCH  13  14
ENDBRANCH  12  13
ENDBRANCH  11  12
ENDBRANCH  10  11
ENDBRANCH   1  10
TORSDOF 12
ENDMDL
MODEL 2
REMARK VINA RESULT:    -3.405     12.095     14.141
REMARK INTER + INTRA:          -7.784
REMARK INTER:                  -6.811
REMARK INTRA:                  -0.973
REMARK UNBOUND:                -1.990
REMARK SMILES CCCCCCCCCCCCCC(=O)[O-]
REMARK SMILES IDX 8 1 9 2 10 3 11 4 12 5 13 6 14 7 15 8 16 9 7 10 6 11 5 12
REMARK SMILES IDX 4 13 3 14 2 15 1 16
REMARK H PARENT
REMARK Flexibility Score: inf
ROOT
ATOM      1  C   UNL     1      33.794  17.651 -19.110  1.00  0.00     0.000 C 
ENDROOT
BRANCH   1   2
ATOM      2  C   UNL     1      32.439  18.188 -18.631  1.00  0.00     0.000 C 
BRANCH   2   3
ATOM      3  C   UNL     1      31.312  17.192 -18.939  1.00  0.00     0.000 C 
BRANCH   3   4
ATOM      4  C   UNL     1      29.940  17.872 -19.074  1.00  0.00     0.000 C 
BRANCH   4   5
ATOM      5  C   UNL     1      28.950  17.427 -17.987  1.00  0.00     0.006 C 
BRANCH   5   6
ATOM      6  C   UNL     1      28.257  18.635 -17.349  1.00  0.00     0.053 C 
BRANCH   6   7
ATOM      7  C   UNL     1      27.118  19.097 -18.203  1.00  0.00     0.041 C 
ATOM      8  O   UNL     1      27.159  20.227 -18.756  1.00  0.00    -0.550 OA
ATOM      9  O   UNL     1      25.989  18.301 -18.346  1.00  0.00    -0.550 OA
ENDBRANCH   6   7
ENDBRANCH   5   6
ENDBRANCH   4   5
ENDBRANCH   3   4
ENDBRANCH   2   3
ENDBRANCH   1   2
BRANCH   1  10
ATOM     10  C   UNL     1      34.546  16.957 -17.965  1.00  0.00     0.000 C 
BRANCH  10  11
ATOM     11  C   UNL     1      34.340  15.434 -17.954  1.00  0.00    -0.000 C 
BRANCH  11  12
ATOM     12  C   UNL     1      34.687  14.801 -16.595  1.00  0.00    -0.000 C 
BRANCH  12  13
ATOM     13  C   UNL     1      33.551  13.922 -16.047  1.00  0.00    -0.000 C 
BRANCH  13  14
ATOM     14  C   UNL     1      32.164  14.376 -16.536  1.00  0.00    -0.000 C 
BRANCH  14  15
ATOM     15  C   UNL     1      31.024  13.819 -15.668  1.00  0.00    -0.003 C 
ATOM     16  C   UNL     1      29.797  14.730 -15.645  1.00  0.00     0.004 C 
ENDBRANCH  14  15
ENDBRANCH  13  14
ENDBRANCH  12  13
ENDBRANCH  11  12
ENDBRANCH  10  11
ENDBRANCH   1  10
TORSDOF 12
ENDMDL
MODEL 3
REMARK VINA RESULT:    -3.404     12.569     14.881
REMARK INTER + INTRA:          -7.781
REMARK INTER:                  -6.363
REMARK INTRA:                  -1.418
REMARK UNBOUND:                -1.990
REMARK SMILES CCCCCCCCCCCCCC(=O)[O-]
REMARK SMILES IDX 8 1 9 2 10 3 11 4 12 5 13 6 14 7 15 8 16 9 7 10 6 11 5 12
REMARK SMILES IDX 4 13 3 14 2 15 1 16
REMARK H PARENT
REMARK Flexibility Score: inf
ROOT
ATOM      1  C   UNL     1      31.707  13.994 -16.018  1.00  0.00     0.000 C 
ENDROOT
BRANCH   1   2
ATOM      2  C   UNL     1      30.717  14.141 -17.180  1.00  0.00     0.000 C 
BRANCH   2   3
ATOM      3  C   UNL     1      30.167  15.573 -17.256  1.00  0.00     0.000 C 
BRANCH   3   4
ATOM      4  C   UNL     1      30.386  16.220 -18.633  1.00  0.00     0.000 C 
BRANCH   4   5
ATOM      5  C   UNL     1      30.063  17.722 -18.639  1.00  0.00     0.006 C 
BRANCH   5   6
ATOM      6  C   UNL     1      28.599  17.967 -19.016  1.00  0.00     0.053 C 
BRANCH   6   7
ATOM      7  C   UNL     1      27.954  18.898 -18.038  1.00  0.00     0.041 C 
ATOM      8  O   UNL     1      28.086  18.708 -16.801  1.00  0.00    -0.550 OA
ATOM      9  O   UNL     1      27.167  19.948 -18.494  1.00  0.00    -0.550 OA
ENDBRANCH   6   7
ENDBRANCH   5   6
ENDBRANCH   4   5
ENDBRANCH   3   4
ENDBRANCH   2   3
ENDBRANCH   1   2
BRANCH   1  10
ATOM     10  C   UNL     1      32.908  13.126 -16.424  1.00  0.00     0.000 C 
BRANCH  10  11
ATOM     11  C   UNL     1      34.256  13.758 -16.044  1.00  0.00    -0.000 C 
BRANCH  11  12
ATOM     12  C   UNL     1      34.537  15.059 -16.815  1.00  0.00    -0.000 C 
BRANCH  12  13
ATOM     13  C   UNL     1      34.306  14.909 -18.328  1.00  0.00    -0.000 C 
BRANCH  13  14
ATOM     14  C   UNL     1      34.063  16.259 -19.026  1.00  0.00    -0.000 C 
BRANCH  14  15
ATOM     15  C   UNL     1      34.336  17.456 -18.101  1.00  0.00    -0.003 C 
ATOM     16  C   UNL     1      33.528  18.696 -18.482  1.00  0.00     0.004 C 
ENDBRANCH  14  15
ENDBRANCH  13  14
ENDBRANCH  12  13
ENDBRANCH  11  12
ENDBRANCH  10  11
ENDBRANCH   1  10
TORSDOF 12
ENDMDL
MODEL 4
REMARK VINA RESULT:    -3.373     13.305     15.613
REMARK INTER + INTRA:          -7.729
REMARK INTER:                  -6.258
REMARK INTRA:                  -1.470
REMARK UNBOUND:                -1.990
REMARK SMILES CCCCCCCCCCCCCC(=O)[O-]
REMARK SMILES IDX 8 1 9 2 10 3 11 4 12 5 13 6 14 7 15 8 16 9 7 10 6 11 5 12
REMARK SMILES IDX 4 13 3 14 2 15 1 16
REMARK H PARENT
REMARK Flexibility Score: inf
ROOT
ATOM      1  C   UNL     1      33.474  14.225 -16.092  1.00  0.00     0.000 C 
ENDROOT
BRANCH   1   2
ATOM      2  C   UNL     1      32.650  13.510 -17.170  1.00  0.00     0.000 C 
BRANCH   2   3
ATOM      3  C   UNL     1      31.176  13.402 -16.753  1.00  0.00     0.000 C 
BRANCH   3   4
ATOM      4  C   UNL     1      30.838  14.278 -15.536  1.00  0.00     0.000 C 
BRANCH   4   5
ATOM      5  C   UNL     1      29.561  15.107 -15.740  1.00  0.00     0.006 C 
BRANCH   5   6
ATOM      6  C   UNL     1      28.567  14.370 -16.643  1.00  0.00     0.053 C 
BRANCH   6   7
ATOM      7  C   UNL     1      27.173  14.853 -16.392  1.00  0.00     0.041 C 
ATOM      8  O   UNL     1      26.713  15.827 -17.044  1.00  0.00    -0.550 OA
ATOM      9  O   UNL     1      26.399  14.258 -15.404  1.00  0.00    -0.550 OA
ENDBRANCH   6   7
ENDBRANCH   5   6
ENDBRANCH   4   5
ENDBRANCH   3   4
ENDBRANCH   2   3
ENDBRANCH   1   2
BRANCH   1  10
ATOM     10  C   UNL     1      34.635  15.011 -16.718  1.00  0.00     0.000 C 
BRANCH  10  11
ATOM     11  C   UNL     1      34.273  15.624 -18.081  1.00  0.00    -0.000 C 
BRANCH  11  12
ATOM     12  C   UNL     1      34.310  17.162 -18.066  1.00  0.00    -0.000 C 
BRANCH  12  13
ATOM     13  C   UNL     1      33.060  17.788 -18.707  1.00  0.00    -0.000 C 
BRANCH  13  14
ATOM     14  C   UNL     1      31.827  16.872 -18.616  1.00  0.00    -0.000 C 
BRANCH  14  15
ATOM     15  C   UNL     1      30.602  17.464 -19.330  1.00  0.00    -0.003 C 
ATOM     16  C   UNL     1      29.452  17.778 -18.373  1.00  0.00     0.004 C 
ENDBRANCH  14  15
ENDBRANCH  13  14
ENDBRANCH  12  13
ENDBRANCH  11  12
ENDBRANCH  10  11
ENDBRANCH   1  10
TORSDOF 12
ENDMDL
MODEL 5
REMARK VINA RESULT:    -3.372     13.220     15.485
REMARK INTER + INTRA:          -7.727
REMARK INTER:                  -6.407
REMARK INTRA:                  -1.319
REMARK UNBOUND:                -1.990
REMARK SMILES CCCCCCCCCCCCCC(=O)[O-]
REMARK SMILES IDX 8 1 9 2 10 3 11 4 12 5 13 6 14 7 15 8 16 9 7 10 6 11 5 12
REMARK SMILES IDX 4 13 3 14 2 15 1 16
REMARK H PARENT
REMARK Flexibility Score: inf
ROOT
ATOM      1  C   UNL     1      34.249  15.618 -17.939  1.00  0.00     0.000 C 
ENDROOT
BRANCH   1   2
ATOM      2  C   UNL     1      34.693  14.866 -16.677  1.00  0.00     0.000 C 
BRANCH   2   3
ATOM      3  C   UNL     1      33.518  14.100 -16.052  1.00  0.00     0.000 C 
BRANCH   3   4
ATOM      4  C   UNL     1      32.184  14.376 -16.765  1.00  0.00     0.000 C 
BRANCH   4   5
ATOM      5  C   UNL     1      31.105  13.337 -16.424  1.00  0.00     0.006 C 
BRANCH   5   6
ATOM      6  C   UNL     1      30.306  13.762 -15.188  1.00  0.00     0.053 C 
BRANCH   6   7
ATOM      7  C   UNL     1      29.109  14.567 -15.587  1.00  0.00     0.041 C 
ATOM      8  O   UNL     1      29.040  15.788 -15.291  1.00  0.00    -0.550 OA
ATOM      9  O   UNL     1      28.048  13.955 -16.243  1.00  0.00    -0.550 OA
ENDBRANCH   6   7
ENDBRANCH   5   6
ENDBRANCH   4   5
ENDBRANCH   3   4
ENDBRANCH   2   3
ENDBRANCH   1   2
BRANCH   1  10
ATOM     10  C   UNL     1      34.631  17.103 -17.857  1.00  0.00     0.000 C 
BRANCH  10  11
ATOM     11  C   UNL     1      33.622  18.018 -18.570  1.00  0.00    -0.000 C 
BRANCH  11  12
ATOM     12  C   UNL     1      32.470  17.232 -19.220  1.00  0.00    -0.000 C 
BRANCH  12  13
ATOM     13  C   UNL     1      31.088  17.724 -18.760  1.00  0.00    -0.000 C 
BRANCH  13  14
ATOM     14  C   UNL     1      30.064  16.581 -18.638  1.00  0.00    -0.000 C 
BRANCH  14  15
ATOM     15  C   UNL     1      28.618  17.093 -18.549  1.00  0.00    -0.003 C 
ATOM     16  C   UNL     1      28.493  18.374 -17.725  1.00  0.00     0.004 C 
ENDBRANCH  14  15
ENDBRANCH  13  14
ENDBRANCH  12  13
ENDBRANCH  11  12
ENDBRANCH  10  11
ENDBRANCH   1  10
TORSDOF 12
ENDMDL
MODEL 6
REMARK VINA RESULT:    -3.368     12.306     14.365
REMARK INTER + INTRA:          -7.721
REMARK INTER:                  -6.255
REMARK INTRA:                  -1.466
REMARK UNBOUND:                -1.990
REMARK SMILES CCCCCCCCCCCCCC(=O)[O-]
REMARK SMILES IDX 8 1 9 2 10 3 11 4 12 5 13 6 14 7 15 8 16 9 7 10 6 11 5 12
REMARK SMILES IDX 4 13 3 14 2 15 1 16
REMARK H PARENT
REMARK Flexibility Score: inf
ROOT
ATOM      1  C   UNL     1      34.400  17.339 -18.142  1.00  0.00     0.000 C 
ENDROOT
BRANCH   1   2
ATOM      2  C   UNL     1      33.109  18.025 -18.607  1.00  0.00     0.000 C 
BRANCH   2   3
ATOM      3  C   UNL     1      32.566  17.366 -19.884  1.00  0.00     0.000 C 
BRANCH   3   4
ATOM      4  C   UNL     1      31.111  16.895 -19.735  1.00  0.00     0.000 C 
BRANCH   4   5
ATOM      5  C   UNL     1      30.293  17.788 -18.790  1.00  0.00     0.006 C 
BRANCH   5   6
ATOM      6  C   UNL     1      28.846  17.919 -19.276  1.00  0.00     0.053 C 
BRANCH   6   7
ATOM      7  C   UNL     1      27.920  18.116 -18.117  1.00  0.00     0.041 C 
ATOM      8  O   UNL     1      28.254  18.860 -17.159  1.00  0.00    -0.550 OA
ATOM      9  O   UNL     1      26.708  17.438 -18.074  1.00  0.00    -0.550 OA
ENDBRANCH   6   7
ENDBRANCH   5   6
ENDBRANCH   4   5
ENDBRANCH   3   4
ENDBRANCH   2   3
ENDBRANCH   1   2
BRANCH   1  10
ATOM     10  C   UNL     1      34.247  15.811 -18.156  1.00  0.00     0.000 C 
BRANCH  10  11
ATOM     11  C   UNL     1      34.669  15.158 -16.829  1.00  0.00    -0.000 C 
BRANCH  11  12
ATOM     12  C   UNL     1      33.542  14.322 -16.197  1.00  0.00    -0.000 C 
BRANCH  12  13
ATOM     13  C   UNL     1      32.218  14.436 -16.971  1.00  0.00    -0.000 C 
BRANCH  13  14
ATOM     14  C   UNL     1      30.987  14.291 -16.060  1.00  0.00    -0.000 C 
BRANCH  14  15
ATOM     15  C   UNL     1      29.751  15.011 -16.623  1.00  0.00    -0.003 C 
ATOM     16  C   UNL     1      28.881  15.636 -15.533  1.00  0.00     0.004 C 
ENDBRANCH  14  15
ENDBRANCH  13  14
ENDBRANCH  12  13
ENDBRANCH  11  12
ENDBRANCH  10  11
ENDBRANCH   1  10
TORSDOF 12
ENDMDL
MODEL 7
REMARK VINA RESULT:    -3.307      2.009      4.080
REMARK INTER + INTRA:          -7.616
REMARK INTER:                  -5.984
REMARK INTRA:                  -1.632
REMARK UNBOUND:                -1.990
REMARK SMILES CCCCCCCCCCCCCC(=O)[O-]
REMARK SMILES IDX 8 1 9 2 10 3 11 4 12 5 13 6 14 7 15 8 16 9 7 10 6 11 5 12
REMARK SMILES IDX 4 13 3 14 2 15 1 16
REMARK H PARENT
REMARK Flexibility Score: inf
ROOT
ATOM      1  C   UNL     1      26.602  27.467 -17.439  1.00  0.00     0.000 C 
ENDROOT
BRANCH   1   2
ATOM      2  C   UNL     1      25.595  27.139 -18.548  1.00  0.00     0.000 C 
BRANCH   2   3
ATOM      3  C   UNL     1      24.159  27.143 -18.005  1.00  0.00     0.000 C 
BRANCH   3   4
ATOM      4  C   UNL     1      23.219  28.045 -18.821  1.00  0.00     0.000 C 
BRANCH   4   5
ATOM      5  C   UNL     1      23.789  29.456 -19.033  1.00  0.00     0.006 C 
BRANCH   5   6
ATOM      6  C   UNL     1      23.174  30.450 -18.043  1.00  0.00     0.053 C 
BRANCH   6   7
ATOM      7  C   UNL     1      24.216  30.965 -17.101  1.00  0.00     0.041 C 
ATOM      8  O   UNL     1      24.778  30.184 -16.290  1.00  0.00    -0.550 OA
ATOM      9  O   UNL     1      24.531  32.318 -17.085  1.00  0.00    -0.550 OA
ENDBRANCH   6   7
ENDBRANCH   5   6
ENDBRANCH   4   5
ENDBRANCH   3   4
ENDBRANCH   2   3
ENDBRANCH   1   2
BRANCH   1  10
ATOM     10  C   UNL     1      27.715  28.388 -17.961  1.00  0.00     0.000 C 
BRANCH  10  11
ATOM     11  C   UNL     1      27.461  28.875 -19.397  1.00  0.00    -0.000 C 
BRANCH  11  12
ATOM     12  C   UNL     1      27.394  30.409 -19.498  1.00  0.00    -0.000 C 
BRANCH  12  13
ATOM     13  C   UNL     1      27.725  31.102 -18.166  1.00  0.00    -0.000 C 
BRANCH  13  14
ATOM     14  C   UNL     1      28.012  32.604 -18.337  1.00  0.00    -0.000 C 
BRANCH  14  15
ATOM     15  C   UNL     1      29.389  33.006 -17.784  1.00  0.00    -0.003 C 
ATOM     16  C   UNL     1      30.159  31.825 -17.196  1.00  0.00     0.004 C 
ENDBRANCH  14  15
ENDBRANCH  13  14
ENDBRANCH  12  13
ENDBRANCH  11  12
ENDBRANCH  10  11
ENDBRANCH   1  10
TORSDOF 12
ENDMDL
MODEL 8
REMARK VINA RESULT:    -3.267     12.966     15.095
REMARK INTER + INTRA:          -7.549
REMARK INTER:                  -5.743
REMARK INTRA:                  -1.806
REMARK UNBOUND:                -1.990
REMARK SMILES CCCCCCCCCCCCCC(=O)[O-]
REMARK SMILES IDX 8 1 9 2 10 3 11 4 12 5 13 6 14 7 15 8 16 9 7 10 6 11 5 12
REMARK SMILES IDX 4 13 3 14 2 15 1 16
REMARK H PARENT
REMARK Flexibility Score: inf
ROOT
ATOM      1  C   UNL     1      31.364  17.388 -18.680  1.00  0.00     0.000 C 
ENDROOT
BRANCH   1   2
ATOM      2  C   UNL     1      30.841  16.122 -19.372  1.00  0.00     0.000 C 
BRANCH   2   3
ATOM      3  C   UNL     1      30.922  14.910 -18.434  1.00  0.00     0.000 C 
BRANCH   3   4
ATOM      4  C   UNL     1      30.514  15.249 -16.991  1.00  0.00     0.000 C 
BRANCH   4   5
ATOM      5  C   UNL     1      29.091  14.781 -16.652  1.00  0.00     0.006 C 
BRANCH   5   6
ATOM      6  C   UNL     1      28.242  15.943 -16.127  1.00  0.00     0.053 C 
BRANCH   6   7
ATOM      7  C   UNL     1      27.920  16.899 -17.233  1.00  0.00     0.041 C 
ATOM      8  O   UNL     1      27.399  16.480 -18.299  1.00  0.00    -0.550 OA
ATOM      9  O   UNL     1      28.242  18.244 -17.105  1.00  0.00    -0.550 OA
ENDBRANCH   6   7
ENDBRANCH   5   6
ENDBRANCH   4   5
ENDBRANCH   3   4
ENDBRANCH   2   3
ENDBRANCH   1   2
BRANCH   1  10
ATOM     10  C   UNL     1      32.609  17.932 -19.397  1.00  0.00     0.000 C 
BRANCH  10  11
ATOM     11  C   UNL     1      33.703  18.394 -18.421  1.00  0.00    -0.000 C 
BRANCH  11  12
ATOM     12  C   UNL     1      34.636  17.247 -17.995  1.00  0.00    -0.000 C 
BRANCH  12  13
ATOM     13  C   UNL     1      34.622  16.075 -18.989  1.00  0.00    -0.000 C 
BRANCH  13  14
ATOM     14  C   UNL     1      34.553  14.706 -18.288  1.00  0.00    -0.000 C 
BRANCH  14  15
ATOM     15  C   UNL     1      34.625  14.825 -16.758  1.00  0.00    -0.003 C 
ATOM     16  C   UNL     1      33.681  13.859 -16.043  1.00  0.00     0.004 C 
ENDBRANCH  14  15
ENDBRANCH  13  14
ENDBRANCH  12  13
ENDBRANCH  11  12
ENDBRANCH  10  11
ENDBRANCH   1  10
TORSDOF 12
ENDMDL
MODEL 9
REMARK VINA RESULT:    -3.249     12.556     14.777
REMARK INTER + INTRA:          -7.517
REMARK INTER:                  -6.331
REMARK INTRA:                  -1.186
REMARK UNBOUND:                -1.990
REMARK SMILES CCCCCCCCCCCCCC(=O)[O-]
REMARK SMILES IDX 8 1 9 2 10 3 11 4 12 5 13 6 14 7 15 8 16 9 7 10 6 11 5 12
REMARK SMILES IDX 4 13 3 14 2 15 1 16
REMARK H PARENT
REMARK Flexibility Score: inf
ROOT
ATOM      1  C   UNL     1      33.321  18.160 -18.615  1.00  0.00     0.000 C 
ENDROOT
BRANCH   1   2
ATOM      2  C   UNL     1      34.447  17.385 -17.919  1.00  0.00     0.000 C 
BRANCH   2   3
ATOM      3  C   UNL     1      34.264  15.870 -18.096  1.00  0.00     0.000 C 
BRANCH   3   4
ATOM      4  C   UNL     1      34.437  15.095 -16.781  1.00  0.00     0.000 C 
BRANCH   4   5
ATOM      5  C   UNL     1      33.268  14.139 -16.498  1.00  0.00     0.006 C 
BRANCH   5   6
ATOM      6  C   UNL     1      31.976  14.648 -17.144  1.00  0.00     0.053 C 
BRANCH   6   7
ATOM      7  C   UNL     1      30.810  14.423 -16.232  1.00  0.00     0.041 C 
ATOM      8  O   UNL     1      29.823  15.203 -16.264  1.00  0.00    -0.550 OA
ATOM      9  O   UNL     1      30.837  13.382 -15.313  1.00  0.00    -0.550 OA
ENDBRANCH   6   7
ENDBRANCH   5   6
ENDBRANCH   4   5
ENDBRANCH   3   4
ENDBRANCH   2   3
ENDBRANCH   1   2
BRANCH   1  10
ATOM     10  C   UNL     1      32.828  17.412 -19.863  1.00  0.00     0.000 C 
BRANCH  10  11
ATOM     11  C   UNL     1      31.295  17.341 -19.949  1.00  0.00    -0.000 C 
BRANCH  11  12
ATOM     12  C   UNL     1      30.612  17.708 -18.619  1.00  0.00    -0.000 C 
BRANCH  12  13
ATOM     13  C   UNL     1      29.124  18.053 -18.796  1.00  0.00    -0.000 C 
BRANCH  13  14
ATOM     14  C   UNL     1      28.445  18.440 -17.471  1.00  0.00    -0.000 C 
BRANCH  14  15
ATOM     15  C   UNL     1      27.145  19.232 -17.685  1.00  0.00    -0.003 C 
ATOM     16  C   UNL     1      27.120  19.981 -19.017  1.00  0.00     0.004 C 
ENDBRANCH  14  15
ENDBRANCH  13  14
ENDBRANCH  12  13
ENDBRANCH  11  12
ENDBRANCH  10  11
ENDBRANCH   1  10
TORSDOF 12
ENDMDL
