MODEL 1
REMARK VINA RESULT:     0.000      0.000      0.000
REMARK INTER + INTRA:          -3.656
REMARK INTER:                   0.000
REMARK INTRA:                  -3.656
REMARK UNBOUND:                -3.656
REMARK SMILES CCCCCCCCC=CCCCCCCCC(=O)[O-]
REMARK SMILES IDX 10 1 9 2 11 3 12 4 13 5 14 6 15 7 16 8 17 9 18 10 19 11
REMARK SMILES IDX 20 12 8 13 7 14 6 15 5 16 4 17 3 18 2 19 1 20
REMARK H PARENT
REMARK Flexibility Score: inf
ROOT
ATOM      1  C   UNL     1     180.499 187.598 185.352  1.00  0.00    -0.031 C 
ATOM      2  C   UNL     1     180.379 188.904 185.046  1.00  0.00    -0.031 C 
ENDROOT
BRANCH   1   3
ATOM      3  C   UNL     1     181.623 187.010 186.170  1.00  0.00     0.027 C 
BRANCH   3   4
ATOM      4  C   UNL     1     182.751 186.435 185.290  1.00  0.00     0.004 C 
BRANCH   4   5
ATOM      5  C   UNL     1     184.154 186.940 185.668  1.00  0.00     0.000 C 
BRANCH   5   6
ATOM      6  C   UNL     1     184.208 187.542 187.082  1.00  0.00     0.000 C 
BRANCH   6   7
ATOM      7  C   UNL     1     184.622 189.025 187.089  1.00  0.00     0.000 C 
BRANCH   7   8
ATOM      8  C   UNL     1     183.865 189.912 188.096  1.00  0.00     0.006 C 
BRANCH   8   9
ATOM      9  C   UNL     1     182.894 189.121 188.981  1.00  0.00     0.053 C 
BRANCH   9  10
ATOM     10  C   UNL     1     181.561 189.797 189.027  1.00  0.00     0.041 C 
ATOM     11  O   UNL     1     181.485 191.039 189.222  1.00  0.00    -0.550 OA
ATOM     12  O   UNL     1     180.402 189.063 188.806  1.00  0.00    -0.550 OA
ENDBRANCH   9  10
ENDBRANCH   8   9
ENDBRANCH   7   8
ENDBRANCH   6   7
ENDBRANCH   5   6
ENDBRANCH   4   5
ENDBRANCH   3   4
ENDBRANCH   1   3
BRANCH   2  13
ATOM     13  C   UNL     1     181.394 189.966 185.396  1.00  0.00     0.027 C 
BRANCH  13  14
ATOM     14  C   UNL     1     182.044 190.579 184.145  1.00  0.00     0.004 C 
BRANCH  14  15
ATOM     15  C   UNL     1     183.331 189.867 183.675  1.00  0.00     0.000 C 
BRANCH  15  16
ATOM     16  C   UNL     1     183.147 188.904 182.490  1.00  0.00     0.000 C 
BRANCH  16  17
ATOM     17  C   UNL     1     181.926 189.247 181.623  1.00  0.00    -0.000 C 
BRANCH  17  18
ATOM     18  C   UNL     1     180.994 188.033 181.484  1.00  0.00    -0.000 C 
BRANCH  18  19
ATOM     19  C   UNL     1     181.703 186.707 181.793  1.00  0.00    -0.003 C 
ATOM     20  C   UNL     1     180.733 185.602 182.214  1.00  0.00     0.004 C 
ENDBRANCH  18  19
ENDBRANCH  17  18
ENDBRANCH  16  17
ENDBRANCH  15  16
ENDBRANCH  14  15
ENDBRANCH  13  14
ENDBRANCH   2  13
TORSDOF 15
ENDMDL
MODEL 2
REMARK VINA RESULT:     0.000      6.108      9.326
REMARK INTER + INTRA:          -3.655
REMARK INTER:                   0.000
REMARK INTRA:                  -3.655
REMARK UNBOUND:                -3.656
REMARK SMILES CCCCCCCCC=CCCCCCCCC(=O)[O-]
REMARK SMILES IDX 10 1 9 2 11 3 12 4 13 5 14 6 15 7 16 8 17 9 18 10 19 11
REMARK SMILES IDX 20 12 8 13 7 14 6 15 5 16 4 17 3 18 2 19 1 20
REMARK H PARENT
REMARK Flexibility Score: inf
ROOT
ATOM      1  C   UNL     1     181.323 193.124 189.709  1.00  0.00    -0.031 C 
ATOM      2  C   UNL     1     181.799 191.942 189.276  1.00  0.00    -0.031 C 
ENDROOT
BRANCH   1   3
ATOM      3  C   UNL     1     182.010 194.004 190.725  1.00  0.00     0.027 C 
BRANCH   3   4
ATOM      4  C   UNL     1     181.349 193.919 192.117  1.00  0.00     0.004 C 
BRANCH   4   5
ATOM      5  C   UNL     1     179.905 193.388 192.089  1.00  0.00     0.000 C 
BRANCH   5   6
ATOM      6  C   UNL     1     179.736 192.081 192.881  1.00  0.00     0.000 C 
BRANCH   6   7
ATOM      7  C   UNL     1     179.313 190.893 191.999  1.00  0.00     0.000 C 
BRANCH   7   8
ATOM      8  C   UNL     1     179.472 189.505 192.647  1.00  0.00     0.006 C 
BRANCH   8   9
ATOM      9  C   UNL     1     179.781 189.576 194.148  1.00  0.00     0.053 C 
BRANCH   9  10
ATOM     10  C   UNL     1     180.837 188.580 194.512  1.00  0.00     0.041 C 
ATOM     11  O   UNL     1     181.315 188.560 195.675  1.00  0.00    -0.550 OA
ATOM     12  O   UNL     1     181.257 187.641 193.578  1.00  0.00    -0.550 OA
ENDBRANCH   9  10
ENDBRANCH   8   9
ENDBRANCH   7   8
ENDBRANCH   6   7
ENDBRANCH   5   6
ENDBRANCH   4   5
ENDBRANCH   3   4
ENDBRANCH   1   3
BRANCH   2  13
ATOM     13  C   UNL     1     183.044 191.270 189.805  1.00  0.00     0.027 C 
BRANCH  13  14
ATOM     14  C   UNL     1     182.716 190.146 190.802  1.00  0.00     0.004 C 
BRANCH  14  15
ATOM     15  C   UNL     1     183.087 190.459 192.267  1.00  0.00     0.000 C 
BRANCH  15  16
ATOM     16  C   UNL     1     184.202 191.504 192.448  1.00  0.00     0.000 C 
BRANCH  16  17
ATOM     17  C   UNL     1     184.156 192.196 193.819  1.00  0.00    -0.000 C 
BRANCH  17  18
ATOM     18  C   UNL     1     182.998 191.650 194.669  1.00  0.00    -0.000 C 
BRANCH  18  19
ATOM     19  C   UNL     1     182.332 192.737 195.526  1.00  0.00    -0.003 C 
ATOM     20  C   UNL     1     181.170 192.200 196.362  1.00  0.00     0.004 C 
ENDBRANCH  18  19
ENDBRANCH  17  18
ENDBRANCH  16  17
ENDBRANCH  15  16
ENDBRANCH  14  15
ENDBRANCH  13  14
ENDBRANCH   2  13
TORSDOF 15
ENDMDL
MODEL 3
REMARK VINA RESULT:     0.004      7.538     10.532
REMARK INTER + INTRA:          -3.648
REMARK INTER:                   0.000
REMARK INTRA:                  -3.648
REMARK UNBOUND:                -3.656
REMARK SMILES CCCCCCCCC=CCCCCCCCC(=O)[O-]
REMARK SMILES IDX 10 1 9 2 11 3 12 4 13 5 14 6 15 7 16 8 17 9 18 10 19 11
REMARK SMILES IDX 20 12 8 13 7 14 6 15 5 16 4 17 3 18 2 19 1 20
REMARK H PARENT
REMARK Flexibility Score: inf
ROOT
ATOM      1  C   UNL     1     175.584 186.318 193.159  1.00  0.00    -0.031 C 
ATOM      2  C   UNL     1     175.357 185.235 192.391  1.00  0.00    -0.031 C 
ENDROOT
BRANCH   1   3
ATOM      3  C   UNL     1     176.851 187.137 193.131  1.00  0.00     0.027 C 
BRANCH   3   4
ATOM      4  C   UNL     1     177.893 186.641 194.154  1.00  0.00     0.004 C 
BRANCH   4   5
ATOM      5  C   UNL     1     179.294 186.418 193.557  1.00  0.00     0.000 C 
BRANCH   5   6
ATOM      6  C   UNL     1     179.478 187.112 192.197  1.00  0.00     0.000 C 
BRANCH   6   7
ATOM      7  C   UNL     1     179.818 186.129 191.062  1.00  0.00     0.000 C 
BRANCH   7   8
ATOM      8  C   UNL     1     179.080 186.381 189.733  1.00  0.00     0.006 C 
BRANCH   8   9
ATOM      9  C   UNL     1     178.263 187.679 189.738  1.00  0.00     0.053 C 
BRANCH   9  10
ATOM     10  C   UNL     1     176.885 187.430 189.212  1.00  0.00     0.041 C 
ATOM     11  O   UNL     1     175.885 187.921 189.797  1.00  0.00    -0.550 OA
ATOM     12  O   UNL     1     176.708 186.695 188.046  1.00  0.00    -0.550 OA
ENDBRANCH   9  10
ENDBRANCH   8   9
ENDBRANCH   7   8
ENDBRANCH   6   7
ENDBRANCH   5   6
ENDBRANCH   4   5
ENDBRANCH   3   4
ENDBRANCH   1   3
BRANCH   2  13
ATOM     13  C   UNL     1     176.367 184.621 191.451  1.00  0.00     0.027 C 
BRANCH  13  14
ATOM     14  C   UNL     1     176.764 183.198 191.878  1.00  0.00     0.004 C 
BRANCH  14  15
ATOM     15  C   UNL     1     178.231 183.050 192.334  1.00  0.00     0.000 C 
BRANCH  15  16
ATOM     16  C   UNL     1     178.427 182.846 193.847  1.00  0.00     0.000 C 
BRANCH  16  17
ATOM     17  C   UNL     1     177.109 182.578 194.590  1.00  0.00    -0.000 C 
BRANCH  17  18
ATOM     18  C   UNL     1     176.973 183.499 195.813  1.00  0.00    -0.000 C 
BRANCH  18  19
ATOM     19  C   UNL     1     175.541 184.020 196.003  1.00  0.00    -0.003 C 
ATOM     20  C   UNL     1     175.491 185.342 196.770  1.00  0.00     0.004 C 
ENDBRANCH  18  19
ENDBRANCH  17  18
ENDBRANCH  16  17
ENDBRANCH  15  16
ENDBRANCH  14  15
ENDBRANCH  13  14
ENDBRANCH   2  13
TORSDOF 15
ENDMDL
MODEL 4
REMARK VINA RESULT:     0.013      7.615      9.426
REMARK INTER + INTRA:          -3.631
REMARK INTER:                   0.000
REMARK INTRA:                  -3.631
REMARK UNBOUND:                -3.656
REMARK SMILES CCCCCCCCC=CCCCCCCCC(=O)[O-]
REMARK SMILES IDX 10 1 9 2 11 3 12 4 13 5 14 6 15 7 16 8 17 9 18 10 19 11
REMARK SMILES IDX 20 12 8 13 7 14 6 15 5 16 4 17 3 18 2 19 1 20
REMARK H PARENT
REMARK Flexibility Score: inf
ROOT
ATOM      1  C   UNL     1     178.386 181.333 188.939  1.00  0.00    -0.031 C 
ATOM      2  C   UNL     1     177.149 180.899 188.630  1.00  0.00    -0.031 C 
ENDROOT
BRANCH   1   3
ATOM      3  C   UNL     1     178.812 181.801 190.309  1.00  0.00     0.027 C 
BRANCH   3   4
ATOM      4  C   UNL     1     178.915 183.337 190.399  1.00  0.00     0.004 C 
BRANCH   4   5
ATOM      5  C   UNL     1     177.838 183.983 191.288  1.00  0.00     0.000 C 
BRANCH   5   6
ATOM      6  C   UNL     1     177.280 183.014 192.344  1.00  0.00     0.000 C 
BRANCH   6   7
ATOM      7  C   UNL     1     175.832 183.340 192.754  1.00  0.00     0.000 C 
BRANCH   7   8
ATOM      8  C   UNL     1     175.206 184.555 192.042  1.00  0.00     0.006 C 
BRANCH   8   9
ATOM      9  C   UNL     1     173.681 184.455 191.915  1.00  0.00     0.053 C 
BRANCH   9  10
ATOM     10  C   UNL     1     173.204 185.225 190.725  1.00  0.00     0.041 C 
ATOM     11  O   UNL     1     173.502 186.441 190.596  1.00  0.00    -0.550 OA
ATOM     12  O   UNL     1     172.472 184.587 189.731  1.00  0.00    -0.550 OA
ENDBRANCH   9  10
ENDBRANCH   8   9
ENDBRANCH   7   8
ENDBRANCH   6   7
ENDBRANCH   5   6
ENDBRANCH   4   5
ENDBRANCH   3   4
ENDBRANCH   1   3
BRANCH   2  13
ATOM     13  C   UNL     1     175.977 180.896 189.581  1.00  0.00     0.027 C 
BRANCH  13  14
ATOM     14  C   UNL     1     175.022 182.074 189.326  1.00  0.00     0.004 C 
BRANCH  14  15
ATOM     15  C   UNL     1     175.321 182.876 188.041  1.00  0.00     0.000 C 
BRANCH  15  16
ATOM     16  C   UNL     1     175.767 184.331 188.269  1.00  0.00     0.000 C 
BRANCH  16  17
ATOM     17  C   UNL     1     177.049 184.691 187.502  1.00  0.00    -0.000 C 
BRANCH  17  18
ATOM     18  C   UNL     1     177.203 183.813 186.251  1.00  0.00    -0.000 C 
BRANCH  18  19
ATOM     19  C   UNL     1     178.670 183.486 185.936  1.00  0.00    -0.003 C 
ATOM     20  C   UNL     1     179.649 184.217 186.855  1.00  0.00     0.004 C 
ENDBRANCH  18  19
ENDBRANCH  17  18
ENDBRANCH  16  17
ENDBRANCH  15  16
ENDBRANCH  14  15
ENDBRANCH  13  14
ENDBRANCH   2  13
TORSDOF 15
ENDMDL
MODEL 5
REMARK VINA RESULT:     0.018      6.031      8.279
REMARK INTER + INTRA:          -3.622
REMARK INTER:                   0.000
REMARK INTRA:                  -3.622
REMARK UNBOUND:                -3.656
REMARK SMILES CCCCCCCCC=CCCCCCCCC(=O)[O-]
REMARK SMILES IDX 10 1 9 2 11 3 12 4 13 5 14 6 15 7 16 8 17 9 18 10 19 11
REMARK SMILES IDX 20 12 8 13 7 14 6 15 5 16 4 17 3 18 2 19 1 20
REMARK H PARENT
REMARK Flexibility Score: inf
ROOT
ATOM      1  C   UNL     1     183.236 186.712 189.492  1.00  0.00    -0.031 C 
ATOM      2  C   UNL     1     181.943 187.087 189.506  1.00  0.00    -0.031 C 
ENDROOT
BRANCH   1   3
ATOM      3  C   UNL     1     183.722 185.327 189.140  1.00  0.00     0.027 C 
BRANCH   3   4
ATOM      4  C   UNL     1     184.025 184.476 190.390  1.00  0.00     0.004 C 
BRANCH   4   5
ATOM      5  C   UNL     1     184.221 185.302 191.673  1.00  0.00     0.000 C 
BRANCH   5   6
ATOM      6  C   UNL     1     183.104 185.073 192.705  1.00  0.00     0.000 C 
BRANCH   6   7
ATOM      7  C   UNL     1     182.486 186.384 193.224  1.00  0.00     0.000 C 
BRANCH   7   8
ATOM      8  C   UNL     1     181.196 186.220 194.050  1.00  0.00     0.006 C 
BRANCH   8   9
ATOM      9  C   UNL     1     180.996 184.791 194.571  1.00  0.00     0.053 C 
BRANCH   9  10
ATOM     10  C   UNL     1     179.545 184.429 194.559  1.00  0.00     0.041 C 
ATOM     11  O   UNL     1     178.696 185.226 194.081  1.00  0.00    -0.550 OA
ATOM     12  O   UNL     1     179.135 183.187 195.030  1.00  0.00    -0.550 OA
ENDBRANCH   9  10
ENDBRANCH   8   9
ENDBRANCH   7   8
ENDBRANCH   6   7
ENDBRANCH   5   6
ENDBRANCH   4   5
ENDBRANCH   3   4
ENDBRANCH   1   3
BRANCH   2  13
ATOM     13  C   UNL     1     180.777 186.161 189.260  1.00  0.00     0.027 C 
BRANCH  13  14
ATOM     14  C   UNL     1     180.021 185.827 190.557  1.00  0.00     0.004 C 
BRANCH  14  15
ATOM     15  C   UNL     1     179.852 184.317 190.831  1.00  0.00     0.000 C 
BRANCH  15  16
ATOM     16  C   UNL     1     180.576 183.389 189.839  1.00  0.00     0.000 C 
BRANCH  16  17
ATOM     17  C   UNL     1     181.186 182.152 190.514  1.00  0.00    -0.000 C 
BRANCH  17  18
ATOM     18  C   UNL     1     180.737 182.050 191.979  1.00  0.00    -0.000 C 
BRANCH  18  19
ATOM     19  C   UNL     1     181.858 181.564 192.909  1.00  0.00    -0.003 C 
ATOM     20  C   UNL     1     183.178 181.333 192.172  1.00  0.00     0.004 C 
ENDBRANCH  18  19
ENDBRANCH  17  18
ENDBRANCH  16  17
ENDBRANCH  15  16
ENDBRANCH  14  15
ENDBRANCH  13  14
ENDBRANCH   2  13
TORSDOF 15
ENDMDL
MODEL 6
REMARK VINA RESULT:     0.021      5.726      9.678
REMARK INTER + INTRA:          -3.617
REMARK INTER:                   0.000
REMARK INTRA:                  -3.617
REMARK UNBOUND:                -3.656
REMARK SMILES CCCCCCCCC=CCCCCCCCC(=O)[O-]
REMARK SMILES IDX 10 1 9 2 11 3 12 4 13 5 14 6 15 7 16 8 17 9 18 10 19 11
REMARK SMILES IDX 20 12 8 13 7 14 6 15 5 16 4 17 3 18 2 19 1 20
REMARK H PARENT
REMARK Flexibility Score: inf
ROOT
ATOM      1  C   UNL     1     182.718 188.682 194.344  1.00  0.00    -0.031 C 
ATOM      2  C   UNL     1     181.936 187.704 193.850  1.00  0.00    -0.031 C 
ENDROOT
BRANCH   1   3
ATOM      3  C   UNL     1     184.027 189.122 193.734  1.00  0.00     0.027 C 
BRANCH   3   4
ATOM      4  C   UNL     1     185.247 188.547 194.483  1.00  0.00     0.004 C 
BRANCH   4   5
ATOM      5  C   UNL     1     186.380 188.074 193.556  1.00  0.00     0.000 C 
BRANCH   5   6
ATOM      6  C   UNL     1     186.194 188.542 192.103  1.00  0.00     0.000 C 
BRANCH   6   7
ATOM      7  C   UNL     1     186.230 187.385 191.089  1.00  0.00     0.000 C 
BRANCH   7   8
ATOM      8  C   UNL     1     185.001 187.282 190.166  1.00  0.00     0.006 C 
BRANCH   8   9
ATOM      9  C   UNL     1     184.242 188.607 190.029  1.00  0.00     0.053 C 
BRANCH   9  10
ATOM     10  C   UNL     1     184.639 189.309 188.769  1.00  0.00     0.041 C 
ATOM     11  O   UNL     1     184.031 189.073 187.693  1.00  0.00    -0.550 OA
ATOM     12  O   UNL     1     185.650 190.262 188.794  1.00  0.00    -0.550 OA
ENDBRANCH   9  10
ENDBRANCH   8   9
ENDBRANCH   7   8
ENDBRANCH   6   7
ENDBRANCH   5   6
ENDBRANCH   4   5
ENDBRANCH   3   4
ENDBRANCH   1   3
BRANCH   2  13
ATOM     13  C   UNL     1     182.288 186.838 192.665  1.00  0.00     0.027 C 
BRANCH  13  14
ATOM     14  C   UNL     1     182.633 185.398 193.082  1.00  0.00     0.004 C 
BRANCH  14  15
ATOM     15  C   UNL     1     184.140 185.067 193.056  1.00  0.00     0.000 C 
BRANCH  15  16
ATOM     16  C   UNL     1     184.784 184.849 194.437  1.00  0.00     0.000 C 
BRANCH  16  17
ATOM     17  C   UNL     1     183.750 184.719 195.566  1.00  0.00    -0.000 C 
BRANCH  17  18
ATOM     18  C   UNL     1     183.922 185.844 196.598  1.00  0.00    -0.000 C 
BRANCH  18  19
ATOM     19  C   UNL     1     182.592 186.266 197.238  1.00  0.00    -0.003 C 
ATOM     20  C   UNL     1     181.407 185.438 196.740  1.00  0.00     0.004 C 
ENDBRANCH  18  19
ENDBRANCH  17  18
ENDBRANCH  16  17
ENDBRANCH  15  16
ENDBRANCH  14  15
ENDBRANCH  13  14
ENDBRANCH   2  13
TORSDOF 15
ENDMDL
MODEL 7
REMARK VINA RESULT:     0.024      5.453      7.826
REMARK INTER + INTRA:          -3.611
REMARK INTER:                   0.000
REMARK INTRA:                  -3.611
REMARK UNBOUND:                -3.656
REMARK SMILES CCCCCCCCC=CCCCCCCCC(=O)[O-]
REMARK SMILES IDX 10 1 9 2 11 3 12 4 13 5 14 6 15 7 16 8 17 9 18 10 19 11
REMARK SMILES IDX 20 12 8 13 7 14 6 15 5 16 4 17 3 18 2 19 1 20
REMARK H PARENT
REMARK Flexibility Score: inf
ROOT
ATOM      1  C   UNL     1     180.869 196.699 188.524  1.00  0.00    -0.031 C 
ATOM      2  C   UNL     1     181.837 195.775 188.372  1.00  0.00    -0.031 C 
ENDROOT
BRANCH   1   3
ATOM      3  C   UNL     1     179.509 196.424 189.120  1.00  0.00     0.027 C 
BRANCH   3   4
ATOM      4  C   UNL     1     178.371 196.605 188.094  1.00  0.00     0.004 C 
BRANCH   4   5
ATOM      5  C   UNL     1     177.442 195.384 187.973  1.00  0.00     0.000 C 
BRANCH   5   6
ATOM      6  C   UNL     1     178.087 194.092 188.499  1.00  0.00     0.000 C 
BRANCH   6   7
ATOM      7  C   UNL     1     177.590 192.831 187.769  1.00  0.00     0.000 C 
BRANCH   7   8
ATOM      8  C   UNL     1     178.614 191.684 187.669  1.00  0.00     0.006 C 
BRANCH   8   9
ATOM      9  C   UNL     1     178.679 191.058 186.270  1.00  0.00     0.053 C 
BRANCH   9  10
ATOM     10  C   UNL     1     177.368 190.430 185.918  1.00  0.00     0.041 C 
ATOM     11  O   UNL     1     176.810 190.698 184.822  1.00  0.00    -0.550 OA
ATOM     12  O   UNL     1     176.786 189.508 186.779  1.00  0.00    -0.550 OA
ENDBRANCH   9  10
ENDBRANCH   8   9
ENDBRANCH   7   8
ENDBRANCH   6   7
ENDBRANCH   5   6
ENDBRANCH   4   5
ENDBRANCH   3   4
ENDBRANCH   1   3
BRANCH   2  13
ATOM     13  C   UNL     1     181.682 194.308 188.689  1.00  0.00     0.027 C 
BRANCH  13  14
ATOM     14  C   UNL     1     181.835 193.427 187.438  1.00  0.00     0.004 C 
BRANCH  14  15
ATOM     15  C   UNL     1     181.740 194.190 186.100  1.00  0.00     0.000 C 
BRANCH  15  16
ATOM     16  C   UNL     1     180.338 194.223 185.465  1.00  0.00     0.000 C 
BRANCH  16  17
ATOM     17  C   UNL     1     179.954 195.612 184.933  1.00  0.00    -0.000 C 
BRANCH  17  18
ATOM     18  C   UNL     1     178.503 195.623 184.428  1.00  0.00    -0.000 C 
BRANCH  18  19
ATOM     19  C   UNL     1     177.896 194.215 184.344  1.00  0.00    -0.003 C 
ATOM     20  C   UNL     1     176.380 194.213 184.541  1.00  0.00     0.004 C 
ENDBRANCH  18  19
ENDBRANCH  17  18
ENDBRANCH  16  17
ENDBRANCH  15  16
ENDBRANCH  14  15
ENDBRANCH  13  14
ENDBRANCH   2  13
TORSDOF 15
ENDMDL
MODEL 8
REMARK VINA RESULT:     0.025      6.405      8.808
REMARK INTER + INTRA:          -3.609
REMARK INTER:                   0.000
REMARK INTRA:                  -3.609
REMARK UNBOUND:                -3.656
REMARK SMILES CCCCCCCCC=CCCCCCCCC(=O)[O-]
REMARK SMILES IDX 10 1 9 2 11 3 12 4 13 5 14 6 15 7 16 8 17 9 18 10 19 11
REMARK SMILES IDX 20 12 8 13 7 14 6 15 5 16 4 17 3 18 2 19 1 20
REMARK H PARENT
REMARK Flexibility Score: inf
ROOT
ATOM      1  C   UNL     1     187.345 187.738 192.327  1.00  0.00    -0.031 C 
ATOM      2  C   UNL     1     188.148 188.658 191.761  1.00  0.00    -0.031 C 
ENDROOT
BRANCH   1   3
ATOM      3  C   UNL     1     187.802 186.382 192.807  1.00  0.00     0.027 C 
BRANCH   3   4
ATOM      4  C   UNL     1     187.245 185.234 191.940  1.00  0.00     0.004 C 
BRANCH   4   5
ATOM      5  C   UNL     1     188.232 184.070 191.741  1.00  0.00     0.000 C 
BRANCH   5   6
ATOM      6  C   UNL     1     187.797 183.106 190.624  1.00  0.00     0.000 C 
BRANCH   6   7
ATOM      7  C   UNL     1     186.302 183.224 190.275  1.00  0.00     0.000 C 
BRANCH   7   8
ATOM      8  C   UNL     1     185.939 182.883 188.818  1.00  0.00     0.006 C 
BRANCH   8   9
ATOM      9  C   UNL     1     187.158 182.857 187.887  1.00  0.00     0.053 C 
BRANCH   9  10
ATOM     10  C   UNL     1     186.779 183.327 186.518  1.00  0.00     0.041 C 
ATOM     11  O   UNL     1     185.724 182.910 185.973  1.00  0.00    -0.550 OA
ATOM     12  O   UNL     1     187.568 184.265 185.863  1.00  0.00    -0.550 OA
ENDBRANCH   9  10
ENDBRANCH   8   9
ENDBRANCH   7   8
ENDBRANCH   6   7
ENDBRANCH   5   6
ENDBRANCH   4   5
ENDBRANCH   3   4
ENDBRANCH   1   3
BRANCH   2  13
ATOM     13  C   UNL     1     189.607 188.445 191.437  1.00  0.00     0.027 C 
BRANCH  13  14
ATOM     14  C   UNL     1     189.829 188.129 189.949  1.00  0.00     0.004 C 
BRANCH  14  15
ATOM     15  C   UNL     1     189.919 186.624 189.618  1.00  0.00     0.000 C 
BRANCH  15  16
ATOM     16  C   UNL     1     188.846 186.105 188.645  1.00  0.00     0.000 C 
BRANCH  16  17
ATOM     17  C   UNL     1     187.745 187.138 188.361  1.00  0.00    -0.000 C 
BRANCH  17  18
ATOM     18  C   UNL     1     186.352 186.496 188.462  1.00  0.00    -0.000 C 
BRANCH  18  19
ATOM     19  C   UNL     1     185.385 187.316 189.328  1.00  0.00    -0.003 C 
ATOM     20  C   UNL     1     184.333 186.450 190.021  1.00  0.00     0.004 C 
ENDBRANCH  18  19
ENDBRANCH  17  18
ENDBRANCH  16  17
ENDBRANCH  15  16
ENDBRANCH  14  15
ENDBRANCH  13  14
ENDBRANCH   2  13
TORSDOF 15
ENDMDL
MODEL 9
REMARK VINA RESULT:     0.036      4.018      6.749
REMARK INTER + INTRA:          -3.588
REMARK INTER:                   0.000
REMARK INTRA:                  -3.588
REMARK UNBOUND:                -3.656
REMARK SMILES CCCCCCCCC=CCCCCCCCC(=O)[O-]
REMARK SMILES IDX 10 1 9 2 11 3 12 4 13 5 14 6 15 7 16 8 17 9 18 10 19 11
REMARK SMILES IDX 20 12 8 13 7 14 6 15 5 16 4 17 3 18 2 19 1 20
REMARK H PARENT
REMARK Flexibility Score: inf
ROOT
ATOM      1  C   UNL     1     182.626 186.731 191.417  1.00  0.00    -0.031 C 
ATOM      2  C   UNL     1     182.181 187.987 191.607  1.00  0.00    -0.031 C 
ENDROOT
BRANCH   1   3
ATOM      3  C   UNL     1     182.833 186.091 190.066  1.00  0.00     0.027 C 
BRANCH   3   4
ATOM      4  C   UNL     1     181.676 185.147 189.680  1.00  0.00     0.004 C 
BRANCH   4   5
ATOM      5  C   UNL     1     181.260 185.244 188.202  1.00  0.00     0.000 C 
BRANCH   5   6
ATOM      6  C   UNL     1     181.591 186.610 187.579  1.00  0.00     0.000 C 
BRANCH   6   7
ATOM      7  C   UNL     1     182.484 186.502 186.330  1.00  0.00     0.000 C 
BRANCH   7   8
ATOM      8  C   UNL     1     183.391 185.258 186.278  1.00  0.00     0.006 C 
BRANCH   8   9
ATOM      9  C   UNL     1     184.782 185.505 186.875  1.00  0.00     0.053 C 
BRANCH   9  10
ATOM     10  C   UNL     1     185.170 184.380 187.781  1.00  0.00     0.041 C 
ATOM     11  O   UNL     1     184.363 183.441 188.007  1.00  0.00    -0.550 OA
ATOM     12  O   UNL     1     186.443 184.343 188.337  1.00  0.00    -0.550 OA
ENDBRANCH   9  10
ENDBRANCH   8   9
ENDBRANCH   7   8
ENDBRANCH   6   7
ENDBRANCH   5   6
ENDBRANCH   4   5
ENDBRANCH   3   4
ENDBRANCH   1   3
BRANCH   2  13
ATOM     13  C   UNL     1     181.735 188.917 190.505  1.00  0.00     0.027 C 
BRANCH  13  14
ATOM     14  C   UNL     1     182.860 189.866 190.058  1.00  0.00     0.004 C 
BRANCH  14  15
ATOM     15  C   UNL     1     183.215 189.779 188.559  1.00  0.00     0.000 C 
BRANCH  15  16
ATOM     16  C   UNL     1     184.484 188.970 188.236  1.00  0.00     0.000 C 
BRANCH  16  17
ATOM     17  C   UNL     1     185.545 189.053 189.344  1.00  0.00    -0.000 C 
BRANCH  17  18
ATOM     18  C   UNL     1     186.122 187.663 189.654  1.00  0.00    -0.000 C 
BRANCH  18  19
ATOM     19  C   UNL     1     186.274 187.410 191.161  1.00  0.00    -0.003 C 
ATOM     20  C   UNL     1     185.849 188.610 192.008  1.00  0.00     0.004 C 
ENDBRANCH  18  19
ENDBRANCH  17  18
ENDBRANCH  16  17
ENDBRANCH  15  16
ENDBRANCH  14  15
ENDBRANCH  13  14
ENDBRANCH   2  13
TORSDOF 15
ENDMDL
