MODEL 1
REMARK VINA RESULT:    -2.481      0.000      0.000
REMARK INTER + INTRA:          -7.204
REMARK INTER:                  -5.671
REMARK INTRA:                  -1.532
REMARK UNBOUND:                -1.532
REMARK SMILES CCCCCCCCCCCCCCCCCCCCCCCC(=O)[O-]
REMARK SMILES IDX 13 1 14 2 15 3 16 4 17 5 18 6 19 7 20 8 21 9 22 10 23 11
REMARK SMILES IDX 24 12 25 13 26 14 12 15 11 16 10 17 9 18 8 19 7 20 6 21 5 22
REMARK SMILES IDX 4 23 3 24 2 25 1 26
REMARK H PARENT
REMARK Flexibility Score: inf
ROOT
ATOM      1  C   UNL     1       3.978   4.124  14.056  1.00  0.00     0.000 C 
ENDROOT
BRANCH   1   2
ATOM      2  C   UNL     1       3.101   3.552  15.183  1.00  0.00     0.000 C 
BRANCH   2   3
ATOM      3  C   UNL     1       3.675   2.254  15.777  1.00  0.00     0.000 C 
BRANCH   3   4
ATOM      4  C   UNL     1       5.021   2.475  16.483  1.00  0.00     0.000 C 
BRANCH   4   5
ATOM      5  C   UNL     1       5.640   1.136  16.914  1.00  0.00     0.000 C 
BRANCH   5   6
ATOM      6  C   UNL     1       4.702  -0.056  16.663  1.00  0.00     0.000 C 
BRANCH   6   7
ATOM      7  C   UNL     1       4.954  -1.219  17.637  1.00  0.00     0.000 C 
BRANCH   7   8
ATOM      8  C   UNL     1       6.064  -0.912  18.658  1.00  0.00     0.000 C 
BRANCH   8   9
ATOM      9  C   UNL     1       5.657   0.132  19.720  1.00  0.00     0.000 C 
BRANCH   9  10
ATOM     10  C   UNL     1       4.131   0.214  19.897  1.00  0.00     0.006 C 
BRANCH  10  11
ATOM     11  C   UNL     1       3.619   1.660  19.869  1.00  0.00     0.053 C 
BRANCH  11  12
ATOM     12  C   UNL     1       2.154   1.723  19.561  1.00  0.00     0.041 C 
ATOM     13  O   UNL     1       1.305   1.626  20.486  1.00  0.00    -0.550 OA
ATOM     14  O   UNL     1       1.725   1.861  18.246  1.00  0.00    -0.550 OA
ENDBRANCH  11  12
ENDBRANCH  10  11
ENDBRANCH   9  10
ENDBRANCH   8   9
ENDBRANCH   7   8
ENDBRANCH   6   7
ENDBRANCH   5   6
ENDBRANCH   4   5
ENDBRANCH   3   4
ENDBRANCH   2   3
ENDBRANCH   1   2
BRANCH   1  15
ATOM     15  C   UNL     1       4.256   3.096  12.947  1.00  0.00     0.000 C 
BRANCH  15  16
ATOM     16  C   UNL     1       5.680   2.517  13.028  1.00  0.00     0.000 C 
BRANCH  16  17
ATOM     17  C   UNL     1       5.706   0.987  12.887  1.00  0.00     0.000 C 
BRANCH  17  18
ATOM     18  C   UNL     1       6.661   0.320  13.892  1.00  0.00    -0.000 C 
BRANCH  18  19
ATOM     19  C   UNL     1       7.015  -1.131  13.516  1.00  0.00    -0.000 C 
BRANCH  19  20
ATOM     20  C   UNL     1       5.819  -2.032  13.155  1.00  0.00    -0.000 C 
BRANCH  20  21
ATOM     21  C   UNL     1       4.755  -2.092  14.264  1.00  0.00    -0.000 C 
BRANCH  21  22
ATOM     22  C   UNL     1       3.324  -1.915  13.725  1.00  0.00    -0.000 C 
BRANCH  22  23
ATOM     23  C   UNL     1       3.070  -0.535  13.082  1.00  0.00    -0.000 C 
BRANCH  23  24
ATOM     24  C   UNL     1       2.280   0.399  14.015  1.00  0.00    -0.000 C 
BRANCH  24  25
ATOM     25  C   UNL     1       1.590  -0.359  15.159  1.00  0.00    -0.003 C 
ATOM     26  C   UNL     1       0.070  -0.207  15.133  1.00  0.00     0.004 C 
ENDBRANCH  24  25
ENDBRANCH  23  24
ENDBRANCH  22  23
ENDBRANCH  21  22
ENDBRANCH  20  21
ENDBRANCH  19  20
ENDBRANCH  18  19
ENDBRANCH  17  18
ENDBRANCH  16  17
ENDBRANCH  15  16
ENDBRANCH   1  15
TORSDOF 22
ENDMDL
MODEL 2
REMARK VINA RESULT:    -2.137      0.938      2.186
REMARK INTER + INTRA:          -6.417
REMARK INTER:                  -3.368
REMARK INTRA:                  -3.049
REMARK UNBOUND:                -1.532
REMARK SMILES CCCCCCCCCCCCCCCCCCCCCCCC(=O)[O-]
REMARK SMILES IDX 13 1 14 2 15 3 16 4 17 5 18 6 19 7 20 8 21 9 22 10 23 11
REMARK SMILES IDX 24 12 25 13 26 14 12 15 11 16 10 17 9 18 8 19 7 20 6 21 5 22
REMARK SMILES IDX 4 23 3 24 2 25 1 26
REMARK H PARENT
REMARK Flexibility Score: inf
ROOT
ATOM      1  C   UNL     1       3.625   1.971  16.268  1.00  0.00     0.000 C 
ENDROOT
BRANCH   1   2
ATOM      2  C   UNL     1       5.115   2.325  16.418  1.00  0.00     0.000 C 
BRANCH   2   3
ATOM      3  C   UNL     1       6.007   1.080  16.556  1.00  0.00     0.000 C 
BRANCH   3   4
ATOM      4  C   UNL     1       5.204  -0.228  16.513  1.00  0.00     0.000 C 
BRANCH   4   5
ATOM      5  C   UNL     1       6.110  -1.438  16.787  1.00  0.00     0.000 C 
BRANCH   5   6
ATOM      6  C   UNL     1       6.189  -1.789  18.282  1.00  0.00     0.000 C 
BRANCH   6   7
ATOM      7  C   UNL     1       5.020  -1.198  19.088  1.00  0.00     0.000 C 
BRANCH   7   8
ATOM      8  C   UNL     1       5.479  -0.167  20.134  1.00  0.00     0.000 C 
BRANCH   8   9
ATOM      9  C   UNL     1       4.892   1.243  19.913  1.00  0.00     0.000 C 
BRANCH   9  10
ATOM     10  C   UNL     1       3.497   1.196  19.264  1.00  0.00     0.006 C 
BRANCH  10  11
ATOM     11  C   UNL     1       2.380   1.011  20.299  1.00  0.00     0.053 C 
BRANCH  11  12
ATOM     12  C   UNL     1       1.256   1.977  20.080  1.00  0.00     0.041 C 
ATOM     13  O   UNL     1       0.885   2.741  21.009  1.00  0.00    -0.550 OA
ATOM     14  O   UNL     1       0.599   2.014  18.856  1.00  0.00    -0.550 OA
ENDBRANCH  11  12
ENDBRANCH  10  11
ENDBRANCH   9  10
ENDBRANCH   8   9
ENDBRANCH   7   8
ENDBRANCH   6   7
ENDBRANCH   5   6
ENDBRANCH   4   5
ENDBRANCH   3   4
ENDBRANCH   2   3
ENDBRANCH   1   2
BRANCH   1  15
ATOM     15  C   UNL     1       2.874   2.961  15.364  1.00  0.00     0.000 C 
BRANCH  15  16
ATOM     16  C   UNL     1       3.829   3.874  14.574  1.00  0.00     0.000 C 
BRANCH  16  17
ATOM     17  C   UNL     1       4.103   3.356  13.153  1.00  0.00     0.000 C 
BRANCH  17  18
ATOM     18  C   UNL     1       5.605   3.168  12.875  1.00  0.00    -0.000 C 
BRANCH  18  19
ATOM     19  C   UNL     1       6.095   1.736  13.159  1.00  0.00    -0.000 C 
BRANCH  19  20
ATOM     20  C   UNL     1       5.073   0.618  12.875  1.00  0.00    -0.000 C 
BRANCH  20  21
ATOM     21  C   UNL     1       5.696  -0.787  12.904  1.00  0.00    -0.000 C 
BRANCH  21  22
ATOM     22  C   UNL     1       4.729  -1.856  13.444  1.00  0.00    -0.000 C 
BRANCH  22  23
ATOM     23  C   UNL     1       3.241  -1.521  13.207  1.00  0.00    -0.000 C 
BRANCH  23  24
ATOM     24  C   UNL     1       2.432  -1.531  14.516  1.00  0.00    -0.000 C 
BRANCH  24  25
ATOM     25  C   UNL     1       1.819  -0.159  14.838  1.00  0.00    -0.003 C 
ATOM     26  C   UNL     1       0.311  -0.230  15.076  1.00  0.00     0.004 C 
ENDBRANCH  24  25
ENDBRANCH  23  24
ENDBRANCH  22  23
ENDBRANCH  21  22
ENDBRANCH  20  21
ENDBRANCH  19  20
ENDBRANCH  18  19
ENDBRANCH  17  18
ENDBRANCH  16  17
ENDBRANCH  15  16
ENDBRANCH   1  15
TORSDOF 22
ENDMDL
MODEL 3
REMARK VINA RESULT:    -1.665      1.511      5.402
REMARK INTER + INTRA:          -5.338
REMARK INTER:                  -4.346
REMARK INTRA:                  -0.992
REMARK UNBOUND:                -1.532
REMARK SMILES CCCCCCCCCCCCCCCCCCCCCCCC(=O)[O-]
REMARK SMILES IDX 13 1 14 2 15 3 16 4 17 5 18 6 19 7 20 8 21 9 22 10 23 11
REMARK SMILES IDX 24 12 25 13 26 14 12 15 11 16 10 17 9 18 8 19 7 20 6 21 5 22
REMARK SMILES IDX 4 23 3 24 2 25 1 26
REMARK H PARENT
REMARK Flexibility Score: inf
ROOT
ATOM      1  C   UNL     1       4.739   0.458  19.113  1.00  0.00     0.000 C 
ENDROOT
BRANCH   1   2
ATOM      2  C   UNL     1       5.825   0.124  20.152  1.00  0.00     0.000 C 
BRANCH   2   3
ATOM      3  C   UNL     1       6.920  -0.796  19.586  1.00  0.00     0.000 C 
BRANCH   3   4
ATOM      4  C   UNL     1       6.357  -1.873  18.648  1.00  0.00     0.000 C 
BRANCH   4   5
ATOM      5  C   UNL     1       6.484  -1.444  17.178  1.00  0.00     0.000 C 
BRANCH   5   6
ATOM      6  C   UNL     1       5.444  -2.125  16.273  1.00  0.00     0.000 C 
BRANCH   6   7
ATOM      7  C   UNL     1       4.022  -1.589  16.503  1.00  0.00     0.000 C 
BRANCH   7   8
ATOM      8  C   UNL     1       3.080  -1.869  15.319  1.00  0.00     0.000 C 
BRANCH   8   9
ATOM      9  C   UNL     1       3.597  -1.320  13.972  1.00  0.00     0.000 C 
BRANCH   9  10
ATOM     10  C   UNL     1       2.617  -0.315  13.341  1.00  0.00     0.006 C 
BRANCH  10  11
ATOM     11  C   UNL     1       1.963   0.596  14.387  1.00  0.00     0.053 C 
BRANCH  11  12
ATOM     12  C   UNL     1       0.769  -0.052  15.017  1.00  0.00     0.041 C 
ATOM     13  O   UNL     1       0.194  -1.016  14.447  1.00  0.00    -0.550 OA
ATOM     14  O   UNL     1       0.272   0.428  16.223  1.00  0.00    -0.550 OA
ENDBRANCH  11  12
ENDBRANCH  10  11
ENDBRANCH   9  10
ENDBRANCH   8   9
ENDBRANCH   7   8
ENDBRANCH   6   7
ENDBRANCH   5   6
ENDBRANCH   4   5
ENDBRANCH   3   4
ENDBRANCH   2   3
ENDBRANCH   1   2
BRANCH   1  15
ATOM     15  C   UNL     1       3.975   1.747  19.457  1.00  0.00     0.000 C 
BRANCH  15  16
ATOM     16  C   UNL     1       2.739   1.952  18.562  1.00  0.00     0.000 C 
BRANCH  16  17
ATOM     17  C   UNL     1       3.022   1.648  17.082  1.00  0.00     0.000 C 
BRANCH  17  18
ATOM     18  C   UNL     1       4.402   2.156  16.630  1.00  0.00    -0.000 C 
BRANCH  18  19
ATOM     19  C   UNL     1       4.335   3.504  15.888  1.00  0.00    -0.000 C 
BRANCH  19  20
ATOM     20  C   UNL     1       3.265   3.599  14.783  1.00  0.00    -0.000 C 
BRANCH  20  21
ATOM     21  C   UNL     1       3.807   4.188  13.471  1.00  0.00    -0.000 C 
BRANCH  21  22
ATOM     22  C   UNL     1       5.185   3.621  13.088  1.00  0.00    -0.000 C 
BRANCH  22  23
ATOM     23  C   UNL     1       5.189   2.092  12.875  1.00  0.00    -0.000 C 
BRANCH  23  24
ATOM     24  C   UNL     1       6.597   1.492  13.031  1.00  0.00    -0.000 C 
BRANCH  24  25
ATOM     25  C   UNL     1       6.613   0.262  13.951  1.00  0.00    -0.003 C 
ATOM     26  C   UNL     1       6.610  -1.054  13.174  1.00  0.00     0.004 C 
ENDBRANCH  24  25
ENDBRANCH  23  24
ENDBRANCH  22  23
ENDBRANCH  21  22
ENDBRANCH  20  21
ENDBRANCH  19  20
ENDBRANCH  18  19
ENDBRANCH  17  18
ENDBRANCH  16  17
ENDBRANCH  15  16
ENDBRANCH   1  15
TORSDOF 22
ENDMDL
MODEL 4
REMARK VINA RESULT:    -1.502      1.959      2.690
REMARK INTER + INTRA:          -4.967
REMARK INTER:                  -2.626
REMARK INTRA:                  -2.342
REMARK UNBOUND:                -1.532
REMARK SMILES CCCCCCCCCCCCCCCCCCCCCCCC(=O)[O-]
REMARK SMILES IDX 13 1 14 2 15 3 16 4 17 5 18 6 19 7 20 8 21 9 22 10 23 11
REMARK SMILES IDX 24 12 25 13 26 14 12 15 11 16 10 17 9 18 8 19 7 20 6 21 5 22
REMARK SMILES IDX 4 23 3 24 2 25 1 26
REMARK H PARENT
REMARK Flexibility Score: inf
ROOT
ATOM      1  C   UNL     1       3.642   4.036  13.431  1.00  0.00     0.000 C 
ENDROOT
BRANCH   1   2
ATOM      2  C   UNL     1       3.297   3.520  14.839  1.00  0.00     0.000 C 
BRANCH   2   3
ATOM      3  C   UNL     1       4.476   3.643  15.819  1.00  0.00     0.000 C 
BRANCH   3   4
ATOM      4  C   UNL     1       4.715   2.353  16.617  1.00  0.00     0.000 C 
BRANCH   4   5
ATOM      5  C   UNL     1       3.438   1.501  16.680  1.00  0.00     0.000 C 
BRANCH   5   6
ATOM      6  C   UNL     1       2.268   2.240  17.352  1.00  0.00     0.000 C 
BRANCH   6   7
ATOM      7  C   UNL     1       1.916   1.656  18.730  1.00  0.00     0.000 C 
BRANCH   7   8
ATOM      8  C   UNL     1       3.060   1.800  19.749  1.00  0.00     0.000 C 
BRANCH   8   9
ATOM      9  C   UNL     1       3.428   0.480  20.459  1.00  0.00     0.000 C 
BRANCH   9  10
ATOM     10  C   UNL     1       4.803  -0.051  20.020  1.00  0.00     0.006 C 
BRANCH  10  11
ATOM     11  C   UNL     1       4.772  -0.651  18.609  1.00  0.00     0.053 C 
BRANCH  11  12
ATOM     12  C   UNL     1       5.984  -1.488  18.336  1.00  0.00     0.041 C 
ATOM     13  O   UNL     1       6.648  -1.975  19.289  1.00  0.00    -0.550 OA
ATOM     14  O   UNL     1       6.398  -1.708  17.027  1.00  0.00    -0.550 OA
ENDBRANCH  11  12
ENDBRANCH  10  11
ENDBRANCH   9  10
ENDBRANCH   8   9
ENDBRANCH   7   8
ENDBRANCH   6   7
ENDBRANCH   5   6
ENDBRANCH   4   5
ENDBRANCH   3   4
ENDBRANCH   2   3
ENDBRANCH   1   2
BRANCH   1  15
ATOM     15  C   UNL     1       4.931   3.410  12.875  1.00  0.00     0.000 C 
BRANCH  15  16
ATOM     16  C   UNL     1       4.890   1.871  12.894  1.00  0.00     0.000 C 
BRANCH  16  17
ATOM     17  C   UNL     1       6.280   1.244  13.089  1.00  0.00     0.000 C 
BRANCH  17  18
ATOM     18  C   UNL     1       6.350   0.344  14.334  1.00  0.00    -0.000 C 
BRANCH  18  19
ATOM     19  C   UNL     1       6.902  -1.062  14.031  1.00  0.00    -0.000 C 
BRANCH  19  20
ATOM     20  C   UNL     1       6.211  -1.809  12.875  1.00  0.00    -0.000 C 
BRANCH  20  21
ATOM     21  C   UNL     1       4.681  -1.863  13.022  1.00  0.00    -0.000 C 
BRANCH  21  22
ATOM     22  C   UNL     1       4.229  -1.991  14.488  1.00  0.00    -0.000 C 
BRANCH  22  23
ATOM     23  C   UNL     1       2.783  -1.509  14.734  1.00  0.00    -0.000 C 
BRANCH  23  24
ATOM     24  C   UNL     1       2.401  -0.339  13.810  1.00  0.00    -0.000 C 
BRANCH  24  25
ATOM     25  C   UNL     1       1.208   0.467  14.346  1.00  0.00    -0.003 C 
ATOM     26  C   UNL     1       0.291  -0.365  15.243  1.00  0.00     0.004 C 
ENDBRANCH  24  25
ENDBRANCH  23  24
ENDBRANCH  22  23
ENDBRANCH  21  22
ENDBRANCH  20  21
ENDBRANCH  19  20
ENDBRANCH  18  19
ENDBRANCH  17  18
ENDBRANCH  16  17
ENDBRANCH  15  16
ENDBRANCH   1  15
TORSDOF 22
ENDMDL
MODEL 5
REMARK VINA RESULT:    -1.364      1.369      3.471
REMARK INTER + INTRA:          -4.651
REMARK INTER:                  -3.229
REMARK INTRA:                  -1.422
REMARK UNBOUND:                -1.532
REMARK SMILES CCCCCCCCCCCCCCCCCCCCCCCC(=O)[O-]
REMARK SMILES IDX 13 1 14 2 15 3 16 4 17 5 18 6 19 7 20 8 21 9 22 10 23 11
REMARK SMILES IDX 24 12 25 13 26 14 12 15 11 16 10 17 9 18 8 19 7 20 6 21 5 22
REMARK SMILES IDX 4 23 3 24 2 25 1 26
REMARK H PARENT
REMARK Flexibility Score: inf
ROOT
ATOM      1  C   UNL     1       5.729   0.293  15.272  1.00  0.00     0.000 C 
ENDROOT
BRANCH   1   2
ATOM      2  C   UNL     1       6.692  -0.905  15.203  1.00  0.00     0.000 C 
BRANCH   2   3
ATOM      3  C   UNL     1       6.245  -2.075  16.094  1.00  0.00     0.000 C 
BRANCH   3   4
ATOM      4  C   UNL     1       4.829  -1.882  16.654  1.00  0.00     0.000 C 
BRANCH   4   5
ATOM      5  C   UNL     1       4.862  -1.687  18.178  1.00  0.00     0.000 C 
BRANCH   5   6
ATOM      6  C   UNL     1       6.292  -1.694  18.742  1.00  0.00     0.000 C 
BRANCH   6   7
ATOM      7  C   UNL     1       6.521  -0.583  19.781  1.00  0.00     0.000 C 
BRANCH   7   8
ATOM      8  C   UNL     1       5.344   0.404  19.866  1.00  0.00     0.000 C 
BRANCH   8   9
ATOM      9  C   UNL     1       5.014   1.094  18.525  1.00  0.00     0.000 C 
BRANCH   9  10
ATOM     10  C   UNL     1       3.597   1.691  18.513  1.00  0.00     0.006 C 
BRANCH  10  11
ATOM     11  C   UNL     1       2.894   1.551  19.869  1.00  0.00     0.053 C 
BRANCH  11  12
ATOM     12  C   UNL     1       1.407   1.674  19.738  1.00  0.00     0.041 C 
ATOM     13  O   UNL     1       0.653   1.298  20.674  1.00  0.00    -0.550 OA
ATOM     14  O   UNL     1       0.850   2.178  18.568  1.00  0.00    -0.550 OA
ENDBRANCH  11  12
ENDBRANCH  10  11
ENDBRANCH   9  10
ENDBRANCH   8   9
ENDBRANCH   7   8
ENDBRANCH   6   7
ENDBRANCH   5   6
ENDBRANCH   4   5
ENDBRANCH   3   4
ENDBRANCH   2   3
ENDBRANCH   1   2
BRANCH   1  15
ATOM     15  C   UNL     1       4.965   0.510  13.956  1.00  0.00     0.000 C 
BRANCH  15  16
ATOM     16  C   UNL     1       5.837   1.175  12.875  1.00  0.00     0.000 C 
BRANCH  16  17
ATOM     17  C   UNL     1       6.443   2.509  13.341  1.00  0.00     0.000 C 
BRANCH  17  18
ATOM     18  C   UNL     1       5.599   3.721  12.909  1.00  0.00    -0.000 C 
BRANCH  18  19
ATOM     19  C   UNL     1       4.085   3.480  13.043  1.00  0.00    -0.000 C 
BRANCH  19  20
ATOM     20  C   UNL     1       3.393   4.236  14.193  1.00  0.00    -0.000 C 
BRANCH  20  21
ATOM     21  C   UNL     1       2.569   3.316  15.108  1.00  0.00    -0.000 C 
BRANCH  21  22
ATOM     22  C   UNL     1       2.462   1.879  14.567  1.00  0.00    -0.000 C 
BRANCH  22  23
ATOM     23  C   UNL     1       2.186   0.825  15.661  1.00  0.00    -0.000 C 
BRANCH  23  24
ATOM     24  C   UNL     1       0.805   0.168  15.493  1.00  0.00    -0.000 C 
BRANCH  24  25
ATOM     25  C   UNL     1       0.852  -1.077  14.594  1.00  0.00    -0.003 C 
ATOM     26  C   UNL     1       2.275  -1.583  14.364  1.00  0.00     0.004 C 
ENDBRANCH  24  25
ENDBRANCH  23  24
ENDBRANCH  22  23
ENDBRANCH  21  22
ENDBRANCH  20  21
ENDBRANCH  19  20
ENDBRANCH  18  19
ENDBRANCH  17  18
ENDBRANCH  16  17
ENDBRANCH  15  16
ENDBRANCH   1  15
TORSDOF 22
ENDMDL
MODEL 6
REMARK VINA RESULT:    -1.153      1.807      5.367
REMARK INTER + INTRA:          -4.168
REMARK INTER:                  -2.472
REMARK INTRA:                  -1.695
REMARK UNBOUND:                -1.532
REMARK SMILES CCCCCCCCCCCCCCCCCCCCCCCC(=O)[O-]
REMARK SMILES IDX 13 1 14 2 15 3 16 4 17 5 18 6 19 7 20 8 21 9 22 10 23 11
REMARK SMILES IDX 24 12 25 13 26 14 12 15 11 16 10 17 9 18 8 19 7 20 6 21 5 22
REMARK SMILES IDX 4 23 3 24 2 25 1 26
REMARK H PARENT
REMARK Flexibility Score: inf
ROOT
ATOM      1  C   UNL     1       1.516   0.615  15.812  1.00  0.00     0.000 C 
ENDROOT
BRANCH   1   2
ATOM      2  C   UNL     1       0.995  -0.319  14.705  1.00  0.00     0.000 C 
BRANCH   2   3
ATOM      3  C   UNL     1       1.521  -1.757  14.849  1.00  0.00     0.000 C 
BRANCH   3   4
ATOM      4  C   UNL     1       3.050  -1.839  14.730  1.00  0.00     0.000 C 
BRANCH   4   5
ATOM      5  C   UNL     1       3.488  -1.819  13.257  1.00  0.00     0.000 C 
BRANCH   5   6
ATOM      6  C   UNL     1       4.986  -2.125  13.083  1.00  0.00     0.000 C 
BRANCH   6   7
ATOM      7  C   UNL     1       5.882  -1.108  13.809  1.00  0.00     0.000 C 
BRANCH   7   8
ATOM      8  C   UNL     1       6.189   0.134  12.953  1.00  0.00     0.000 C 
BRANCH   8   9
ATOM      9  C   UNL     1       5.019   1.138  12.876  1.00  0.00     0.000 C 
BRANCH   9  10
ATOM     10  C   UNL     1       5.400   2.516  13.444  1.00  0.00     0.006 C 
BRANCH  10  11
ATOM     11  C   UNL     1       4.322   3.574  13.177  1.00  0.00     0.053 C 
BRANCH  11  12
ATOM     12  C   UNL     1       3.790   4.158  14.451  1.00  0.00     0.041 C 
ATOM     13  O   UNL     1       2.551   4.318  14.608  1.00  0.00    -0.550 OA
ATOM     14  O   UNL     1       4.667   4.552  15.454  1.00  0.00    -0.550 OA
ENDBRANCH  11  12
ENDBRANCH  10  11
ENDBRANCH   9  10
ENDBRANCH   8   9
ENDBRANCH   7   8
ENDBRANCH   6   7
ENDBRANCH   5   6
ENDBRANCH   4   5
ENDBRANCH   3   4
ENDBRANCH   2   3
ENDBRANCH   1   2
BRANCH   1  15
ATOM     15  C   UNL     1       2.907   1.185  15.494  1.00  0.00     0.000 C 
BRANCH  15  16
ATOM     16  C   UNL     1       3.765   1.377  16.757  1.00  0.00     0.000 C 
BRANCH  16  17
ATOM     17  C   UNL     1       5.243   1.649  16.434  1.00  0.00     0.000 C 
BRANCH  17  18
ATOM     18  C   UNL     1       6.160   0.483  16.842  1.00  0.00    -0.000 C 
BRANCH  18  19
ATOM     19  C   UNL     1       5.447  -0.881  16.814  1.00  0.00    -0.000 C 
BRANCH  19  20
ATOM     20  C   UNL     1       5.515  -1.691  18.123  1.00  0.00    -0.000 C 
BRANCH  20  21
ATOM     21  C   UNL     1       5.952  -0.847  19.331  1.00  0.00    -0.000 C 
BRANCH  21  22
ATOM     22  C   UNL     1       4.770  -0.144  20.024  1.00  0.00    -0.000 C 
BRANCH  22  23
ATOM     23  C   UNL     1       4.921   1.390  20.100  1.00  0.00    -0.000 C 
BRANCH  23  24
ATOM     24  C   UNL     1       3.571   2.110  19.939  1.00  0.00    -0.000 C 
BRANCH  24  25
ATOM     25  C   UNL     1       2.377   1.145  20.013  1.00  0.00    -0.003 C 
ATOM     26  C   UNL     1       1.071   1.853  20.371  1.00  0.00     0.004 C 
ENDBRANCH  24  25
ENDBRANCH  23  24
ENDBRANCH  22  23
ENDBRANCH  21  22
ENDBRANCH  20  21
ENDBRANCH  19  20
ENDBRANCH  18  19
ENDBRANCH  17  18
ENDBRANCH  16  17
ENDBRANCH  15  16
ENDBRANCH   1  15
TORSDOF 22
ENDMDL
MODEL 7
REMARK VINA RESULT:    -0.993      1.389      4.614
REMARK INTER + INTRA:          -3.802
REMARK INTER:                  -2.544
REMARK INTRA:                  -1.258
REMARK UNBOUND:                -1.532
REMARK SMILES CCCCCCCCCCCCCCCCCCCCCCCC(=O)[O-]
REMARK SMILES IDX 13 1 14 2 15 3 16 4 17 5 18 6 19 7 20 8 21 9 22 10 23 11
REMARK SMILES IDX 24 12 25 13 26 14 12 15 11 16 10 17 9 18 8 19 7 20 6 21 5 22
REMARK SMILES IDX 4 23 3 24 2 25 1 26
REMARK H PARENT
REMARK Flexibility Score: inf
ROOT
ATOM      1  C   UNL     1       4.049   4.419  13.130  1.00  0.00     0.000 C 
ENDROOT
BRANCH   1   2
ATOM      2  C   UNL     1       4.879   3.128  13.021  1.00  0.00     0.000 C 
BRANCH   2   3
ATOM      3  C   UNL     1       4.002   1.868  12.931  1.00  0.00     0.000 C 
BRANCH   3   4
ATOM      4  C   UNL     1       4.830   0.576  12.875  1.00  0.00     0.000 C 
BRANCH   4   5
ATOM      5  C   UNL     1       6.333   0.882  12.980  1.00  0.00     0.000 C 
BRANCH   5   6
ATOM      6  C   UNL     1       7.077  -0.117  13.881  1.00  0.00     0.000 C 
BRANCH   6   7
ATOM      7  C   UNL     1       6.687  -1.576  13.590  1.00  0.00     0.000 C 
BRANCH   7   8
ATOM      8  C   UNL     1       5.647  -2.125  14.582  1.00  0.00     0.000 C 
BRANCH   8   9
ATOM      9  C   UNL     1       4.186  -1.924  14.124  1.00  0.00     0.000 C 
BRANCH   9  10
ATOM     10  C   UNL     1       3.264  -1.524  15.289  1.00  0.00     0.006 C 
BRANCH  10  11
ATOM     11  C   UNL     1       1.780  -1.603  14.910  1.00  0.00     0.053 C 
BRANCH  11  12
ATOM     12  C   UNL     1       1.066  -0.317  15.194  1.00  0.00     0.041 C 
ATOM     13  O   UNL     1       1.565   0.526  15.985  1.00  0.00    -0.550 OA
ATOM     14  O   UNL     1      -0.168  -0.061  14.607  1.00  0.00    -0.550 OA
ENDBRANCH  11  12
ENDBRANCH  10  11
ENDBRANCH   9  10
ENDBRANCH   8   9
ENDBRANCH   7   8
ENDBRANCH   6   7
ENDBRANCH   5   6
ENDBRANCH   4   5
ENDBRANCH   3   4
ENDBRANCH   2   3
ENDBRANCH   1   2
BRANCH   1  15
ATOM     15  C   UNL     1       3.437   4.609  14.526  1.00  0.00     0.000 C 
BRANCH  15  16
ATOM     16  C   UNL     1       3.121   3.269  15.216  1.00  0.00     0.000 C 
BRANCH  16  17
ATOM     17  C   UNL     1       4.088   2.954  16.368  1.00  0.00     0.000 C 
BRANCH  17  18
ATOM     18  C   UNL     1       4.546   1.485  16.367  1.00  0.00    -0.000 C 
BRANCH  18  19
ATOM     19  C   UNL     1       6.077   1.331  16.318  1.00  0.00    -0.000 C 
BRANCH  19  20
ATOM     20  C   UNL     1       6.683   0.395  17.381  1.00  0.00    -0.000 C 
BRANCH  20  21
ATOM     21  C   UNL     1       5.897  -0.916  17.547  1.00  0.00    -0.000 C 
BRANCH  21  22
ATOM     22  C   UNL     1       5.692  -1.304  19.022  1.00  0.00    -0.000 C 
BRANCH  22  23
ATOM     23  C   UNL     1       5.370  -0.105  19.939  1.00  0.00    -0.000 C 
BRANCH  23  24
ATOM     24  C   UNL     1       3.861   0.186  19.999  1.00  0.00    -0.000 C 
BRANCH  24  25
ATOM     25  C   UNL     1       3.536   1.664  19.734  1.00  0.00    -0.003 C 
ATOM     26  C   UNL     1       2.036   1.954  19.781  1.00  0.00     0.004 C 
ENDBRANCH  24  25
ENDBRANCH  23  24
ENDBRANCH  22  23
ENDBRANCH  21  22
ENDBRANCH  20  21
ENDBRANCH  19  20
ENDBRANCH  18  19
ENDBRANCH  17  18
ENDBRANCH  16  17
ENDBRANCH  15  16
ENDBRANCH   1  15
TORSDOF 22
ENDMDL
MODEL 8
REMARK VINA RESULT:    -0.943      1.676      5.074
REMARK INTER + INTRA:          -3.689
REMARK INTER:                  -2.840
REMARK INTRA:                  -0.848
REMARK UNBOUND:                -1.532
REMARK SMILES CCCCCCCCCCCCCCCCCCCCCCCC(=O)[O-]
REMARK SMILES IDX 13 1 14 2 15 3 16 4 17 5 18 6 19 7 20 8 21 9 22 10 23 11
REMARK SMILES IDX 24 12 25 13 26 14 12 15 11 16 10 17 9 18 8 19 7 20 6 21 5 22
REMARK SMILES IDX 4 23 3 24 2 25 1 26
REMARK H PARENT
REMARK Flexibility Score: inf
ROOT
ATOM      1  C   UNL     1       4.373   2.690  12.878  1.00  0.00     0.000 C 
ENDROOT
BRANCH   1   2
ATOM      2  C   UNL     1       5.873   2.578  13.203  1.00  0.00     0.000 C 
BRANCH   2   3
ATOM      3  C   UNL     1       6.189   1.402  14.142  1.00  0.00     0.000 C 
BRANCH   3   4
ATOM      4  C   UNL     1       7.198   0.417  13.534  1.00  0.00     0.000 C 
BRANCH   4   5
ATOM      5  C   UNL     1       6.479  -0.770  12.875  1.00  0.00     0.000 C 
BRANCH   5   6
ATOM      6  C   UNL     1       6.825  -2.112  13.542  1.00  0.00     0.000 C 
BRANCH   6   7
ATOM      7  C   UNL     1       6.911  -2.004  15.073  1.00  0.00     0.000 C 
BRANCH   7   8
ATOM      8  C   UNL     1       5.529  -2.020  15.751  1.00  0.00     0.000 C 
BRANCH   8   9
ATOM      9  C   UNL     1       4.354  -1.835  14.767  1.00  0.00     0.000 C 
BRANCH   9  10
ATOM     10  C   UNL     1       3.041  -1.492  15.491  1.00  0.00     0.006 C 
BRANCH  10  11
ATOM     11  C   UNL     1       2.260  -0.377  14.784  1.00  0.00     0.053 C 
BRANCH  11  12
ATOM     12  C   UNL     1       0.780  -0.573  14.908  1.00  0.00     0.041 C 
ATOM     13  O   UNL     1       0.258  -1.679  14.607  1.00  0.00    -0.550 OA
ATOM     14  O   UNL     1      -0.028   0.477  15.328  1.00  0.00    -0.550 OA
ENDBRANCH  11  12
ENDBRANCH  10  11
ENDBRANCH   9  10
ENDBRANCH   8   9
ENDBRANCH   7   8
ENDBRANCH   6   7
ENDBRANCH   5   6
ENDBRANCH   4   5
ENDBRANCH   3   4
ENDBRANCH   2   3
ENDBRANCH   1   2
BRANCH   1  15
ATOM     15  C   UNL     1       3.803   4.079  13.204  1.00  0.00     0.000 C 
BRANCH  15  16
ATOM     16  C   UNL     1       3.664   4.315  14.719  1.00  0.00     0.000 C 
BRANCH  16  17
ATOM     17  C   UNL     1       2.530   3.489  15.347  1.00  0.00     0.000 C 
BRANCH  17  18
ATOM     18  C   UNL     1       3.003   2.104  15.820  1.00  0.00    -0.000 C 
BRANCH  18  19
ATOM     19  C   UNL     1       4.495   2.073  16.198  1.00  0.00    -0.000 C 
BRANCH  19  20
ATOM     20  C   UNL     1       4.796   1.809  17.686  1.00  0.00    -0.000 C 
BRANCH  20  21
ATOM     21  C   UNL     1       3.545   1.887  18.575  1.00  0.00    -0.000 C 
BRANCH  21  22
ATOM     22  C   UNL     1       3.536   0.821  19.686  1.00  0.00    -0.000 C 
BRANCH  22  23
ATOM     23  C   UNL     1       4.882   0.082  19.844  1.00  0.00    -0.000 C 
BRANCH  23  24
ATOM     24  C   UNL     1       4.839  -1.330  19.235  1.00  0.00    -0.000 C 
BRANCH  24  25
ATOM     25  C   UNL     1       6.236  -1.856  18.872  1.00  0.00    -0.003 C 
ATOM     26  C   UNL     1       7.346  -1.179  19.674  1.00  0.00     0.004 C 
ENDBRANCH  24  25
ENDBRANCH  23  24
ENDBRANCH  22  23
ENDBRANCH  21  22
ENDBRANCH  20  21
ENDBRANCH  19  20
ENDBRANCH  18  19
ENDBRANCH  17  18
ENDBRANCH  16  17
ENDBRANCH  15  16
ENDBRANCH   1  15
TORSDOF 22
ENDMDL
