MODEL 1
REMARK VINA RESULT:     4.281      0.000      0.000
REMARK INTER + INTRA:           5.033
REMARK INTER:                   5.658
REMARK INTRA:                  -0.624
REMARK UNBOUND:                -0.624
REMARK SMILES CC[C@@H](C=C[C@@H](C)[C@H]1CC[C@H]2C3=CC[C@@H]4C[C@H](O)CC[C@@]4(C)[C@@H]3CC[C@]12C)C(C)C
REMARK SMILES IDX 6 1 7 2 5 3 4 4 3 5 2 6 1 7 28 8 29 9 30 10 8 11 9 12 26 13
REMARK SMILES IDX 10 14 11 15 25 16 27 17 12 18 24 19 23 20 13 21 21 22 14 23
REMARK SMILES IDX 15 24 20 25 22 26 16 27 19 28 17 29 18 30
REMARK H PARENT 18 31
REMARK Flexibility Score: inf
ROOT
ATOM      1  C   UNL     1     130.226 127.771 138.604  1.00  0.00     0.012 C 
ATOM      2  C   UNL     1     128.746 127.636 138.206  1.00  0.00     0.012 C 
ENDROOT
BRANCH   1   3
ATOM      3  C   UNL     1     130.809 128.918 137.803  1.00  0.00    -0.028 C 
ATOM      4  C   UNL     1     130.711 130.197 138.209  1.00  0.00    -0.027 C 
BRANCH   4   5
ATOM      5  C   UNL     1     131.194 131.340 137.336  1.00  0.00     0.014 C 
BRANCH   5   6
ATOM      6  C   UNL     1     131.809 130.801 136.021  1.00  0.00     0.004 C 
ATOM      7  C   UNL     1     130.989 131.196 134.791  1.00  0.00     0.004 C 
ENDBRANCH   5   6
BRANCH   5   8
ATOM      8  C   UNL     1     132.164 132.261 138.146  1.00  0.00    -0.011 C 
ATOM      9  C   UNL     1     132.143 133.705 137.623  1.00  0.00     0.008 C 
ATOM     10  C   UNL     1     133.610 131.733 138.195  1.00  0.00     0.008 C 
ENDBRANCH   5   8
ENDBRANCH   4   5
ENDBRANCH   1   3
BRANCH   1  11
ATOM     11  C   UNL     1     131.039 126.463 138.345  1.00  0.00     0.002 C 
ATOM     12  C   UNL     1     131.199 126.155 136.832  1.00  0.00     0.005 C 
ATOM     13  C   UNL     1     132.492 126.384 138.905  1.00  0.00    -0.023 C 
ATOM     14  C   UNL     1     132.572 125.491 136.645  1.00  0.00     0.009 C 
ATOM     15  C   UNL     1     133.047 125.219 138.066  1.00  0.00     0.021 C 
ATOM     16  C   UNL     1     132.598 126.011 140.423  1.00  0.00     0.008 C 
ATOM     17  C   UNL     1     133.272 127.712 138.622  1.00  0.00     0.012 C 
ATOM     18  C   UNL     1     134.517 124.982 138.351  1.00  0.00    -0.067 C 
ATOM     19  C   UNL     1     133.688 124.951 140.753  1.00  0.00     0.009 C 
ATOM     20  C   UNL     1     134.938 125.037 139.824  1.00  0.00     0.021 C 
ATOM     21  C   UNL     1     135.383 124.610 137.380  1.00  0.00    -0.027 C 
ATOM     22  C   UNL     1     136.068 123.996 140.141  1.00  0.00    -0.023 C 
ATOM     23  C   UNL     1     136.770 124.081 137.664  1.00  0.00     0.031 C 
ATOM     24  C   UNL     1     137.220 124.294 139.123  1.00  0.00     0.002 C 
ATOM     25  C   UNL     1     136.613 124.214 141.587  1.00  0.00     0.010 C 
ATOM     26  C   UNL     1     135.526 122.542 140.005  1.00  0.00     0.012 C 
ATOM     27  C   UNL     1     138.520 123.518 139.426  1.00  0.00     0.036 C 
ATOM     28  C   UNL     1     137.907 123.435 141.869  1.00  0.00     0.032 C 
ATOM     29  C   UNL     1     139.004 123.786 140.860  1.00  0.00     0.114 C 
BRANCH  29  30
ATOM     30  O   UNL     1     140.145 123.015 141.135  1.00  0.00    -0.393 OA
ATOM     31  H   UNL     1     140.872 123.371 140.560  1.00  0.00     0.210 HD
ENDBRANCH  29  30
ENDBRANCH   1  11
TORSDOF 6
ENDMDL
MODEL 2
REMARK VINA RESULT:     5.330      2.892      8.195
REMARK INTER + INTRA:           6.419
REMARK INTER:                   6.852
REMARK INTRA:                  -0.433
REMARK UNBOUND:                -0.624
REMARK SMILES CC[C@@H](C=C[C@@H](C)[C@H]1CC[C@H]2C3=CC[C@@H]4C[C@H](O)CC[C@@]4(C)[C@@H]3CC[C@]12C)C(C)C
REMARK SMILES IDX 6 1 7 2 5 3 4 4 3 5 2 6 1 7 28 8 29 9 30 10 8 11 9 12 26 13
REMARK SMILES IDX 10 14 11 15 25 16 27 17 12 18 24 19 23 20 13 21 21 22 14 23
REMARK SMILES IDX 15 24 20 25 22 26 16 27 19 28 17 29 18 30
REMARK H PARENT 18 31
REMARK Flexibility Score: inf
ROOT
ATOM      1  C   UNL     1     135.442 122.995 142.408  1.00  0.00     0.012 C 
ATOM      2  C   UNL     1     136.109 124.078 143.273  1.00  0.00     0.012 C 
ENDROOT
BRANCH   1   3
ATOM      3  C   UNL     1     136.375 122.698 141.251  1.00  0.00    -0.028 C 
ATOM      4  C   UNL     1     137.442 123.468 140.975  1.00  0.00    -0.027 C 
BRANCH   4   5
ATOM      5  C   UNL     1     138.293 123.224 139.743  1.00  0.00     0.014 C 
BRANCH   5   6
ATOM      6  C   UNL     1     139.797 123.226 140.108  1.00  0.00     0.004 C 
ATOM      7  C   UNL     1     140.069 123.909 141.450  1.00  0.00     0.004 C 
ENDBRANCH   5   6
BRANCH   5   8
ATOM      8  C   UNL     1     137.921 124.251 138.624  1.00  0.00    -0.011 C 
ATOM      9  C   UNL     1     137.481 125.599 139.216  1.00  0.00     0.008 C 
ATOM     10  C   UNL     1     136.856 123.727 137.642  1.00  0.00     0.008 C 
ENDBRANCH   5   8
ENDBRANCH   4   5
ENDBRANCH   1   3
BRANCH   1  11
ATOM     11  C   UNL     1     134.041 123.432 141.874  1.00  0.00     0.002 C 
ATOM     12  C   UNL     1     132.999 123.597 143.013  1.00  0.00     0.005 C 
ATOM     13  C   UNL     1     133.948 124.770 141.078  1.00  0.00    -0.023 C 
ATOM     14  C   UNL     1     132.059 124.743 142.608  1.00  0.00     0.009 C 
ATOM     15  C   UNL     1     132.434 125.035 141.162  1.00  0.00     0.021 C 
ATOM     16  C   UNL     1     134.363 124.674 139.570  1.00  0.00     0.008 C 
ATOM     17  C   UNL     1     134.765 125.900 141.789  1.00  0.00     0.012 C 
ATOM     18  C   UNL     1     132.068 126.363 140.528  1.00  0.00    -0.067 C 
ATOM     19  C   UNL     1     133.405 125.409 138.589  1.00  0.00     0.009 C 
ATOM     20  C   UNL     1     132.756 126.689 139.197  1.00  0.00     0.021 C 
ATOM     21  C   UNL     1     131.093 127.153 141.034  1.00  0.00    -0.027 C 
ATOM     22  C   UNL     1     131.799 127.468 138.228  1.00  0.00    -0.023 C 
ATOM     23  C   UNL     1     130.498 128.321 140.281  1.00  0.00     0.031 C 
ATOM     24  C   UNL     1     131.305 128.720 139.030  1.00  0.00     0.002 C 
ATOM     25  C   UNL     1     132.585 127.961 136.973  1.00  0.00     0.010 C 
ATOM     26  C   UNL     1     130.618 126.557 137.777  1.00  0.00     0.012 C 
ATOM     27  C   UNL     1     130.529 129.735 138.164  1.00  0.00     0.036 C 
ATOM     28  C   UNL     1     131.797 128.970 136.124  1.00  0.00     0.032 C 
ATOM     29  C   UNL     1     131.364 130.182 136.954  1.00  0.00     0.114 C 
BRANCH  29  30
ATOM     30  O   UNL     1     130.612 131.048 136.144  1.00  0.00    -0.393 OA
ATOM     31  H   UNL     1     131.023 131.018 135.240  1.00  0.00     0.210 HD
ENDBRANCH  29  30
ENDBRANCH   1  11
TORSDOF 6
ENDMDL
MODEL 3
REMARK VINA RESULT:     6.308      3.054      5.739
REMARK INTER + INTRA:           7.712
REMARK INTER:                   7.563
REMARK INTRA:                   0.150
REMARK UNBOUND:                -0.624
REMARK SMILES CC[C@@H](C=C[C@@H](C)[C@H]1CC[C@H]2C3=CC[C@@H]4C[C@H](O)CC[C@@]4(C)[C@@H]3CC[C@]12C)C(C)C
REMARK SMILES IDX 6 1 7 2 5 3 4 4 3 5 2 6 1 7 28 8 29 9 30 10 8 11 9 12 26 13
REMARK SMILES IDX 10 14 11 15 25 16 27 17 12 18 24 19 23 20 13 21 21 22 14 23
REMARK SMILES IDX 15 24 20 25 22 26 16 27 19 28 17 29 18 30
REMARK H PARENT 18 31
REMARK Flexibility Score: inf
ROOT
ATOM      1  C   UNL     1     134.850 123.731 137.826  1.00  0.00     0.012 C 
ATOM      2  C   UNL     1     136.202 123.997 137.143  1.00  0.00     0.012 C 
ENDROOT
BRANCH   1   3
ATOM      3  C   UNL     1     134.043 125.012 137.754  1.00  0.00    -0.028 C 
ATOM      4  C   UNL     1     132.726 125.015 137.482  1.00  0.00    -0.027 C 
BRANCH   4   5
ATOM      5  C   UNL     1     131.963 126.313 137.295  1.00  0.00     0.014 C 
BRANCH   5   6
ATOM      6  C   UNL     1     132.915 127.528 137.409  1.00  0.00     0.004 C 
ATOM      7  C   UNL     1     132.228 128.843 137.038  1.00  0.00     0.004 C 
ENDBRANCH   5   6
BRANCH   5   8
ATOM      8  C   UNL     1     130.755 126.371 138.287  1.00  0.00    -0.011 C 
ATOM      9  C   UNL     1     129.452 126.755 137.569  1.00  0.00     0.008 C 
ATOM     10  C   UNL     1     130.995 127.304 139.489  1.00  0.00     0.008 C 
ENDBRANCH   5   8
ENDBRANCH   4   5
ENDBRANCH   1   3
BRANCH   1  11
ATOM     11  C   UNL     1     135.007 123.272 139.310  1.00  0.00     0.002 C 
ATOM     12  C   UNL     1     136.000 122.089 139.463  1.00  0.00     0.005 C 
ATOM     13  C   UNL     1     135.506 124.323 140.350  1.00  0.00    -0.023 C 
ATOM     14  C   UNL     1     136.716 122.266 140.810  1.00  0.00     0.009 C 
ATOM     15  C   UNL     1     135.949 123.391 141.491  1.00  0.00     0.021 C 
ATOM     16  C   UNL     1     134.403 125.297 140.889  1.00  0.00     0.008 C 
ATOM     17  C   UNL     1     136.713 125.141 139.780  1.00  0.00     0.012 C 
ATOM     18  C   UNL     1     136.580 124.170 142.629  1.00  0.00    -0.067 C 
ATOM     19  C   UNL     1     134.438 125.522 142.428  1.00  0.00     0.009 C 
ATOM     20  C   UNL     1     135.875 125.471 143.030  1.00  0.00     0.021 C 
ATOM     21  C   UNL     1     137.623 123.681 143.338  1.00  0.00    -0.027 C 
ATOM     22  C   UNL     1     135.951 125.714 144.578  1.00  0.00    -0.023 C 
ATOM     23  C   UNL     1     138.086 124.276 144.649  1.00  0.00     0.031 C 
ATOM     24  C   UNL     1     137.472 125.658 144.946  1.00  0.00     0.002 C 
ATOM     25  C   UNL     1     135.408 127.135 144.929  1.00  0.00     0.010 C 
ATOM     26  C   UNL     1     135.123 124.639 145.343  1.00  0.00     0.012 C 
ATOM     27  C   UNL     1     137.770 126.102 146.394  1.00  0.00     0.036 C 
ATOM     28  C   UNL     1     135.713 127.560 146.373  1.00  0.00     0.032 C 
ATOM     29  C   UNL     1     137.215 127.510 146.666  1.00  0.00     0.114 C 
BRANCH  29  30
ATOM     30  O   UNL     1     137.434 127.863 148.007  1.00  0.00    -0.393 OA
ATOM     31  H   UNL     1     136.631 127.569 148.512  1.00  0.00     0.210 HD
ENDBRANCH  29  30
ENDBRANCH   1  11
TORSDOF 6
ENDMDL
MODEL 4
REMARK VINA RESULT:     6.662      2.894      8.271
REMARK INTER + INTRA:           8.180
REMARK INTER:                   8.209
REMARK INTRA:                  -0.029
REMARK UNBOUND:                -0.624
REMARK SMILES CC[C@@H](C=C[C@@H](C)[C@H]1CC[C@H]2C3=CC[C@@H]4C[C@H](O)CC[C@@]4(C)[C@@H]3CC[C@]12C)C(C)C
REMARK SMILES IDX 6 1 7 2 5 3 4 4 3 5 2 6 1 7 28 8 29 9 30 10 8 11 9 12 26 13
REMARK SMILES IDX 10 14 11 15 25 16 27 17 12 18 24 19 23 20 13 21 21 22 14 23
REMARK SMILES IDX 15 24 20 25 22 26 16 27 19 28 17 29 18 30
REMARK H PARENT 18 31
REMARK Flexibility Score: inf
ROOT
ATOM      1  C   UNL     1     135.463 123.031 142.438  1.00  0.00     0.012 C 
ATOM      2  C   UNL     1     135.978 123.983 143.530  1.00  0.00     0.012 C 
ENDROOT
BRANCH   1   3
ATOM      3  C   UNL     1     136.488 123.021 141.322  1.00  0.00    -0.028 C 
ATOM      4  C   UNL     1     137.351 124.034 141.133  1.00  0.00    -0.027 C 
BRANCH   4   5
ATOM      5  C   UNL     1     138.286 124.062 139.939  1.00  0.00     0.014 C 
BRANCH   5   6
ATOM      6  C   UNL     1     137.759 123.142 138.811  1.00  0.00     0.004 C 
ATOM      7  C   UNL     1     137.030 123.923 137.716  1.00  0.00     0.004 C 
ENDBRANCH   5   6
BRANCH   5   8
ATOM      8  C   UNL     1     139.744 123.720 140.392  1.00  0.00    -0.011 C 
ATOM      9  C   UNL     1     140.053 122.225 140.223  1.00  0.00     0.008 C 
ATOM     10  C   UNL     1     140.058 124.170 141.831  1.00  0.00     0.008 C 
ENDBRANCH   5   8
ENDBRANCH   4   5
ENDBRANCH   1   3
BRANCH   1  11
ATOM     11  C   UNL     1     134.065 123.452 141.885  1.00  0.00     0.002 C 
ATOM     12  C   UNL     1     133.005 123.607 143.009  1.00  0.00     0.005 C 
ATOM     13  C   UNL     1     133.969 124.788 141.086  1.00  0.00    -0.023 C 
ATOM     14  C   UNL     1     132.060 124.743 142.591  1.00  0.00     0.009 C 
ATOM     15  C   UNL     1     132.451 125.038 141.149  1.00  0.00     0.021 C 
ATOM     16  C   UNL     1     134.405 124.694 139.584  1.00  0.00     0.008 C 
ATOM     17  C   UNL     1     134.764 125.928 141.807  1.00  0.00     0.012 C 
ATOM     18  C   UNL     1     132.080 126.361 140.509  1.00  0.00    -0.067 C 
ATOM     19  C   UNL     1     133.453 125.418 138.589  1.00  0.00     0.009 C 
ATOM     20  C   UNL     1     132.782 126.693 139.187  1.00  0.00     0.021 C 
ATOM     21  C   UNL     1     131.090 127.141 141.001  1.00  0.00    -0.027 C 
ATOM     22  C   UNL     1     131.830 127.460 138.205  1.00  0.00    -0.023 C 
ATOM     23  C   UNL     1     130.492 128.302 140.239  1.00  0.00     0.031 C 
ATOM     24  C   UNL     1     131.313 128.707 138.998  1.00  0.00     0.002 C 
ATOM     25  C   UNL     1     132.628 127.960 136.960  1.00  0.00     0.010 C 
ATOM     26  C   UNL     1     130.665 126.537 137.739  1.00  0.00     0.012 C 
ATOM     27  C   UNL     1     130.537 129.713 138.121  1.00  0.00     0.036 C 
ATOM     28  C   UNL     1     131.841 128.960 136.099  1.00  0.00     0.032 C 
ATOM     29  C   UNL     1     131.384 130.168 136.921  1.00  0.00     0.114 C 
BRANCH  29  30
ATOM     30  O   UNL     1     130.634 131.026 136.100  1.00  0.00    -0.393 OA
ATOM     31  H   UNL     1     131.220 131.270 135.336  1.00  0.00     0.210 HD
ENDBRANCH  29  30
ENDBRANCH   1  11
TORSDOF 6
ENDMDL
MODEL 5
REMARK VINA RESULT:     7.131      3.424      9.419
REMARK INTER + INTRA:           8.800
REMARK INTER:                   9.257
REMARK INTRA:                  -0.457
REMARK UNBOUND:                -0.624
REMARK SMILES CC[C@@H](C=C[C@@H](C)[C@H]1CC[C@H]2C3=CC[C@@H]4C[C@H](O)CC[C@@]4(C)[C@@H]3CC[C@]12C)C(C)C
REMARK SMILES IDX 6 1 7 2 5 3 4 4 3 5 2 6 1 7 28 8 29 9 30 10 8 11 9 12 26 13
REMARK SMILES IDX 10 14 11 15 25 16 27 17 12 18 24 19 23 20 13 21 21 22 14 23
REMARK SMILES IDX 15 24 20 25 22 26 16 27 19 28 17 29 18 30
REMARK H PARENT 18 31
REMARK Flexibility Score: inf
ROOT
ATOM      1  C   UNL     1     140.111 123.549 140.158  1.00  0.00     0.012 C 
ATOM      2  C   UNL     1     140.946 122.374 139.622  1.00  0.00     0.012 C 
ENDROOT
BRANCH   1   3
ATOM      3  C   UNL     1     140.664 123.917 141.520  1.00  0.00    -0.028 C 
ATOM      4  C   UNL     1     141.533 124.929 141.690  1.00  0.00    -0.027 C 
BRANCH   4   5
ATOM      5  C   UNL     1     142.167 125.204 143.041  1.00  0.00     0.014 C 
BRANCH   5   6
ATOM      6  C   UNL     1     142.035 126.701 143.411  1.00  0.00     0.004 C 
ATOM      7  C   UNL     1     142.048 126.930 144.924  1.00  0.00     0.004 C 
ENDBRANCH   5   6
BRANCH   5   8
ATOM      8  C   UNL     1     143.643 124.686 143.055  1.00  0.00    -0.011 C 
ATOM      9  C   UNL     1     144.535 125.544 143.966  1.00  0.00     0.008 C 
ATOM     10  C   UNL     1     144.266 124.575 141.651  1.00  0.00     0.008 C 
ENDBRANCH   5   8
ENDBRANCH   4   5
ENDBRANCH   1   3
BRANCH   1  11
ATOM     11  C   UNL     1     138.591 123.205 140.265  1.00  0.00     0.002 C 
ATOM     12  C   UNL     1     138.157 122.891 141.722  1.00  0.00     0.005 C 
ATOM     13  C   UNL     1     137.565 124.277 139.785  1.00  0.00    -0.023 C 
ATOM     14  C   UNL     1     136.716 123.399 141.887  1.00  0.00     0.009 C 
ATOM     15  C   UNL     1     136.288 123.762 140.472  1.00  0.00     0.021 C 
ATOM     16  C   UNL     1     137.326 124.320 138.237  1.00  0.00     0.008 C 
ATOM     17  C   UNL     1     137.959 125.699 140.308  1.00  0.00     0.012 C 
ATOM     18  C   UNL     1     135.118 124.698 140.241  1.00  0.00    -0.067 C 
ATOM     19  C   UNL     1     135.832 124.430 137.817  1.00  0.00     0.009 C 
ATOM     20  C   UNL     1     134.965 125.252 138.820  1.00  0.00     0.021 C 
ATOM     21  C   UNL     1     134.185 124.926 141.194  1.00  0.00    -0.027 C 
ATOM     22  C   UNL     1     133.456 125.401 138.418  1.00  0.00    -0.023 C 
ATOM     23  C   UNL     1     132.863 125.604 140.916  1.00  0.00     0.031 C 
ATOM     24  C   UNL     1     132.802 126.284 139.534  1.00  0.00     0.002 C 
ATOM     25  C   UNL     1     133.332 126.152 137.055  1.00  0.00     0.010 C 
ATOM     26  C   UNL     1     132.779 124.003 138.304  1.00  0.00     0.012 C 
ATOM     27  C   UNL     1     131.365 126.734 139.195  1.00  0.00     0.036 C 
ATOM     28  C   UNL     1     131.895 126.592 136.736  1.00  0.00     0.032 C 
ATOM     29  C   UNL     1     131.319 127.472 137.848  1.00  0.00     0.114 C 
BRANCH  29  30
ATOM     30  O   UNL     1     129.994 127.808 137.528  1.00  0.00    -0.393 OA
ATOM     31  H   UNL     1     129.903 127.696 136.545  1.00  0.00     0.210 HD
ENDBRANCH  29  30
ENDBRANCH   1  11
TORSDOF 6
ENDMDL
