MODEL 1
REMARK VINA RESULT:    -4.580      0.000      0.000
REMARK INTER + INTRA:         -11.529
REMARK INTER:                  -8.865
REMARK INTRA:                  -2.665
REMARK UNBOUND:                -2.665
REMARK SMILES CCCCCCCCCCCCCCCCCC(=O)[O-]
REMARK SMILES IDX 10 1 11 2 12 3 13 4 14 5 15 6 16 7 17 8 18 9 19 10 20 11
REMARK SMILES IDX 9 12 8 13 7 14 6 15 5 16 4 17 3 18 2 19 1 20
REMARK H PARENT
REMARK Flexibility Score: inf
ROOT
ATOM      1  C   UNL     1      18.097  15.868  35.882  1.00  0.00     0.000 C 
ENDROOT
BRANCH   1   2
ATOM      2  C   UNL     1      16.868  15.769  34.958  1.00  0.00     0.000 C 
BRANCH   2   3
ATOM      3  C   UNL     1      17.008  16.486  33.600  1.00  0.00     0.000 C 
BRANCH   3   4
ATOM      4  C   UNL     1      16.292  17.846  33.507  1.00  0.00     0.000 C 
BRANCH   4   5
ATOM      5  C   UNL     1      16.189  18.369  32.067  1.00  0.00     0.000 C 
BRANCH   5   6
ATOM      6  C   UNL     1      14.787  18.932  31.787  1.00  0.00     0.000 C 
BRANCH   6   7
ATOM      7  C   UNL     1      14.011  18.098  30.755  1.00  0.00     0.006 C 
BRANCH   7   8
ATOM      8  C   UNL     1      13.037  17.107  31.407  1.00  0.00     0.053 C 
BRANCH   8   9
ATOM      9  C   UNL     1      13.729  15.813  31.698  1.00  0.00     0.041 C 
ATOM     10  O   UNL     1      13.436  15.159  32.735  1.00  0.00    -0.550 OA
ATOM     11  O   UNL     1      14.735  15.355  30.857  1.00  0.00    -0.550 OA
ENDBRANCH   8   9
ENDBRANCH   7   8
ENDBRANCH   6   7
ENDBRANCH   5   6
ENDBRANCH   4   5
ENDBRANCH   3   4
ENDBRANCH   2   3
ENDBRANCH   1   2
BRANCH   1  12
ATOM     12  C   UNL     1      19.431  16.134  35.162  1.00  0.00     0.000 C 
BRANCH  12  13
ATOM     13  C   UNL     1      20.392  17.000  35.991  1.00  0.00    -0.000 C 
BRANCH  13  14
ATOM     14  C   UNL     1      20.981  18.133  35.144  1.00  0.00    -0.000 C 
BRANCH  14  15
ATOM     15  C   UNL     1      20.205  18.301  33.832  1.00  0.00    -0.000 C 
BRANCH  15  16
ATOM     16  C   UNL     1      19.513  19.671  33.772  1.00  0.00    -0.000 C 
BRANCH  16  17
ATOM     17  C   UNL     1      19.203  20.247  35.166  1.00  0.00    -0.000 C 
BRANCH  17  18
ATOM     18  C   UNL     1      17.856  19.807  35.766  1.00  0.00    -0.000 C 
BRANCH  18  19
ATOM     19  C   UNL     1      17.909  19.629  37.291  1.00  0.00    -0.003 C 
ATOM     20  C   UNL     1      19.250  20.093  37.850  1.00  0.00     0.004 C 
ENDBRANCH  18  19
ENDBRANCH  17  18
ENDBRANCH  16  17
ENDBRANCH  15  16
ENDBRANCH  14  15
ENDBRANCH  13  14
ENDBRANCH  12  13
ENDBRANCH   1  12
TORSDOF 16
ENDMDL
MODEL 2
REMARK VINA RESULT:    -4.508      2.135      5.891
REMARK INTER + INTRA:         -11.389
REMARK INTER:                  -9.050
REMARK INTRA:                  -2.339
REMARK UNBOUND:                -2.665
REMARK SMILES CCCCCCCCCCCCCCCCCC(=O)[O-]
REMARK SMILES IDX 10 1 11 2 12 3 13 4 14 5 15 6 16 7 17 8 18 9 19 10 20 11
REMARK SMILES IDX 9 12 8 13 7 14 6 15 5 16 4 17 3 18 2 19 1 20
REMARK H PARENT
REMARK Flexibility Score: inf
ROOT
ATOM      1  C   UNL     1      18.850  20.248  34.631  1.00  0.00     0.000 C 
ENDROOT
BRANCH   1   2
ATOM      2  C   UNL     1      20.063  20.090  35.569  1.00  0.00     0.000 C 
BRANCH   2   3
ATOM      3  C   UNL     1      20.977  18.886  35.264  1.00  0.00     0.000 C 
BRANCH   3   4
ATOM      4  C   UNL     1      20.693  17.627  36.102  1.00  0.00     0.000 C 
BRANCH   4   5
ATOM      5  C   UNL     1      19.973  16.530  35.306  1.00  0.00     0.000 C 
BRANCH   5   6
ATOM      6  C   UNL     1      18.699  16.071  36.033  1.00  0.00     0.000 C 
BRANCH   6   7
ATOM      7  C   UNL     1      17.754  17.237  36.363  1.00  0.00     0.006 C 
BRANCH   7   8
ATOM      8  C   UNL     1      16.311  16.977  35.912  1.00  0.00     0.053 C 
BRANCH   8   9
ATOM      9  C   UNL     1      15.500  16.439  37.049  1.00  0.00     0.041 C 
ATOM     10  O   UNL     1      15.533  17.006  38.174  1.00  0.00    -0.550 OA
ATOM     11  O   UNL     1      14.749  15.282  36.883  1.00  0.00    -0.550 OA
ENDBRANCH   8   9
ENDBRANCH   7   8
ENDBRANCH   6   7
ENDBRANCH   5   6
ENDBRANCH   4   5
ENDBRANCH   3   4
ENDBRANCH   2   3
ENDBRANCH   1   2
BRANCH   1  12
ATOM     12  C   UNL     1      18.915  19.412  33.340  1.00  0.00     0.000 C 
BRANCH  12  13
ATOM     13  C   UNL     1      17.551  18.831  32.938  1.00  0.00    -0.000 C 
BRANCH  13  14
ATOM     14  C   UNL     1      17.688  17.372  32.486  1.00  0.00    -0.000 C 
BRANCH  14  15
ATOM     15  C   UNL     1      17.080  17.168  31.093  1.00  0.00    -0.000 C 
BRANCH  15  16
ATOM     16  C   UNL     1      16.505  18.482  30.545  1.00  0.00    -0.000 C 
BRANCH  16  17
ATOM     17  C   UNL     1      14.993  18.405  30.266  1.00  0.00    -0.000 C 
BRANCH  17  18
ATOM     18  C   UNL     1      14.093  18.618  31.496  1.00  0.00    -0.000 C 
BRANCH  18  19
ATOM     19  C   UNL     1      12.854  17.710  31.495  1.00  0.00    -0.003 C 
ATOM     20  C   UNL     1      13.006  16.576  30.486  1.00  0.00     0.004 C 
ENDBRANCH  18  19
ENDBRANCH  17  18
ENDBRANCH  16  17
ENDBRANCH  15  16
ENDBRANCH  14  15
ENDBRANCH  13  14
ENDBRANCH  12  13
ENDBRANCH   1  12
TORSDOF 16
ENDMDL
MODEL 3
REMARK VINA RESULT:    -4.474      2.264      5.821
REMARK INTER + INTRA:         -11.324
REMARK INTER:                  -8.877
REMARK INTRA:                  -2.447
REMARK UNBOUND:                -2.665
REMARK SMILES CCCCCCCCCCCCCCCCCC(=O)[O-]
REMARK SMILES IDX 10 1 11 2 12 3 13 4 14 5 15 6 16 7 17 8 18 9 19 10 20 11
REMARK SMILES IDX 9 12 8 13 7 14 6 15 5 16 4 17 3 18 2 19 1 20
REMARK H PARENT
REMARK Flexibility Score: inf
ROOT
ATOM      1  C   UNL     1      19.365  20.143  35.606  1.00  0.00     0.000 C 
ENDROOT
BRANCH   1   2
ATOM      2  C   UNL     1      20.623  19.263  35.468  1.00  0.00     0.000 C 
BRANCH   2   3
ATOM      3  C   UNL     1      20.793  18.186  36.559  1.00  0.00     0.000 C 
BRANCH   3   4
ATOM      4  C   UNL     1      20.576  16.739  36.081  1.00  0.00     0.000 C 
BRANCH   4   5
ATOM      5  C   UNL     1      19.874  16.659  34.718  1.00  0.00     0.000 C 
BRANCH   5   6
ATOM      6  C   UNL     1      18.544  15.897  34.830  1.00  0.00     0.000 C 
BRANCH   6   7
ATOM      7  C   UNL     1      17.917  16.005  36.229  1.00  0.00     0.006 C 
BRANCH   7   8
ATOM      8  C   UNL     1      16.788  17.042  36.293  1.00  0.00     0.053 C 
BRANCH   8   9
ATOM      9  C   UNL     1      15.614  16.489  37.038  1.00  0.00     0.041 C 
ATOM     10  O   UNL     1      15.341  16.911  38.193  1.00  0.00    -0.550 OA
ATOM     11  O   UNL     1      14.853  15.469  36.480  1.00  0.00    -0.550 OA
ENDBRANCH   8   9
ENDBRANCH   7   8
ENDBRANCH   6   7
ENDBRANCH   5   6
ENDBRANCH   4   5
ENDBRANCH   3   4
ENDBRANCH   2   3
ENDBRANCH   1   2
BRANCH   1  12
ATOM     12  C   UNL     1      18.364  20.032  34.441  1.00  0.00     0.000 C 
BRANCH  12  13
ATOM     13  C   UNL     1      19.035  19.643  33.116  1.00  0.00    -0.000 C 
BRANCH  13  14
ATOM     14  C   UNL     1      18.063  18.876  32.212  1.00  0.00    -0.000 C 
BRANCH  14  15
ATOM     15  C   UNL     1      16.756  18.562  32.950  1.00  0.00    -0.000 C 
BRANCH  15  16
ATOM     16  C   UNL     1      15.785  17.788  32.047  1.00  0.00    -0.000 C 
BRANCH  16  17
ATOM     17  C   UNL     1      15.212  18.649  30.906  1.00  0.00    -0.000 C 
BRANCH  17  18
ATOM     18  C   UNL     1      15.214  17.978  29.521  1.00  0.00    -0.000 C 
BRANCH  18  19
ATOM     19  C   UNL     1      16.575  18.067  28.815  1.00  0.00    -0.003 C 
ATOM     20  C   UNL     1      17.064  19.511  28.750  1.00  0.00     0.004 C 
ENDBRANCH  18  19
ENDBRANCH  17  18
ENDBRANCH  16  17
ENDBRANCH  15  16
ENDBRANCH  14  15
ENDBRANCH  13  14
ENDBRANCH  12  13
ENDBRANCH   1  12
TORSDOF 16
ENDMDL
MODEL 4
REMARK VINA RESULT:    -4.431      1.208      2.512
REMARK INTER + INTRA:         -11.240
REMARK INTER:                  -8.505
REMARK INTRA:                  -2.735
REMARK UNBOUND:                -2.665
REMARK SMILES CCCCCCCCCCCCCCCCCC(=O)[O-]
REMARK SMILES IDX 10 1 11 2 12 3 13 4 14 5 15 6 16 7 17 8 18 9 19 10 20 11
REMARK SMILES IDX 9 12 8 13 7 14 6 15 5 16 4 17 3 18 2 19 1 20
REMARK H PARENT
REMARK Flexibility Score: inf
ROOT
ATOM      1  C   UNL     1      19.392  16.929  32.189  1.00  0.00     0.000 C 
ENDROOT
BRANCH   1   2
ATOM      2  C   UNL     1      17.930  16.553  31.877  1.00  0.00     0.000 C 
BRANCH   2   3
ATOM      3  C   UNL     1      17.386  17.086  30.536  1.00  0.00     0.000 C 
BRANCH   3   4
ATOM      4  C   UNL     1      16.537  18.365  30.643  1.00  0.00     0.000 C 
BRANCH   4   5
ATOM      5  C   UNL     1      16.151  18.707  32.089  1.00  0.00     0.000 C 
BRANCH   5   6
ATOM      6  C   UNL     1      14.625  18.686  32.269  1.00  0.00     0.000 C 
BRANCH   6   7
ATOM      7  C   UNL     1      13.882  18.303  30.980  1.00  0.00     0.006 C 
BRANCH   7   8
ATOM      8  C   UNL     1      12.859  17.180  31.197  1.00  0.00     0.053 C 
BRANCH   8   9
ATOM      9  C   UNL     1      13.556  15.876  31.423  1.00  0.00     0.041 C 
ATOM     10  O   UNL     1      13.487  15.308  32.545  1.00  0.00    -0.550 OA
ATOM     11  O   UNL     1      14.327  15.314  30.413  1.00  0.00    -0.550 OA
ENDBRANCH   8   9
ENDBRANCH   7   8
ENDBRANCH   6   7
ENDBRANCH   5   6
ENDBRANCH   4   5
ENDBRANCH   3   4
ENDBRANCH   2   3
ENDBRANCH   1   2
BRANCH   1  12
ATOM     12  C   UNL     1      19.730  17.032  33.687  1.00  0.00     0.000 C 
BRANCH  12  13
ATOM     13  C   UNL     1      20.304  18.404  34.074  1.00  0.00    -0.000 C 
BRANCH  13  14
ATOM     14  C   UNL     1      19.581  19.532  33.329  1.00  0.00    -0.000 C 
BRANCH  14  15
ATOM     15  C   UNL     1      18.612  20.273  34.257  1.00  0.00    -0.000 C 
BRANCH  15  16
ATOM     16  C   UNL     1      18.878  19.919  35.728  1.00  0.00    -0.000 C 
BRANCH  16  17
ATOM     17  C   UNL     1      17.638  19.354  36.443  1.00  0.00    -0.000 C 
BRANCH  17  18
ATOM     18  C   UNL     1      17.556  17.818  36.490  1.00  0.00    -0.000 C 
BRANCH  18  19
ATOM     19  C   UNL     1      16.589  17.239  35.448  1.00  0.00    -0.003 C 
ATOM     20  C   UNL     1      16.644  15.714  35.435  1.00  0.00     0.004 C 
ENDBRANCH  18  19
ENDBRANCH  17  18
ENDBRANCH  16  17
ENDBRANCH  15  16
ENDBRANCH  14  15
ENDBRANCH  13  14
ENDBRANCH  12  13
ENDBRANCH   1  12
TORSDOF 16
ENDMDL
MODEL 5
REMARK VINA RESULT:    -4.424      2.010      5.608
REMARK INTER + INTRA:         -11.227
REMARK INTER:                  -8.942
REMARK INTRA:                  -2.286
REMARK UNBOUND:                -2.665
REMARK SMILES CCCCCCCCCCCCCCCCCC(=O)[O-]
REMARK SMILES IDX 10 1 11 2 12 3 13 4 14 5 15 6 16 7 17 8 18 9 19 10 20 11
REMARK SMILES IDX 9 12 8 13 7 14 6 15 5 16 4 17 3 18 2 19 1 20
REMARK H PARENT
REMARK Flexibility Score: inf
ROOT
ATOM      1  C   UNL     1      19.542  20.297  34.998  1.00  0.00     0.000 C 
ENDROOT
BRANCH   1   2
ATOM      2  C   UNL     1      20.706  19.427  35.514  1.00  0.00     0.000 C 
BRANCH   2   3
ATOM      3  C   UNL     1      20.286  18.165  36.294  1.00  0.00     0.000 C 
BRANCH   3   4
ATOM      4  C   UNL     1      20.529  16.836  35.557  1.00  0.00     0.000 C 
BRANCH   4   5
ATOM      5  C   UNL     1      19.387  15.829  35.749  1.00  0.00     0.000 C 
BRANCH   5   6
ATOM      6  C   UNL     1      18.446  15.828  34.534  1.00  0.00     0.000 C 
BRANCH   6   7
ATOM      7  C   UNL     1      16.967  15.951  34.931  1.00  0.00     0.006 C 
BRANCH   7   8
ATOM      8  C   UNL     1      16.778  16.458  36.366  1.00  0.00     0.053 C 
BRANCH   8   9
ATOM      9  C   UNL     1      15.512  15.915  36.949  1.00  0.00     0.041 C 
ATOM     10  O   UNL     1      14.760  15.181  36.254  1.00  0.00    -0.550 OA
ATOM     11  O   UNL     1      15.134  16.262  38.240  1.00  0.00    -0.550 OA
ENDBRANCH   8   9
ENDBRANCH   7   8
ENDBRANCH   6   7
ENDBRANCH   5   6
ENDBRANCH   4   5
ENDBRANCH   3   4
ENDBRANCH   2   3
ENDBRANCH   1   2
BRANCH   1  12
ATOM     12  C   UNL     1      18.148  19.657  35.125  1.00  0.00     0.000 C 
BRANCH  12  13
ATOM     13  C   UNL     1      17.440  19.501  33.770  1.00  0.00    -0.000 C 
BRANCH  13  14
ATOM     14  C   UNL     1      18.440  19.135  32.667  1.00  0.00    -0.000 C 
BRANCH  14  15
ATOM     15  C   UNL     1      17.858  18.073  31.726  1.00  0.00    -0.000 C 
BRANCH  15  16
ATOM     16  C   UNL     1      17.067  18.724  30.582  1.00  0.00    -0.000 C 
BRANCH  16  17
ATOM     17  C   UNL     1      15.634  18.175  30.456  1.00  0.00    -0.000 C 
BRANCH  17  18
ATOM     18  C   UNL     1      14.756  18.357  31.707  1.00  0.00    -0.000 C 
BRANCH  18  19
ATOM     19  C   UNL     1      13.275  18.042  31.449  1.00  0.00    -0.003 C 
ATOM     20  C   UNL     1      13.123  16.948  30.396  1.00  0.00     0.004 C 
ENDBRANCH  18  19
ENDBRANCH  17  18
ENDBRANCH  16  17
ENDBRANCH  15  16
ENDBRANCH  14  15
ENDBRANCH  13  14
ENDBRANCH  12  13
ENDBRANCH   1  12
TORSDOF 16
ENDMDL
MODEL 6
REMARK VINA RESULT:    -4.407      1.429      3.700
REMARK INTER + INTRA:         -11.194
REMARK INTER:                  -8.635
REMARK INTRA:                  -2.559
REMARK UNBOUND:                -2.665
REMARK SMILES CCCCCCCCCCCCCCCCCC(=O)[O-]
REMARK SMILES IDX 10 1 11 2 12 3 13 4 14 5 15 6 16 7 17 8 18 9 19 10 20 11
REMARK SMILES IDX 9 12 8 13 7 14 6 15 5 16 4 17 3 18 2 19 1 20
REMARK H PARENT
REMARK Flexibility Score: inf
ROOT
ATOM      1  C   UNL     1      19.897  19.631  34.097  1.00  0.00     0.000 C 
ENDROOT
BRANCH   1   2
ATOM      2  C   UNL     1      18.638  19.761  33.217  1.00  0.00     0.000 C 
BRANCH   2   3
ATOM      3  C   UNL     1      18.549  18.761  32.047  1.00  0.00     0.000 C 
BRANCH   3   4
ATOM      4  C   UNL     1      17.121  18.322  31.675  1.00  0.00     0.000 C 
BRANCH   4   5
ATOM      5  C   UNL     1      16.109  18.566  32.804  1.00  0.00     0.000 C 
BRANCH   5   6
ATOM      6  C   UNL     1      14.744  18.983  32.235  1.00  0.00     0.000 C 
BRANCH   6   7
ATOM      7  C   UNL     1      14.391  18.239  30.938  1.00  0.00     0.006 C 
BRANCH   7   8
ATOM      8  C   UNL     1      13.175  17.317  31.096  1.00  0.00     0.053 C 
BRANCH   8   9
ATOM      9  C   UNL     1      13.617  15.901  31.287  1.00  0.00     0.041 C 
ATOM     10  O   UNL     1      13.914  15.479  32.437  1.00  0.00    -0.550 OA
ATOM     11  O   UNL     1      13.755  15.060  30.189  1.00  0.00    -0.550 OA
ENDBRANCH   8   9
ENDBRANCH   7   8
ENDBRANCH   6   7
ENDBRANCH   5   6
ENDBRANCH   4   5
ENDBRANCH   3   4
ENDBRANCH   2   3
ENDBRANCH   1   2
BRANCH   1  12
ATOM     12  C   UNL     1      19.780  20.265  35.496  1.00  0.00     0.000 C 
BRANCH  12  13
ATOM     13  C   UNL     1      19.358  19.255  36.573  1.00  0.00    -0.000 C 
BRANCH  13  14
ATOM     14  C   UNL     1      17.833  19.212  36.720  1.00  0.00    -0.000 C 
BRANCH  14  15
ATOM     15  C   UNL     1      17.279  17.839  36.319  1.00  0.00    -0.000 C 
BRANCH  15  16
ATOM     16  C   UNL     1      18.415  16.832  36.092  1.00  0.00    -0.000 C 
BRANCH  16  17
ATOM     17  C   UNL     1      18.348  16.152  34.712  1.00  0.00    -0.000 C 
BRANCH  17  18
ATOM     18  C   UNL     1      19.712  15.884  34.053  1.00  0.00    -0.000 C 
BRANCH  18  19
ATOM     19  C   UNL     1      19.662  14.754  33.014  1.00  0.00    -0.003 C 
ATOM     20  C   UNL     1      19.637  15.314  31.595  1.00  0.00     0.004 C 
ENDBRANCH  18  19
ENDBRANCH  17  18
ENDBRANCH  16  17
ENDBRANCH  15  16
ENDBRANCH  14  15
ENDBRANCH  13  14
ENDBRANCH  12  13
ENDBRANCH   1  12
TORSDOF 16
ENDMDL
MODEL 7
REMARK VINA RESULT:    -4.330      2.230      6.298
REMARK INTER + INTRA:         -11.046
REMARK INTER:                  -9.067
REMARK INTRA:                  -1.978
REMARK UNBOUND:                -2.665
REMARK SMILES CCCCCCCCCCCCCCCCCC(=O)[O-]
REMARK SMILES IDX 10 1 11 2 12 3 13 4 14 5 15 6 16 7 17 8 18 9 19 10 20 11
REMARK SMILES IDX 9 12 8 13 7 14 6 15 5 16 4 17 3 18 2 19 1 20
REMARK H PARENT
REMARK Flexibility Score: inf
ROOT
ATOM      1  C   UNL     1      19.397  17.473  32.914  1.00  0.00     0.000 C 
ENDROOT
BRANCH   1   2
ATOM      2  C   UNL     1      18.979  18.928  32.624  1.00  0.00     0.000 C 
BRANCH   2   3
ATOM      3  C   UNL     1      19.118  19.900  33.813  1.00  0.00     0.000 C 
BRANCH   3   4
ATOM      4  C   UNL     1      17.931  19.900  34.793  1.00  0.00     0.000 C 
BRANCH   4   5
ATOM      5  C   UNL     1      18.331  19.485  36.215  1.00  0.00     0.000 C 
BRANCH   5   6
ATOM      6  C   UNL     1      18.239  17.961  36.388  1.00  0.00     0.000 C 
BRANCH   6   7
ATOM      7  C   UNL     1      16.788  17.460  36.463  1.00  0.00     0.006 C 
BRANCH   7   8
ATOM      8  C   UNL     1      16.693  15.970  36.816  1.00  0.00     0.053 C 
BRANCH   8   9
ATOM      9  C   UNL     1      15.282  15.603  37.148  1.00  0.00     0.041 C 
ATOM     10  O   UNL     1      14.833  14.468  36.835  1.00  0.00    -0.550 OA
ATOM     11  O   UNL     1      14.444  16.531  37.755  1.00  0.00    -0.550 OA
ENDBRANCH   8   9
ENDBRANCH   7   8
ENDBRANCH   6   7
ENDBRANCH   5   6
ENDBRANCH   4   5
ENDBRANCH   3   4
ENDBRANCH   2   3
ENDBRANCH   1   2
BRANCH   1  12
ATOM     12  C   UNL     1      18.232  16.473  33.030  1.00  0.00     0.000 C 
BRANCH  12  13
ATOM     13  C   UNL     1      17.074  16.796  32.073  1.00  0.00    -0.000 C 
BRANCH  13  14
ATOM     14  C   UNL     1      15.867  17.350  32.839  1.00  0.00    -0.000 C 
BRANCH  14  15
ATOM     15  C   UNL     1      15.445  18.718  32.287  1.00  0.00    -0.000 C 
BRANCH  15  16
ATOM     16  C   UNL     1      14.012  18.672  31.737  1.00  0.00    -0.000 C 
BRANCH  16  17
ATOM     17  C   UNL     1      13.888  17.820  30.460  1.00  0.00    -0.000 C 
BRANCH  17  18
ATOM     18  C   UNL     1      12.997  16.572  30.595  1.00  0.00    -0.000 C 
BRANCH  18  19
ATOM     19  C   UNL     1      12.523  16.026  29.240  1.00  0.00    -0.003 C 
ATOM     20  C   UNL     1      13.317  14.786  28.841  1.00  0.00     0.004 C 
ENDBRANCH  18  19
ENDBRANCH  17  18
ENDBRANCH  16  17
ENDBRANCH  15  16
ENDBRANCH  14  15
ENDBRANCH  13  14
ENDBRANCH  12  13
ENDBRANCH   1  12
TORSDOF 16
ENDMDL
MODEL 8
REMARK VINA RESULT:    -4.324      2.266      5.780
REMARK INTER + INTRA:         -11.033
REMARK INTER:                  -8.093
REMARK INTRA:                  -2.940
REMARK UNBOUND:                -2.665
REMARK SMILES CCCCCCCCCCCCCCCCCC(=O)[O-]
REMARK SMILES IDX 10 1 11 2 12 3 13 4 14 5 15 6 16 7 17 8 18 9 19 10 20 11
REMARK SMILES IDX 9 12 8 13 7 14 6 15 5 16 4 17 3 18 2 19 1 20
REMARK H PARENT
REMARK Flexibility Score: inf
ROOT
ATOM      1  C   UNL     1      17.413  18.831  33.170  1.00  0.00     0.000 C 
ENDROOT
BRANCH   1   2
ATOM      2  C   UNL     1      17.899  19.820  34.247  1.00  0.00     0.000 C 
BRANCH   2   3
ATOM      3  C   UNL     1      19.430  19.951  34.375  1.00  0.00     0.000 C 
BRANCH   3   4
ATOM      4  C   UNL     1      20.092  18.929  35.317  1.00  0.00     0.000 C 
BRANCH   4   5
ATOM      5  C   UNL     1      19.075  18.159  36.172  1.00  0.00     0.000 C 
BRANCH   5   6
ATOM      6  C   UNL     1      19.163  16.649  35.901  1.00  0.00     0.000 C 
BRANCH   6   7
ATOM      7  C   UNL     1      17.840  15.919  36.180  1.00  0.00     0.006 C 
BRANCH   7   8
ATOM      8  C   UNL     1      16.625  16.854  36.124  1.00  0.00     0.053 C 
BRANCH   8   9
ATOM      9  C   UNL     1      15.557  16.377  37.057  1.00  0.00     0.041 C 
ATOM     10  O   UNL     1      14.771  15.459  36.702  1.00  0.00    -0.550 OA
ATOM     11  O   UNL     1      15.394  16.983  38.297  1.00  0.00    -0.550 OA
ENDBRANCH   8   9
ENDBRANCH   7   8
ENDBRANCH   6   7
ENDBRANCH   5   6
ENDBRANCH   4   5
ENDBRANCH   3   4
ENDBRANCH   2   3
ENDBRANCH   1   2
BRANCH   1  12
ATOM     12  C   UNL     1      18.307  18.741  31.919  1.00  0.00     0.000 C 
BRANCH  12  13
ATOM     13  C   UNL     1      18.436  17.308  31.382  1.00  0.00    -0.000 C 
BRANCH  13  14
ATOM     14  C   UNL     1      18.274  16.282  32.510  1.00  0.00    -0.000 C 
BRANCH  14  15
ATOM     15  C   UNL     1      17.201  15.244  32.160  1.00  0.00    -0.000 C 
BRANCH  15  16
ATOM     16  C   UNL     1      15.812  15.711  32.620  1.00  0.00    -0.000 C 
BRANCH  16  17
ATOM     17  C   UNL     1      14.934  16.214  31.459  1.00  0.00    -0.000 C 
BRANCH  17  18
ATOM     18  C   UNL     1      14.108  17.475  31.768  1.00  0.00    -0.000 C 
BRANCH  18  19
ATOM     19  C   UNL     1      14.491  18.672  30.886  1.00  0.00    -0.003 C 
ATOM     20  C   UNL     1      15.256  18.217  29.647  1.00  0.00     0.004 C 
ENDBRANCH  18  19
ENDBRANCH  17  18
ENDBRANCH  16  17
ENDBRANCH  15  16
ENDBRANCH  14  15
ENDBRANCH  13  14
ENDBRANCH  12  13
ENDBRANCH   1  12
TORSDOF 16
ENDMDL
MODEL 9
REMARK VINA RESULT:    -4.263      2.259      5.726
REMARK INTER + INTRA:         -10.915
REMARK INTER:                  -7.944
REMARK INTRA:                  -2.971
REMARK UNBOUND:                -2.665
REMARK SMILES CCCCCCCCCCCCCCCCCC(=O)[O-]
REMARK SMILES IDX 10 1 11 2 12 3 13 4 14 5 15 6 16 7 17 8 18 9 19 10 20 11
REMARK SMILES IDX 9 12 8 13 7 14 6 15 5 16 4 17 3 18 2 19 1 20
REMARK H PARENT
REMARK Flexibility Score: inf
ROOT
ATOM      1  C   UNL     1      18.863  20.185  34.959  1.00  0.00     0.000 C 
ENDROOT
BRANCH   1   2
ATOM      2  C   UNL     1      19.750  19.901  36.187  1.00  0.00     0.000 C 
BRANCH   2   3
ATOM      3  C   UNL     1      21.078  19.178  35.885  1.00  0.00     0.000 C 
BRANCH   3   4
ATOM      4  C   UNL     1      21.122  17.699  36.310  1.00  0.00     0.000 C 
BRANCH   4   5
ATOM      5  C   UNL     1      20.427  16.768  35.308  1.00  0.00     0.000 C 
BRANCH   5   6
ATOM      6  C   UNL     1      19.308  15.965  35.989  1.00  0.00     0.000 C 
BRANCH   6   7
ATOM      7  C   UNL     1      17.919  16.278  35.412  1.00  0.00     0.006 C 
BRANCH   7   8
ATOM      8  C   UNL     1      17.067  17.142  36.352  1.00  0.00     0.053 C 
BRANCH   8   9
ATOM      9  C   UNL     1      15.888  16.366  36.846  1.00  0.00     0.041 C 
ATOM     10  O   UNL     1      15.242  15.624  36.058  1.00  0.00    -0.550 OA
ATOM     11  O   UNL     1      15.467  16.501  38.164  1.00  0.00    -0.550 OA
ENDBRANCH   8   9
ENDBRANCH   7   8
ENDBRANCH   6   7
ENDBRANCH   5   6
ENDBRANCH   4   5
ENDBRANCH   3   4
ENDBRANCH   2   3
ENDBRANCH   1   2
BRANCH   1  12
ATOM     12  C   UNL     1      19.518  19.877  33.600  1.00  0.00     0.000 C 
BRANCH  12  13
ATOM     13  C   UNL     1      18.589  19.099  32.655  1.00  0.00    -0.000 C 
BRANCH  13  14
ATOM     14  C   UNL     1      17.169  19.015  33.227  1.00  0.00    -0.000 C 
BRANCH  14  15
ATOM     15  C   UNL     1      16.206  18.376  32.219  1.00  0.00    -0.000 C 
BRANCH  15  16
ATOM     16  C   UNL     1      15.754  16.987  32.694  1.00  0.00    -0.000 C 
BRANCH  16  17
ATOM     17  C   UNL     1      16.387  15.841  31.884  1.00  0.00    -0.000 C 
BRANCH  17  18
ATOM     18  C   UNL     1      17.235  16.287  30.680  1.00  0.00    -0.000 C 
BRANCH  18  19
ATOM     19  C   UNL     1      18.601  15.588  30.618  1.00  0.00    -0.003 C 
ATOM     20  C   UNL     1      19.262  15.555  31.992  1.00  0.00     0.004 C 
ENDBRANCH  18  19
ENDBRANCH  17  18
ENDBRANCH  16  17
ENDBRANCH  15  16
ENDBRANCH  14  15
ENDBRANCH  13  14
ENDBRANCH  12  13
ENDBRANCH   1  12
TORSDOF 16
ENDMDL
