MODEL 1
REMARK VINA RESULT:    -3.904      0.000      0.000
REMARK INTER + INTRA:          -9.296
REMARK INTER:                  -7.099
REMARK INTRA:                  -2.197
REMARK UNBOUND:                -2.197
REMARK SMILES CCCCCCCCCCCCCCCC(=O)[O-]
REMARK SMILES IDX 9 1 10 2 11 3 12 4 13 5 14 6 15 7 16 8 17 9 18 10 8 11 7 12
REMARK SMILES IDX 6 13 5 14 4 15 3 16 2 17 1 18
REMARK H PARENT
REMARK Flexibility Score: inf
ROOT
ATOM      1  C   UNL     1       1.856  17.902  32.019  1.00  0.00     0.000 C 
ENDROOT
BRANCH   1   2
ATOM      2  C   UNL     1       2.211  16.497  31.502  1.00  0.00     0.000 C 
BRANCH   2   3
ATOM      3  C   UNL     1       0.991  15.565  31.444  1.00  0.00     0.000 C 
BRANCH   3   4
ATOM      4  C   UNL     1       1.285  14.258  30.685  1.00  0.00     0.000 C 
BRANCH   4   5
ATOM      5  C   UNL     1       0.356  14.045  29.478  1.00  0.00     0.000 C 
BRANCH   5   6
ATOM      6  C   UNL     1      -1.057  13.529  29.815  1.00  0.00     0.006 C 
BRANCH   6   7
ATOM      7  C   UNL     1      -1.146  11.999  29.976  1.00  0.00     0.053 C 
BRANCH   7   8
ATOM      8  C   UNL     1      -1.654  11.590  31.327  1.00  0.00     0.041 C 
ATOM      9  O   UNL     1      -2.447  12.335  31.960  1.00  0.00    -0.550 OA
ATOM     10  O   UNL     1      -1.216  10.405  31.905  1.00  0.00    -0.550 OA
ENDBRANCH   7   8
ENDBRANCH   6   7
ENDBRANCH   5   6
ENDBRANCH   4   5
ENDBRANCH   3   4
ENDBRANCH   2   3
ENDBRANCH   1   2
BRANCH   1  11
ATOM     11  C   UNL     1       2.721  19.010  31.391  1.00  0.00     0.000 C 
BRANCH  11  12
ATOM     12  C   UNL     1       3.483  18.598  30.116  1.00  0.00    -0.000 C 
BRANCH  12  13
ATOM     13  C   UNL     1       2.945  19.285  28.848  1.00  0.00    -0.000 C 
BRANCH  13  14
ATOM     14  C   UNL     1       2.786  18.303  27.666  1.00  0.00    -0.000 C 
BRANCH  14  15
ATOM     15  C   UNL     1       1.795  17.155  27.940  1.00  0.00    -0.000 C 
BRANCH  15  16
ATOM     16  C   UNL     1       0.319  17.481  27.644  1.00  0.00    -0.000 C 
BRANCH  16  17
ATOM     17  C   UNL     1      -0.592  17.535  28.883  1.00  0.00    -0.003 C 
ATOM     18  C   UNL     1      -0.703  18.937  29.480  1.00  0.00     0.004 C 
ENDBRANCH  16  17
ENDBRANCH  15  16
ENDBRANCH  14  15
ENDBRANCH  13  14
ENDBRANCH  12  13
ENDBRANCH  11  12
ENDBRANCH   1  11
TORSDOF 14
ENDMDL
MODEL 2
REMARK VINA RESULT:    -3.844      2.129      3.371
REMARK INTER + INTRA:          -9.188
REMARK INTER:                  -7.230
REMARK INTRA:                  -1.957
REMARK UNBOUND:                -2.197
REMARK SMILES CCCCCCCCCCCCCCCC(=O)[O-]
REMARK SMILES IDX 9 1 10 2 11 3 12 4 13 5 14 6 15 7 16 8 17 9 18 10 8 11 7 12
REMARK SMILES IDX 6 13 5 14 4 15 3 16 2 17 1 18
REMARK H PARENT
REMARK Flexibility Score: inf
ROOT
ATOM      1  C   UNL     1      -0.536  19.485  29.884  1.00  0.00     0.000 C 
ENDROOT
BRANCH   1   2
ATOM      2  C   UNL     1      -1.103  18.348  29.015  1.00  0.00     0.000 C 
BRANCH   2   3
ATOM      3  C   UNL     1      -0.030  17.328  28.605  1.00  0.00     0.000 C 
BRANCH   3   4
ATOM      4  C   UNL     1      -0.291  15.930  29.194  1.00  0.00     0.000 C 
BRANCH   4   5
ATOM      5  C   UNL     1       0.703  15.553  30.305  1.00  0.00     0.000 C 
BRANCH   5   6
ATOM      6  C   UNL     1       0.521  14.144  30.904  1.00  0.00     0.006 C 
BRANCH   6   7
ATOM      7  C   UNL     1      -0.121  13.129  29.940  1.00  0.00     0.053 C 
BRANCH   7   8
ATOM      8  C   UNL     1       0.894  12.281  29.235  1.00  0.00     0.041 C 
ATOM      9  O   UNL     1       0.584  11.663  28.182  1.00  0.00    -0.550 OA
ATOM     10  O   UNL     1       2.170  12.137  29.764  1.00  0.00    -0.550 OA
ENDBRANCH   7   8
ENDBRANCH   6   7
ENDBRANCH   5   6
ENDBRANCH   4   5
ENDBRANCH   3   4
ENDBRANCH   2   3
ENDBRANCH   1   2
BRANCH   1  11
ATOM     11  C   UNL     1       0.950  19.289  30.235  1.00  0.00     0.000 C 
BRANCH  11  12
ATOM     12  C   UNL     1       1.826  20.547  30.089  1.00  0.00    -0.000 C 
BRANCH  12  13
ATOM     13  C   UNL     1       3.202  20.251  29.465  1.00  0.00    -0.000 C 
BRANCH  13  14
ATOM     14  C   UNL     1       3.108  19.300  28.252  1.00  0.00    -0.000 C 
BRANCH  14  15
ATOM     15  C   UNL     1       4.157  18.171  28.264  1.00  0.00    -0.000 C 
BRANCH  15  16
ATOM     16  C   UNL     1       3.579  16.744  28.331  1.00  0.00    -0.000 C 
BRANCH  16  17
ATOM     17  C   UNL     1       3.315  16.090  26.963  1.00  0.00    -0.003 C 
ATOM     18  C   UNL     1       2.603  14.742  27.074  1.00  0.00     0.004 C 
ENDBRANCH  16  17
ENDBRANCH  15  16
ENDBRANCH  14  15
ENDBRANCH  13  14
ENDBRANCH  12  13
ENDBRANCH  11  12
ENDBRANCH   1  11
TORSDOF 14
ENDMDL
MODEL 3
REMARK VINA RESULT:    -3.832      2.309      3.741
REMARK INTER + INTRA:          -9.165
REMARK INTER:                  -7.251
REMARK INTRA:                  -1.914
REMARK UNBOUND:                -2.197
REMARK SMILES CCCCCCCCCCCCCCCC(=O)[O-]
REMARK SMILES IDX 9 1 10 2 11 3 12 4 13 5 14 6 15 7 16 8 17 9 18 10 8 11 7 12
REMARK SMILES IDX 6 13 5 14 4 15 3 16 2 17 1 18
REMARK H PARENT
REMARK Flexibility Score: inf
ROOT
ATOM      1  C   UNL     1       3.356  17.694  27.793  1.00  0.00     0.000 C 
ENDROOT
BRANCH   1   2
ATOM      2  C   UNL     1       2.179  16.710  27.669  1.00  0.00     0.000 C 
BRANCH   2   3
ATOM      3  C   UNL     1       0.822  17.425  27.575  1.00  0.00     0.000 C 
BRANCH   3   4
ATOM      4  C   UNL     1      -0.257  16.755  28.444  1.00  0.00     0.000 C 
BRANCH   4   5
ATOM      5  C   UNL     1       0.321  16.065  29.691  1.00  0.00     0.000 C 
BRANCH   5   6
ATOM      6  C   UNL     1       0.008  14.560  29.818  1.00  0.00     0.006 C 
BRANCH   6   7
ATOM      7  C   UNL     1       1.250  13.678  30.049  1.00  0.00     0.053 C 
BRANCH   7   8
ATOM      8  C   UNL     1       1.666  12.933  28.817  1.00  0.00     0.041 C 
ATOM      9  O   UNL     1       0.886  12.100  28.284  1.00  0.00    -0.550 OA
ATOM     10  O   UNL     1       2.933  13.125  28.281  1.00  0.00    -0.550 OA
ENDBRANCH   7   8
ENDBRANCH   6   7
ENDBRANCH   5   6
ENDBRANCH   4   5
ENDBRANCH   3   4
ENDBRANCH   2   3
ENDBRANCH   1   2
BRANCH   1  11
ATOM     11  C   UNL     1       2.903  19.158  27.934  1.00  0.00     0.000 C 
BRANCH  11  12
ATOM     12  C   UNL     1       3.263  19.826  29.275  1.00  0.00    -0.000 C 
BRANCH  12  13
ATOM     13  C   UNL     1       2.684  19.081  30.491  1.00  0.00    -0.000 C 
BRANCH  13  14
ATOM     14  C   UNL     1       1.179  19.361  30.694  1.00  0.00    -0.000 C 
BRANCH  14  15
ATOM     15  C   UNL     1       0.824  20.860  30.734  1.00  0.00    -0.000 C 
BRANCH  15  16
ATOM     16  C   UNL     1      -0.585  21.212  30.221  1.00  0.00    -0.000 C 
BRANCH  16  17
ATOM     17  C   UNL     1      -1.449  20.002  29.823  1.00  0.00    -0.003 C 
ATOM     18  C   UNL     1      -2.942  20.321  29.791  1.00  0.00     0.004 C 
ENDBRANCH  16  17
ENDBRANCH  15  16
ENDBRANCH  14  15
ENDBRANCH  13  14
ENDBRANCH  12  13
ENDBRANCH  11  12
ENDBRANCH   1  11
TORSDOF 14
ENDMDL
MODEL 4
REMARK VINA RESULT:    -3.750      5.173      7.593
REMARK INTER + INTRA:          -9.015
REMARK INTER:                  -7.353
REMARK INTRA:                  -1.663
REMARK UNBOUND:                -2.197
REMARK SMILES CCCCCCCCCCCCCCCC(=O)[O-]
REMARK SMILES IDX 9 1 10 2 11 3 12 4 13 5 14 6 15 7 16 8 17 9 18 10 8 11 7 12
REMARK SMILES IDX 6 13 5 14 4 15 3 16 2 17 1 18
REMARK H PARENT
REMARK Flexibility Score: inf
ROOT
ATOM      1  C   UNL     1       0.555  17.333  27.554  1.00  0.00     0.000 C 
ENDROOT
BRANCH   1   2
ATOM      2  C   UNL     1       1.840  16.523  27.798  1.00  0.00     0.000 C 
BRANCH   2   3
ATOM      3  C   UNL     1       3.108  17.295  27.401  1.00  0.00     0.000 C 
BRANCH   3   4
ATOM      4  C   UNL     1       3.691  18.111  28.568  1.00  0.00     0.000 C 
BRANCH   4   5
ATOM      5  C   UNL     1       3.648  19.627  28.320  1.00  0.00     0.000 C 
BRANCH   5   6
ATOM      6  C   UNL     1       4.709  20.451  29.078  1.00  0.00     0.006 C 
BRANCH   6   7
ATOM      7  C   UNL     1       5.786  21.076  28.171  1.00  0.00     0.053 C 
BRANCH   7   8
ATOM      8  C   UNL     1       7.134  20.446  28.356  1.00  0.00     0.041 C 
ATOM      9  O   UNL     1       7.411  19.842  29.425  1.00  0.00    -0.550 OA
ATOM     10  O   UNL     1       8.100  20.563  27.364  1.00  0.00    -0.550 OA
ENDBRANCH   7   8
ENDBRANCH   6   7
ENDBRANCH   5   6
ENDBRANCH   4   5
ENDBRANCH   3   4
ENDBRANCH   2   3
ENDBRANCH   1   2
BRANCH   1  11
ATOM     11  C   UNL     1      -0.289  17.519  28.828  1.00  0.00     0.000 C 
BRANCH  11  12
ATOM     12  C   UNL     1      -0.167  18.902  29.496  1.00  0.00    -0.000 C 
BRANCH  12  13
ATOM     13  C   UNL     1       0.788  18.903  30.703  1.00  0.00    -0.000 C 
BRANCH  13  14
ATOM     14  C   UNL     1       1.138  20.330  31.178  1.00  0.00    -0.000 C 
BRANCH  14  15
ATOM     15  C   UNL     1       0.442  21.443  30.371  1.00  0.00    -0.000 C 
BRANCH  15  16
ATOM     16  C   UNL     1      -0.661  22.207  31.128  1.00  0.00    -0.000 C 
BRANCH  16  17
ATOM     17  C   UNL     1      -1.940  22.469  30.313  1.00  0.00    -0.003 C 
ATOM     18  C   UNL     1      -2.848  21.244  30.220  1.00  0.00     0.004 C 
ENDBRANCH  16  17
ENDBRANCH  15  16
ENDBRANCH  14  15
ENDBRANCH  13  14
ENDBRANCH  12  13
ENDBRANCH  11  12
ENDBRANCH   1  11
TORSDOF 14
ENDMDL
MODEL 5
REMARK VINA RESULT:    -3.669      2.414      3.890
REMARK INTER + INTRA:          -8.869
REMARK INTER:                  -7.271
REMARK INTRA:                  -1.598
REMARK UNBOUND:                -2.197
REMARK SMILES CCCCCCCCCCCCCCCC(=O)[O-]
REMARK SMILES IDX 9 1 10 2 11 3 12 4 13 5 14 6 15 7 16 8 17 9 18 10 8 11 7 12
REMARK SMILES IDX 6 13 5 14 4 15 3 16 2 17 1 18
REMARK H PARENT
REMARK Flexibility Score: inf
ROOT
ATOM      1  C   UNL     1       0.775  17.434  27.716  1.00  0.00     0.000 C 
ENDROOT
BRANCH   1   2
ATOM      2  C   UNL     1       1.543  16.122  27.953  1.00  0.00     0.000 C 
BRANCH   2   3
ATOM      3  C   UNL     1       2.631  16.262  29.029  1.00  0.00     0.000 C 
BRANCH   3   4
ATOM      4  C   UNL     1       2.461  15.247  30.174  1.00  0.00     0.000 C 
BRANCH   4   5
ATOM      5  C   UNL     1       1.098  15.361  30.878  1.00  0.00     0.000 C 
BRANCH   5   6
ATOM      6  C   UNL     1       0.356  14.027  31.100  1.00  0.00     0.006 C 
BRANCH   6   7
ATOM      7  C   UNL     1      -0.144  13.362  29.803  1.00  0.00     0.053 C 
BRANCH   7   8
ATOM      8  C   UNL     1       0.593  12.096  29.482  1.00  0.00     0.041 C 
ATOM      9  O   UNL     1       1.285  11.523  30.364  1.00  0.00    -0.550 OA
ATOM     10  O   UNL     1       0.550  11.572  28.196  1.00  0.00    -0.550 OA
ENDBRANCH   7   8
ENDBRANCH   6   7
ENDBRANCH   5   6
ENDBRANCH   4   5
ENDBRANCH   3   4
ENDBRANCH   2   3
ENDBRANCH   1   2
BRANCH   1  11
ATOM     11  C   UNL     1      -0.538  17.516  28.515  1.00  0.00     0.000 C 
BRANCH  11  12
ATOM     12  C   UNL     1      -0.675  18.756  29.419  1.00  0.00    -0.000 C 
BRANCH  12  13
ATOM     13  C   UNL     1       0.578  19.019  30.272  1.00  0.00    -0.000 C 
BRANCH  13  14
ATOM     14  C   UNL     1       1.061  20.483  30.177  1.00  0.00    -0.000 C 
BRANCH  14  15
ATOM     15  C   UNL     1       0.294  21.453  31.095  1.00  0.00    -0.000 C 
BRANCH  15  16
ATOM     16  C   UNL     1      -0.092  22.797  30.449  1.00  0.00    -0.000 C 
BRANCH  16  17
ATOM     17  C   UNL     1      -1.605  23.021  30.278  1.00  0.00    -0.003 C 
ATOM     18  C   UNL     1      -2.422  21.746  30.474  1.00  0.00     0.004 C 
ENDBRANCH  16  17
ENDBRANCH  15  16
ENDBRANCH  14  15
ENDBRANCH  13  14
ENDBRANCH  12  13
ENDBRANCH  11  12
ENDBRANCH   1  11
TORSDOF 14
ENDMDL
MODEL 6
REMARK VINA RESULT:    -3.661      1.845      3.474
REMARK INTER + INTRA:          -8.854
REMARK INTER:                  -6.997
REMARK INTRA:                  -1.857
REMARK UNBOUND:                -2.197
REMARK SMILES CCCCCCCCCCCCCCCC(=O)[O-]
REMARK SMILES IDX 9 1 10 2 11 3 12 4 13 5 14 6 15 7 16 8 17 9 18 10 8 11 7 12
REMARK SMILES IDX 6 13 5 14 4 15 3 16 2 17 1 18
REMARK H PARENT
REMARK Flexibility Score: inf
ROOT
ATOM      1  C   UNL     1      -0.286  17.382  28.426  1.00  0.00     0.000 C 
ENDROOT
BRANCH   1   2
ATOM      2  C   UNL     1      -0.433  15.982  29.049  1.00  0.00     0.000 C 
BRANCH   2   3
ATOM      3  C   UNL     1       0.900  15.429  29.575  1.00  0.00     0.000 C 
BRANCH   3   4
ATOM      4  C   UNL     1       0.903  15.258  31.105  1.00  0.00     0.000 C 
BRANCH   4   5
ATOM      5  C   UNL     1       1.042  13.790  31.543  1.00  0.00     0.000 C 
BRANCH   5   6
ATOM      6  C   UNL     1       2.004  12.935  30.694  1.00  0.00     0.006 C 
BRANCH   6   7
ATOM      7  C   UNL     1       1.409  11.592  30.230  1.00  0.00     0.053 C 
BRANCH   7   8
ATOM      8  C   UNL     1       0.363  11.760  29.169  1.00  0.00     0.041 C 
ATOM      9  O   UNL     1       0.692  11.816  27.955  1.00  0.00    -0.550 OA
ATOM     10  O   UNL     1      -0.974  11.899  29.525  1.00  0.00    -0.550 OA
ENDBRANCH   7   8
ENDBRANCH   6   7
ENDBRANCH   5   6
ENDBRANCH   4   5
ENDBRANCH   3   4
ENDBRANCH   2   3
ENDBRANCH   1   2
BRANCH   1  11
ATOM     11  C   UNL     1      -1.157  18.444  29.123  1.00  0.00     0.000 C 
BRANCH  11  12
ATOM     12  C   UNL     1      -0.374  19.545  29.864  1.00  0.00    -0.000 C 
BRANCH  12  13
ATOM     13  C   UNL     1       1.043  19.103  30.272  1.00  0.00    -0.000 C 
BRANCH  13  14
ATOM     14  C   UNL     1       2.112  20.167  29.940  1.00  0.00    -0.000 C 
BRANCH  14  15
ATOM     15  C   UNL     1       3.291  19.626  29.109  1.00  0.00    -0.000 C 
BRANCH  15  16
ATOM     16  C   UNL     1       2.894  18.795  27.874  1.00  0.00    -0.000 C 
BRANCH  16  17
ATOM     17  C   UNL     1       3.587  17.425  27.767  1.00  0.00    -0.003 C 
ATOM     18  C   UNL     1       4.243  16.985  29.075  1.00  0.00     0.004 C 
ENDBRANCH  16  17
ENDBRANCH  15  16
ENDBRANCH  14  15
ENDBRANCH  13  14
ENDBRANCH  12  13
ENDBRANCH  11  12
ENDBRANCH   1  11
TORSDOF 14
ENDMDL
MODEL 7
REMARK VINA RESULT:    -3.623      1.456      3.241
REMARK INTER + INTRA:          -8.785
REMARK INTER:                  -6.262
REMARK INTRA:                  -2.523
REMARK UNBOUND:                -2.197
REMARK SMILES CCCCCCCCCCCCCCCC(=O)[O-]
REMARK SMILES IDX 9 1 10 2 11 3 12 4 13 5 14 6 15 7 16 8 17 9 18 10 8 11 7 12
REMARK SMILES IDX 6 13 5 14 4 15 3 16 2 17 1 18
REMARK H PARENT
REMARK Flexibility Score: inf
ROOT
ATOM      1  C   UNL     1       2.767  18.160  27.869  1.00  0.00     0.000 C 
ENDROOT
BRANCH   1   2
ATOM      2  C   UNL     1       1.874  16.925  27.657  1.00  0.00     0.000 C 
BRANCH   2   3
ATOM      3  C   UNL     1       0.387  17.224  27.905  1.00  0.00     0.000 C 
BRANCH   3   4
ATOM      4  C   UNL     1      -0.133  16.582  29.203  1.00  0.00     0.000 C 
BRANCH   4   5
ATOM      5  C   UNL     1       0.360  15.139  29.398  1.00  0.00     0.000 C 
BRANCH   5   6
ATOM      6  C   UNL     1       0.433  14.657  30.861  1.00  0.00     0.006 C 
BRANCH   6   7
ATOM      7  C   UNL     1       0.422  13.125  31.020  1.00  0.00     0.053 C 
BRANCH   7   8
ATOM      8  C   UNL     1      -0.964  12.554  31.016  1.00  0.00     0.041 C 
ATOM      9  O   UNL     1      -1.748  12.781  31.976  1.00  0.00    -0.550 OA
ATOM     10  O   UNL     1      -1.377  11.734  29.973  1.00  0.00    -0.550 OA
ENDBRANCH   7   8
ENDBRANCH   6   7
ENDBRANCH   5   6
ENDBRANCH   4   5
ENDBRANCH   3   4
ENDBRANCH   2   3
ENDBRANCH   1   2
BRANCH   1  11
ATOM     11  C   UNL     1       3.901  17.914  28.881  1.00  0.00     0.000 C 
BRANCH  11  12
ATOM     12  C   UNL     1       3.584  16.880  29.978  1.00  0.00    -0.000 C 
BRANCH  12  13
ATOM     13  C   UNL     1       3.538  17.496  31.388  1.00  0.00    -0.000 C 
BRANCH  13  14
ATOM     14  C   UNL     1       2.096  17.648  31.920  1.00  0.00    -0.000 C 
BRANCH  14  15
ATOM     15  C   UNL     1       1.634  19.111  32.056  1.00  0.00    -0.000 C 
BRANCH  15  16
ATOM     16  C   UNL     1       0.816  19.652  30.868  1.00  0.00    -0.000 C 
BRANCH  16  17
ATOM     17  C   UNL     1       1.503  20.772  30.067  1.00  0.00    -0.003 C 
ATOM     18  C   UNL     1       2.885  21.132  30.611  1.00  0.00     0.004 C 
ENDBRANCH  16  17
ENDBRANCH  15  16
ENDBRANCH  14  15
ENDBRANCH  13  14
ENDBRANCH  12  13
ENDBRANCH  11  12
ENDBRANCH   1  11
TORSDOF 14
ENDMDL
MODEL 8
REMARK VINA RESULT:    -3.609      5.120      7.462
REMARK INTER + INTRA:          -8.759
REMARK INTER:                  -6.990
REMARK INTRA:                  -1.769
REMARK UNBOUND:                -2.197
REMARK SMILES CCCCCCCCCCCCCCCC(=O)[O-]
REMARK SMILES IDX 9 1 10 2 11 3 12 4 13 5 14 6 15 7 16 8 17 9 18 10 8 11 7 12
REMARK SMILES IDX 6 13 5 14 4 15 3 16 2 17 1 18
REMARK H PARENT
REMARK Flexibility Score: inf
ROOT
ATOM      1  C   UNL     1      -1.095  17.202  28.761  1.00  0.00     0.000 C 
ENDROOT
BRANCH   1   2
ATOM      2  C   UNL     1      -1.329  18.677  29.130  1.00  0.00     0.000 C 
BRANCH   2   3
ATOM      3  C   UNL     1      -2.821  19.036  29.209  1.00  0.00     0.000 C 
BRANCH   3   4
ATOM      4  C   UNL     1      -3.062  20.417  29.844  1.00  0.00     0.000 C 
BRANCH   4   5
ATOM      5  C   UNL     1      -1.758  21.131  30.238  1.00  0.00     0.000 C 
BRANCH   5   6
ATOM      6  C   UNL     1      -1.919  22.593  30.700  1.00  0.00     0.006 C 
BRANCH   6   7
ATOM      7  C   UNL     1      -0.777  23.097  31.603  1.00  0.00     0.053 C 
BRANCH   7   8
ATOM      8  C   UNL     1       0.096  24.106  30.922  1.00  0.00     0.041 C 
ATOM      9  O   UNL     1      -0.357  24.805  29.978  1.00  0.00    -0.550 OA
ATOM     10  O   UNL     1       1.426  24.245  31.300  1.00  0.00    -0.550 OA
ENDBRANCH   7   8
ENDBRANCH   6   7
ENDBRANCH   5   6
ENDBRANCH   4   5
ENDBRANCH   3   4
ENDBRANCH   2   3
ENDBRANCH   1   2
BRANCH   1  11
ATOM     11  C   UNL     1       0.295  16.691  29.182  1.00  0.00     0.000 C 
BRANCH  11  12
ATOM     12  C   UNL     1       1.374  16.759  28.085  1.00  0.00    -0.000 C 
BRANCH  12  13
ATOM     13  C   UNL     1       2.804  16.633  28.641  1.00  0.00    -0.000 C 
BRANCH  13  14
ATOM     14  C   UNL     1       3.741  17.743  28.117  1.00  0.00    -0.000 C 
BRANCH  14  15
ATOM     15  C   UNL     1       3.067  19.124  28.001  1.00  0.00    -0.000 C 
BRANCH  15  16
ATOM     16  C   UNL     1       3.174  20.011  29.255  1.00  0.00    -0.000 C 
BRANCH  16  17
ATOM     17  C   UNL     1       1.831  20.336  29.934  1.00  0.00    -0.003 C 
ATOM     18  C   UNL     1       1.625  19.575  31.242  1.00  0.00     0.004 C 
ENDBRANCH  16  17
ENDBRANCH  15  16
ENDBRANCH  14  15
ENDBRANCH  13  14
ENDBRANCH  12  13
ENDBRANCH  11  12
ENDBRANCH   1  11
TORSDOF 14
ENDMDL
MODEL 9
REMARK VINA RESULT:    -3.592      1.630      2.931
REMARK INTER + INTRA:          -8.730
REMARK INTER:                  -6.545
REMARK INTRA:                  -2.185
REMARK UNBOUND:                -2.197
REMARK SMILES CCCCCCCCCCCCCCCC(=O)[O-]
REMARK SMILES IDX 9 1 10 2 11 3 12 4 13 5 14 6 15 7 16 8 17 9 18 10 8 11 7 12
REMARK SMILES IDX 6 13 5 14 4 15 3 16 2 17 1 18
REMARK H PARENT
REMARK Flexibility Score: inf
ROOT
ATOM      1  C   UNL     1       0.186  20.205  30.253  1.00  0.00     0.000 C 
ENDROOT
BRANCH   1   2
ATOM      2  C   UNL     1       0.437  18.687  30.276  1.00  0.00     0.000 C 
BRANCH   2   3
ATOM      3  C   UNL     1      -0.045  17.990  28.993  1.00  0.00     0.000 C 
BRANCH   3   4
ATOM      4  C   UNL     1      -0.130  16.462  29.150  1.00  0.00     0.000 C 
BRANCH   4   5
ATOM      5  C   UNL     1       0.792  15.921  30.255  1.00  0.00     0.000 C 
BRANCH   5   6
ATOM      6  C   UNL     1       0.875  14.384  30.353  1.00  0.00     0.006 C 
BRANCH   6   7
ATOM      7  C   UNL     1      -0.358  13.651  29.793  1.00  0.00     0.053 C 
BRANCH   7   8
ATOM      8  C   UNL     1      -0.881  12.602  30.728  1.00  0.00     0.041 C 
ATOM      9  O   UNL     1      -1.663  11.709  30.307  1.00  0.00    -0.550 OA
ATOM     10  O   UNL     1      -0.540  12.636  32.074  1.00  0.00    -0.550 OA
ENDBRANCH   7   8
ENDBRANCH   6   7
ENDBRANCH   5   6
ENDBRANCH   4   5
ENDBRANCH   3   4
ENDBRANCH   2   3
ENDBRANCH   1   2
BRANCH   1  11
ATOM     11  C   UNL     1       1.453  21.018  29.932  1.00  0.00     0.000 C 
BRANCH  11  12
ATOM     12  C   UNL     1       2.783  20.298  30.227  1.00  0.00    -0.000 C 
BRANCH  12  13
ATOM     13  C   UNL     1       3.678  20.157  28.983  1.00  0.00    -0.000 C 
BRANCH  13  14
ATOM     14  C   UNL     1       3.518  18.785  28.293  1.00  0.00    -0.000 C 
BRANCH  14  15
ATOM     15  C   UNL     1       4.002  17.598  29.148  1.00  0.00    -0.000 C 
BRANCH  15  16
ATOM     16  C   UNL     1       3.991  16.232  28.435  1.00  0.00    -0.000 C 
BRANCH  16  17
ATOM     17  C   UNL     1       3.105  16.166  27.179  1.00  0.00    -0.003 C 
ATOM     18  C   UNL     1       2.493  14.785  26.953  1.00  0.00     0.004 C 
ENDBRANCH  16  17
ENDBRANCH  15  16
ENDBRANCH  14  15
ENDBRANCH  13  14
ENDBRANCH  12  13
ENDBRANCH  11  12
ENDBRANCH   1  11
TORSDOF 14
ENDMDL
