MODEL 1
REMARK VINA RESULT:    -3.839      0.000      0.000
REMARK INTER + INTRA:         -12.183
REMARK INTER:                 -10.122
REMARK INTRA:                  -2.061
REMARK UNBOUND:                -2.061
REMARK SMILES CCCCCCCCCCCCCCCCCCCCCCCCCCCCCC(=O)[O-]
REMARK SMILES IDX 16 1 17 2 18 3 19 4 20 5 21 6 22 7 23 8 24 9 25 10 26 11
REMARK SMILES IDX 27 12 28 13 29 14 30 15 31 16 32 17 15 18 14 19 13 20 12 21
REMARK SMILES IDX 11 22 10 23 9 24 8 25 7 26 6 27 5 28 4 29 3 30 2 31 1 32
REMARK H PARENT
REMARK Flexibility Score: inf
ROOT
ATOM      1  C   UNL     1      22.899   0.331  -5.441  1.00  0.00     0.000 C 
ENDROOT
BRANCH   1   2
ATOM      2  C   UNL     1      24.099   1.096  -4.854  1.00  0.00     0.000 C 
BRANCH   2   3
ATOM      3  C   UNL     1      25.314   1.125  -5.800  1.00  0.00     0.000 C 
BRANCH   3   4
ATOM      4  C   UNL     1      26.686   0.981  -5.111  1.00  0.00     0.000 C 
BRANCH   4   5
ATOM      5  C   UNL     1      26.636   0.667  -3.602  1.00  0.00     0.000 C 
BRANCH   5   6
ATOM      6  C   UNL     1      27.958   0.894  -2.847  1.00  0.00     0.000 C 
BRANCH   6   7
ATOM      7  C   UNL     1      28.634  -0.423  -2.427  1.00  0.00     0.000 C 
BRANCH   7   8
ATOM      8  C   UNL     1      27.631  -1.569  -2.222  1.00  0.00     0.000 C 
BRANCH   8   9
ATOM      9  C   UNL     1      27.510  -2.488  -3.451  1.00  0.00     0.000 C 
BRANCH   9  10
ATOM     10  C   UNL     1      28.681  -3.475  -3.574  1.00  0.00     0.000 C 
BRANCH  10  11
ATOM     11  C   UNL     1      28.362  -4.669  -4.491  1.00  0.00     0.000 C 
BRANCH  11  12
ATOM     12  C   UNL     1      27.004  -5.308  -4.151  1.00  0.00     0.000 C 
BRANCH  12  13
ATOM     13  C   UNL     1      26.996  -6.822  -4.419  1.00  0.00     0.006 C 
BRANCH  13  14
ATOM     14  C   UNL     1      26.497  -7.156  -5.830  1.00  0.00     0.053 C 
BRANCH  14  15
ATOM     15  C   UNL     1      27.613  -7.124  -6.830  1.00  0.00     0.041 C 
ATOM     16  O   UNL     1      27.844  -6.077  -7.492  1.00  0.00    -0.550 OA
ATOM     17  O   UNL     1      28.376  -8.265  -7.055  1.00  0.00    -0.550 OA
ENDBRANCH  14  15
ENDBRANCH  13  14
ENDBRANCH  12  13
ENDBRANCH  11  12
ENDBRANCH  10  11
ENDBRANCH   9  10
ENDBRANCH   8   9
ENDBRANCH   7   8
ENDBRANCH   6   7
ENDBRANCH   5   6
ENDBRANCH   4   5
ENDBRANCH   3   4
ENDBRANCH   2   3
ENDBRANCH   1   2
BRANCH   1  18
ATOM     18  C   UNL     1      21.555   0.989  -5.096  1.00  0.00     0.000 C 
BRANCH  18  19
ATOM     19  C   UNL     1      20.616   1.101  -6.310  1.00  0.00     0.000 C 
BRANCH  19  20
ATOM     20  C   UNL     1      21.335   0.804  -7.636  1.00  0.00     0.000 C 
BRANCH  20  21
ATOM     21  C   UNL     1      20.926  -0.552  -8.237  1.00  0.00     0.000 C 
BRANCH  21  22
ATOM     22  C   UNL     1      19.648  -1.123  -7.603  1.00  0.00     0.000 C 
BRANCH  22  23
ATOM     23  C   UNL     1      19.904  -2.431  -6.834  1.00  0.00     0.000 C 
BRANCH  23  24
ATOM     24  C   UNL     1      19.090  -2.516  -5.533  1.00  0.00    -0.000 C 
BRANCH  24  25
ATOM     25  C   UNL     1      19.935  -2.192  -4.288  1.00  0.00    -0.000 C 
BRANCH  25  26
ATOM     26  C   UNL     1      19.313  -1.082  -3.426  1.00  0.00    -0.000 C 
BRANCH  26  27
ATOM     27  C   UNL     1      17.946  -1.482  -2.844  1.00  0.00    -0.000 C 
BRANCH  27  28
ATOM     28  C   UNL     1      16.851  -1.607  -3.918  1.00  0.00    -0.000 C 
BRANCH  28  29
ATOM     29  C   UNL     1      15.721  -0.566  -3.813  1.00  0.00    -0.000 C 
BRANCH  29  30
ATOM     30  C   UNL     1      15.598   0.314  -5.069  1.00  0.00    -0.000 C 
BRANCH  30  31
ATOM     31  C   UNL     1      16.681   0.000  -6.113  1.00  0.00    -0.003 C 
ATOM     32  C   UNL     1      16.647   0.957  -7.304  1.00  0.00     0.004 C 
ENDBRANCH  30  31
ENDBRANCH  29  30
ENDBRANCH  28  29
ENDBRANCH  27  28
ENDBRANCH  26  27
ENDBRANCH  25  26
ENDBRANCH  24  25
ENDBRANCH  23  24
ENDBRANCH  22  23
ENDBRANCH  21  22
ENDBRANCH  20  21
ENDBRANCH  19  20
ENDBRANCH  18  19
ENDBRANCH   1  18
TORSDOF 28
ENDMDL
MODEL 2
REMARK VINA RESULT:    -3.799      4.030     10.173
REMARK INTER + INTRA:         -12.078
REMARK INTER:                  -9.602
REMARK INTRA:                  -2.476
REMARK UNBOUND:                -2.061
REMARK SMILES CCCCCCCCCCCCCCCCCCCCCCCCCCCCCC(=O)[O-]
REMARK SMILES IDX 16 1 17 2 18 3 19 4 20 5 21 6 22 7 23 8 24 9 25 10 26 11
REMARK SMILES IDX 27 12 28 13 29 14 30 15 31 16 32 17 15 18 14 19 13 20 12 21
REMARK SMILES IDX 11 22 10 23 9 24 8 25 7 26 6 27 5 28 4 29 3 30 2 31 1 32
REMARK H PARENT
REMARK Flexibility Score: inf
ROOT
ATOM      1  C   UNL     1      26.235  -5.466  -5.654  1.00  0.00     0.000 C 
ENDROOT
BRANCH   1   2
ATOM      2  C   UNL     1      27.016  -4.175  -5.353  1.00  0.00     0.000 C 
BRANCH   2   3
ATOM      3  C   UNL     1      26.701  -3.593  -3.962  1.00  0.00     0.000 C 
BRANCH   3   4
ATOM      4  C   UNL     1      26.587  -2.056  -3.904  1.00  0.00     0.000 C 
BRANCH   4   5
ATOM      5  C   UNL     1      26.856  -1.325  -5.234  1.00  0.00     0.000 C 
BRANCH   5   6
ATOM      6  C   UNL     1      26.823   0.212  -5.148  1.00  0.00     0.000 C 
BRANCH   6   7
ATOM      7  C   UNL     1      25.547   0.740  -4.468  1.00  0.00     0.000 C 
BRANCH   7   8
ATOM      8  C   UNL     1      24.451   1.125  -5.474  1.00  0.00     0.000 C 
BRANCH   8   9
ATOM      9  C   UNL     1      23.035   0.774  -4.982  1.00  0.00     0.000 C 
BRANCH   9  10
ATOM     10  C   UNL     1      21.983   0.837  -6.100  1.00  0.00     0.000 C 
BRANCH  10  11
ATOM     11  C   UNL     1      20.883  -0.228  -5.946  1.00  0.00     0.000 C 
BRANCH  11  12
ATOM     12  C   UNL     1      20.679  -0.634  -4.476  1.00  0.00     0.000 C 
BRANCH  12  13
ATOM     13  C   UNL     1      19.557  -1.674  -4.316  1.00  0.00     0.006 C 
BRANCH  13  14
ATOM     14  C   UNL     1      18.717  -1.429  -3.057  1.00  0.00     0.053 C 
BRANCH  14  15
ATOM     15  C   UNL     1      17.326  -0.990  -3.401  1.00  0.00     0.041 C 
ATOM     16  O   UNL     1      16.435  -0.944  -2.512  1.00  0.00    -0.550 OA
ATOM     17  O   UNL     1      17.007  -0.666  -4.716  1.00  0.00    -0.550 OA
ENDBRANCH  14  15
ENDBRANCH  13  14
ENDBRANCH  12  13
ENDBRANCH  11  12
ENDBRANCH  10  11
ENDBRANCH   9  10
ENDBRANCH   8   9
ENDBRANCH   7   8
ENDBRANCH   6   7
ENDBRANCH   5   6
ENDBRANCH   4   5
ENDBRANCH   3   4
ENDBRANCH   2   3
ENDBRANCH   1   2
BRANCH   1  18
ATOM     18  C   UNL     1      26.729  -6.662  -4.827  1.00  0.00     0.000 C 
BRANCH  18  19
ATOM     19  C   UNL     1      28.167  -7.079  -5.181  1.00  0.00     0.000 C 
BRANCH  19  20
ATOM     20  C   UNL     1      28.983  -7.482  -3.942  1.00  0.00     0.000 C 
BRANCH  20  21
ATOM     21  C   UNL     1      30.011  -6.409  -3.540  1.00  0.00     0.000 C 
BRANCH  21  22
ATOM     22  C   UNL     1      29.828  -5.091  -4.307  1.00  0.00     0.000 C 
BRANCH  22  23
ATOM     23  C   UNL     1      30.125  -3.856  -3.439  1.00  0.00     0.000 C 
BRANCH  23  24
ATOM     24  C   UNL     1      29.847  -4.106  -1.948  1.00  0.00    -0.000 C 
BRANCH  24  25
ATOM     25  C   UNL     1      29.280  -2.862  -1.239  1.00  0.00    -0.000 C 
BRANCH  25  26
ATOM     26  C   UNL     1      29.734  -1.551  -1.899  1.00  0.00    -0.000 C 
BRANCH  26  27
ATOM     27  C   UNL     1      29.294  -0.308  -1.106  1.00  0.00    -0.000 C 
BRANCH  27  28
ATOM     28  C   UNL     1      28.070  -0.570  -0.210  1.00  0.00    -0.000 C 
BRANCH  28  29
ATOM     29  C   UNL     1      28.345  -0.483   1.302  1.00  0.00    -0.000 C 
BRANCH  29  30
ATOM     30  C   UNL     1      27.134   0.024   2.104  1.00  0.00    -0.000 C 
BRANCH  30  31
ATOM     31  C   UNL     1      27.503   0.408   3.545  1.00  0.00    -0.003 C 
ATOM     32  C   UNL     1      26.900  -0.540   4.581  1.00  0.00     0.004 C 
ENDBRANCH  30  31
ENDBRANCH  29  30
ENDBRANCH  28  29
ENDBRANCH  27  28
ENDBRANCH  26  27
ENDBRANCH  25  26
ENDBRANCH  24  25
ENDBRANCH  23  24
ENDBRANCH  22  23
ENDBRANCH  21  22
ENDBRANCH  20  21
ENDBRANCH  19  20
ENDBRANCH  18  19
ENDBRANCH   1  18
TORSDOF 28
ENDMDL
MODEL 3
REMARK VINA RESULT:    -3.753      6.600      9.090
REMARK INTER + INTRA:         -11.956
REMARK INTER:                  -8.991
REMARK INTRA:                  -2.965
REMARK UNBOUND:                -2.061
REMARK SMILES CCCCCCCCCCCCCCCCCCCCCCCCCCCCCC(=O)[O-]
REMARK SMILES IDX 16 1 17 2 18 3 19 4 20 5 21 6 22 7 23 8 24 9 25 10 26 11
REMARK SMILES IDX 27 12 28 13 29 14 30 15 31 16 32 17 15 18 14 19 13 20 12 21
REMARK SMILES IDX 11 22 10 23 9 24 8 25 7 26 6 27 5 28 4 29 3 30 2 31 1 32
REMARK H PARENT
REMARK Flexibility Score: inf
ROOT
ATOM      1  C   UNL     1      28.533  -0.138  -3.334  1.00  0.00     0.000 C 
ENDROOT
BRANCH   1   2
ATOM      2  C   UNL     1      27.490  -0.778  -2.401  1.00  0.00     0.000 C 
BRANCH   2   3
ATOM      3  C   UNL     1      28.042  -1.070  -0.994  1.00  0.00     0.000 C 
BRANCH   3   4
ATOM      4  C   UNL     1      28.838   0.082  -0.348  1.00  0.00     0.000 C 
BRANCH   4   5
ATOM      5  C   UNL     1      28.010   1.047   0.525  1.00  0.00     0.000 C 
BRANCH   5   6
ATOM      6  C   UNL     1      26.666   0.481   1.020  1.00  0.00     0.000 C 
BRANCH   6   7
ATOM      7  C   UNL     1      26.203   1.124   2.339  1.00  0.00     0.000 C 
BRANCH   7   8
ATOM      8  C   UNL     1      26.184   0.132   3.512  1.00  0.00     0.000 C 
BRANCH   8   9
ATOM      9  C   UNL     1      26.954   0.643   4.744  1.00  0.00     0.000 C 
BRANCH   9  10
ATOM     10  C   UNL     1      28.404   1.033   4.420  1.00  0.00     0.000 C 
BRANCH  10  11
ATOM     11  C   UNL     1      29.236  -0.149   3.891  1.00  0.00     0.000 C 
BRANCH  11  12
ATOM     12  C   UNL     1      28.363  -1.385   3.608  1.00  0.00     0.000 C 
BRANCH  12  13
ATOM     13  C   UNL     1      28.871  -2.184   2.397  1.00  0.00     0.006 C 
BRANCH  13  14
ATOM     14  C   UNL     1      28.028  -3.438   2.137  1.00  0.00     0.053 C 
BRANCH  14  15
ATOM     15  C   UNL     1      28.610  -4.641   2.815  1.00  0.00     0.041 C 
ATOM     16  O   UNL     1      29.636  -5.201   2.347  1.00  0.00    -0.550 OA
ATOM     17  O   UNL     1      27.993  -5.166   3.946  1.00  0.00    -0.550 OA
ENDBRANCH  14  15
ENDBRANCH  13  14
ENDBRANCH  12  13
ENDBRANCH  11  12
ENDBRANCH  10  11
ENDBRANCH   9  10
ENDBRANCH   8   9
ENDBRANCH   7   8
ENDBRANCH   6   7
ENDBRANCH   5   6
ENDBRANCH   4   5
ENDBRANCH   3   4
ENDBRANCH   2   3
ENDBRANCH   1   2
BRANCH   1  18
ATOM     18  C   UNL     1      27.920   0.915  -4.270  1.00  0.00     0.000 C 
BRANCH  18  19
ATOM     19  C   UNL     1      27.139   0.292  -5.440  1.00  0.00     0.000 C 
BRANCH  19  20
ATOM     20  C   UNL     1      27.331   1.070  -6.753  1.00  0.00     0.000 C 
BRANCH  20  21
ATOM     21  C   UNL     1      27.700   0.152  -7.931  1.00  0.00     0.000 C 
BRANCH  21  22
ATOM     22  C   UNL     1      29.213   0.093  -8.190  1.00  0.00     0.000 C 
BRANCH  22  23
ATOM     23  C   UNL     1      29.778  -1.333  -8.073  1.00  0.00     0.000 C 
BRANCH  23  24
ATOM     24  C   UNL     1      29.754  -1.857  -6.628  1.00  0.00    -0.000 C 
BRANCH  24  25
ATOM     25  C   UNL     1      28.886  -3.118  -6.474  1.00  0.00    -0.000 C 
BRANCH  25  26
ATOM     26  C   UNL     1      28.602  -3.462  -5.003  1.00  0.00    -0.000 C 
BRANCH  26  27
ATOM     27  C   UNL     1      27.097  -3.543  -4.695  1.00  0.00    -0.000 C 
BRANCH  27  28
ATOM     28  C   UNL     1      26.567  -4.988  -4.669  1.00  0.00    -0.000 C 
BRANCH  28  29
ATOM     29  C   UNL     1      26.406  -5.642  -6.053  1.00  0.00    -0.000 C 
BRANCH  29  30
ATOM     30  C   UNL     1      27.005  -7.058  -6.121  1.00  0.00    -0.000 C 
BRANCH  30  31
ATOM     31  C   UNL     1      28.465  -7.100  -5.645  1.00  0.00    -0.003 C 
ATOM     32  C   UNL     1      28.631  -7.827  -4.311  1.00  0.00     0.004 C 
ENDBRANCH  30  31
ENDBRANCH  29  30
ENDBRANCH  28  29
ENDBRANCH  27  28
ENDBRANCH  26  27
ENDBRANCH  25  26
ENDBRANCH  24  25
ENDBRANCH  23  24
ENDBRANCH  22  23
ENDBRANCH  21  22
ENDBRANCH  20  21
ENDBRANCH  19  20
ENDBRANCH  18  19
ENDBRANCH   1  18
TORSDOF 28
ENDMDL
MODEL 4
REMARK VINA RESULT:    -3.657      3.815     10.223
REMARK INTER + INTRA:         -11.704
REMARK INTER:                 -10.024
REMARK INTRA:                  -1.679
REMARK UNBOUND:                -2.061
REMARK SMILES CCCCCCCCCCCCCCCCCCCCCCCCCCCCCC(=O)[O-]
REMARK SMILES IDX 16 1 17 2 18 3 19 4 20 5 21 6 22 7 23 8 24 9 25 10 26 11
REMARK SMILES IDX 27 12 28 13 29 14 30 15 31 16 32 17 15 18 14 19 13 20 12 21
REMARK SMILES IDX 11 22 10 23 9 24 8 25 7 26 6 27 5 28 4 29 3 30 2 31 1 32
REMARK H PARENT
REMARK Flexibility Score: inf
ROOT
ATOM      1  C   UNL     1      26.220  -6.342  -6.196  1.00  0.00     0.000 C 
ENDROOT
BRANCH   1   2
ATOM      2  C   UNL     1      27.207  -5.229  -6.590  1.00  0.00     0.000 C 
BRANCH   2   3
ATOM      3  C   UNL     1      27.309  -4.114  -5.531  1.00  0.00     0.000 C 
BRANCH   3   4
ATOM      4  C   UNL     1      28.176  -2.904  -5.935  1.00  0.00     0.000 C 
BRANCH   4   5
ATOM      5  C   UNL     1      27.581  -1.524  -5.591  1.00  0.00     0.000 C 
BRANCH   5   6
ATOM      6  C   UNL     1      27.984  -0.387  -6.548  1.00  0.00     0.000 C 
BRANCH   6   7
ATOM      7  C   UNL     1      27.911   0.999  -5.885  1.00  0.00     0.000 C 
BRANCH   7   8
ATOM      8  C   UNL     1      26.748   1.124  -4.888  1.00  0.00     0.000 C 
BRANCH   8   9
ATOM      9  C   UNL     1      25.368   1.125  -5.571  1.00  0.00     0.000 C 
BRANCH   9  10
ATOM     10  C   UNL     1      24.207   1.065  -4.567  1.00  0.00     0.000 C 
BRANCH  10  11
ATOM     11  C   UNL     1      22.829   1.014  -5.252  1.00  0.00     0.000 C 
BRANCH  11  12
ATOM     12  C   UNL     1      21.678   1.060  -4.231  1.00  0.00     0.000 C 
BRANCH  12  13
ATOM     13  C   UNL     1      20.360   0.536  -4.825  1.00  0.00     0.006 C 
BRANCH  13  14
ATOM     14  C   UNL     1      20.373  -0.986  -5.011  1.00  0.00     0.053 C 
BRANCH  14  15
ATOM     15  C   UNL     1      19.050  -1.594  -4.658  1.00  0.00     0.041 C 
ATOM     16  O   UNL     1      18.914  -2.846  -4.621  1.00  0.00    -0.550 OA
ATOM     17  O   UNL     1      17.955  -0.774  -4.405  1.00  0.00    -0.550 OA
ENDBRANCH  14  15
ENDBRANCH  13  14
ENDBRANCH  12  13
ENDBRANCH  11  12
ENDBRANCH  10  11
ENDBRANCH   9  10
ENDBRANCH   8   9
ENDBRANCH   7   8
ENDBRANCH   6   7
ENDBRANCH   5   6
ENDBRANCH   4   5
ENDBRANCH   3   4
ENDBRANCH   2   3
ENDBRANCH   1   2
BRANCH   1  18
ATOM     18  C   UNL     1      26.929  -7.608  -5.692  1.00  0.00     0.000 C 
BRANCH  18  19
ATOM     19  C   UNL     1      28.251  -7.885  -6.428  1.00  0.00     0.000 C 
BRANCH  19  20
ATOM     20  C   UNL     1      29.392  -8.254  -5.464  1.00  0.00     0.000 C 
BRANCH  20  21
ATOM     21  C   UNL     1      29.103  -7.817  -4.017  1.00  0.00     0.000 C 
BRANCH  21  22
ATOM     22  C   UNL     1      30.042  -6.702  -3.532  1.00  0.00     0.000 C 
BRANCH  22  23
ATOM     23  C   UNL     1      29.497  -5.296  -3.837  1.00  0.00     0.000 C 
BRANCH  23  24
ATOM     24  C   UNL     1      29.999  -4.241  -2.838  1.00  0.00    -0.000 C 
BRANCH  24  25
ATOM     25  C   UNL     1      28.851  -3.423  -2.220  1.00  0.00    -0.000 C 
BRANCH  25  26
ATOM     26  C   UNL     1      29.357  -2.301  -1.300  1.00  0.00    -0.000 C 
BRANCH  26  27
ATOM     27  C   UNL     1      30.040  -2.839  -0.031  1.00  0.00    -0.000 C 
BRANCH  27  28
ATOM     28  C   UNL     1      29.156  -2.719   1.223  1.00  0.00    -0.000 C 
BRANCH  28  29
ATOM     29  C   UNL     1      29.414  -1.466   2.079  1.00  0.00    -0.000 C 
BRANCH  29  30
ATOM     30  C   UNL     1      28.130  -0.890   2.702  1.00  0.00    -0.000 C 
BRANCH  30  31
ATOM     31  C   UNL     1      27.991  -1.246   4.190  1.00  0.00    -0.003 C 
ATOM     32  C   UNL     1      26.734  -0.650   4.824  1.00  0.00     0.004 C 
ENDBRANCH  30  31
ENDBRANCH  29  30
ENDBRANCH  28  29
ENDBRANCH  27  28
ENDBRANCH  26  27
ENDBRANCH  25  26
ENDBRANCH  24  25
ENDBRANCH  23  24
ENDBRANCH  22  23
ENDBRANCH  21  22
ENDBRANCH  20  21
ENDBRANCH  19  20
ENDBRANCH  18  19
ENDBRANCH   1  18
TORSDOF 28
ENDMDL
MODEL 5
REMARK VINA RESULT:    -3.513      3.318      6.640
REMARK INTER + INTRA:         -11.323
REMARK INTER:                  -9.220
REMARK INTRA:                  -2.103
REMARK UNBOUND:                -2.061
REMARK SMILES CCCCCCCCCCCCCCCCCCCCCCCCCCCCCC(=O)[O-]
REMARK SMILES IDX 16 1 17 2 18 3 19 4 20 5 21 6 22 7 23 8 24 9 25 10 26 11
REMARK SMILES IDX 27 12 28 13 29 14 30 15 31 16 32 17 15 18 14 19 13 20 12 21
REMARK SMILES IDX 11 22 10 23 9 24 8 25 7 26 6 27 5 28 4 29 3 30 2 31 1 32
REMARK H PARENT
REMARK Flexibility Score: inf
ROOT
ATOM      1  C   UNL     1      27.962  -2.544  -6.127  1.00  0.00     0.000 C 
ENDROOT
BRANCH   1   2
ATOM      2  C   UNL     1      28.169  -4.065  -6.021  1.00  0.00     0.000 C 
BRANCH   2   3
ATOM      3  C   UNL     1      29.226  -4.456  -4.972  1.00  0.00     0.000 C 
BRANCH   3   4
ATOM      4  C   UNL     1      29.484  -5.971  -4.833  1.00  0.00     0.000 C 
BRANCH   4   5
ATOM      5  C   UNL     1      28.229  -6.863  -4.918  1.00  0.00     0.000 C 
BRANCH   5   6
ATOM      6  C   UNL     1      27.449  -7.012  -3.599  1.00  0.00     0.000 C 
BRANCH   6   7
ATOM      7  C   UNL     1      26.232  -6.073  -3.522  1.00  0.00     0.000 C 
BRANCH   7   8
ATOM      8  C   UNL     1      26.622  -4.609  -3.269  1.00  0.00     0.000 C 
BRANCH   8   9
ATOM      9  C   UNL     1      26.133  -4.083  -1.908  1.00  0.00     0.000 C 
BRANCH   9  10
ATOM     10  C   UNL     1      26.906  -2.843  -1.435  1.00  0.00     0.000 C 
BRANCH  10  11
ATOM     11  C   UNL     1      28.071  -2.474  -2.370  1.00  0.00     0.000 C 
BRANCH  11  12
ATOM     12  C   UNL     1      29.284  -1.935  -1.593  1.00  0.00     0.000 C 
BRANCH  12  13
ATOM     13  C   UNL     1      28.897  -1.443  -0.188  1.00  0.00     0.006 C 
BRANCH  13  14
ATOM     14  C   UNL     1      29.580  -2.256   0.918  1.00  0.00     0.053 C 
BRANCH  14  15
ATOM     15  C   UNL     1      28.698  -2.396   2.122  1.00  0.00     0.041 C 
ATOM     16  O   UNL     1      27.894  -3.361   2.213  1.00  0.00    -0.550 OA
ATOM     17  O   UNL     1      28.740  -1.435   3.127  1.00  0.00    -0.550 OA
ENDBRANCH  14  15
ENDBRANCH  13  14
ENDBRANCH  12  13
ENDBRANCH  11  12
ENDBRANCH  10  11
ENDBRANCH   9  10
ENDBRANCH   8   9
ENDBRANCH   7   8
ENDBRANCH   6   7
ENDBRANCH   5   6
ENDBRANCH   4   5
ENDBRANCH   3   4
ENDBRANCH   2   3
ENDBRANCH   1   2
BRANCH   1  18
ATOM     18  C   UNL     1      29.239  -1.803  -6.553  1.00  0.00     0.000 C 
BRANCH  18  19
ATOM     19  C   UNL     1      28.954  -0.402  -7.120  1.00  0.00     0.000 C 
BRANCH  19  20
ATOM     20  C   UNL     1      27.540   0.094  -6.777  1.00  0.00     0.000 C 
BRANCH  20  21
ATOM     21  C   UNL     1      27.469   0.753  -5.388  1.00  0.00     0.000 C 
BRANCH  21  22
ATOM     22  C   UNL     1      26.370   0.152  -4.499  1.00  0.00     0.000 C 
BRANCH  22  23
ATOM     23  C   UNL     1      25.191   1.117  -4.282  1.00  0.00     0.000 C 
BRANCH  23  24
ATOM     24  C   UNL     1      24.213   1.125  -5.468  1.00  0.00    -0.000 C 
BRANCH  24  25
ATOM     25  C   UNL     1      22.781   0.743  -5.052  1.00  0.00    -0.000 C 
BRANCH  25  26
ATOM     26  C   UNL     1      21.802   0.746  -6.236  1.00  0.00    -0.000 C 
BRANCH  26  27
ATOM     27  C   UNL     1      20.803  -0.422  -6.180  1.00  0.00    -0.000 C 
BRANCH  27  28
ATOM     28  C   UNL     1      20.430  -0.823  -4.742  1.00  0.00    -0.000 C 
BRANCH  28  29
ATOM     29  C   UNL     1      19.915  -2.266  -4.586  1.00  0.00    -0.000 C 
BRANCH  29  30
ATOM     30  C   UNL     1      18.744  -2.380  -3.595  1.00  0.00    -0.000 C 
BRANCH  30  31
ATOM     31  C   UNL     1      18.127  -1.014  -3.255  1.00  0.00    -0.003 C 
ATOM     32  C   UNL     1      16.640  -1.107  -2.914  1.00  0.00     0.004 C 
ENDBRANCH  30  31
ENDBRANCH  29  30
ENDBRANCH  28  29
ENDBRANCH  27  28
ENDBRANCH  26  27
ENDBRANCH  25  26
ENDBRANCH  24  25
ENDBRANCH  23  24
ENDBRANCH  22  23
ENDBRANCH  21  22
ENDBRANCH  20  21
ENDBRANCH  19  20
ENDBRANCH  18  19
ENDBRANCH   1  18
TORSDOF 28
ENDMDL
MODEL 6
REMARK VINA RESULT:    -3.467      2.628     10.248
REMARK INTER + INTRA:         -11.202
REMARK INTER:                  -8.690
REMARK INTRA:                  -2.512
REMARK UNBOUND:                -2.061
REMARK SMILES CCCCCCCCCCCCCCCCCCCCCCCCCCCCCC(=O)[O-]
REMARK SMILES IDX 16 1 17 2 18 3 19 4 20 5 21 6 22 7 23 8 24 9 25 10 26 11
REMARK SMILES IDX 27 12 28 13 29 14 30 15 31 16 32 17 15 18 14 19 13 20 12 21
REMARK SMILES IDX 11 22 10 23 9 24 8 25 7 26 6 27 5 28 4 29 3 30 2 31 1 32
REMARK H PARENT
REMARK Flexibility Score: inf
ROOT
ATOM      1  C   UNL     1      23.440   0.432  -4.723  1.00  0.00     0.000 C 
ENDROOT
BRANCH   1   2
ATOM      2  C   UNL     1      22.214   1.125  -5.344  1.00  0.00     0.000 C 
BRANCH   2   3
ATOM      3  C   UNL     1      20.890   0.718  -4.672  1.00  0.00     0.000 C 
BRANCH   3   4
ATOM      4  C   UNL     1      19.614   1.085  -5.458  1.00  0.00     0.000 C 
BRANCH   4   5
ATOM      5  C   UNL     1      19.685   0.839  -6.979  1.00  0.00     0.000 C 
BRANCH   5   6
ATOM      6  C   UNL     1      18.374   1.107  -7.741  1.00  0.00     0.000 C 
BRANCH   6   7
ATOM      7  C   UNL     1      17.207   0.242  -7.234  1.00  0.00     0.000 C 
BRANCH   7   8
ATOM      8  C   UNL     1      16.129   1.059  -6.506  1.00  0.00     0.000 C 
BRANCH   8   9
ATOM      9  C   UNL     1      15.487   0.297  -5.333  1.00  0.00     0.000 C 
BRANCH   9  10
ATOM     10  C   UNL     1      16.409   0.201  -4.108  1.00  0.00     0.000 C 
BRANCH  10  11
ATOM     11  C   UNL     1      15.994  -0.915  -3.134  1.00  0.00     0.000 C 
BRANCH  11  12
ATOM     12  C   UNL     1      17.203  -1.507  -2.389  1.00  0.00     0.000 C 
BRANCH  12  13
ATOM     13  C   UNL     1      18.440  -1.623  -3.295  1.00  0.00     0.006 C 
BRANCH  13  14
ATOM     14  C   UNL     1      18.191  -2.540  -4.499  1.00  0.00     0.053 C 
BRANCH  14  15
ATOM     15  C   UNL     1      19.387  -2.600  -5.400  1.00  0.00     0.041 C 
ATOM     16  O   UNL     1      20.544  -2.428  -4.934  1.00  0.00    -0.550 OA
ATOM     17  O   UNL     1      19.217  -2.808  -6.765  1.00  0.00    -0.550 OA
ENDBRANCH  14  15
ENDBRANCH  13  14
ENDBRANCH  12  13
ENDBRANCH  11  12
ENDBRANCH  10  11
ENDBRANCH   9  10
ENDBRANCH   8   9
ENDBRANCH   7   8
ENDBRANCH   6   7
ENDBRANCH   5   6
ENDBRANCH   4   5
ENDBRANCH   3   4
ENDBRANCH   2   3
ENDBRANCH   1   2
BRANCH   1  18
ATOM     18  C   UNL     1      24.763   1.099  -5.129  1.00  0.00     0.000 C 
BRANCH  18  19
ATOM     19  C   UNL     1      25.899   0.832  -4.126  1.00  0.00     0.000 C 
BRANCH  19  20
ATOM     20  C   UNL     1      27.290   0.967  -4.766  1.00  0.00     0.000 C 
BRANCH  20  21
ATOM     21  C   UNL     1      28.093  -0.345  -4.711  1.00  0.00     0.000 C 
BRANCH  21  22
ATOM     22  C   UNL     1      29.563  -0.129  -4.322  1.00  0.00     0.000 C 
BRANCH  22  23
ATOM     23  C   UNL     1      29.862  -0.562  -2.877  1.00  0.00     0.000 C 
BRANCH  23  24
ATOM     24  C   UNL     1      28.693  -1.332  -2.240  1.00  0.00    -0.000 C 
BRANCH  24  25
ATOM     25  C   UNL     1      29.043  -2.803  -1.956  1.00  0.00    -0.000 C 
BRANCH  25  26
ATOM     26  C   UNL     1      28.397  -3.767  -2.962  1.00  0.00    -0.000 C 
BRANCH  26  27
ATOM     27  C   UNL     1      29.124  -3.782  -4.318  1.00  0.00    -0.000 C 
BRANCH  27  28
ATOM     28  C   UNL     1      29.658  -5.175  -4.698  1.00  0.00    -0.000 C 
BRANCH  28  29
ATOM     29  C   UNL     1      28.713  -6.343  -4.362  1.00  0.00    -0.000 C 
BRANCH  29  30
ATOM     30  C   UNL     1      28.590  -7.362  -5.508  1.00  0.00    -0.000 C 
BRANCH  30  31
ATOM     31  C   UNL     1      27.149  -7.494  -6.024  1.00  0.00    -0.003 C 
ATOM     32  C   UNL     1      26.770  -6.384  -7.004  1.00  0.00     0.004 C 
ENDBRANCH  30  31
ENDBRANCH  29  30
ENDBRANCH  28  29
ENDBRANCH  27  28
ENDBRANCH  26  27
ENDBRANCH  25  26
ENDBRANCH  24  25
ENDBRANCH  23  24
ENDBRANCH  22  23
ENDBRANCH  21  22
ENDBRANCH  20  21
ENDBRANCH  19  20
ENDBRANCH  18  19
ENDBRANCH   1  18
TORSDOF 28
ENDMDL
MODEL 7
REMARK VINA RESULT:    -3.381      3.379      6.835
REMARK INTER + INTRA:         -10.976
REMARK INTER:                  -9.005
REMARK INTRA:                  -1.971
REMARK UNBOUND:                -2.061
REMARK SMILES CCCCCCCCCCCCCCCCCCCCCCCCCCCCCC(=O)[O-]
REMARK SMILES IDX 16 1 17 2 18 3 19 4 20 5 21 6 22 7 23 8 24 9 25 10 26 11
REMARK SMILES IDX 27 12 28 13 29 14 30 15 31 16 32 17 15 18 14 19 13 20 12 21
REMARK SMILES IDX 11 22 10 23 9 24 8 25 7 26 6 27 5 28 4 29 3 30 2 31 1 32
REMARK H PARENT
REMARK Flexibility Score: inf
ROOT
ATOM      1  C   UNL     1      27.500  -3.429  -6.388  1.00  0.00     0.000 C 
ENDROOT
BRANCH   1   2
ATOM      2  C   UNL     1      26.985  -4.865  -6.185  1.00  0.00     0.000 C 
BRANCH   2   3
ATOM      3  C   UNL     1      26.098  -5.015  -4.935  1.00  0.00     0.000 C 
BRANCH   3   4
ATOM      4  C   UNL     1      26.822  -5.531  -3.675  1.00  0.00     0.000 C 
BRANCH   4   5
ATOM      5  C   UNL     1      27.419  -6.948  -3.792  1.00  0.00     0.000 C 
BRANCH   5   6
ATOM      6  C   UNL     1      28.391  -7.146  -4.970  1.00  0.00     0.000 C 
BRANCH   6   7
ATOM      7  C   UNL     1      29.863  -6.976  -4.557  1.00  0.00     0.000 C 
BRANCH   7   8
ATOM      8  C   UNL     1      30.026  -6.265  -3.205  1.00  0.00     0.000 C 
BRANCH   8   9
ATOM      9  C   UNL     1      30.125  -4.735  -3.338  1.00  0.00     0.000 C 
BRANCH   9  10
ATOM     10  C   UNL     1      29.992  -4.010  -1.990  1.00  0.00     0.000 C 
BRANCH  10  11
ATOM     11  C   UNL     1      29.147  -2.727  -2.084  1.00  0.00     0.000 C 
BRANCH  11  12
ATOM     12  C   UNL     1      27.803  -2.869  -1.348  1.00  0.00     0.000 C 
BRANCH  12  13
ATOM     13  C   UNL     1      27.134  -1.507  -1.101  1.00  0.00     0.006 C 
BRANCH  13  14
ATOM     14  C   UNL     1      28.081  -0.512  -0.420  1.00  0.00     0.053 C 
BRANCH  14  15
ATOM     15  C   UNL     1      27.450   0.105   0.791  1.00  0.00     0.041 C 
ATOM     16  O   UNL     1      27.887  -0.161   1.942  1.00  0.00    -0.550 OA
ATOM     17  O   UNL     1      26.352   0.947   0.649  1.00  0.00    -0.550 OA
ENDBRANCH  14  15
ENDBRANCH  13  14
ENDBRANCH  12  13
ENDBRANCH  11  12
ENDBRANCH  10  11
ENDBRANCH   9  10
ENDBRANCH   8   9
ENDBRANCH   7   8
ENDBRANCH   6   7
ENDBRANCH   5   6
ENDBRANCH   4   5
ENDBRANCH   3   4
ENDBRANCH   2   3
ENDBRANCH   1   2
BRANCH   1  18
ATOM     18  C   UNL     1      28.655  -3.077  -5.438  1.00  0.00     0.000 C 
BRANCH  18  19
ATOM     19  C   UNL     1      29.384  -1.782  -5.839  1.00  0.00     0.000 C 
BRANCH  19  20
ATOM     20  C   UNL     1      28.461  -0.792  -6.568  1.00  0.00     0.000 C 
BRANCH  20  21
ATOM     21  C   UNL     1      28.052   0.395  -5.678  1.00  0.00     0.000 C 
BRANCH  21  22
ATOM     22  C   UNL     1      27.129  -0.018  -4.522  1.00  0.00     0.000 C 
BRANCH  22  23
ATOM     23  C   UNL     1      26.070   1.051  -4.201  1.00  0.00     0.000 C 
BRANCH  23  24
ATOM     24  C   UNL     1      24.931   1.079  -5.234  1.00  0.00    -0.000 C 
BRANCH  24  25
ATOM     25  C   UNL     1      23.541   1.125  -4.575  1.00  0.00    -0.000 C 
BRANCH  25  26
ATOM     26  C   UNL     1      22.477   0.376  -5.392  1.00  0.00    -0.000 C 
BRANCH  26  27
ATOM     27  C   UNL     1      21.051   0.876  -5.105  1.00  0.00    -0.000 C 
BRANCH  27  28
ATOM     28  C   UNL     1      19.963  -0.062  -5.658  1.00  0.00    -0.000 C 
BRANCH  28  29
ATOM     29  C   UNL     1      19.942  -1.468  -5.033  1.00  0.00    -0.000 C 
BRANCH  29  30
ATOM     30  C   UNL     1      19.198  -1.515  -3.688  1.00  0.00    -0.000 C 
BRANCH  30  31
ATOM     31  C   UNL     1      17.688  -1.741  -3.860  1.00  0.00    -0.003 C 
ATOM     32  C   UNL     1      16.870  -1.179  -2.698  1.00  0.00     0.004 C 
ENDBRANCH  30  31
ENDBRANCH  29  30
ENDBRANCH  28  29
ENDBRANCH  27  28
ENDBRANCH  26  27
ENDBRANCH  25  26
ENDBRANCH  24  25
ENDBRANCH  23  24
ENDBRANCH  22  23
ENDBRANCH  21  22
ENDBRANCH  20  21
ENDBRANCH  19  20
ENDBRANCH  18  19
ENDBRANCH   1  18
TORSDOF 28
ENDMDL
MODEL 8
REMARK VINA RESULT:    -3.311      4.036      6.678
REMARK INTER + INTRA:         -10.790
REMARK INTER:                  -8.078
REMARK INTRA:                  -2.712
REMARK UNBOUND:                -2.061
REMARK SMILES CCCCCCCCCCCCCCCCCCCCCCCCCCCCCC(=O)[O-]
REMARK SMILES IDX 16 1 17 2 18 3 19 4 20 5 21 6 22 7 23 8 24 9 25 10 26 11
REMARK SMILES IDX 27 12 28 13 29 14 30 15 31 16 32 17 15 18 14 19 13 20 12 21
REMARK SMILES IDX 11 22 10 23 9 24 8 25 7 26 6 27 5 28 4 29 3 30 2 31 1 32
REMARK H PARENT
REMARK Flexibility Score: inf
ROOT
ATOM      1  C   UNL     1      28.200  -1.723  -6.325  1.00  0.00     0.000 C 
ENDROOT
BRANCH   1   2
ATOM      2  C   UNL     1      29.610  -2.309  -6.135  1.00  0.00     0.000 C 
BRANCH   2   3
ATOM      3  C   UNL     1      29.750  -3.130  -4.839  1.00  0.00     0.000 C 
BRANCH   3   4
ATOM      4  C   UNL     1      28.995  -4.475  -4.829  1.00  0.00     0.000 C 
BRANCH   4   5
ATOM      5  C   UNL     1      28.290  -4.824  -3.503  1.00  0.00     0.000 C 
BRANCH   5   6
ATOM      6  C   UNL     1      27.020  -4.004  -3.208  1.00  0.00     0.000 C 
BRANCH   6   7
ATOM      7  C   UNL     1      27.042  -3.363  -1.809  1.00  0.00     0.000 C 
BRANCH   7   8
ATOM      8  C   UNL     1      28.436  -2.860  -1.404  1.00  0.00     0.000 C 
BRANCH   8   9
ATOM      9  C   UNL     1      28.693  -1.401  -1.822  1.00  0.00     0.000 C 
BRANCH   9  10
ATOM     10  C   UNL     1      30.028  -0.855  -1.292  1.00  0.00     0.000 C 
BRANCH  10  11
ATOM     11  C   UNL     1      29.844   0.210  -0.197  1.00  0.00     0.000 C 
BRANCH  11  12
ATOM     12  C   UNL     1      30.099  -0.361   1.209  1.00  0.00     0.000 C 
BRANCH  12  13
ATOM     13  C   UNL     1      28.979   0.010   2.194  1.00  0.00     0.006 C 
BRANCH  13  14
ATOM     14  C   UNL     1      28.236  -1.224   2.717  1.00  0.00     0.053 C 
BRANCH  14  15
ATOM     15  C   UNL     1      27.879  -1.078   4.166  1.00  0.00     0.041 C 
ATOM     16  O   UNL     1      27.711  -2.098   4.886  1.00  0.00    -0.550 OA
ATOM     17  O   UNL     1      27.695   0.189   4.710  1.00  0.00    -0.550 OA
ENDBRANCH  14  15
ENDBRANCH  13  14
ENDBRANCH  12  13
ENDBRANCH  11  12
ENDBRANCH  10  11
ENDBRANCH   9  10
ENDBRANCH   8   9
ENDBRANCH   7   8
ENDBRANCH   6   7
ENDBRANCH   5   6
ENDBRANCH   4   5
ENDBRANCH   3   4
ENDBRANCH   2   3
ENDBRANCH   1   2
BRANCH   1  18
ATOM     18  C   UNL     1      27.661  -1.059  -5.049  1.00  0.00     0.000 C 
BRANCH  18  19
ATOM     19  C   UNL     1      27.644   0.478  -5.137  1.00  0.00     0.000 C 
BRANCH  19  20
ATOM     20  C   UNL     1      26.887   1.123  -3.965  1.00  0.00     0.000 C 
BRANCH  20  21
ATOM     21  C   UNL     1      25.363   1.125  -4.179  1.00  0.00     0.000 C 
BRANCH  21  22
ATOM     22  C   UNL     1      24.968   0.985  -5.657  1.00  0.00     0.000 C 
BRANCH  22  23
ATOM     23  C   UNL     1      23.449   1.095  -5.876  1.00  0.00     0.000 C 
BRANCH  23  24
ATOM     24  C   UNL     1      22.643   0.468  -4.726  1.00  0.00    -0.000 C 
BRANCH  24  25
ATOM     25  C   UNL     1      21.142   0.367  -5.048  1.00  0.00    -0.000 C 
BRANCH  25  26
ATOM     26  C   UNL     1      20.856  -0.559  -6.240  1.00  0.00    -0.000 C 
BRANCH  26  27
ATOM     27  C   UNL     1      19.582  -1.399  -6.044  1.00  0.00    -0.000 C 
BRANCH  27  28
ATOM     28  C   UNL     1      19.589  -2.201  -4.730  1.00  0.00    -0.000 C 
BRANCH  28  29
ATOM     29  C   UNL     1      18.607  -1.696  -3.658  1.00  0.00    -0.000 C 
BRANCH  29  30
ATOM     30  C   UNL     1      17.137  -1.777  -4.106  1.00  0.00    -0.000 C 
BRANCH  30  31
ATOM     31  C   UNL     1      16.335  -0.527  -3.714  1.00  0.00    -0.003 C 
ATOM     32  C   UNL     1      15.169  -0.252  -4.663  1.00  0.00     0.004 C 
ENDBRANCH  30  31
ENDBRANCH  29  30
ENDBRANCH  28  29
ENDBRANCH  27  28
ENDBRANCH  26  27
ENDBRANCH  25  26
ENDBRANCH  24  25
ENDBRANCH  23  24
ENDBRANCH  22  23
ENDBRANCH  21  22
ENDBRANCH  20  21
ENDBRANCH  19  20
ENDBRANCH  18  19
ENDBRANCH   1  18
TORSDOF 28
ENDMDL
