MODEL 1
REMARK VINA RESULT:    -5.385      0.000      0.000
REMARK INTER + INTRA:         -10.576
REMARK INTER:                  -9.163
REMARK INTRA:                  -1.414
REMARK UNBOUND:                -1.414
REMARK SMILES CCCCCCCCCCCCCC(=O)[O-]
REMARK SMILES IDX 8 1 9 2 10 3 11 4 12 5 13 6 14 7 15 8 16 9 7 10 6 11 5 12
REMARK SMILES IDX 4 13 3 14 2 15 1 16
REMARK H PARENT
REMARK Flexibility Score: inf
ROOT
ATOM      1  C   UNL     1      43.374  40.165  15.287  1.00  0.00     0.000 C 
ENDROOT
BRANCH   1   2
ATOM      2  C   UNL     1      42.919  41.551  14.803  1.00  0.00     0.000 C 
BRANCH   2   3
ATOM      3  C   UNL     1      41.503  41.911  15.287  1.00  0.00     0.000 C 
BRANCH   3   4
ATOM      4  C   UNL     1      40.803  40.746  16.009  1.00  0.00     0.000 C 
BRANCH   4   5
ATOM      5  C   UNL     1      40.474  41.008  17.490  1.00  0.00     0.006 C 
BRANCH   5   6
ATOM      6  C   UNL     1      41.594  40.561  18.439  1.00  0.00     0.053 C 
BRANCH   6   7
ATOM      7  C   UNL     1      42.354  41.747  18.944  1.00  0.00     0.041 C 
ATOM      8  O   UNL     1      43.378  42.150  18.332  1.00  0.00    -0.550 OA
ATOM      9  O   UNL     1      41.905  42.438  20.062  1.00  0.00    -0.550 OA
ENDBRANCH   6   7
ENDBRANCH   5   6
ENDBRANCH   4   5
ENDBRANCH   3   4
ENDBRANCH   2   3
ENDBRANCH   1   2
BRANCH   1  10
ATOM     10  C   UNL     1      44.633  39.670  14.559  1.00  0.00     0.000 C 
BRANCH  10  11
ATOM     11  C   UNL     1      44.420  38.262  13.988  1.00  0.00    -0.000 C 
BRANCH  11  12
ATOM     12  C   UNL     1      43.067  38.161  13.268  1.00  0.00    -0.000 C 
BRANCH  12  13
ATOM     13  C   UNL     1      42.265  36.915  13.681  1.00  0.00    -0.000 C 
BRANCH  13  14
ATOM     14  C   UNL     1      40.755  37.076  13.434  1.00  0.00    -0.000 C 
BRANCH  14  15
ATOM     15  C   UNL     1      40.346  38.544  13.237  1.00  0.00    -0.003 C 
ATOM     16  C   UNL     1      39.236  38.716  12.202  1.00  0.00     0.004 C 
ENDBRANCH  14  15
ENDBRANCH  13  14
ENDBRANCH  12  13
ENDBRANCH  11  12
ENDBRANCH  10  11
ENDBRANCH   1  10
TORSDOF 12
ENDMDL
MODEL 2
REMARK VINA RESULT:    -5.281      1.180      1.737
REMARK INTER + INTRA:         -10.400
REMARK INTER:                  -9.113
REMARK INTRA:                  -1.287
REMARK UNBOUND:                -1.414
REMARK SMILES CCCCCCCCCCCCCC(=O)[O-]
REMARK SMILES IDX 8 1 9 2 10 3 11 4 12 5 13 6 14 7 15 8 16 9 7 10 6 11 5 12
REMARK SMILES IDX 4 13 3 14 2 15 1 16
REMARK H PARENT
REMARK Flexibility Score: inf
ROOT
ATOM      1  C   UNL     1      41.945  40.246  15.837  1.00  0.00     0.000 C 
ENDROOT
BRANCH   1   2
ATOM      2  C   UNL     1      40.893  41.297  15.451  1.00  0.00     0.000 C 
BRANCH   2   3
ATOM      3  C   UNL     1      41.348  42.734  15.765  1.00  0.00     0.000 C 
BRANCH   3   4
ATOM      4  C   UNL     1      41.304  43.059  17.269  1.00  0.00     0.000 C 
BRANCH   4   5
ATOM      5  C   UNL     1      42.681  43.234  17.934  1.00  0.00     0.006 C 
BRANCH   5   6
ATOM      6  C   UNL     1      43.097  42.020  18.775  1.00  0.00     0.053 C 
BRANCH   6   7
ATOM      7  C   UNL     1      41.939  41.521  19.581  1.00  0.00     0.041 C 
ATOM      8  O   UNL     1      41.470  42.222  20.516  1.00  0.00    -0.550 OA
ATOM      9  O   UNL     1      41.346  40.305  19.268  1.00  0.00    -0.550 OA
ENDBRANCH   6   7
ENDBRANCH   5   6
ENDBRANCH   4   5
ENDBRANCH   3   4
ENDBRANCH   2   3
ENDBRANCH   1   2
BRANCH   1  10
ATOM     10  C   UNL     1      43.212  40.335  14.971  1.00  0.00     0.000 C 
BRANCH  10  11
ATOM     11  C   UNL     1      43.725  38.937  14.603  1.00  0.00    -0.000 C 
BRANCH  11  12
ATOM     12  C   UNL     1      42.936  38.356  13.419  1.00  0.00    -0.000 C 
BRANCH  12  13
ATOM     13  C   UNL     1      42.216  37.044  13.771  1.00  0.00    -0.000 C 
BRANCH  13  14
ATOM     14  C   UNL     1      40.723  37.072  13.396  1.00  0.00    -0.000 C 
BRANCH  14  15
ATOM     15  C   UNL     1      40.211  38.497  13.129  1.00  0.00    -0.003 C 
ATOM     16  C   UNL     1      39.124  38.545  12.057  1.00  0.00     0.004 C 
ENDBRANCH  14  15
ENDBRANCH  13  14
ENDBRANCH  12  13
ENDBRANCH  11  12
ENDBRANCH  10  11
ENDBRANCH   1  10
TORSDOF 12
ENDMDL
MODEL 3
REMARK VINA RESULT:    -5.104      1.163      2.153
REMARK INTER + INTRA:         -10.099
REMARK INTER:                  -9.084
REMARK INTRA:                  -1.015
REMARK UNBOUND:                -1.414
REMARK SMILES CCCCCCCCCCCCCC(=O)[O-]
REMARK SMILES IDX 8 1 9 2 10 3 11 4 12 5 13 6 14 7 15 8 16 9 7 10 6 11 5 12
REMARK SMILES IDX 4 13 3 14 2 15 1 16
REMARK H PARENT
REMARK Flexibility Score: inf
ROOT
ATOM      1  C   UNL     1      41.901  41.798  15.545  1.00  0.00     0.000 C 
ENDROOT
BRANCH   1   2
ATOM      2  C   UNL     1      40.764  41.113  16.319  1.00  0.00     0.000 C 
BRANCH   2   3
ATOM      3  C   UNL     1      40.821  41.401  17.831  1.00  0.00     0.000 C 
BRANCH   3   4
ATOM      4  C   UNL     1      41.431  40.240  18.637  1.00  0.00     0.000 C 
BRANCH   4   5
ATOM      5  C   UNL     1      41.960  40.629  20.030  1.00  0.00     0.006 C 
BRANCH   5   6
ATOM      6  C   UNL     1      41.833  42.130  20.320  1.00  0.00     0.053 C 
BRANCH   6   7
ATOM      7  C   UNL     1      43.166  42.800  20.201  1.00  0.00     0.041 C 
ATOM      8  O   UNL     1      43.904  42.924  21.215  1.00  0.00    -0.550 OA
ATOM      9  O   UNL     1      43.615  43.242  18.964  1.00  0.00    -0.550 OA
ENDBRANCH   6   7
ENDBRANCH   5   6
ENDBRANCH   4   5
ENDBRANCH   3   4
ENDBRANCH   2   3
ENDBRANCH   1   2
BRANCH   1  10
ATOM     10  C   UNL     1      43.256  41.101  15.747  1.00  0.00     0.000 C 
BRANCH  10  11
ATOM     11  C   UNL     1      43.549  40.128  14.598  1.00  0.00    -0.000 C 
BRANCH  11  12
ATOM     12  C   UNL     1      43.074  38.709  14.946  1.00  0.00    -0.000 C 
BRANCH  12  13
ATOM     13  C   UNL     1      42.924  37.811  13.707  1.00  0.00    -0.000 C 
BRANCH  13  14
ATOM     14  C   UNL     1      41.468  37.374  13.467  1.00  0.00    -0.000 C 
BRANCH  14  15
ATOM     15  C   UNL     1      40.474  38.538  13.610  1.00  0.00    -0.003 C 
ATOM     16  C   UNL     1      39.512  38.645  12.428  1.00  0.00     0.004 C 
ENDBRANCH  14  15
ENDBRANCH  13  14
ENDBRANCH  12  13
ENDBRANCH  11  12
ENDBRANCH  10  11
ENDBRANCH   1  10
TORSDOF 12
ENDMDL
MODEL 4
REMARK VINA RESULT:    -5.053      1.503      2.586
REMARK INTER + INTRA:         -10.011
REMARK INTER:                  -8.596
REMARK INTRA:                  -1.415
REMARK UNBOUND:                -1.414
REMARK SMILES CCCCCCCCCCCCCC(=O)[O-]
REMARK SMILES IDX 8 1 9 2 10 3 11 4 12 5 13 6 14 7 15 8 16 9 7 10 6 11 5 12
REMARK SMILES IDX 4 13 3 14 2 15 1 16
REMARK H PARENT
REMARK Flexibility Score: inf
ROOT
ATOM      1  C   UNL     1      40.952  41.660  15.466  1.00  0.00     0.000 C 
ENDROOT
BRANCH   1   2
ATOM      2  C   UNL     1      41.603  43.051  15.497  1.00  0.00     0.000 C 
BRANCH   2   3
ATOM      3  C   UNL     1      41.666  43.644  16.916  1.00  0.00     0.000 C 
BRANCH   3   4
ATOM      4  C   UNL     1      43.078  43.587  17.525  1.00  0.00     0.000 C 
BRANCH   4   5
ATOM      5  C   UNL     1      43.345  42.369  18.427  1.00  0.00     0.006 C 
BRANCH   5   6
ATOM      6  C   UNL     1      42.284  42.191  19.521  1.00  0.00     0.053 C 
BRANCH   6   7
ATOM      7  C   UNL     1      41.893  40.752  19.641  1.00  0.00     0.041 C 
ATOM      8  O   UNL     1      42.298  40.065  20.616  1.00  0.00    -0.550 OA
ATOM      9  O   UNL     1      41.040  40.182  18.705  1.00  0.00    -0.550 OA
ENDBRANCH   6   7
ENDBRANCH   5   6
ENDBRANCH   4   5
ENDBRANCH   3   4
ENDBRANCH   2   3
ENDBRANCH   1   2
BRANCH   1  10
ATOM     10  C   UNL     1      41.982  40.524  15.564  1.00  0.00     0.000 C 
BRANCH  10  11
ATOM     11  C   UNL     1      43.245  40.856  14.760  1.00  0.00    -0.000 C 
BRANCH  11  12
ATOM     12  C   UNL     1      44.133  39.614  14.592  1.00  0.00    -0.000 C 
BRANCH  12  13
ATOM     13  C   UNL     1      43.366  38.300  14.818  1.00  0.00    -0.000 C 
BRANCH  13  14
ATOM     14  C   UNL     1      42.912  37.647  13.501  1.00  0.00    -0.000 C 
BRANCH  14  15
ATOM     15  C   UNL     1      41.456  37.156  13.561  1.00  0.00    -0.003 C 
ATOM     16  C   UNL     1      40.451  38.229  13.148  1.00  0.00     0.004 C 
ENDBRANCH  14  15
ENDBRANCH  13  14
ENDBRANCH  12  13
ENDBRANCH  11  12
ENDBRANCH  10  11
ENDBRANCH   1  10
TORSDOF 12
ENDMDL
MODEL 5
REMARK VINA RESULT:    -5.010      2.958      6.258
REMARK INTER + INTRA:          -9.939
REMARK INTER:                  -8.372
REMARK INTRA:                  -1.567
REMARK UNBOUND:                -1.414
REMARK SMILES CCCCCCCCCCCCCC(=O)[O-]
REMARK SMILES IDX 8 1 9 2 10 3 11 4 12 5 13 6 14 7 15 8 16 9 7 10 6 11 5 12
REMARK SMILES IDX 4 13 3 14 2 15 1 16
REMARK H PARENT
REMARK Flexibility Score: inf
ROOT
ATOM      1  C   UNL     1      42.088  40.018  16.144  1.00  0.00     0.000 C 
ENDROOT
BRANCH   1   2
ATOM      2  C   UNL     1      43.011  40.524  15.024  1.00  0.00     0.000 C 
BRANCH   2   3
ATOM      3  C   UNL     1      43.793  39.385  14.344  1.00  0.00     0.000 C 
BRANCH   3   4
ATOM      4  C   UNL     1      43.085  38.023  14.454  1.00  0.00     0.000 C 
BRANCH   4   5
ATOM      5  C   UNL     1      42.252  37.626  13.223  1.00  0.00     0.006 C 
BRANCH   5   6
ATOM      6  C   UNL     1      40.791  37.303  13.567  1.00  0.00     0.053 C 
BRANCH   6   7
ATOM      7  C   UNL     1      39.880  38.353  13.015  1.00  0.00     0.041 C 
ATOM      8  O   UNL     1      39.971  39.544  13.415  1.00  0.00    -0.550 OA
ATOM      9  O   UNL     1      38.964  38.029  12.024  1.00  0.00    -0.550 OA
ENDBRANCH   6   7
ENDBRANCH   5   6
ENDBRANCH   4   5
ENDBRANCH   3   4
ENDBRANCH   2   3
ENDBRANCH   1   2
BRANCH   1  10
ATOM     10  C   UNL     1      40.845  40.903  16.328  1.00  0.00     0.000 C 
BRANCH  10  11
ATOM     11  C   UNL     1      41.148  42.360  15.959  1.00  0.00    -0.000 C 
BRANCH  11  12
ATOM     12  C   UNL     1      41.350  43.216  17.220  1.00  0.00    -0.000 C 
BRANCH  12  13
ATOM     13  C   UNL     1      42.832  43.386  17.592  1.00  0.00    -0.000 C 
BRANCH  13  14
ATOM     14  C   UNL     1      43.305  42.345  18.622  1.00  0.00    -0.000 C 
BRANCH  14  15
ATOM     15  C   UNL     1      42.220  42.010  19.659  1.00  0.00    -0.003 C 
ATOM     16  C   UNL     1      42.038  40.507  19.861  1.00  0.00     0.004 C 
ENDBRANCH  14  15
ENDBRANCH  13  14
ENDBRANCH  12  13
ENDBRANCH  11  12
ENDBRANCH  10  11
ENDBRANCH   1  10
TORSDOF 12
ENDMDL
MODEL 6
REMARK VINA RESULT:    -4.881      2.150      3.722
REMARK INTER + INTRA:          -9.719
REMARK INTER:                  -8.236
REMARK INTRA:                  -1.484
REMARK UNBOUND:                -1.414
REMARK SMILES CCCCCCCCCCCCCC(=O)[O-]
REMARK SMILES IDX 8 1 9 2 10 3 11 4 12 5 13 6 14 7 15 8 16 9 7 10 6 11 5 12
REMARK SMILES IDX 4 13 3 14 2 15 1 16
REMARK H PARENT
REMARK Flexibility Score: inf
ROOT
ATOM      1  C   UNL     1      40.617  40.891  16.914  1.00  0.00     0.000 C 
ENDROOT
BRANCH   1   2
ATOM      2  C   UNL     1      41.683  40.513  17.954  1.00  0.00     0.000 C 
BRANCH   2   3
ATOM      3  C   UNL     1      42.185  41.728  18.755  1.00  0.00     0.000 C 
BRANCH   3   4
ATOM      4  C   UNL     1      43.381  42.432  18.089  1.00  0.00     0.000 C 
BRANCH   4   5
ATOM      5  C   UNL     1      43.149  43.914  17.743  1.00  0.00     0.006 C 
BRANCH   5   6
ATOM      6  C   UNL     1      43.075  44.171  16.232  1.00  0.00     0.053 C 
BRANCH   6   7
ATOM      7  C   UNL     1      41.758  44.784  15.871  1.00  0.00     0.041 C 
ATOM      8  O   UNL     1      40.684  44.220  16.210  1.00  0.00    -0.550 OA
ATOM      9  O   UNL     1      41.717  46.001  15.205  1.00  0.00    -0.550 OA
ENDBRANCH   6   7
ENDBRANCH   5   6
ENDBRANCH   4   5
ENDBRANCH   3   4
ENDBRANCH   2   3
ENDBRANCH   1   2
BRANCH   1  10
ATOM     10  C   UNL     1      40.970  40.398  15.502  1.00  0.00     0.000 C 
BRANCH  10  11
ATOM     11  C   UNL     1      42.099  41.239  14.893  1.00  0.00    -0.000 C 
BRANCH  11  12
ATOM     12  C   UNL     1      43.382  40.407  14.740  1.00  0.00    -0.000 C 
BRANCH  12  13
ATOM     13  C   UNL     1      43.151  38.907  14.985  1.00  0.00    -0.000 C 
BRANCH  13  14
ATOM     14  C   UNL     1      43.362  38.062  13.717  1.00  0.00    -0.000 C 
BRANCH  14  15
ATOM     15  C   UNL     1      42.380  36.882  13.627  1.00  0.00    -0.003 C 
ATOM     16  C   UNL     1      40.935  37.329  13.412  1.00  0.00     0.004 C 
ENDBRANCH  14  15
ENDBRANCH  13  14
ENDBRANCH  12  13
ENDBRANCH  11  12
ENDBRANCH  10  11
ENDBRANCH   1  10
TORSDOF 12
ENDMDL
MODEL 7
REMARK VINA RESULT:    -4.653      2.759      6.282
REMARK INTER + INTRA:          -9.330
REMARK INTER:                  -8.008
REMARK INTRA:                  -1.323
REMARK UNBOUND:                -1.414
REMARK SMILES CCCCCCCCCCCCCC(=O)[O-]
REMARK SMILES IDX 8 1 9 2 10 3 11 4 12 5 13 6 14 7 15 8 16 9 7 10 6 11 5 12
REMARK SMILES IDX 4 13 3 14 2 15 1 16
REMARK H PARENT
REMARK Flexibility Score: inf
ROOT
ATOM      1  C   UNL     1      41.273  42.512  15.772  1.00  0.00     0.000 C 
ENDROOT
BRANCH   1   2
ATOM      2  C   UNL     1      42.381  42.080  14.799  1.00  0.00     0.000 C 
BRANCH   2   3
ATOM      3  C   UNL     1      43.475  41.241  15.485  1.00  0.00     0.000 C 
BRANCH   3   4
ATOM      4  C   UNL     1      43.874  39.998  14.669  1.00  0.00     0.000 C 
BRANCH   4   5
ATOM      5  C   UNL     1      43.007  38.752  14.923  1.00  0.00     0.006 C 
BRANCH   5   6
ATOM      6  C   UNL     1      42.584  38.043  13.629  1.00  0.00     0.053 C 
BRANCH   6   7
ATOM      7  C   UNL     1      41.094  38.047  13.494  1.00  0.00     0.041 C 
ATOM      8  O   UNL     1      40.484  36.988  13.187  1.00  0.00    -0.550 OA
ATOM      9  O   UNL     1      40.374  39.204  13.757  1.00  0.00    -0.550 OA
ENDBRANCH   6   7
ENDBRANCH   5   6
ENDBRANCH   4   5
ENDBRANCH   3   4
ENDBRANCH   2   3
ENDBRANCH   1   2
BRANCH   1  10
ATOM     10  C   UNL     1      40.640  41.322  16.511  1.00  0.00     0.000 C 
BRANCH  10  11
ATOM     11  C   UNL     1      40.786  41.479  18.030  1.00  0.00    -0.000 C 
BRANCH  11  12
ATOM     12  C   UNL     1      41.432  40.231  18.652  1.00  0.00    -0.000 C 
BRANCH  12  13
ATOM     13  C   UNL     1      42.083  40.516  20.015  1.00  0.00    -0.000 C 
BRANCH  13  14
ATOM     14  C   UNL     1      41.836  41.955  20.498  1.00  0.00    -0.000 C 
BRANCH  14  15
ATOM     15  C   UNL     1      43.138  42.761  20.634  1.00  0.00    -0.003 C 
ATOM     16  C   UNL     1      43.698  43.214  19.287  1.00  0.00     0.004 C 
ENDBRANCH  14  15
ENDBRANCH  13  14
ENDBRANCH  12  13
ENDBRANCH  11  12
ENDBRANCH  10  11
ENDBRANCH   1  10
TORSDOF 12
ENDMDL
MODEL 8
REMARK VINA RESULT:    -4.428     10.034     12.198
REMARK INTER + INTRA:          -8.948
REMARK INTER:                  -8.445
REMARK INTRA:                  -0.502
REMARK UNBOUND:                -1.414
REMARK SMILES CCCCCCCCCCCCCC(=O)[O-]
REMARK SMILES IDX 8 1 9 2 10 3 11 4 12 5 13 6 14 7 15 8 16 9 7 10 6 11 5 12
REMARK SMILES IDX 4 13 3 14 2 15 1 16
REMARK H PARENT
REMARK Flexibility Score: inf
ROOT
ATOM      1  C   UNL     1      41.022  30.463  16.140  1.00  0.00     0.000 C 
ENDROOT
BRANCH   1   2
ATOM      2  C   UNL     1      41.520  29.540  15.017  1.00  0.00     0.000 C 
BRANCH   2   3
ATOM      3  C   UNL     1      40.375  28.778  14.326  1.00  0.00     0.000 C 
BRANCH   3   4
ATOM      4  C   UNL     1      39.380  29.712  13.613  1.00  0.00     0.000 C 
BRANCH   4   5
ATOM      5  C   UNL     1      37.979  29.771  14.248  1.00  0.00     0.006 C 
BRANCH   5   6
ATOM      6  C   UNL     1      37.436  31.202  14.364  1.00  0.00     0.053 C 
BRANCH   6   7
ATOM      7  C   UNL     1      35.942  31.202  14.272  1.00  0.00     0.041 C 
ATOM      8  O   UNL     1      35.295  30.143  14.485  1.00  0.00    -0.550 OA
ATOM      9  O   UNL     1      35.262  32.382  14.002  1.00  0.00    -0.550 OA
ENDBRANCH   6   7
ENDBRANCH   5   6
ENDBRANCH   4   5
ENDBRANCH   3   4
ENDBRANCH   2   3
ENDBRANCH   1   2
BRANCH   1  10
ATOM     10  C   UNL     1      42.085  30.699  17.225  1.00  0.00     0.000 C 
BRANCH  10  11
ATOM     11  C   UNL     1      42.318  29.428  18.051  1.00  0.00    -0.000 C 
BRANCH  11  12
ATOM     12  C   UNL     1      43.597  29.547  18.894  1.00  0.00    -0.000 C 
BRANCH  12  13
ATOM     13  C   UNL     1      43.701  28.458  19.974  1.00  0.00    -0.000 C 
BRANCH  13  14
ATOM     14  C   UNL     1      44.532  28.908  21.188  1.00  0.00    -0.000 C 
BRANCH  14  15
ATOM     15  C   UNL     1      43.952  28.401  22.518  1.00  0.00    -0.003 C 
ATOM     16  C   UNL     1      43.524  29.534  23.449  1.00  0.00     0.004 C 
ENDBRANCH  14  15
ENDBRANCH  13  14
ENDBRANCH  12  13
ENDBRANCH  11  12
ENDBRANCH  10  11
ENDBRANCH   1  10
TORSDOF 12
ENDMDL
MODEL 9
REMARK VINA RESULT:    -4.361      2.964      5.994
REMARK INTER + INTRA:          -8.834
REMARK INTER:                  -7.531
REMARK INTRA:                  -1.304
REMARK UNBOUND:                -1.414
REMARK SMILES CCCCCCCCCCCCCC(=O)[O-]
REMARK SMILES IDX 8 1 9 2 10 3 11 4 12 5 13 6 14 7 15 8 16 9 7 10 6 11 5 12
REMARK SMILES IDX 4 13 3 14 2 15 1 16
REMARK H PARENT
REMARK Flexibility Score: inf
ROOT
ATOM      1  C   UNL     1      41.544  40.827  19.212  1.00  0.00     0.000 C 
ENDROOT
BRANCH   1   2
ATOM      2  C   UNL     1      41.693  40.382  17.749  1.00  0.00     0.000 C 
BRANCH   2   3
ATOM      3  C   UNL     1      40.553  40.900  16.854  1.00  0.00     0.000 C 
BRANCH   3   4
ATOM      4  C   UNL     1      40.967  41.037  15.378  1.00  0.00     0.000 C 
BRANCH   4   5
ATOM      5  C   UNL     1      42.141  40.139  14.950  1.00  0.00     0.006 C 
BRANCH   5   6
ATOM      6  C   UNL     1      41.685  38.858  14.238  1.00  0.00     0.053 C 
BRANCH   6   7
ATOM      7  C   UNL     1      42.867  38.023  13.856  1.00  0.00     0.041 C 
ATOM      8  O   UNL     1      44.022  38.526  13.852  1.00  0.00    -0.550 OA
ATOM      9  O   UNL     1      42.700  36.678  13.554  1.00  0.00    -0.550 OA
ENDBRANCH   6   7
ENDBRANCH   5   6
ENDBRANCH   4   5
ENDBRANCH   3   4
ENDBRANCH   2   3
ENDBRANCH   1   2
BRANCH   1  10
ATOM     10  C   UNL     1      42.396  42.063  19.542  1.00  0.00     0.000 C 
BRANCH  10  11
ATOM     11  C   UNL     1      43.368  42.382  18.399  1.00  0.00    -0.000 C 
BRANCH  11  12
ATOM     12  C   UNL     1      43.280  43.862  17.999  1.00  0.00    -0.000 C 
BRANCH  12  13
ATOM     13  C   UNL     1      42.616  44.070  16.628  1.00  0.00    -0.000 C 
BRANCH  13  14
ATOM     14  C   UNL     1      43.316  45.155  15.792  1.00  0.00    -0.000 C 
BRANCH  14  15
ATOM     15  C   UNL     1      43.188  44.905  14.280  1.00  0.00    -0.003 C 
ATOM     16  C   UNL     1      43.525  43.468  13.886  1.00  0.00     0.004 C 
ENDBRANCH  14  15
ENDBRANCH  13  14
ENDBRANCH  12  13
ENDBRANCH  11  12
ENDBRANCH  10  11
ENDBRANCH   1  10
TORSDOF 12
ENDMDL
