MODEL 1
REMARK VINA RESULT:    -6.138      0.000      0.000
REMARK INTER + INTRA:          -9.159
REMARK INTER:                  -8.649
REMARK INTRA:                  -0.510
REMARK UNBOUND:                -0.510
REMARK SMILES O=c1cc(-c2ccc(O)c(O)c2)oc2cc(O)c([C@H]3O[C@H](CO)[C@@H](O)[C@@H](O)[C@@H]3O)c(O)c12
REMARK SMILES IDX 4 1 3 2 2 3 1 4 32 5 14 6 13 7 15 8 16 9 18 10 30 11 5 12
REMARK SMILES IDX 6 13 7 14 8 15 12 16 10 17 9 18 11 20 31 22 17 24 19 26
REMARK SMILES IDX 28 27 20 28 26 29 21 30 24 31 29 32 27 34 22 36 23 37 25 39
REMARK H PARENT 9 19 11 21 31 23 17 25 29 33 27 35 23 38 25 40
REMARK Flexibility Score: inf
ROOT
ATOM      1  C   UNL     1      54.599 113.110  48.327  1.00  0.00     0.138 A 
ATOM      2  C   UNL     1      55.506 113.591  49.283  1.00  0.00     0.100 A 
ATOM      3  C   UNL     1      55.126 113.644  50.625  1.00  0.00     0.197 A 
ATOM      4  O   UNL     1      55.981 114.000  51.477  1.00  0.00    -0.289 OA
ATOM      5  C   UNL     1      53.820 113.252  51.000  1.00  0.00     0.107 A 
ATOM      6  C   UNL     1      52.981 112.752  49.980  1.00  0.00     0.146 A 
ATOM      7  O   UNL     1      53.390 112.715  48.716  1.00  0.00    -0.456 OA
ATOM      8  C   UNL     1      51.700 112.308  50.286  1.00  0.00     0.094 A 
ATOM      9  C   UNL     1      51.251 112.272  51.609  1.00  0.00     0.128 A 
ATOM     10  C   UNL     1      52.118 112.638  52.672  1.00  0.00     0.068 A 
ATOM     11  C   UNL     1      53.319 113.318  52.329  1.00  0.00     0.140 A 
ENDROOT
BRANCH   1  12
ATOM     12  C   UNL     1      54.945 113.032  46.885  1.00  0.00     0.021 A 
ATOM     13  C   UNL     1      55.720 114.025  46.255  1.00  0.00     0.016 A 
ATOM     14  C   UNL     1      56.039 113.920  44.899  1.00  0.00     0.051 A 
ATOM     15  C   UNL     1      55.597 112.821  44.151  1.00  0.00     0.157 A 
ATOM     16  C   UNL     1      54.518 111.926  46.129  1.00  0.00     0.062 A 
ATOM     17  C   UNL     1      54.834 111.820  44.771  1.00  0.00     0.158 A 
BRANCH  15  18
ATOM     18  O   UNL     1      55.916 112.722  42.797  1.00  0.00    -0.504 OA
ATOM     19  H   UNL     1      56.740 112.223  42.480  1.00  0.00     0.293 HD
ENDBRANCH  15  18
BRANCH  17  20
ATOM     20  O   UNL     1      54.383 110.711  44.055  1.00  0.00    -0.504 OA
ATOM     21  H   UNL     1      53.796 110.802  43.235  1.00  0.00     0.293 HD
ENDBRANCH  17  20
ENDBRANCH   1  12
BRANCH  11  22
ATOM     22  O   UNL     1      53.930 114.125  53.292  1.00  0.00    -0.506 OA
ATOM     23  H   UNL     1      54.836 114.556  53.174  1.00  0.00     0.293 HD
ENDBRANCH  11  22
BRANCH   9  24
ATOM     24  O   UNL     1      49.927 111.904  51.849  1.00  0.00    -0.507 OA
ATOM     25  H   UNL     1      49.522 111.929  52.778  1.00  0.00     0.293 HD
ENDBRANCH   9  24
BRANCH  10  26
ATOM     26  C   UNL     1      51.680 112.520  54.151  1.00  0.00     0.188 C 
ATOM     27  C   UNL     1      52.824 112.561  55.217  1.00  0.00     0.179 C 
ATOM     28  O   UNL     1      50.817 111.415  54.409  1.00  0.00    -0.362 OA
ATOM     29  C   UNL     1      53.571 111.226  55.292  1.00  0.00     0.177 C 
ATOM     30  C   UNL     1      51.490 110.158  54.384  1.00  0.00     0.176 C 
ATOM     31  C   UNL     1      52.567 110.080  55.484  1.00  0.00     0.177 C 
BRANCH  27  32
ATOM     32  O   UNL     1      52.272 112.839  56.479  1.00  0.00    -0.387 OA
ATOM     33  H   UNL     1      52.725 113.655  56.820  1.00  0.00     0.211 HD
ENDBRANCH  27  32
BRANCH  29  34
ATOM     34  O   UNL     1      54.320 111.040  54.116  1.00  0.00    -0.387 OA
ATOM     35  H   UNL     1      55.278 111.124  54.365  1.00  0.00     0.211 HD
ENDBRANCH  29  34
BRANCH  30  36
ATOM     36  C   UNL     1      50.431 109.059  54.560  1.00  0.00     0.191 C 
BRANCH  36  37
ATOM     37  O   UNL     1      50.875 107.854  54.001  1.00  0.00    -0.394 OA
ATOM     38  H   UNL     1      50.622 107.884  53.042  1.00  0.00     0.210 HD
ENDBRANCH  36  37
ENDBRANCH  30  36
BRANCH  31  39
ATOM     39  O   UNL     1      53.234 108.844  55.428  1.00  0.00    -0.388 OA
ATOM     40  H   UNL     1      53.289 108.593  54.469  1.00  0.00     0.211 HD
ENDBRANCH  31  39
ENDBRANCH  10  26
TORSDOF 11
ENDMDL
MODEL 2
REMARK VINA RESULT:    -5.845      2.244      3.061
REMARK INTER + INTRA:          -8.747
REMARK INTER:                  -8.242
REMARK INTRA:                  -0.505
REMARK UNBOUND:                -0.510
REMARK SMILES O=c1cc(-c2ccc(O)c(O)c2)oc2cc(O)c([C@H]3O[C@H](CO)[C@@H](O)[C@@H](O)[C@@H]3O)c(O)c12
REMARK SMILES IDX 4 1 3 2 2 3 1 4 32 5 14 6 13 7 15 8 16 9 18 10 30 11 5 12
REMARK SMILES IDX 6 13 7 14 8 15 12 16 10 17 9 18 11 20 31 22 17 24 19 26
REMARK SMILES IDX 28 27 20 28 26 29 21 30 24 31 29 32 27 34 22 36 23 37 25 39
REMARK H PARENT 9 19 11 21 31 23 17 25 29 33 27 35 23 38 25 40
REMARK Flexibility Score: inf
ROOT
ATOM      1  C   UNL     1      52.604 113.233  49.743  1.00  0.00     0.138 A 
ATOM      2  C   UNL     1      53.824 113.754  50.199  1.00  0.00     0.100 A 
ATOM      3  C   UNL     1      54.177 113.602  51.541  1.00  0.00     0.197 A 
ATOM      4  O   UNL     1      55.312 114.002  51.912  1.00  0.00    -0.289 OA
ATOM      5  C   UNL     1      53.284 112.965  52.433  1.00  0.00     0.107 A 
ATOM      6  C   UNL     1      52.091 112.444  51.886  1.00  0.00     0.146 A 
ATOM      7  O   UNL     1      51.801 112.607  50.599  1.00  0.00    -0.456 OA
ATOM      8  C   UNL     1      51.188 111.767  52.697  1.00  0.00     0.094 A 
ATOM      9  C   UNL     1      51.480 111.519  54.041  1.00  0.00     0.128 A 
ATOM     10  C   UNL     1      52.731 111.908  54.589  1.00  0.00     0.068 A 
ATOM     11  C   UNL     1      53.525 112.808  53.826  1.00  0.00     0.140 A 
ENDROOT
BRANCH   1  12
ATOM     12  C   UNL     1      52.174 113.366  48.327  1.00  0.00     0.021 A 
ATOM     13  C   UNL     1      53.083 113.229  47.261  1.00  0.00     0.016 A 
ATOM     14  C   UNL     1      52.647 113.348  45.939  1.00  0.00     0.051 A 
ATOM     15  C   UNL     1      51.297 113.598  45.658  1.00  0.00     0.157 A 
ATOM     16  C   UNL     1      50.819 113.603  48.036  1.00  0.00     0.062 A 
ATOM     17  C   UNL     1      50.380 113.724  46.713  1.00  0.00     0.158 A 
BRANCH  15  18
ATOM     18  O   UNL     1      50.868 113.718  44.338  1.00  0.00    -0.504 OA
ATOM     19  H   UNL     1      50.701 114.623  43.913  1.00  0.00     0.293 HD
ENDBRANCH  15  18
BRANCH  17  20
ATOM     20  O   UNL     1      49.029 113.969  46.467  1.00  0.00    -0.504 OA
ATOM     21  H   UNL     1      48.300 113.354  46.807  1.00  0.00     0.293 HD
ENDBRANCH  17  20
ENDBRANCH   1  12
BRANCH  11  22
ATOM     22  O   UNL     1      54.467 113.598  54.489  1.00  0.00    -0.506 OA
ATOM     23  H   UNL     1      54.228 114.334  55.139  1.00  0.00     0.293 HD
ENDBRANCH  11  22
BRANCH   9  24
ATOM     24  O   UNL     1      50.500 110.917  54.831  1.00  0.00    -0.507 OA
ATOM     25  H   UNL     1      50.724 110.196  55.509  1.00  0.00     0.293 HD
ENDBRANCH   9  24
BRANCH  10  26
ATOM     26  C   UNL     1      53.119 111.565  56.046  1.00  0.00     0.188 C 
ATOM     27  C   UNL     1      54.645 111.608  56.385  1.00  0.00     0.179 C 
ATOM     28  O   UNL     1      52.551 110.347  56.521  1.00  0.00    -0.362 OA
ATOM     29  C   UNL     1      55.373 110.367  55.859  1.00  0.00     0.177 C 
ATOM     30  C   UNL     1      53.161 109.187  55.961  1.00  0.00     0.176 C 
ATOM     31  C   UNL     1      54.652 109.100  56.343  1.00  0.00     0.177 C 
BRANCH  27  32
ATOM     32  O   UNL     1      54.809 111.669  57.780  1.00  0.00    -0.387 OA
ATOM     33  H   UNL     1      54.598 110.766  58.135  1.00  0.00     0.211 HD
ENDBRANCH  27  32
BRANCH  29  34
ATOM     34  O   UNL     1      55.419 110.409  54.454  1.00  0.00    -0.387 OA
ATOM     35  H   UNL     1      56.356 110.615  54.200  1.00  0.00     0.211 HD
ENDBRANCH  29  34
BRANCH  30  36
ATOM     36  C   UNL     1      52.384 107.961  56.465  1.00  0.00     0.191 C 
BRANCH  36  37
ATOM     37  O   UNL     1      52.539 106.883  55.583  1.00  0.00    -0.394 OA
ATOM     38  H   UNL     1      53.123 106.229  56.048  1.00  0.00     0.210 HD
ENDBRANCH  36  37
ENDBRANCH  30  36
BRANCH  31  39
ATOM     39  O   UNL     1      55.240 107.964  55.762  1.00  0.00    -0.388 OA
ATOM     40  H   UNL     1      54.990 107.190  56.331  1.00  0.00     0.211 HD
ENDBRANCH  31  39
ENDBRANCH  10  26
TORSDOF 11
ENDMDL
MODEL 3
REMARK VINA RESULT:    -5.837      1.436      1.824
REMARK INTER + INTRA:          -8.736
REMARK INTER:                  -8.400
REMARK INTRA:                  -0.336
REMARK UNBOUND:                -0.510
REMARK SMILES O=c1cc(-c2ccc(O)c(O)c2)oc2cc(O)c([C@H]3O[C@H](CO)[C@@H](O)[C@@H](O)[C@@H]3O)c(O)c12
REMARK SMILES IDX 4 1 3 2 2 3 1 4 32 5 14 6 13 7 15 8 16 9 18 10 30 11 5 12
REMARK SMILES IDX 6 13 7 14 8 15 12 16 10 17 9 18 11 20 31 22 17 24 19 26
REMARK SMILES IDX 28 27 20 28 26 29 21 30 24 31 29 32 27 34 22 36 23 37 25 39
REMARK H PARENT 9 19 11 21 31 23 17 25 29 33 27 35 23 38 25 40
REMARK Flexibility Score: inf
ROOT
ATOM      1  C   UNL     1      53.565 112.997  49.759  1.00  0.00     0.138 A 
ATOM      2  C   UNL     1      54.388 113.605  50.718  1.00  0.00     0.100 A 
ATOM      3  C   UNL     1      53.972 113.651  52.050  1.00  0.00     0.197 A 
ATOM      4  O   UNL     1      54.761 114.125  52.909  1.00  0.00    -0.289 OA
ATOM      5  C   UNL     1      52.709 113.124  52.409  1.00  0.00     0.107 A 
ATOM      6  C   UNL     1      51.958 112.504  51.387  1.00  0.00     0.146 A 
ATOM      7  O   UNL     1      52.399 112.478  50.134  1.00  0.00    -0.456 OA
ATOM      8  C   UNL     1      50.728 111.926  51.679  1.00  0.00     0.094 A 
ATOM      9  C   UNL     1      50.254 111.875  52.993  1.00  0.00     0.128 A 
ATOM     10  C   UNL     1      51.048 112.366  54.063  1.00  0.00     0.068 A 
ATOM     11  C   UNL     1      52.172 113.169  53.725  1.00  0.00     0.140 A 
ENDROOT
BRANCH   1  12
ATOM     12  C   UNL     1      53.953 112.919  48.327  1.00  0.00     0.021 A 
ATOM     13  C   UNL     1      54.495 114.026  47.646  1.00  0.00     0.016 A 
ATOM     14  C   UNL     1      54.860 113.921  46.302  1.00  0.00     0.051 A 
ATOM     15  C   UNL     1      54.698 112.709  45.617  1.00  0.00     0.157 A 
ATOM     16  C   UNL     1      53.806 111.704  47.636  1.00  0.00     0.062 A 
ATOM     17  C   UNL     1      54.170 111.596  46.289  1.00  0.00     0.158 A 
BRANCH  15  18
ATOM     18  O   UNL     1      55.063 112.610  44.275  1.00  0.00    -0.504 OA
ATOM     19  H   UNL     1      54.619 113.175  43.560  1.00  0.00     0.293 HD
ENDBRANCH  15  18
BRANCH  17  20
ATOM     20  O   UNL     1      54.001 110.375  45.637  1.00  0.00    -0.504 OA
ATOM     21  H   UNL     1      53.729 110.318  44.663  1.00  0.00     0.293 HD
ENDBRANCH  17  20
ENDBRANCH   1  12
BRANCH  11  22
ATOM     22  O   UNL     1      52.664 114.066  54.676  1.00  0.00    -0.506 OA
ATOM     23  H   UNL     1      52.643 113.899  55.672  1.00  0.00     0.293 HD
ENDBRANCH  11  22
BRANCH   9  24
ATOM     24  O   UNL     1      48.974 111.366  53.216  1.00  0.00    -0.507 OA
ATOM     25  H   UNL     1      48.560 111.339  54.141  1.00  0.00     0.293 HD
ENDBRANCH   9  24
BRANCH  10  26
ATOM     26  C   UNL     1      50.590 112.240  55.535  1.00  0.00     0.188 C 
ATOM     27  C   UNL     1      51.724 112.085  56.601  1.00  0.00     0.179 C 
ATOM     28  O   UNL     1      49.589 111.247  55.743  1.00  0.00    -0.362 OA
ATOM     29  C   UNL     1      52.290 110.661  56.615  1.00  0.00     0.177 C 
ATOM     30  C   UNL     1      50.092 109.916  55.661  1.00  0.00     0.176 C 
ATOM     31  C   UNL     1      51.144 109.649  56.757  1.00  0.00     0.177 C 
BRANCH  27  32
ATOM     32  O   UNL     1      51.205 112.376  57.875  1.00  0.00    -0.387 OA
ATOM     33  H   UNL     1      50.216 112.401  57.785  1.00  0.00     0.211 HD
ENDBRANCH  27  32
BRANCH  29  34
ATOM     34  O   UNL     1      53.015 110.432  55.432  1.00  0.00    -0.387 OA
ATOM     35  H   UNL     1      53.971 110.349  55.688  1.00  0.00     0.211 HD
ENDBRANCH  29  34
BRANCH  30  36
ATOM     36  C   UNL     1      48.899 108.957  55.788  1.00  0.00     0.191 C 
BRANCH  36  37
ATOM     37  O   UNL     1      49.123 107.791  55.044  1.00  0.00    -0.394 OA
ATOM     38  H   UNL     1      49.512 108.086  54.179  1.00  0.00     0.210 HD
ENDBRANCH  36  37
ENDBRANCH  30  36
BRANCH  31  39
ATOM     39  O   UNL     1      51.645 108.340  56.644  1.00  0.00    -0.388 OA
ATOM     40  H   UNL     1      51.668 108.126  55.676  1.00  0.00     0.211 HD
ENDBRANCH  31  39
ENDBRANCH  10  26
TORSDOF 11
ENDMDL
MODEL 4
REMARK VINA RESULT:    -5.666      6.072      8.132
REMARK INTER + INTRA:          -8.495
REMARK INTER:                  -8.036
REMARK INTRA:                  -0.459
REMARK UNBOUND:                -0.510
REMARK SMILES O=c1cc(-c2ccc(O)c(O)c2)oc2cc(O)c([C@H]3O[C@H](CO)[C@@H](O)[C@@H](O)[C@@H]3O)c(O)c12
REMARK SMILES IDX 4 1 3 2 2 3 1 4 32 5 14 6 13 7 15 8 16 9 18 10 30 11 5 12
REMARK SMILES IDX 6 13 7 14 8 15 12 16 10 17 9 18 11 20 31 22 17 24 19 26
REMARK SMILES IDX 28 27 20 28 26 29 21 30 24 31 29 32 27 34 22 36 23 37 25 39
REMARK H PARENT 9 19 11 21 31 23 17 25 29 33 27 35 23 38 25 40
REMARK Flexibility Score: inf
ROOT
ATOM      1  C   UNL     1      47.898 111.188  54.139  1.00  0.00     0.138 A 
ATOM      2  C   UNL     1      47.647 111.124  55.517  1.00  0.00     0.100 A 
ATOM      3  C   UNL     1      48.654 110.690  56.379  1.00  0.00     0.197 A 
ATOM      4  O   UNL     1      48.437 110.719  57.619  1.00  0.00    -0.289 OA
ATOM      5  C   UNL     1      49.901 110.281  55.852  1.00  0.00     0.107 A 
ATOM      6  C   UNL     1      50.081 110.406  54.458  1.00  0.00     0.146 A 
ATOM      7  O   UNL     1      49.093 110.831  53.676  1.00  0.00    -0.456 OA
ATOM      8  C   UNL     1      51.297 110.064  53.877  1.00  0.00     0.094 A 
ATOM      9  C   UNL     1      52.382 109.671  54.666  1.00  0.00     0.128 A 
ATOM     10  C   UNL     1      52.276 109.668  56.082  1.00  0.00     0.068 A 
ATOM     11  C   UNL     1      50.972 109.774  56.639  1.00  0.00     0.140 A 
ENDROOT
BRANCH   1  12
ATOM     12  C   UNL     1      46.865 111.639  53.172  1.00  0.00     0.021 A 
ATOM     13  C   UNL     1      46.889 112.931  52.612  1.00  0.00     0.016 A 
ATOM     14  C   UNL     1      45.909 113.323  51.696  1.00  0.00     0.051 A 
ATOM     15  C   UNL     1      44.895 112.434  51.319  1.00  0.00     0.157 A 
ATOM     16  C   UNL     1      45.851 110.748  52.777  1.00  0.00     0.062 A 
ATOM     17  C   UNL     1      44.868 111.140  51.862  1.00  0.00     0.158 A 
BRANCH  15  18
ATOM     18  O   UNL     1      43.919 112.831  50.406  1.00  0.00    -0.504 OA
ATOM     19  H   UNL     1      43.375 113.675  50.543  1.00  0.00     0.293 HD
ENDBRANCH  15  18
BRANCH  17  20
ATOM     20  O   UNL     1      43.875 110.229  51.503  1.00  0.00    -0.504 OA
ATOM     21  H   UNL     1      43.987 109.231  51.632  1.00  0.00     0.293 HD
ENDBRANCH  17  20
ENDBRANCH   1  12
BRANCH  11  22
ATOM     22  O   UNL     1      50.752 109.281  57.927  1.00  0.00    -0.506 OA
ATOM     23  H   UNL     1      50.556 109.864  58.729  1.00  0.00     0.293 HD
ENDBRANCH  11  22
BRANCH   9  24
ATOM     24  O   UNL     1      53.548 109.252  54.027  1.00  0.00    -0.507 OA
ATOM     25  H   UNL     1      54.435 109.185  54.514  1.00  0.00     0.293 HD
ENDBRANCH   9  24
BRANCH  10  26
ATOM     26  C   UNL     1      53.486 109.328  56.984  1.00  0.00     0.188 C 
ATOM     27  C   UNL     1      53.397 109.802  58.472  1.00  0.00     0.179 C 
ATOM     28  O   UNL     1      54.742 109.709  56.428  1.00  0.00    -0.362 OA
ATOM     29  C   UNL     1      53.674 111.303  58.600  1.00  0.00     0.177 C 
ATOM     30  C   UNL     1      54.965 111.117  56.457  1.00  0.00     0.176 C 
ATOM     31  C   UNL     1      54.999 111.647  57.905  1.00  0.00     0.177 C 
BRANCH  27  32
ATOM     32  O   UNL     1      54.343 109.102  59.239  1.00  0.00    -0.387 OA
ATOM     33  H   UNL     1      54.047 108.154  59.269  1.00  0.00     0.211 HD
ENDBRANCH  27  32
BRANCH  29  34
ATOM     34  O   UNL     1      52.610 112.028  58.034  1.00  0.00    -0.387 OA
ATOM     35  H   UNL     1      52.494 111.697  57.105  1.00  0.00     0.211 HD
ENDBRANCH  29  34
BRANCH  30  36
ATOM     36  C   UNL     1      56.290 111.395  55.730  1.00  0.00     0.191 C 
BRANCH  36  37
ATOM     37  O   UNL     1      56.319 110.738  54.493  1.00  0.00    -0.394 OA
ATOM     38  H   UNL     1      55.373 110.647  54.206  1.00  0.00     0.210 HD
ENDBRANCH  36  37
ENDBRANCH  30  36
BRANCH  31  39
ATOM     39  O   UNL     1      55.195 113.039  57.911  1.00  0.00    -0.388 OA
ATOM     40  H   UNL     1      54.388 113.443  57.500  1.00  0.00     0.211 HD
ENDBRANCH  31  39
ENDBRANCH  10  26
TORSDOF 11
ENDMDL
MODEL 5
REMARK VINA RESULT:    -5.551      3.475      6.037
REMARK INTER + INTRA:          -8.333
REMARK INTER:                  -7.832
REMARK INTRA:                  -0.501
REMARK UNBOUND:                -0.510
REMARK SMILES O=c1cc(-c2ccc(O)c(O)c2)oc2cc(O)c([C@H]3O[C@H](CO)[C@@H](O)[C@@H](O)[C@@H]3O)c(O)c12
REMARK SMILES IDX 4 1 3 2 2 3 1 4 32 5 14 6 13 7 15 8 16 9 18 10 30 11 5 12
REMARK SMILES IDX 6 13 7 14 8 15 12 16 10 17 9 18 11 20 31 22 17 24 19 26
REMARK SMILES IDX 28 27 20 28 26 29 21 30 24 31 29 32 27 34 22 36 23 37 25 39
REMARK H PARENT 9 19 11 21 31 23 17 25 29 33 27 35 23 38 25 40
REMARK Flexibility Score: inf
ROOT
ATOM      1  C   UNL     1      51.782 112.307  53.163  1.00  0.00     0.138 A 
ATOM      2  C   UNL     1      52.305 112.009  54.429  1.00  0.00     0.100 A 
ATOM      3  C   UNL     1      51.452 111.551  55.434  1.00  0.00     0.197 A 
ATOM      4  O   UNL     1      51.955 111.209  56.537  1.00  0.00    -0.289 OA
ATOM      5  C   UNL     1      50.066 111.433  55.179  1.00  0.00     0.107 A 
ATOM      6  C   UNL     1      49.628 111.725  53.869  1.00  0.00     0.146 A 
ATOM      7  O   UNL     1      50.479 112.152  52.942  1.00  0.00    -0.456 OA
ATOM      8  C   UNL     1      48.285 111.589  53.537  1.00  0.00     0.094 A 
ATOM      9  C   UNL     1      47.365 111.085  54.461  1.00  0.00     0.128 A 
ATOM     10  C   UNL     1      47.799 110.652  55.743  1.00  0.00     0.068 A 
ATOM     11  C   UNL     1      49.109 111.028  56.149  1.00  0.00     0.140 A 
ENDROOT
BRANCH   1  12
ATOM     12  C   UNL     1      52.638 112.800  52.054  1.00  0.00     0.021 A 
ATOM     13  C   UNL     1      53.713 113.680  52.284  1.00  0.00     0.016 A 
ATOM     14  C   UNL     1      54.508 114.119  51.223  1.00  0.00     0.051 A 
ATOM     15  C   UNL     1      54.251 113.683  49.917  1.00  0.00     0.157 A 
ATOM     16  C   UNL     1      52.395 112.357  50.742  1.00  0.00     0.062 A 
ATOM     17  C   UNL     1      53.190 112.796  49.677  1.00  0.00     0.158 A 
BRANCH  15  18
ATOM     18  O   UNL     1      55.047 114.125  48.861  1.00  0.00    -0.504 OA
ATOM     19  H   UNL     1      55.932 114.592  49.022  1.00  0.00     0.293 HD
ENDBRANCH  15  18
BRANCH  17  20
ATOM     20  O   UNL     1      52.910 112.339  48.390  1.00  0.00    -0.504 OA
ATOM     21  H   UNL     1      52.493 112.935  47.685  1.00  0.00     0.293 HD
ENDBRANCH  17  20
ENDBRANCH   1  12
BRANCH  11  22
ATOM     22  O   UNL     1      49.395 111.086  57.515  1.00  0.00    -0.506 OA
ATOM     23  H   UNL     1      50.206 111.548  57.902  1.00  0.00     0.293 HD
ENDBRANCH  11  22
BRANCH   9  24
ATOM     24  O   UNL     1      46.017 111.055  54.106  1.00  0.00    -0.507 OA
ATOM     25  H   UNL     1      45.715 111.095  53.139  1.00  0.00     0.293 HD
ENDBRANCH   9  24
BRANCH  10  26
ATOM     26  C   UNL     1      46.822 110.005  56.752  1.00  0.00     0.188 C 
ATOM     27  C   UNL     1      47.470 109.179  57.912  1.00  0.00     0.179 C 
ATOM     28  O   UNL     1      45.782 109.247  56.140  1.00  0.00    -0.362 OA
ATOM     29  C   UNL     1      47.940 107.804  57.427  1.00  0.00     0.177 C 
ATOM     30  C   UNL     1      46.232 108.007  55.601  1.00  0.00     0.176 C 
ATOM     31  C   UNL     1      46.790 107.087  56.706  1.00  0.00     0.177 C 
BRANCH  27  32
ATOM     32  O   UNL     1      46.526 108.997  58.936  1.00  0.00    -0.387 OA
ATOM     33  H   UNL     1      46.404 108.017  59.046  1.00  0.00     0.211 HD
ENDBRANCH  27  32
BRANCH  29  34
ATOM     34  O   UNL     1      49.046 107.960  56.571  1.00  0.00    -0.387 OA
ATOM     35  H   UNL     1      49.357 108.898  56.666  1.00  0.00     0.211 HD
ENDBRANCH  29  34
BRANCH  30  36
ATOM     36  C   UNL     1      45.044 107.354  54.878  1.00  0.00     0.191 C 
BRANCH  36  37
ATOM     37  O   UNL     1      44.537 106.286  55.630  1.00  0.00    -0.394 OA
ATOM     38  H   UNL     1      45.257 106.027  56.262  1.00  0.00     0.210 HD
ENDBRANCH  36  37
ENDBRANCH  30  36
BRANCH  31  39
ATOM     39  O   UNL     1      47.250 105.881  56.151  1.00  0.00    -0.388 OA
ATOM     40  H   UNL     1      47.125 105.182  56.844  1.00  0.00     0.211 HD
ENDBRANCH  31  39
ENDBRANCH  10  26
TORSDOF 11
ENDMDL
MODEL 6
REMARK VINA RESULT:    -5.466      5.582      8.137
REMARK INTER + INTRA:          -8.213
REMARK INTER:                  -7.756
REMARK INTRA:                  -0.458
REMARK UNBOUND:                -0.510
REMARK SMILES O=c1cc(-c2ccc(O)c(O)c2)oc2cc(O)c([C@H]3O[C@H](CO)[C@@H](O)[C@@H](O)[C@@H]3O)c(O)c12
REMARK SMILES IDX 4 1 3 2 2 3 1 4 32 5 14 6 13 7 15 8 16 9 18 10 30 11 5 12
REMARK SMILES IDX 6 13 7 14 8 15 12 16 10 17 9 18 11 20 31 22 17 24 19 26
REMARK SMILES IDX 28 27 20 28 26 29 21 30 24 31 29 32 27 34 22 36 23 37 25 39
REMARK H PARENT 9 19 11 21 31 23 17 25 29 33 27 35 23 38 25 40
REMARK Flexibility Score: inf
ROOT
ATOM      1  C   UNL     1      49.832 108.049  53.798  1.00  0.00     0.138 A 
ATOM      2  C   UNL     1      49.558 109.369  53.416  1.00  0.00     0.100 A 
ATOM      3  C   UNL     1      50.308 110.412  53.962  1.00  0.00     0.197 A 
ATOM      4  O   UNL     1      50.103 111.582  53.543  1.00  0.00    -0.289 OA
ATOM      5  C   UNL     1      51.305 110.130  54.925  1.00  0.00     0.107 A 
ATOM      6  C   UNL     1      51.536 108.771  55.230  1.00  0.00     0.146 A 
ATOM      7  O   UNL     1      50.800 107.812  54.679  1.00  0.00    -0.456 OA
ATOM      8  C   UNL     1      52.531 108.420  56.135  1.00  0.00     0.094 A 
ATOM      9  C   UNL     1      53.368 109.389  56.692  1.00  0.00     0.128 A 
ATOM     10  C   UNL     1      53.253 110.750  56.300  1.00  0.00     0.068 A 
ATOM     11  C   UNL     1      52.085 111.123  55.579  1.00  0.00     0.140 A 
ENDROOT
BRANCH   1  12
ATOM     12  C   UNL     1      49.067 106.898  53.253  1.00  0.00     0.021 A 
ATOM     13  C   UNL     1      47.660 106.852  53.307  1.00  0.00     0.016 A 
ATOM     14  C   UNL     1      46.967 105.761  52.777  1.00  0.00     0.051 A 
ATOM     15  C   UNL     1      47.662 104.703  52.178  1.00  0.00     0.157 A 
ATOM     16  C   UNL     1      49.756 105.838  52.638  1.00  0.00     0.062 A 
ATOM     17  C   UNL     1      49.064 104.744  52.107  1.00  0.00     0.158 A 
BRANCH  15  18
ATOM     18  O   UNL     1      46.966 103.616  51.651  1.00  0.00    -0.504 OA
ATOM     19  H   UNL     1      47.165 102.666  51.941  1.00  0.00     0.293 HD
ENDBRANCH  15  18
BRANCH  17  20
ATOM     20  O   UNL     1      49.785 103.709  51.514  1.00  0.00    -0.504 OA
ATOM     21  H   UNL     1      49.926 102.817  51.973  1.00  0.00     0.293 HD
ENDBRANCH  17  20
ENDBRANCH   1  12
BRANCH  11  22
ATOM     22  O   UNL     1      51.675 112.458  55.613  1.00  0.00    -0.506 OA
ATOM     23  H   UNL     1      52.223 113.206  56.015  1.00  0.00     0.293 HD
ENDBRANCH  11  22
BRANCH   9  24
ATOM     24  O   UNL     1      54.288 108.993  57.663  1.00  0.00    -0.507 OA
ATOM     25  H   UNL     1      54.619 109.627  58.382  1.00  0.00     0.293 HD
ENDBRANCH   9  24
BRANCH  10  26
ATOM     26  C   UNL     1      54.225 111.831  56.828  1.00  0.00     0.188 C 
ATOM     27  C   UNL     1      54.421 113.089  55.921  1.00  0.00     0.179 C 
ATOM     28  O   UNL     1      55.493 111.317  57.227  1.00  0.00    -0.362 OA
ATOM     29  C   UNL     1      55.341 112.787  54.734  1.00  0.00     0.177 C 
ATOM     30  C   UNL     1      56.319 110.944  56.126  1.00  0.00     0.176 C 
ATOM     31  C   UNL     1      56.649 112.160  55.238  1.00  0.00     0.177 C 
BRANCH  27  32
ATOM     32  O   UNL     1      54.991 114.125  56.681  1.00  0.00    -0.387 OA
ATOM     33  H   UNL     1      55.299 113.721  57.534  1.00  0.00     0.211 HD
ENDBRANCH  27  32
BRANCH  29  34
ATOM     34  O   UNL     1      54.685 111.923  53.838  1.00  0.00    -0.387 OA
ATOM     35  H   UNL     1      55.389 111.452  53.320  1.00  0.00     0.211 HD
ENDBRANCH  29  34
BRANCH  30  36
ATOM     36  C   UNL     1      57.595 110.307  56.696  1.00  0.00     0.191 C 
BRANCH  36  37
ATOM     37  O   UNL     1      57.324 109.029  57.203  1.00  0.00    -0.394 OA
ATOM     38  H   UNL     1      57.402 109.101  58.190  1.00  0.00     0.210 HD
ENDBRANCH  36  37
ENDBRANCH  30  36
BRANCH  31  39
ATOM     39  O   UNL     1      57.443 111.767  54.147  1.00  0.00    -0.388 OA
ATOM     40  H   UNL     1      56.960 112.049  53.326  1.00  0.00     0.211 HD
ENDBRANCH  31  39
ENDBRANCH  10  26
TORSDOF 11
ENDMDL
MODEL 7
REMARK VINA RESULT:    -5.427      5.419      8.249
REMARK INTER + INTRA:          -8.159
REMARK INTER:                  -7.763
REMARK INTRA:                  -0.396
REMARK UNBOUND:                -0.510
REMARK SMILES O=c1cc(-c2ccc(O)c(O)c2)oc2cc(O)c([C@H]3O[C@H](CO)[C@@H](O)[C@@H](O)[C@@H]3O)c(O)c12
REMARK SMILES IDX 4 1 3 2 2 3 1 4 32 5 14 6 13 7 15 8 16 9 18 10 30 11 5 12
REMARK SMILES IDX 6 13 7 14 8 15 12 16 10 17 9 18 11 20 31 22 17 24 19 26
REMARK SMILES IDX 28 27 20 28 26 29 21 30 24 31 29 32 27 34 22 36 23 37 25 39
REMARK H PARENT 9 19 11 21 31 23 17 25 29 33 27 35 23 38 25 40
REMARK Flexibility Score: inf
ROOT
ATOM      1  C   UNL     1      50.182 107.969  53.851  1.00  0.00     0.138 A 
ATOM      2  C   UNL     1      49.625 109.249  53.980  1.00  0.00     0.100 A 
ATOM      3  C   UNL     1      50.370 110.266  54.579  1.00  0.00     0.197 A 
ATOM      4  O   UNL     1      49.885 111.427  54.610  1.00  0.00    -0.289 OA
ATOM      5  C   UNL     1      51.660 109.984  55.087  1.00  0.00     0.107 A 
ATOM      6  C   UNL     1      52.156 108.677  54.890  1.00  0.00     0.146 A 
ATOM      7  O   UNL     1      51.411 107.744  54.307  1.00  0.00    -0.456 OA
ATOM      8  C   UNL     1      53.434 108.343  55.325  1.00  0.00     0.094 A 
ATOM      9  C   UNL     1      54.274 109.308  55.887  1.00  0.00     0.128 A 
ATOM     10  C   UNL     1      53.856 110.662  55.973  1.00  0.00     0.068 A 
ATOM     11  C   UNL     1      52.476 110.933  55.761  1.00  0.00     0.140 A 
ENDROOT
BRANCH   1  12
ATOM     12  C   UNL     1      49.437 106.847  53.225  1.00  0.00     0.021 A 
ATOM     13  C   UNL     1      50.069 105.925  52.368  1.00  0.00     0.016 A 
ATOM     14  C   UNL     1      49.344 104.874  51.802  1.00  0.00     0.051 A 
ATOM     15  C   UNL     1      47.981 104.719  52.086  1.00  0.00     0.157 A 
ATOM     16  C   UNL     1      48.071 106.677  53.515  1.00  0.00     0.062 A 
ATOM     17  C   UNL     1      47.343 105.625  52.947  1.00  0.00     0.158 A 
BRANCH  15  18
ATOM     18  O   UNL     1      47.262 103.669  51.517  1.00  0.00    -0.504 OA
ATOM     19  H   UNL     1      47.722 102.929  50.998  1.00  0.00     0.293 HD
ENDBRANCH  15  18
BRANCH  17  20
ATOM     20  O   UNL     1      45.989 105.496  53.253  1.00  0.00    -0.504 OA
ATOM     21  H   UNL     1      45.273 106.017  52.761  1.00  0.00     0.293 HD
ENDBRANCH  17  20
ENDBRANCH   1  12
BRANCH  11  22
ATOM     22  O   UNL     1      51.929 112.095  56.312  1.00  0.00    -0.506 OA
ATOM     23  H   UNL     1      52.072 113.020  55.933  1.00  0.00     0.293 HD
ENDBRANCH  11  22
BRANCH   9  24
ATOM     24  O   UNL     1      55.509 108.899  56.389  1.00  0.00    -0.507 OA
ATOM     25  H   UNL     1      55.689 108.829  57.385  1.00  0.00     0.293 HD
ENDBRANCH   9  24
BRANCH  10  26
ATOM     26  C   UNL     1      54.798 111.768  56.505  1.00  0.00     0.188 C 
ATOM     27  C   UNL     1      54.421 113.239  56.128  1.00  0.00     0.179 C 
ATOM     28  O   UNL     1      56.175 111.533  56.225  1.00  0.00    -0.362 OA
ATOM     29  C   UNL     1      54.798 113.561  54.679  1.00  0.00     0.177 C 
ATOM     30  C   UNL     1      56.514 111.739  54.855  1.00  0.00     0.176 C 
ATOM     31  C   UNL     1      56.271 113.202  54.434  1.00  0.00     0.177 C 
BRANCH  27  32
ATOM     32  O   UNL     1      55.104 114.125  56.978  1.00  0.00    -0.387 OA
ATOM     33  H   UNL     1      54.514 114.287  57.761  1.00  0.00     0.211 HD
ENDBRANCH  27  32
BRANCH  29  34
ATOM     34  O   UNL     1      53.958 112.847  53.805  1.00  0.00    -0.387 OA
ATOM     35  H   UNL     1      53.581 112.087  54.320  1.00  0.00     0.211 HD
ENDBRANCH  29  34
BRANCH  30  36
ATOM     36  C   UNL     1      57.987 111.342  54.674  1.00  0.00     0.191 C 
BRANCH  36  37
ATOM     37  O   UNL     1      58.357 110.377  55.620  1.00  0.00    -0.394 OA
ATOM     38  H   UNL     1      57.534 110.162  56.132  1.00  0.00     0.210 HD
ENDBRANCH  36  37
ENDBRANCH  30  36
BRANCH  31  39
ATOM     39  O   UNL     1      56.587 113.377  53.076  1.00  0.00    -0.388 OA
ATOM     40  H   UNL     1      55.779 113.123  52.559  1.00  0.00     0.211 HD
ENDBRANCH  31  39
ENDBRANCH  10  26
TORSDOF 11
ENDMDL
MODEL 8
REMARK VINA RESULT:    -5.396      6.777      8.146
REMARK INTER + INTRA:          -8.114
REMARK INTER:                  -7.687
REMARK INTRA:                  -0.427
REMARK UNBOUND:                -0.510
REMARK SMILES O=c1cc(-c2ccc(O)c(O)c2)oc2cc(O)c([C@H]3O[C@H](CO)[C@@H](O)[C@@H](O)[C@@H]3O)c(O)c12
REMARK SMILES IDX 4 1 3 2 2 3 1 4 32 5 14 6 13 7 15 8 16 9 18 10 30 11 5 12
REMARK SMILES IDX 6 13 7 14 8 15 12 16 10 17 9 18 11 20 31 22 17 24 19 26
REMARK SMILES IDX 28 27 20 28 26 29 21 30 24 31 29 32 27 34 22 36 23 37 25 39
REMARK H PARENT 9 19 11 21 31 23 17 25 29 33 27 35 23 38 25 40
REMARK Flexibility Score: inf
ROOT
ATOM      1  C   UNL     1      47.402 111.072  53.969  1.00  0.00     0.138 A 
ATOM      2  C   UNL     1      47.111 111.346  55.313  1.00  0.00     0.100 A 
ATOM      3  C   UNL     1      47.882 110.756  56.316  1.00  0.00     0.197 A 
ATOM      4  O   UNL     1      47.659 111.081  57.512  1.00  0.00    -0.289 OA
ATOM      5  C   UNL     1      48.917 109.857  55.968  1.00  0.00     0.107 A 
ATOM      6  C   UNL     1      49.161 109.660  54.592  1.00  0.00     0.146 A 
ATOM      7  O   UNL     1      48.404 110.250  53.672  1.00  0.00    -0.456 OA
ATOM      8  C   UNL     1      50.192 108.823  54.180  1.00  0.00     0.094 A 
ATOM      9  C   UNL     1      51.050 108.232  55.110  1.00  0.00     0.128 A 
ATOM     10  C   UNL     1      50.918 108.520  56.495  1.00  0.00     0.068 A 
ATOM     11  C   UNL     1      49.722 109.165  56.915  1.00  0.00     0.140 A 
ENDROOT
BRANCH   1  12
ATOM     12  C   UNL     1      46.616 111.667  52.857  1.00  0.00     0.021 A 
ATOM     13  C   UNL     1      45.264 111.335  52.646  1.00  0.00     0.016 A 
ATOM     14  C   UNL     1      44.548 111.919  51.598  1.00  0.00     0.051 A 
ATOM     15  C   UNL     1      45.163 112.849  50.751  1.00  0.00     0.157 A 
ATOM     16  C   UNL     1      47.222 112.612  52.010  1.00  0.00     0.062 A 
ATOM     17  C   UNL     1      46.507 113.197  50.960  1.00  0.00     0.158 A 
BRANCH  15  18
ATOM     18  O   UNL     1      44.444 113.428  49.706  1.00  0.00    -0.504 OA
ATOM     19  H   UNL     1      43.534 113.079  49.429  1.00  0.00     0.293 HD
ENDBRANCH  15  18
BRANCH  17  20
ATOM     20  O   UNL     1      47.147 114.122  50.137  1.00  0.00    -0.504 OA
ATOM     21  H   UNL     1      48.085 113.973  49.786  1.00  0.00     0.293 HD
ENDBRANCH  17  20
ENDBRANCH   1  12
BRANCH  11  22
ATOM     22  O   UNL     1      49.312 109.017  58.242  1.00  0.00    -0.506 OA
ATOM     23  H   UNL     1      48.356 109.124  58.552  1.00  0.00     0.293 HD
ENDBRANCH  11  22
BRANCH   9  24
ATOM     24  O   UNL     1      52.009 107.331  54.648  1.00  0.00    -0.507 OA
ATOM     25  H   UNL     1      52.641 106.847  55.277  1.00  0.00     0.293 HD
ENDBRANCH   9  24
BRANCH  10  26
ATOM     26  C   UNL     1      51.909 107.954  57.538  1.00  0.00     0.188 C 
ATOM     27  C   UNL     1      52.096 108.795  58.844  1.00  0.00     0.179 C 
ATOM     28  O   UNL     1      53.182 107.613  56.996  1.00  0.00    -0.362 OA
ATOM     29  C   UNL     1      52.988 110.017  58.602  1.00  0.00     0.177 C 
ATOM     30  C   UNL     1      53.981 108.750  56.678  1.00  0.00     0.176 C 
ATOM     31  C   UNL     1      54.301 109.577  57.939  1.00  0.00     0.177 C 
BRANCH  27  32
ATOM     32  O   UNL     1      52.690 107.992  59.832  1.00  0.00    -0.387 OA
ATOM     33  H   UNL     1      53.573 108.396  60.040  1.00  0.00     0.211 HD
ENDBRANCH  27  32
BRANCH  29  34
ATOM     34  O   UNL     1      52.306 110.944  57.793  1.00  0.00    -0.387 OA
ATOM     35  H   UNL     1      52.995 111.498  57.342  1.00  0.00     0.211 HD
ENDBRANCH  29  34
BRANCH  30  36
ATOM     36  C   UNL     1      55.265 108.245  56.002  1.00  0.00     0.191 C 
BRANCH  36  37
ATOM     37  O   UNL     1      54.997 107.109  55.225  1.00  0.00    -0.394 OA
ATOM     38  H   UNL     1      55.758 107.021  54.594  1.00  0.00     0.210 HD
ENDBRANCH  36  37
ENDBRANCH  30  36
BRANCH  31  39
ATOM     39  O   UNL     1      55.068 110.705  57.602  1.00  0.00    -0.388 OA
ATOM     40  H   UNL     1      55.110 110.736  56.611  1.00  0.00     0.211 HD
ENDBRANCH  31  39
ENDBRANCH  10  26
TORSDOF 11
ENDMDL
MODEL 9
REMARK VINA RESULT:    -5.271      2.673      4.200
REMARK INTER + INTRA:          -7.938
REMARK INTER:                  -7.729
REMARK INTRA:                  -0.210
REMARK UNBOUND:                -0.510
REMARK SMILES O=c1cc(-c2ccc(O)c(O)c2)oc2cc(O)c([C@H]3O[C@H](CO)[C@@H](O)[C@@H](O)[C@@H]3O)c(O)c12
REMARK SMILES IDX 4 1 3 2 2 3 1 4 32 5 14 6 13 7 15 8 16 9 18 10 30 11 5 12
REMARK SMILES IDX 6 13 7 14 8 15 12 16 10 17 9 18 11 20 31 22 17 24 19 26
REMARK SMILES IDX 28 27 20 28 26 29 21 30 24 31 29 32 27 34 22 36 23 37 25 39
REMARK H PARENT 9 19 11 21 31 23 17 25 29 33 27 35 23 38 25 40
REMARK Flexibility Score: inf
ROOT
ATOM      1  C   UNL     1      52.512 112.610  51.067  1.00  0.00     0.138 A 
ATOM      2  C   UNL     1      53.290 112.591  52.233  1.00  0.00     0.100 A 
ATOM      3  C   UNL     1      52.677 112.349  53.464  1.00  0.00     0.197 A 
ATOM      4  O   UNL     1      53.404 112.253  54.488  1.00  0.00    -0.289 OA
ATOM      5  C   UNL     1      51.276 112.169  53.526  1.00  0.00     0.107 A 
ATOM      6  C   UNL     1      50.573 112.174  52.302  1.00  0.00     0.146 A 
ATOM      7  O   UNL     1      51.201 112.401  51.154  1.00  0.00    -0.456 OA
ATOM      8  C   UNL     1      49.199 111.959  52.286  1.00  0.00     0.094 A 
ATOM      9  C   UNL     1      48.508 111.656  53.462  1.00  0.00     0.128 A 
ATOM     10  C   UNL     1      49.207 111.507  54.689  1.00  0.00     0.068 A 
ATOM     11  C   UNL     1      50.551 111.971  54.734  1.00  0.00     0.140 A 
ENDROOT
BRANCH   1  12
ATOM     12  C   UNL     1      53.107 112.863  49.730  1.00  0.00     0.021 A 
ATOM     13  C   UNL     1      52.308 113.012  48.580  1.00  0.00     0.016 A 
ATOM     14  C   UNL     1      52.895 113.260  47.337  1.00  0.00     0.051 A 
ATOM     15  C   UNL     1      54.287 113.373  47.221  1.00  0.00     0.157 A 
ATOM     16  C   UNL     1      54.502 112.991  49.606  1.00  0.00     0.062 A 
ATOM     17  C   UNL     1      55.093 113.238  48.362  1.00  0.00     0.158 A 
BRANCH  15  18
ATOM     18  O   UNL     1      54.868 113.619  45.978  1.00  0.00    -0.504 OA
ATOM     19  H   UNL     1      55.873 113.596  45.847  1.00  0.00     0.293 HD
ENDBRANCH  15  18
BRANCH  17  20
ATOM     20  O   UNL     1      56.480 113.349  48.281  1.00  0.00    -0.504 OA
ATOM     21  H   UNL     1      56.935 113.897  47.561  1.00  0.00     0.293 HD
ENDBRANCH  17  20
ENDBRANCH   1  12
BRANCH  11  22
ATOM     22  O   UNL     1      51.098 112.319  55.971  1.00  0.00    -0.506 OA
ATOM     23  H   UNL     1      51.581 113.189  56.149  1.00  0.00     0.293 HD
ENDBRANCH  11  22
BRANCH   9  24
ATOM     24  O   UNL     1      47.119 111.540  53.403  1.00  0.00    -0.507 OA
ATOM     25  H   UNL     1      46.592 111.018  54.094  1.00  0.00     0.293 HD
ENDBRANCH   9  24
BRANCH  10  26
ATOM     26  C   UNL     1      48.483 111.081  55.988  1.00  0.00     0.188 C 
ATOM     27  C   UNL     1      49.291 110.163  56.962  1.00  0.00     0.179 C 
ATOM     28  O   UNL     1      47.186 110.533  55.769  1.00  0.00    -0.362 OA
ATOM     29  C   UNL     1      49.332 108.715  56.465  1.00  0.00     0.177 C 
ATOM     30  C   UNL     1      47.216 109.220  55.215  1.00  0.00     0.176 C 
ATOM     31  C   UNL     1      47.907 108.226  56.171  1.00  0.00     0.177 C 
BRANCH  27  32
ATOM     32  O   UNL     1      48.686 110.186  58.231  1.00  0.00    -0.387 OA
ATOM     33  H   UNL     1      48.056 109.419  58.264  1.00  0.00     0.211 HD
ENDBRANCH  27  32
BRANCH  29  34
ATOM     34  O   UNL     1      50.134 108.637  55.311  1.00  0.00    -0.387 OA
ATOM     35  H   UNL     1      51.023 108.298  55.597  1.00  0.00     0.211 HD
ENDBRANCH  29  34
BRANCH  30  36
ATOM     36  C   UNL     1      45.767 108.801  54.926  1.00  0.00     0.191 C 
BRANCH  36  37
ATOM     37  O   UNL     1      45.262 108.020  55.974  1.00  0.00    -0.394 OA
ATOM     38  H   UNL     1      45.135 107.109  55.603  1.00  0.00     0.210 HD
ENDBRANCH  36  37
ENDBRANCH  30  36
BRANCH  31  39
ATOM     39  O   UNL     1      47.948 106.944  55.597  1.00  0.00    -0.388 OA
ATOM     40  H   UNL     1      48.108 107.072  54.626  1.00  0.00     0.211 HD
ENDBRANCH  31  39
ENDBRANCH  10  26
TORSDOF 11
ENDMDL
