MODEL 1
REMARK VINA RESULT:    -7.464      0.000      0.000
REMARK INTER + INTRA:          -9.148
REMARK INTER:                  -8.991
REMARK INTRA:                  -0.157
REMARK UNBOUND:                -0.157
REMARK SMILES O=c1c(O)c(-c2ccc(O)c(O)c2)oc2cc(O)cc(O)c12
REMARK SMILES IDX 5 1 3 2 2 3 1 4 22 5 20 6 19 7 17 8 16 9 15 10 14 11 6 12
REMARK SMILES IDX 7 13 8 14 9 15 13 16 11 17 10 18 12 20 4 22 21 24 18 26
REMARK H PARENT 10 19 12 21 4 23 21 25 18 27
REMARK Flexibility Score: inf
ROOT
ATOM      1  C   UNL     1       2.566 -33.441 -22.216  1.00  0.00     0.180 A 
ATOM      2  C   UNL     1       1.617 -33.290 -23.242  1.00  0.00     0.208 A 
ATOM      3  C   UNL     1       2.048 -33.316 -24.578  1.00  0.00     0.238 A 
ATOM      4  O   UNL     1       1.188 -33.233 -25.493  1.00  0.00    -0.285 OA
ATOM      5  C   UNL     1       3.424 -33.477 -24.872  1.00  0.00     0.111 A 
ATOM      6  C   UNL     1       3.978 -33.477 -26.187  1.00  0.00     0.134 A 
ATOM      7  C   UNL     1       5.335 -33.776 -26.366  1.00  0.00     0.093 A 
ATOM      8  C   UNL     1       6.170 -34.009 -25.274  1.00  0.00     0.123 A 
ATOM      9  C   UNL     1       5.652 -33.951 -23.980  1.00  0.00     0.094 A 
ATOM     10  C   UNL     1       4.295 -33.692 -23.771  1.00  0.00     0.146 A 
ATOM     11  O   UNL     1       3.840 -33.657 -22.525  1.00  0.00    -0.452 OA
ENDROOT
BRANCH   1  12
ATOM     12  C   UNL     1       2.192 -33.400 -20.784  1.00  0.00     0.025 A 
ATOM     13  C   UNL     1       2.310 -34.534 -19.966  1.00  0.00     0.016 A 
ATOM     14  C   UNL     1       1.928 -34.477 -18.624  1.00  0.00     0.051 A 
ATOM     15  C   UNL     1       1.410 -33.299 -18.077  1.00  0.00     0.157 A 
ATOM     16  C   UNL     1       1.653 -32.222 -20.244  1.00  0.00     0.062 A 
ATOM     17  C   UNL     1       1.268 -32.156 -18.899  1.00  0.00     0.158 A 
BRANCH  15  18
ATOM     18  O   UNL     1       1.051 -33.307 -16.726  1.00  0.00    -0.504 OA
ATOM     19  H   UNL     1       0.098 -33.256 -16.395  1.00  0.00     0.293 HD
ENDBRANCH  15  18
BRANCH  17  20
ATOM     20  O   UNL     1       0.751 -30.946 -18.428  1.00  0.00    -0.504 OA
ATOM     21  H   UNL     1       0.821 -30.071 -18.926  1.00  0.00     0.293 HD
ENDBRANCH  17  20
ENDBRANCH   1  12
BRANCH   2  22
ATOM     22  O   UNL     1       0.262 -33.153 -22.931  1.00  0.00    -0.502 OA
ATOM     23  H   UNL     1      -0.350 -33.950 -22.800  1.00  0.00     0.293 HD
ENDBRANCH   2  22
BRANCH   6  24
ATOM     24  O   UNL     1       3.250 -33.167 -27.341  1.00  0.00    -0.507 OA
ATOM     25  H   UNL     1       2.353 -33.562 -27.577  1.00  0.00     0.293 HD
ENDBRANCH   6  24
BRANCH   8  26
ATOM     26  O   UNL     1       7.518 -34.286 -25.488  1.00  0.00    -0.508 OA
ATOM     27  H   UNL     1       7.892 -34.419 -26.420  1.00  0.00     0.293 HD
ENDBRANCH   8  26
TORSDOF 6
ENDMDL
MODEL 2
REMARK VINA RESULT:    -7.307      9.335     10.158
REMARK INTER + INTRA:          -8.959
REMARK INTER:                  -8.995
REMARK INTRA:                   0.036
REMARK UNBOUND:                -0.157
REMARK SMILES O=c1c(O)c(-c2ccc(O)c(O)c2)oc2cc(O)cc(O)c12
REMARK SMILES IDX 5 1 3 2 2 3 1 4 22 5 20 6 19 7 17 8 16 9 15 10 14 11 6 12
REMARK SMILES IDX 7 13 8 14 9 15 13 16 11 17 10 18 12 20 4 22 21 24 18 26
REMARK H PARENT 10 19 12 21 4 23 21 25 18 27
REMARK Flexibility Score: inf
ROOT
ATOM      1  C   UNL     1       5.133 -24.035 -23.395  1.00  0.00     0.180 A 
ATOM      2  C   UNL     1       6.318 -24.762 -23.600  1.00  0.00     0.208 A 
ATOM      3  C   UNL     1       6.823 -24.889 -24.904  1.00  0.00     0.238 A 
ATOM      4  O   UNL     1       7.913 -25.495 -25.074  1.00  0.00    -0.285 OA
ATOM      5  C   UNL     1       6.128 -24.302 -25.989  1.00  0.00     0.111 A 
ATOM      6  C   UNL     1       6.526 -24.402 -27.356  1.00  0.00     0.134 A 
ATOM      7  C   UNL     1       5.836 -23.672 -28.332  1.00  0.00     0.093 A 
ATOM      8  C   UNL     1       4.724 -22.899 -28.000  1.00  0.00     0.123 A 
ATOM      9  C   UNL     1       4.290 -22.841 -26.676  1.00  0.00     0.094 A 
ATOM     10  C   UNL     1       4.979 -23.529 -25.674  1.00  0.00     0.146 A 
ATOM     11  O   UNL     1       4.540 -23.440 -24.424  1.00  0.00    -0.452 OA
ENDROOT
BRANCH   1  12
ATOM     12  C   UNL     1       4.527 -23.878 -22.054  1.00  0.00     0.025 A 
ATOM     13  C   UNL     1       5.294 -23.483 -20.947  1.00  0.00     0.016 A 
ATOM     14  C   UNL     1       4.705 -23.365 -19.687  1.00  0.00     0.051 A 
ATOM     15  C   UNL     1       3.348 -23.650 -19.502  1.00  0.00     0.157 A 
ATOM     16  C   UNL     1       3.170 -24.185 -21.868  1.00  0.00     0.062 A 
ATOM     17  C   UNL     1       2.570 -24.069 -20.607  1.00  0.00     0.158 A 
BRANCH  15  18
ATOM     18  O   UNL     1       2.819 -23.507 -18.217  1.00  0.00    -0.504 OA
ATOM     19  H   UNL     1       3.133 -22.816 -17.551  1.00  0.00     0.293 HD
ENDBRANCH  15  18
BRANCH  17  20
ATOM     20  O   UNL     1       1.212 -24.380 -20.500  1.00  0.00    -0.504 OA
ATOM     21  H   UNL     1       0.742 -25.058 -21.082  1.00  0.00     0.293 HD
ENDBRANCH  17  20
ENDBRANCH   1  12
BRANCH   2  22
ATOM     22  O   UNL     1       7.000 -25.315 -22.513  1.00  0.00    -0.502 OA
ATOM     23  H   UNL     1       6.727 -25.142 -21.553  1.00  0.00     0.293 HD
ENDBRANCH   2  22
BRANCH   6  24
ATOM     24  O   UNL     1       7.567 -25.219 -27.808  1.00  0.00    -0.507 OA
ATOM     25  H   UNL     1       7.596 -25.664 -28.713  1.00  0.00     0.293 HD
ENDBRANCH   6  24
BRANCH   8  26
ATOM     26  O   UNL     1       4.052 -22.198 -28.999  1.00  0.00    -0.508 OA
ATOM     27  H   UNL     1       3.411 -21.444 -28.779  1.00  0.00     0.293 HD
ENDBRANCH   8  26
TORSDOF 6
ENDMDL
MODEL 3
REMARK VINA RESULT:    -7.145      8.958     11.505
REMARK INTER + INTRA:          -8.765
REMARK INTER:                  -8.477
REMARK INTRA:                  -0.288
REMARK UNBOUND:                -0.157
REMARK SMILES O=c1c(O)c(-c2ccc(O)c(O)c2)oc2cc(O)cc(O)c12
REMARK SMILES IDX 5 1 3 2 2 3 1 4 22 5 20 6 19 7 17 8 16 9 15 10 14 11 6 12
REMARK SMILES IDX 7 13 8 14 9 15 13 16 11 17 10 18 12 20 4 22 21 24 18 26
REMARK H PARENT 10 19 12 21 4 23 21 25 18 27
REMARK Flexibility Score: inf
ROOT
ATOM      1  C   UNL     1       4.659 -24.407 -25.550  1.00  0.00     0.180 A 
ATOM      2  C   UNL     1       3.331 -24.188 -25.145  1.00  0.00     0.208 A 
ATOM      3  C   UNL     1       3.025 -24.201 -23.775  1.00  0.00     0.238 A 
ATOM      4  O   UNL     1       1.845 -23.951 -23.415  1.00  0.00    -0.285 OA
ATOM      5  C   UNL     1       4.048 -24.449 -22.827  1.00  0.00     0.111 A 
ATOM      6  C   UNL     1       3.845 -24.526 -21.416  1.00  0.00     0.134 A 
ATOM      7  C   UNL     1       4.950 -24.646 -20.564  1.00  0.00     0.093 A 
ATOM      8  C   UNL     1       6.243 -24.757 -21.074  1.00  0.00     0.123 A 
ATOM      9  C   UNL     1       6.448 -24.744 -22.454  1.00  0.00     0.094 A 
ATOM     10  C   UNL     1       5.369 -24.589 -23.328  1.00  0.00     0.146 A 
ATOM     11  O   UNL     1       5.608 -24.570 -24.634  1.00  0.00    -0.452 OA
ENDROOT
BRANCH   1  12
ATOM     12  C   UNL     1       5.054 -24.432 -26.977  1.00  0.00     0.025 A 
ATOM     13  C   UNL     1       5.648 -23.317 -27.590  1.00  0.00     0.016 A 
ATOM     14  C   UNL     1       5.989 -23.357 -28.943  1.00  0.00     0.051 A 
ATOM     15  C   UNL     1       5.736 -24.497 -29.712  1.00  0.00     0.157 A 
ATOM     16  C   UNL     1       4.779 -25.570 -27.750  1.00  0.00     0.062 A 
ATOM     17  C   UNL     1       5.119 -25.619 -29.108  1.00  0.00     0.158 A 
BRANCH  15  18
ATOM     18  O   UNL     1       6.107 -24.473 -31.059  1.00  0.00    -0.504 OA
ATOM     19  H   UNL     1       6.272 -25.301 -31.614  1.00  0.00     0.293 HD
ENDBRANCH  15  18
BRANCH  17  20
ATOM     20  O   UNL     1       4.826 -26.789 -29.812  1.00  0.00    -0.504 OA
ATOM     21  H   UNL     1       4.138 -26.846 -30.549  1.00  0.00     0.293 HD
ENDBRANCH  17  20
ENDBRANCH   1  12
BRANCH   2  22
ATOM     22  O   UNL     1       2.341 -23.924 -26.095  1.00  0.00    -0.502 OA
ATOM     23  H   UNL     1       2.525 -23.936 -27.091  1.00  0.00     0.293 HD
ENDBRANCH   2  22
BRANCH   6  24
ATOM     24  O   UNL     1       2.586 -24.516 -20.807  1.00  0.00    -0.507 OA
ATOM     25  H   UNL     1       2.026 -23.691 -20.658  1.00  0.00     0.293 HD
ENDBRANCH   6  24
BRANCH   8  26
ATOM     26  O   UNL     1       7.318 -24.892 -20.198  1.00  0.00    -0.508 OA
ATOM     27  H   UNL     1       7.918 -24.108 -19.971  1.00  0.00     0.293 HD
ENDBRANCH   8  26
TORSDOF 6
ENDMDL
MODEL 4
REMARK VINA RESULT:    -7.073      8.463      9.235
REMARK INTER + INTRA:          -8.678
REMARK INTER:                  -8.413
REMARK INTRA:                  -0.265
REMARK UNBOUND:                -0.157
REMARK SMILES O=c1c(O)c(-c2ccc(O)c(O)c2)oc2cc(O)cc(O)c12
REMARK SMILES IDX 5 1 3 2 2 3 1 4 22 5 20 6 19 7 17 8 16 9 15 10 14 11 6 12
REMARK SMILES IDX 7 13 8 14 9 15 13 16 11 17 10 18 12 20 4 22 21 24 18 26
REMARK H PARENT 10 19 12 21 4 23 21 25 18 27
REMARK Flexibility Score: inf
ROOT
ATOM      1  C   UNL     1       4.957 -24.957 -23.829  1.00  0.00     0.180 A 
ATOM      2  C   UNL     1       5.207 -26.335 -23.942  1.00  0.00     0.208 A 
ATOM      3  C   UNL     1       5.578 -26.860 -25.191  1.00  0.00     0.238 A 
ATOM      4  O   UNL     1       5.853 -28.085 -25.275  1.00  0.00    -0.285 OA
ATOM      5  C   UNL     1       5.678 -26.003 -26.313  1.00  0.00     0.111 A 
ATOM      6  C   UNL     1       6.006 -26.431 -27.635  1.00  0.00     0.134 A 
ATOM      7  C   UNL     1       6.205 -25.478 -28.641  1.00  0.00     0.093 A 
ATOM      8  C   UNL     1       6.025 -24.119 -28.391  1.00  0.00     0.123 A 
ATOM      9  C   UNL     1       5.645 -23.693 -27.118  1.00  0.00     0.094 A 
ATOM     10  C   UNL     1       5.474 -24.616 -26.084  1.00  0.00     0.146 A 
ATOM     11  O   UNL     1       5.124 -24.168 -24.884  1.00  0.00    -0.452 OA
ENDROOT
BRANCH   1  12
ATOM     12  C   UNL     1       4.538 -24.335 -22.552  1.00  0.00     0.025 A 
ATOM     13  C   UNL     1       5.443 -23.610 -21.761  1.00  0.00     0.016 A 
ATOM     14  C   UNL     1       5.030 -23.053 -20.549  1.00  0.00     0.051 A 
ATOM     15  C   UNL     1       3.717 -23.217 -20.096  1.00  0.00     0.157 A 
ATOM     16  C   UNL     1       3.225 -24.520 -22.090  1.00  0.00     0.062 A 
ATOM     17  C   UNL     1       2.803 -23.964 -20.876  1.00  0.00     0.158 A 
BRANCH  15  18
ATOM     18  O   UNL     1       3.368 -22.631 -18.877  1.00  0.00    -0.504 OA
ATOM     19  H   UNL     1       3.901 -22.737 -18.026  1.00  0.00     0.293 HD
ENDBRANCH  15  18
BRANCH  17  20
ATOM     20  O   UNL     1       1.479 -24.180 -20.486  1.00  0.00    -0.504 OA
ATOM     21  H   UNL     1       0.779 -23.453 -20.438  1.00  0.00     0.293 HD
ENDBRANCH  17  20
ENDBRANCH   1  12
BRANCH   2  22
ATOM     22  O   UNL     1       5.123 -27.160 -22.818  1.00  0.00    -0.502 OA
ATOM     23  H   UNL     1       4.240 -27.494 -22.452  1.00  0.00     0.293 HD
ENDBRANCH   2  22
BRANCH   6  24
ATOM     24  O   UNL     1       6.121 -27.773 -28.014  1.00  0.00    -0.507 OA
ATOM     25  H   UNL     1       5.918 -28.558 -27.414  1.00  0.00     0.293 HD
ENDBRANCH   6  24
BRANCH   8  26
ATOM     26  O   UNL     1       6.215 -23.200 -29.421  1.00  0.00    -0.508 OA
ATOM     27  H   UNL     1       6.284 -23.493 -30.388  1.00  0.00     0.293 HD
ENDBRANCH   8  26
TORSDOF 6
ENDMDL
MODEL 5
REMARK VINA RESULT:    -6.994      8.215      8.962
REMARK INTER + INTRA:          -8.582
REMARK INTER:                  -8.319
REMARK INTRA:                  -0.263
REMARK UNBOUND:                -0.157
REMARK SMILES O=c1c(O)c(-c2ccc(O)c(O)c2)oc2cc(O)cc(O)c12
REMARK SMILES IDX 5 1 3 2 2 3 1 4 22 5 20 6 19 7 17 8 16 9 15 10 14 11 6 12
REMARK SMILES IDX 7 13 8 14 9 15 13 16 11 17 10 18 12 20 4 22 21 24 18 26
REMARK H PARENT 10 19 12 21 4 23 21 25 18 27
REMARK Flexibility Score: inf
ROOT
ATOM      1  C   UNL     1       4.779 -25.333 -23.678  1.00  0.00     0.180 A 
ATOM      2  C   UNL     1       4.998 -26.701 -23.911  1.00  0.00     0.208 A 
ATOM      3  C   UNL     1       5.378 -27.122 -25.196  1.00  0.00     0.238 A 
ATOM      4  O   UNL     1       5.625 -28.341 -25.385  1.00  0.00    -0.285 OA
ATOM      5  C   UNL     1       5.519 -26.171 -26.235  1.00  0.00     0.111 A 
ATOM      6  C   UNL     1       5.860 -26.488 -27.584  1.00  0.00     0.134 A 
ATOM      7  C   UNL     1       6.100 -25.454 -28.498  1.00  0.00     0.093 A 
ATOM      8  C   UNL     1       5.948 -24.118 -28.130  1.00  0.00     0.123 A 
ATOM      9  C   UNL     1       5.556 -23.798 -26.830  1.00  0.00     0.094 A 
ATOM     10  C   UNL     1       5.345 -24.805 -25.885  1.00  0.00     0.146 A 
ATOM     11  O   UNL     1       4.983 -24.458 -24.656  1.00  0.00    -0.452 OA
ENDROOT
BRANCH   1  12
ATOM     12  C   UNL     1       4.353 -24.817 -22.357  1.00  0.00     0.025 A 
ATOM     13  C   UNL     1       3.037 -24.382 -22.133  1.00  0.00     0.016 A 
ATOM     14  C   UNL     1       2.665 -23.877 -20.886  1.00  0.00     0.051 A 
ATOM     15  C   UNL     1       3.595 -23.783 -19.846  1.00  0.00     0.157 A 
ATOM     16  C   UNL     1       5.294 -24.704 -21.322  1.00  0.00     0.062 A 
ATOM     17  C   UNL     1       4.929 -24.199 -20.067  1.00  0.00     0.158 A 
BRANCH  15  18
ATOM     18  O   UNL     1       3.157 -23.273 -18.621  1.00  0.00    -0.504 OA
ATOM     19  H   UNL     1       3.456 -22.387 -18.239  1.00  0.00     0.293 HD
ENDBRANCH  15  18
BRANCH  17  20
ATOM     20  O   UNL     1       5.916 -24.127 -19.082  1.00  0.00    -0.504 OA
ATOM     21  H   UNL     1       5.734 -23.890 -18.117  1.00  0.00     0.293 HD
ENDBRANCH  17  20
ENDBRANCH   1  12
BRANCH   2  22
ATOM     22  O   UNL     1       4.874 -27.621 -22.867  1.00  0.00    -0.502 OA
ATOM     23  H   UNL     1       4.845 -27.340 -21.894  1.00  0.00     0.293 HD
ENDBRANCH   2  22
BRANCH   6  24
ATOM     24  O   UNL     1       5.948 -27.793 -28.081  1.00  0.00    -0.507 OA
ATOM     25  H   UNL     1       6.564 -28.084 -28.825  1.00  0.00     0.293 HD
ENDBRANCH   6  24
BRANCH   8  26
ATOM     26  O   UNL     1       6.179 -23.116 -29.069  1.00  0.00    -0.508 OA
ATOM     27  H   UNL     1       6.225 -23.318 -30.061  1.00  0.00     0.293 HD
ENDBRANCH   8  26
TORSDOF 6
ENDMDL
MODEL 6
REMARK VINA RESULT:    -6.930      7.439      9.619
REMARK INTER + INTRA:          -8.505
REMARK INTER:                  -8.181
REMARK INTRA:                  -0.324
REMARK UNBOUND:                -0.157
REMARK SMILES O=c1c(O)c(-c2ccc(O)c(O)c2)oc2cc(O)cc(O)c12
REMARK SMILES IDX 5 1 3 2 2 3 1 4 22 5 20 6 19 7 17 8 16 9 15 10 14 11 6 12
REMARK SMILES IDX 7 13 8 14 9 15 13 16 11 17 10 18 12 20 4 22 21 24 18 26
REMARK H PARENT 10 19 12 21 4 23 21 25 18 27
REMARK Flexibility Score: inf
ROOT
ATOM      1  C   UNL     1       2.646 -27.464 -27.786  1.00  0.00     0.180 A 
ATOM      2  C   UNL     1       1.915 -26.530 -27.031  1.00  0.00     0.208 A 
ATOM      3  C   UNL     1       2.368 -25.203 -26.967  1.00  0.00     0.238 A 
ATOM      4  O   UNL     1       1.680 -24.359 -26.334  1.00  0.00    -0.285 OA
ATOM      5  C   UNL     1       3.553 -24.828 -27.644  1.00  0.00     0.111 A 
ATOM      6  C   UNL     1       4.126 -23.521 -27.616  1.00  0.00     0.134 A 
ATOM      7  C   UNL     1       5.229 -23.232 -28.429  1.00  0.00     0.093 A 
ATOM      8  C   UNL     1       5.819 -24.217 -29.220  1.00  0.00     0.123 A 
ATOM      9  C   UNL     1       5.304 -25.514 -29.210  1.00  0.00     0.094 A 
ATOM     10  C   UNL     1       4.182 -25.825 -28.437  1.00  0.00     0.146 A 
ATOM     11  O   UNL     1       3.717 -27.068 -28.465  1.00  0.00    -0.452 OA
ENDROOT
BRANCH   1  12
ATOM     12  C   UNL     1       2.246 -28.886 -27.881  1.00  0.00     0.025 A 
ATOM     13  C   UNL     1       2.602 -29.813 -26.889  1.00  0.00     0.016 A 
ATOM     14  C   UNL     1       2.233 -31.154 -27.013  1.00  0.00     0.051 A 
ATOM     15  C   UNL     1       1.518 -31.599 -28.129  1.00  0.00     0.157 A 
ATOM     16  C   UNL     1       1.546 -29.333 -29.013  1.00  0.00     0.062 A 
ATOM     17  C   UNL     1       1.172 -30.677 -29.145  1.00  0.00     0.158 A 
BRANCH  15  18
ATOM     18  O   UNL     1       1.176 -32.953 -28.189  1.00  0.00    -0.504 OA
ATOM     19  H   UNL     1       1.119 -33.483 -29.047  1.00  0.00     0.293 HD
ENDBRANCH  15  18
BRANCH  17  20
ATOM     20  O   UNL     1       0.467 -31.047 -30.293  1.00  0.00    -0.504 OA
ATOM     21  H   UNL     1       0.550 -30.577 -31.182  1.00  0.00     0.293 HD
ENDBRANCH  17  20
ENDBRANCH   1  12
BRANCH   2  22
ATOM     22  O   UNL     1       0.737 -26.915 -26.387  1.00  0.00    -0.502 OA
ATOM     23  H   UNL     1       0.611 -27.836 -25.987  1.00  0.00     0.293 HD
ENDBRANCH   2  22
BRANCH   6  24
ATOM     24  O   UNL     1       3.670 -22.488 -26.791  1.00  0.00    -0.507 OA
ATOM     25  H   UNL     1       2.704 -22.217 -26.691  1.00  0.00     0.293 HD
ENDBRANCH   6  24
BRANCH   8  26
ATOM     26  O   UNL     1       6.925 -23.898 -30.004  1.00  0.00    -0.508 OA
ATOM     27  H   UNL     1       6.928 -24.055 -31.006  1.00  0.00     0.293 HD
ENDBRANCH   8  26
TORSDOF 6
ENDMDL
MODEL 7
REMARK VINA RESULT:    -6.855      8.945     11.815
REMARK INTER + INTRA:          -8.414
REMARK INTER:                  -8.083
REMARK INTRA:                  -0.331
REMARK UNBOUND:                -0.157
REMARK SMILES O=c1c(O)c(-c2ccc(O)c(O)c2)oc2cc(O)cc(O)c12
REMARK SMILES IDX 5 1 3 2 2 3 1 4 22 5 20 6 19 7 17 8 16 9 15 10 14 11 6 12
REMARK SMILES IDX 7 13 8 14 9 15 13 16 11 17 10 18 12 20 4 22 21 24 18 26
REMARK H PARENT 10 19 12 21 4 23 21 25 18 27
REMARK Flexibility Score: inf
ROOT
ATOM      1  C   UNL     1       5.140 -24.308 -24.610  1.00  0.00     0.180 A 
ATOM      2  C   UNL     1       6.225 -23.821 -23.861  1.00  0.00     0.208 A 
ATOM      3  C   UNL     1       6.025 -23.482 -22.513  1.00  0.00     0.238 A 
ATOM      4  O   UNL     1       7.012 -23.098 -21.833  1.00  0.00    -0.285 OA
ATOM      5  C   UNL     1       4.740 -23.617 -21.936  1.00  0.00     0.111 A 
ATOM      6  C   UNL     1       4.412 -23.265 -20.592  1.00  0.00     0.134 A 
ATOM      7  C   UNL     1       3.140 -23.564 -20.088  1.00  0.00     0.093 A 
ATOM      8  C   UNL     1       2.164 -24.141 -20.898  1.00  0.00     0.123 A 
ATOM      9  C   UNL     1       2.453 -24.435 -22.231  1.00  0.00     0.094 A 
ATOM     10  C   UNL     1       3.724 -24.182 -22.752  1.00  0.00     0.146 A 
ATOM     11  O   UNL     1       3.962 -24.486 -24.022  1.00  0.00    -0.452 OA
ENDROOT
BRANCH   1  12
ATOM     12  C   UNL     1       5.267 -24.664 -26.042  1.00  0.00     0.025 A 
ATOM     13  C   UNL     1       5.047 -23.715 -27.052  1.00  0.00     0.016 A 
ATOM     14  C   UNL     1       5.149 -24.080 -28.396  1.00  0.00     0.051 A 
ATOM     15  C   UNL     1       5.458 -25.395 -28.758  1.00  0.00     0.157 A 
ATOM     16  C   UNL     1       5.556 -25.989 -26.402  1.00  0.00     0.062 A 
ATOM     17  C   UNL     1       5.661 -26.364 -27.747  1.00  0.00     0.158 A 
BRANCH  15  18
ATOM     18  O   UNL     1       5.550 -25.693 -30.120  1.00  0.00    -0.504 OA
ATOM     19  H   UNL     1       6.415 -25.912 -30.593  1.00  0.00     0.293 HD
ENDBRANCH  15  18
BRANCH  17  20
ATOM     20  O   UNL     1       5.964 -27.698 -28.030  1.00  0.00    -0.504 OA
ATOM     21  H   UNL     1       6.425 -28.005 -28.875  1.00  0.00     0.293 HD
ENDBRANCH  17  20
ENDBRANCH   1  12
BRANCH   2  22
ATOM     22  O   UNL     1       7.490 -23.715 -24.444  1.00  0.00    -0.502 OA
ATOM     23  H   UNL     1       7.744 -24.211 -25.290  1.00  0.00     0.293 HD
ENDBRANCH   2  22
BRANCH   6  24
ATOM     24  O   UNL     1       5.286 -22.600 -19.725  1.00  0.00    -0.507 OA
ATOM     25  H   UNL     1       6.161 -22.182 -20.001  1.00  0.00     0.293 HD
ENDBRANCH   6  24
BRANCH   8  26
ATOM     26  O   UNL     1       0.903 -24.410 -20.369  1.00  0.00    -0.508 OA
ATOM     27  H   UNL     1       0.460 -25.314 -20.487  1.00  0.00     0.293 HD
ENDBRANCH   8  26
TORSDOF 6
ENDMDL
MODEL 8
REMARK VINA RESULT:    -6.789      8.567      9.391
REMARK INTER + INTRA:          -8.335
REMARK INTER:                  -8.455
REMARK INTRA:                   0.121
REMARK UNBOUND:                -0.157
REMARK SMILES O=c1c(O)c(-c2ccc(O)c(O)c2)oc2cc(O)cc(O)c12
REMARK SMILES IDX 5 1 3 2 2 3 1 4 22 5 20 6 19 7 17 8 16 9 15 10 14 11 6 12
REMARK SMILES IDX 7 13 8 14 9 15 13 16 11 17 10 18 12 20 4 22 21 24 18 26
REMARK H PARENT 10 19 12 21 4 23 21 25 18 27
REMARK Flexibility Score: inf
ROOT
ATOM      1  C   UNL     1       5.175 -24.631 -23.464  1.00  0.00     0.180 A 
ATOM      2  C   UNL     1       6.408 -24.086 -23.861  1.00  0.00     0.208 A 
ATOM      3  C   UNL     1       6.911 -24.394 -25.136  1.00  0.00     0.238 A 
ATOM      4  O   UNL     1       7.989 -23.860 -25.506  1.00  0.00    -0.285 OA
ATOM      5  C   UNL     1       6.182 -25.255 -25.991  1.00  0.00     0.111 A 
ATOM      6  C   UNL     1       6.614 -25.667 -27.287  1.00  0.00     0.134 A 
ATOM      7  C   UNL     1       5.753 -26.416 -28.098  1.00  0.00     0.093 A 
ATOM      8  C   UNL     1       4.502 -26.823 -27.636  1.00  0.00     0.123 A 
ATOM      9  C   UNL     1       4.092 -26.476 -26.348  1.00  0.00     0.094 A 
ATOM     10  C   UNL     1       4.915 -25.699 -25.529  1.00  0.00     0.146 A 
ATOM     11  O   UNL     1       4.483 -25.382 -24.314  1.00  0.00    -0.452 OA
ENDROOT
BRANCH   1  12
ATOM     12  C   UNL     1       4.593 -24.372 -22.127  1.00  0.00     0.025 A 
ATOM     13  C   UNL     1       3.239 -24.036 -21.973  1.00  0.00     0.016 A 
ATOM     14  C   UNL     1       2.719 -23.773 -20.705  1.00  0.00     0.051 A 
ATOM     15  C   UNL     1       3.536 -23.827 -19.571  1.00  0.00     0.157 A 
ATOM     16  C   UNL     1       5.421 -24.406 -20.995  1.00  0.00     0.062 A 
ATOM     17  C   UNL     1       4.907 -24.145 -19.718  1.00  0.00     0.158 A 
BRANCH  15  18
ATOM     18  O   UNL     1       2.952 -23.557 -18.331  1.00  0.00    -0.504 OA
ATOM     19  H   UNL     1       3.400 -23.024 -17.600  1.00  0.00     0.293 HD
ENDBRANCH  15  18
BRANCH  17  20
ATOM     20  O   UNL     1       5.787 -24.208 -18.635  1.00  0.00    -0.504 OA
ATOM     21  H   UNL     1       6.565 -23.578 -18.503  1.00  0.00     0.293 HD
ENDBRANCH  17  20
ENDBRANCH   1  12
BRANCH   2  22
ATOM     22  O   UNL     1       7.101 -23.221 -23.010  1.00  0.00    -0.502 OA
ATOM     23  H   UNL     1       6.793 -23.023 -22.066  1.00  0.00     0.293 HD
ENDBRANCH   2  22
BRANCH   6  24
ATOM     24  O   UNL     1       7.883 -25.393 -27.811  1.00  0.00    -0.507 OA
ATOM     25  H   UNL     1       8.334 -24.492 -27.778  1.00  0.00     0.293 HD
ENDBRANCH   6  24
BRANCH   8  26
ATOM     26  O   UNL     1       3.676 -27.581 -28.464  1.00  0.00    -0.508 OA
ATOM     27  H   UNL     1       3.936 -27.795 -29.420  1.00  0.00     0.293 HD
ENDBRANCH   8  26
TORSDOF 6
ENDMDL
MODEL 9
REMARK VINA RESULT:    -6.748      1.688      6.869
REMARK INTER + INTRA:          -8.286
REMARK INTER:                  -8.171
REMARK INTRA:                  -0.115
REMARK UNBOUND:                -0.157
REMARK SMILES O=c1c(O)c(-c2ccc(O)c(O)c2)oc2cc(O)cc(O)c12
REMARK SMILES IDX 5 1 3 2 2 3 1 4 22 5 20 6 19 7 17 8 16 9 15 10 14 11 6 12
REMARK SMILES IDX 7 13 8 14 9 15 13 16 11 17 10 18 12 20 4 22 21 24 18 26
REMARK H PARENT 10 19 12 21 4 23 21 25 18 27
REMARK Flexibility Score: inf
ROOT
ATOM      1  C   UNL     1       3.612 -32.612 -23.493  1.00  0.00     0.180 A 
ATOM      2  C   UNL     1       2.916 -31.394 -23.581  1.00  0.00     0.208 A 
ATOM      3  C   UNL     1       2.197 -30.939 -22.465  1.00  0.00     0.238 A 
ATOM      4  O   UNL     1       1.619 -29.822 -22.531  1.00  0.00    -0.285 OA
ATOM      5  C   UNL     1       2.169 -31.713 -21.280  1.00  0.00     0.111 A 
ATOM      6  C   UNL     1       1.441 -31.369 -20.101  1.00  0.00     0.134 A 
ATOM      7  C   UNL     1       1.592 -32.143 -18.944  1.00  0.00     0.093 A 
ATOM      8  C   UNL     1       2.392 -33.284 -18.941  1.00  0.00     0.123 A 
ATOM      9  C   UNL     1       3.062 -33.665 -20.105  1.00  0.00     0.094 A 
ATOM     10  C   UNL     1       2.960 -32.893 -21.265  1.00  0.00     0.146 A 
ATOM     11  O   UNL     1       3.622 -33.283 -22.347  1.00  0.00    -0.452 OA
ENDROOT
BRANCH   1  12
ATOM     12  C   UNL     1       4.372 -33.169 -24.636  1.00  0.00     0.025 A 
ATOM     13  C   UNL     1       3.752 -33.429 -25.868  1.00  0.00     0.016 A 
ATOM     14  C   UNL     1       4.483 -33.977 -26.923  1.00  0.00     0.051 A 
ATOM     15  C   UNL     1       5.838 -34.289 -26.768  1.00  0.00     0.157 A 
ATOM     16  C   UNL     1       5.726 -33.501 -24.470  1.00  0.00     0.062 A 
ATOM     17  C   UNL     1       6.467 -34.051 -25.523  1.00  0.00     0.158 A 
BRANCH  15  18
ATOM     18  O   UNL     1       6.514 -34.831 -27.865  1.00  0.00    -0.504 OA
ATOM     19  H   UNL     1       6.327 -34.578 -28.824  1.00  0.00     0.293 HD
ENDBRANCH  15  18
BRANCH  17  20
ATOM     20  O   UNL     1       7.813 -34.344 -25.289  1.00  0.00    -0.504 OA
ATOM     21  H   UNL     1       8.151 -34.824 -24.467  1.00  0.00     0.293 HD
ENDBRANCH  17  20
ENDBRANCH   1  12
BRANCH   2  22
ATOM     22  O   UNL     1       2.972 -30.635 -24.752  1.00  0.00    -0.502 OA
ATOM     23  H   UNL     1       3.765 -30.664 -25.383  1.00  0.00     0.293 HD
ENDBRANCH   2  22
BRANCH   6  24
ATOM     24  O   UNL     1       0.542 -30.300 -20.025  1.00  0.00    -0.507 OA
ATOM     25  H   UNL     1       0.772 -29.341 -20.233  1.00  0.00     0.293 HD
ENDBRANCH   6  24
BRANCH   8  26
ATOM     26  O   UNL     1       2.507 -34.041 -17.777  1.00  0.00    -0.508 OA
ATOM     27  H   UNL     1       3.187 -34.787 -17.694  1.00  0.00     0.293 HD
ENDBRANCH   8  26
TORSDOF 6
ENDMDL
