MODEL 1
REMARK VINA RESULT:    -4.115      0.000      0.000
REMARK INTER + INTRA:         -10.096
REMARK INTER:                  -7.724
REMARK INTRA:                  -2.372
REMARK UNBOUND:                -2.372
REMARK SMILES CCCCCCCCC=CCCCCCCCC(=O)[O-]
REMARK SMILES IDX 10 1 9 2 11 3 12 4 13 5 14 6 15 7 16 8 17 9 18 10 19 11
REMARK SMILES IDX 20 12 8 13 7 14 6 15 5 16 4 17 3 18 2 19 1 20
REMARK H PARENT
REMARK Flexibility Score: inf
ROOT
ATOM      1  C   UNL     1       1.800   2.614   7.067  1.00  0.00    -0.031 C 
ATOM      2  C   UNL     1       1.426   1.337   7.233  1.00  0.00    -0.031 C 
ENDROOT
BRANCH   1   3
ATOM      3  C   UNL     1       1.326   3.681   8.016  1.00  0.00     0.027 C 
BRANCH   3   4
ATOM      4  C   UNL     1       1.104   5.012   7.284  1.00  0.00     0.004 C 
BRANCH   4   5
ATOM      5  C   UNL     1       0.957   4.843   5.761  1.00  0.00     0.000 C 
BRANCH   5   6
ATOM      6  C   UNL     1      -0.493   4.860   5.242  1.00  0.00     0.000 C 
BRANCH   6   7
ATOM      7  C   UNL     1      -0.984   3.478   4.787  1.00  0.00     0.000 C 
BRANCH   7   8
ATOM      8  C   UNL     1      -1.672   2.733   5.942  1.00  0.00     0.006 C 
BRANCH   8   9
ATOM      9  C   UNL     1      -2.620   3.642   6.736  1.00  0.00     0.053 C 
BRANCH   9  10
ATOM     10  C   UNL     1      -4.056   3.368   6.408  1.00  0.00     0.041 C 
ATOM     11  O   UNL     1      -4.357   2.476   5.572  1.00  0.00    -0.550 OA
ATOM     12  O   UNL     1      -5.060   4.120   7.003  1.00  0.00    -0.550 OA
ENDBRANCH   9  10
ENDBRANCH   8   9
ENDBRANCH   7   8
ENDBRANCH   6   7
ENDBRANCH   5   6
ENDBRANCH   4   5
ENDBRANCH   3   4
ENDBRANCH   1   3
BRANCH   2  13
ATOM     13  C   UNL     1       1.884   0.251   6.296  1.00  0.00     0.027 C 
BRANCH  13  14
ATOM     14  C   UNL     1       2.445  -0.968   7.044  1.00  0.00     0.004 C 
BRANCH  14  15
ATOM     15  C   UNL     1       3.267  -0.562   8.276  1.00  0.00     0.000 C 
BRANCH  15  16
ATOM     16  C   UNL     1       4.770  -0.712   8.009  1.00  0.00     0.000 C 
BRANCH  16  17
ATOM     17  C   UNL     1       5.338   0.550   7.342  1.00  0.00    -0.000 C 
BRANCH  17  18
ATOM     18  C   UNL     1       5.151   1.816   8.197  1.00  0.00    -0.000 C 
BRANCH  18  19
ATOM     19  C   UNL     1       5.979   3.032   7.741  1.00  0.00    -0.003 C 
ATOM     20  C   UNL     1       5.122   4.264   7.454  1.00  0.00     0.004 C 
ENDBRANCH  18  19
ENDBRANCH  17  18
ENDBRANCH  16  17
ENDBRANCH  15  16
ENDBRANCH  14  15
ENDBRANCH  13  14
ENDBRANCH   2  13
TORSDOF 15
ENDMDL
MODEL 2
REMARK VINA RESULT:    -4.073      3.185      7.092
REMARK INTER + INTRA:         -10.016
REMARK INTER:                  -7.621
REMARK INTRA:                  -2.395
REMARK UNBOUND:                -2.372
REMARK SMILES CCCCCCCCC=CCCCCCCCC(=O)[O-]
REMARK SMILES IDX 10 1 9 2 11 3 12 4 13 5 14 6 15 7 16 8 17 9 18 10 19 11
REMARK SMILES IDX 20 12 8 13 7 14 6 15 5 16 4 17 3 18 2 19 1 20
REMARK H PARENT
REMARK Flexibility Score: inf
ROOT
ATOM      1  C   UNL     1      -0.756   4.160   4.998  1.00  0.00    -0.031 C 
ATOM      2  C   UNL     1      -1.514   3.567   5.931  1.00  0.00    -0.031 C 
ENDROOT
BRANCH   1   3
ATOM      3  C   UNL     1       0.026   5.404   5.321  1.00  0.00     0.027 C 
BRANCH   3   4
ATOM      4  C   UNL     1       0.896   5.203   6.569  1.00  0.00     0.004 C 
BRANCH   4   5
ATOM      5  C   UNL     1       2.191   4.423   6.278  1.00  0.00     0.000 C 
BRANCH   5   6
ATOM      6  C   UNL     1       2.508   3.293   7.275  1.00  0.00     0.000 C 
BRANCH   6   7
ATOM      7  C   UNL     1       1.285   2.857   8.095  1.00  0.00     0.000 C 
BRANCH   7   8
ATOM      8  C   UNL     1       0.960   1.375   7.851  1.00  0.00     0.006 C 
BRANCH   8   9
ATOM      9  C   UNL     1       1.526   0.869   6.518  1.00  0.00     0.053 C 
BRANCH   9  10
ATOM     10  C   UNL     1       1.990  -0.552   6.616  1.00  0.00     0.041 C 
ATOM     11  O   UNL     1       2.404  -1.157   5.593  1.00  0.00    -0.550 OA
ATOM     12  O   UNL     1       1.935  -1.219   7.833  1.00  0.00    -0.550 OA
ENDBRANCH   9  10
ENDBRANCH   8   9
ENDBRANCH   7   8
ENDBRANCH   6   7
ENDBRANCH   5   6
ENDBRANCH   4   5
ENDBRANCH   3   4
ENDBRANCH   1   3
BRANCH   2  13
ATOM     13  C   UNL     1      -2.307   2.323   5.632  1.00  0.00     0.027 C 
BRANCH  13  14
ATOM     14  C   UNL     1      -3.787   2.466   6.018  1.00  0.00     0.004 C 
BRANCH  14  15
ATOM     15  C   UNL     1      -3.973   3.288   7.302  1.00  0.00     0.000 C 
BRANCH  15  16
ATOM     16  C   UNL     1      -4.966   4.435   7.082  1.00  0.00     0.000 C 
BRANCH  16  17
ATOM     17  C   UNL     1      -4.907   4.944   5.635  1.00  0.00    -0.000 C 
BRANCH  17  18
ATOM     18  C   UNL     1      -4.636   6.457   5.541  1.00  0.00    -0.000 C 
BRANCH  18  19
ATOM     19  C   UNL     1      -4.100   7.098   6.834  1.00  0.00    -0.003 C 
ATOM     20  C   UNL     1      -2.599   7.385   6.782  1.00  0.00     0.004 C 
ENDBRANCH  18  19
ENDBRANCH  17  18
ENDBRANCH  16  17
ENDBRANCH  15  16
ENDBRANCH  14  15
ENDBRANCH  13  14
ENDBRANCH   2  13
TORSDOF 15
ENDMDL
MODEL 3
REMARK VINA RESULT:    -4.056     13.103     14.816
REMARK INTER + INTRA:          -9.984
REMARK INTER:                  -8.005
REMARK INTRA:                  -1.979
REMARK UNBOUND:                -2.372
REMARK SMILES CCCCCCCCC=CCCCCCCCC(=O)[O-]
REMARK SMILES IDX 10 1 9 2 11 3 12 4 13 5 14 6 15 7 16 8 17 9 18 10 19 11
REMARK SMILES IDX 20 12 8 13 7 14 6 15 5 16 4 17 3 18 2 19 1 20
REMARK H PARENT
REMARK Flexibility Score: inf
ROOT
ATOM      1  C   UNL     1      -2.549  -1.806  -6.113  1.00  0.00    -0.031 C 
ATOM      2  C   UNL     1      -1.681  -2.416  -5.294  1.00  0.00    -0.031 C 
ENDROOT
BRANCH   1   3
ATOM      3  C   UNL     1      -3.357  -0.631  -5.637  1.00  0.00     0.027 C 
BRANCH   3   4
ATOM      4  C   UNL     1      -2.982   0.646  -6.402  1.00  0.00     0.004 C 
BRANCH   4   5
ATOM      5  C   UNL     1      -2.062   0.375  -7.606  1.00  0.00     0.000 C 
BRANCH   5   6
ATOM      6  C   UNL     1      -0.731   1.148  -7.593  1.00  0.00     0.000 C 
BRANCH   6   7
ATOM      7  C   UNL     1       0.485   0.243  -7.346  1.00  0.00     0.000 C 
BRANCH   7   8
ATOM      8  C   UNL     1       1.793   0.977  -7.682  1.00  0.00     0.006 C 
BRANCH   8   9
ATOM      9  C   UNL     1       2.578   1.370  -6.423  1.00  0.00     0.053 C 
BRANCH   9  10
ATOM     10  C   UNL     1       2.376   2.811  -6.071  1.00  0.00     0.041 C 
ATOM     11  O   UNL     1       1.750   3.575  -6.852  1.00  0.00    -0.550 OA
ATOM     12  O   UNL     1       2.910   3.321  -4.894  1.00  0.00    -0.550 OA
ENDBRANCH   9  10
ENDBRANCH   8   9
ENDBRANCH   7   8
ENDBRANCH   6   7
ENDBRANCH   5   6
ENDBRANCH   4   5
ENDBRANCH   3   4
ENDBRANCH   1   3
BRANCH   2  13
ATOM     13  C   UNL     1      -0.862  -3.596  -5.746  1.00  0.00     0.027 C 
BRANCH  13  14
ATOM     14  C   UNL     1      -0.399  -4.471  -4.571  1.00  0.00     0.004 C 
BRANCH  14  15
ATOM     15  C   UNL     1      -1.528  -4.733  -3.564  1.00  0.00     0.000 C 
BRANCH  15  16
ATOM     16  C   UNL     1      -2.603  -5.645  -4.168  1.00  0.00     0.000 C 
BRANCH  16  17
ATOM     17  C   UNL     1      -3.985  -5.336  -3.573  1.00  0.00    -0.000 C 
BRANCH  17  18
ATOM     18  C   UNL     1      -4.737  -4.234  -4.341  1.00  0.00    -0.000 C 
BRANCH  18  19
ATOM     19  C   UNL     1      -4.938  -4.514  -5.841  1.00  0.00    -0.003 C 
ATOM     20  C   UNL     1      -5.870  -3.508  -6.516  1.00  0.00     0.004 C 
ENDBRANCH  18  19
ENDBRANCH  17  18
ENDBRANCH  16  17
ENDBRANCH  15  16
ENDBRANCH  14  15
ENDBRANCH  13  14
ENDBRANCH   2  13
TORSDOF 15
ENDMDL
MODEL 4
REMARK VINA RESULT:    -4.016      3.256      7.635
REMARK INTER + INTRA:          -9.910
REMARK INTER:                  -7.697
REMARK INTRA:                  -2.213
REMARK UNBOUND:                -2.372
REMARK SMILES CCCCCCCCC=CCCCCCCCC(=O)[O-]
REMARK SMILES IDX 10 1 9 2 11 3 12 4 13 5 14 6 15 7 16 8 17 9 18 10 19 11
REMARK SMILES IDX 20 12 8 13 7 14 6 15 5 16 4 17 3 18 2 19 1 20
REMARK H PARENT
REMARK Flexibility Score: inf
ROOT
ATOM      1  C   UNL     1       1.423   1.187   7.171  1.00  0.00    -0.031 C 
ATOM      2  C   UNL     1       1.598   2.482   6.874  1.00  0.00    -0.031 C 
ENDROOT
BRANCH   1   3
ATOM      3  C   UNL     1       1.881   0.114   6.221  1.00  0.00     0.027 C 
BRANCH   3   4
ATOM      4  C   UNL     1       2.234  -1.177   6.973  1.00  0.00     0.004 C 
BRANCH   4   5
ATOM      5  C   UNL     1       2.006  -1.069   8.492  1.00  0.00     0.000 C 
BRANCH   5   6
ATOM      6  C   UNL     1       3.218  -1.453   9.360  1.00  0.00     0.000 C 
BRANCH   6   7
ATOM      7  C   UNL     1       4.466  -1.789   8.532  1.00  0.00     0.000 C 
BRANCH   7   8
ATOM      8  C   UNL     1       5.627  -0.844   8.879  1.00  0.00     0.006 C 
BRANCH   8   9
ATOM      9  C   UNL     1       6.028   0.044   7.694  1.00  0.00     0.053 C 
BRANCH   9  10
ATOM     10  C   UNL     1       5.169   1.267   7.602  1.00  0.00     0.041 C 
ATOM     11  O   UNL     1       4.630   1.745   8.635  1.00  0.00    -0.550 OA
ATOM     12  O   UNL     1       4.936   1.861   6.368  1.00  0.00    -0.550 OA
ENDBRANCH   9  10
ENDBRANCH   8   9
ENDBRANCH   7   8
ENDBRANCH   6   7
ENDBRANCH   5   6
ENDBRANCH   4   5
ENDBRANCH   3   4
ENDBRANCH   1   3
BRANCH   2  13
ATOM     13  C   UNL     1       1.146   3.575   7.807  1.00  0.00     0.027 C 
BRANCH  13  14
ATOM     14  C   UNL     1       0.776   4.865   7.059  1.00  0.00     0.004 C 
BRANCH  14  15
ATOM     15  C   UNL     1      -0.696   4.877   6.619  1.00  0.00     0.000 C 
BRANCH  15  16
ATOM     16  C   UNL     1      -0.827   4.542   5.128  1.00  0.00     0.000 C 
BRANCH  16  17
ATOM     17  C   UNL     1      -1.433   3.145   4.929  1.00  0.00    -0.000 C 
BRANCH  17  18
ATOM     18  C   UNL     1      -2.094   2.591   6.204  1.00  0.00    -0.000 C 
BRANCH  18  19
ATOM     19  C   UNL     1      -3.602   2.305   6.078  1.00  0.00    -0.003 C 
ATOM     20  C   UNL     1      -4.456   3.572   6.123  1.00  0.00     0.004 C 
ENDBRANCH  18  19
ENDBRANCH  17  18
ENDBRANCH  16  17
ENDBRANCH  15  16
ENDBRANCH  14  15
ENDBRANCH  13  14
ENDBRANCH   2  13
TORSDOF 15
ENDMDL
MODEL 5
REMARK VINA RESULT:    -3.994      1.568      2.400
REMARK INTER + INTRA:          -9.867
REMARK INTER:                  -7.893
REMARK INTRA:                  -1.974
REMARK UNBOUND:                -2.372
REMARK SMILES CCCCCCCCC=CCCCCCCCC(=O)[O-]
REMARK SMILES IDX 10 1 9 2 11 3 12 4 13 5 14 6 15 7 16 8 17 9 18 10 19 11
REMARK SMILES IDX 20 12 8 13 7 14 6 15 5 16 4 17 3 18 2 19 1 20
REMARK H PARENT
REMARK Flexibility Score: inf
ROOT
ATOM      1  C   UNL     1       3.649   1.469   7.056  1.00  0.00    -0.031 C 
ATOM      2  C   UNL     1       3.006   0.529   6.350  1.00  0.00    -0.031 C 
ENDROOT
BRANCH   1   3
ATOM      3  C   UNL     1       3.889   2.836   6.473  1.00  0.00     0.027 C 
BRANCH   3   4
ATOM      4  C   UNL     1       2.963   3.880   7.112  1.00  0.00     0.004 C 
BRANCH   4   5
ATOM      5  C   UNL     1       1.655   4.084   6.325  1.00  0.00     0.000 C 
BRANCH   5   6
ATOM      6  C   UNL     1       0.414   3.414   6.943  1.00  0.00     0.000 C 
BRANCH   6   7
ATOM      7  C   UNL     1      -0.215   2.354   6.027  1.00  0.00     0.000 C 
BRANCH   7   8
ATOM      8  C   UNL     1      -1.286   2.978   5.119  1.00  0.00     0.006 C 
BRANCH   8   9
ATOM      9  C   UNL     1      -2.360   3.727   5.918  1.00  0.00     0.053 C 
BRANCH   9  10
ATOM     10  C   UNL     1      -3.661   2.984   5.929  1.00  0.00     0.041 C 
ATOM     11  O   UNL     1      -3.707   1.777   5.573  1.00  0.00    -0.550 OA
ATOM     12  O   UNL     1      -4.830   3.635   6.302  1.00  0.00    -0.550 OA
ENDBRANCH   9  10
ENDBRANCH   8   9
ENDBRANCH   7   8
ENDBRANCH   6   7
ENDBRANCH   5   6
ENDBRANCH   4   5
ENDBRANCH   3   4
ENDBRANCH   1   3
BRANCH   2  13
ATOM     13  C   UNL     1       2.756  -0.847   6.909  1.00  0.00     0.027 C 
BRANCH  13  14
ATOM     14  C   UNL     1       1.941  -0.810   8.211  1.00  0.00     0.004 C 
BRANCH  14  15
ATOM     15  C   UNL     1       2.750  -1.317   9.414  1.00  0.00     0.000 C 
BRANCH  15  16
ATOM     16  C   UNL     1       4.037  -2.014   8.959  1.00  0.00     0.000 C 
BRANCH  16  17
ATOM     17  C   UNL     1       5.243  -1.536   9.781  1.00  0.00    -0.000 C 
BRANCH  17  18
ATOM     18  C   UNL     1       6.006  -0.380   9.111  1.00  0.00    -0.000 C 
BRANCH  18  19
ATOM     19  C   UNL     1       6.585  -0.707   7.722  1.00  0.00    -0.003 C 
ATOM     20  C   UNL     1       8.064  -1.092   7.766  1.00  0.00     0.004 C 
ENDBRANCH  18  19
ENDBRANCH  17  18
ENDBRANCH  16  17
ENDBRANCH  15  16
ENDBRANCH  14  15
ENDBRANCH  13  14
ENDBRANCH   2  13
TORSDOF 15
ENDMDL
MODEL 6
REMARK VINA RESULT:    -3.916      1.136      1.719
REMARK INTER + INTRA:          -9.722
REMARK INTER:                  -7.177
REMARK INTRA:                  -2.545
REMARK UNBOUND:                -2.372
REMARK SMILES CCCCCCCCC=CCCCCCCCC(=O)[O-]
REMARK SMILES IDX 10 1 9 2 11 3 12 4 13 5 14 6 15 7 16 8 17 9 18 10 19 11
REMARK SMILES IDX 20 12 8 13 7 14 6 15 5 16 4 17 3 18 2 19 1 20
REMARK H PARENT
REMARK Flexibility Score: inf
ROOT
ATOM      1  C   UNL     1       1.488   1.457   7.770  1.00  0.00    -0.031 C 
ATOM      2  C   UNL     1       1.689   0.691   6.688  1.00  0.00    -0.031 C 
ENDROOT
BRANCH   1   3
ATOM      3  C   UNL     1       0.181   2.177   7.967  1.00  0.00     0.027 C 
BRANCH   3   4
ATOM      4  C   UNL     1       0.389   3.512   8.696  1.00  0.00     0.004 C 
BRANCH   4   5
ATOM      5  C   UNL     1       0.839   4.646   7.756  1.00  0.00     0.000 C 
BRANCH   5   6
ATOM      6  C   UNL     1      -0.274   5.235   6.870  1.00  0.00     0.000 C 
BRANCH   6   7
ATOM      7  C   UNL     1      -0.127   4.853   5.390  1.00  0.00     0.000 C 
BRANCH   7   8
ATOM      8  C   UNL     1      -1.188   3.819   4.982  1.00  0.00     0.006 C 
BRANCH   8   9
ATOM      9  C   UNL     1      -2.524   4.043   5.701  1.00  0.00     0.053 C 
BRANCH   9  10
ATOM     10  C   UNL     1      -3.155   2.750   6.117  1.00  0.00     0.041 C 
ATOM     11  O   UNL     1      -3.756   2.663   7.219  1.00  0.00    -0.550 OA
ATOM     12  O   UNL     1      -3.050   1.631   5.300  1.00  0.00    -0.550 OA
ENDBRANCH   9  10
ENDBRANCH   8   9
ENDBRANCH   7   8
ENDBRANCH   6   7
ENDBRANCH   5   6
ENDBRANCH   4   5
ENDBRANCH   3   4
ENDBRANCH   1   3
BRANCH   2  13
ATOM     13  C   UNL     1       2.988  -0.038   6.466  1.00  0.00     0.027 C 
BRANCH  13  14
ATOM     14  C   UNL     1       3.316  -1.009   7.610  1.00  0.00     0.004 C 
BRANCH  14  15
ATOM     15  C   UNL     1       4.703  -0.745   8.214  1.00  0.00     0.000 C 
BRANCH  15  16
ATOM     16  C   UNL     1       5.367   0.472   7.558  1.00  0.00     0.000 C 
BRANCH  16  17
ATOM     17  C   UNL     1       5.520   1.624   8.562  1.00  0.00    -0.000 C 
BRANCH  17  18
ATOM     18  C   UNL     1       4.850   2.926   8.087  1.00  0.00    -0.000 C 
BRANCH  18  19
ATOM     19  C   UNL     1       5.070   3.262   6.601  1.00  0.00    -0.003 C 
ATOM     20  C   UNL     1       3.794   3.726   5.898  1.00  0.00     0.004 C 
ENDBRANCH  18  19
ENDBRANCH  17  18
ENDBRANCH  16  17
ENDBRANCH  15  16
ENDBRANCH  14  15
ENDBRANCH  13  14
ENDBRANCH   2  13
TORSDOF 15
ENDMDL
MODEL 7
REMARK VINA RESULT:    -3.905      2.238      4.167
REMARK INTER + INTRA:          -9.701
REMARK INTER:                  -7.514
REMARK INTRA:                  -2.187
REMARK UNBOUND:                -2.372
REMARK SMILES CCCCCCCCC=CCCCCCCCC(=O)[O-]
REMARK SMILES IDX 10 1 9 2 11 3 12 4 13 5 14 6 15 7 16 8 17 9 18 10 19 11
REMARK SMILES IDX 20 12 8 13 7 14 6 15 5 16 4 17 3 18 2 19 1 20
REMARK H PARENT
REMARK Flexibility Score: inf
ROOT
ATOM      1  C   UNL     1      -0.055   4.089   6.312  1.00  0.00    -0.031 C 
ATOM      2  C   UNL     1       1.191   4.580   6.282  1.00  0.00    -0.031 C 
ENDROOT
BRANCH   1   3
ATOM      3  C   UNL     1      -0.759   3.701   5.040  1.00  0.00     0.027 C 
BRANCH   3   4
ATOM      4  C   UNL     1      -1.627   2.452   5.246  1.00  0.00     0.004 C 
BRANCH   4   5
ATOM      5  C   UNL     1      -2.635   2.606   6.400  1.00  0.00     0.000 C 
BRANCH   5   6
ATOM      6  C   UNL     1      -4.098   2.806   5.963  1.00  0.00     0.000 C 
BRANCH   6   7
ATOM      7  C   UNL     1      -4.667   4.169   6.381  1.00  0.00     0.000 C 
BRANCH   7   8
ATOM      8  C   UNL     1      -3.978   5.310   5.616  1.00  0.00     0.006 C 
BRANCH   8   9
ATOM      9  C   UNL     1      -4.304   6.686   6.209  1.00  0.00     0.053 C 
BRANCH   9  10
ATOM     10  C   UNL     1      -4.977   7.576   5.210  1.00  0.00     0.041 C 
ATOM     11  O   UNL     1      -5.172   7.175   4.032  1.00  0.00    -0.550 OA
ATOM     12  O   UNL     1      -5.358   8.862   5.570  1.00  0.00    -0.550 OA
ENDBRANCH   9  10
ENDBRANCH   8   9
ENDBRANCH   7   8
ENDBRANCH   6   7
ENDBRANCH   5   6
ENDBRANCH   4   5
ENDBRANCH   3   4
ENDBRANCH   1   3
BRANCH   2  13
ATOM     13  C   UNL     1       1.916   4.979   7.540  1.00  0.00     0.027 C 
BRANCH  13  14
ATOM     14  C   UNL     1       3.249   4.233   7.708  1.00  0.00     0.004 C 
BRANCH  14  15
ATOM     15  C   UNL     1       3.795   3.715   6.370  1.00  0.00     0.000 C 
BRANCH  15  16
ATOM     16  C   UNL     1       4.657   2.464   6.575  1.00  0.00     0.000 C 
BRANCH  16  17
ATOM     17  C   UNL     1       3.885   1.382   7.345  1.00  0.00    -0.000 C 
BRANCH  17  18
ATOM     18  C   UNL     1       2.968   0.541   6.440  1.00  0.00    -0.000 C 
BRANCH  18  19
ATOM     19  C   UNL     1       1.463   0.682   6.733  1.00  0.00    -0.003 C 
ATOM     20  C   UNL     1       1.174   1.151   8.159  1.00  0.00     0.004 C 
ENDBRANCH  18  19
ENDBRANCH  17  18
ENDBRANCH  16  17
ENDBRANCH  15  16
ENDBRANCH  14  15
ENDBRANCH  13  14
ENDBRANCH   2  13
TORSDOF 15
ENDMDL
MODEL 8
REMARK VINA RESULT:    -3.887     13.879     16.065
REMARK INTER + INTRA:          -9.667
REMARK INTER:                  -6.876
REMARK INTRA:                  -2.791
REMARK UNBOUND:                -2.372
REMARK SMILES CCCCCCCCC=CCCCCCCCC(=O)[O-]
REMARK SMILES IDX 10 1 9 2 11 3 12 4 13 5 14 6 15 7 16 8 17 9 18 10 19 11
REMARK SMILES IDX 20 12 8 13 7 14 6 15 5 16 4 17 3 18 2 19 1 20
REMARK H PARENT
REMARK Flexibility Score: inf
ROOT
ATOM      1  C   UNL     1      -4.608  -4.164  -6.167  1.00  0.00    -0.031 C 
ATOM      2  C   UNL     1      -4.846  -3.852  -4.885  1.00  0.00    -0.031 C 
ENDROOT
BRANCH   1   3
ATOM      3  C   UNL     1      -5.136  -3.297  -7.278  1.00  0.00     0.027 C 
BRANCH   3   4
ATOM      4  C   UNL     1      -6.162  -2.285  -6.750  1.00  0.00     0.004 C 
BRANCH   4   5
ATOM      5  C   UNL     1      -5.854  -0.839  -7.178  1.00  0.00     0.000 C 
BRANCH   5   6
ATOM      6  C   UNL     1      -4.378  -0.563  -7.519  1.00  0.00     0.000 C 
BRANCH   6   7
ATOM      7  C   UNL     1      -3.621   0.138  -6.382  1.00  0.00     0.000 C 
BRANCH   7   8
ATOM      8  C   UNL     1      -2.868  -0.881  -5.513  1.00  0.00     0.006 C 
BRANCH   8   9
ATOM      9  C   UNL     1      -1.688  -1.520  -6.258  1.00  0.00     0.053 C 
BRANCH   9  10
ATOM     10  C   UNL     1      -1.238  -2.789  -5.601  1.00  0.00     0.041 C 
ATOM     11  O   UNL     1      -1.111  -3.843  -6.277  1.00  0.00    -0.550 OA
ATOM     12  O   UNL     1      -0.992  -2.814  -4.234  1.00  0.00    -0.550 OA
ENDBRANCH   9  10
ENDBRANCH   8   9
ENDBRANCH   7   8
ENDBRANCH   6   7
ENDBRANCH   5   6
ENDBRANCH   4   5
ENDBRANCH   3   4
ENDBRANCH   1   3
BRANCH   2  13
ATOM     13  C   UNL     1      -4.331  -4.704  -3.755  1.00  0.00     0.027 C 
BRANCH  13  14
ATOM     14  C   UNL     1      -3.273  -5.716  -4.221  1.00  0.00     0.004 C 
BRANCH  14  15
ATOM     15  C   UNL     1      -3.722  -7.167  -3.997  1.00  0.00     0.000 C 
BRANCH  15  16
ATOM     16  C   UNL     1      -5.117  -7.221  -3.363  1.00  0.00     0.000 C 
BRANCH  16  17
ATOM     17  C   UNL     1      -6.173  -7.654  -4.391  1.00  0.00    -0.000 C 
BRANCH  17  18
ATOM     18  C   UNL     1      -5.556  -8.174  -5.702  1.00  0.00    -0.000 C 
BRANCH  18  19
ATOM     19  C   UNL     1      -6.002  -7.422  -6.969  1.00  0.00    -0.003 C 
ATOM     20  C   UNL     1      -4.914  -7.360  -8.041  1.00  0.00     0.004 C 
ENDBRANCH  18  19
ENDBRANCH  17  18
ENDBRANCH  16  17
ENDBRANCH  15  16
ENDBRANCH  14  15
ENDBRANCH  13  14
ENDBRANCH   2  13
TORSDOF 15
ENDMDL
MODEL 9
REMARK VINA RESULT:    -3.838     13.764     15.990
REMARK INTER + INTRA:          -9.575
REMARK INTER:                  -6.523
REMARK INTRA:                  -3.052
REMARK UNBOUND:                -2.372
REMARK SMILES CCCCCCCCC=CCCCCCCCC(=O)[O-]
REMARK SMILES IDX 10 1 9 2 11 3 12 4 13 5 14 6 15 7 16 8 17 9 18 10 19 11
REMARK SMILES IDX 20 12 8 13 7 14 6 15 5 16 4 17 3 18 2 19 1 20
REMARK H PARENT
REMARK Flexibility Score: inf
ROOT
ATOM      1  C   UNL     1      -1.610  -1.522  -6.400  1.00  0.00    -0.031 C 
ATOM      2  C   UNL     1      -2.569  -1.011  -5.614  1.00  0.00    -0.031 C 
ENDROOT
BRANCH   1   3
ATOM      3  C   UNL     1      -0.496  -2.346  -5.814  1.00  0.00     0.027 C 
BRANCH   3   4
ATOM      4  C   UNL     1      -0.840  -3.842  -5.844  1.00  0.00     0.004 C 
BRANCH   4   5
ATOM      5  C   UNL     1      -0.713  -4.515  -4.465  1.00  0.00     0.000 C 
BRANCH   5   6
ATOM      6  C   UNL     1      -2.051  -4.837  -3.774  1.00  0.00     0.000 C 
BRANCH   6   7
ATOM      7  C   UNL     1      -3.271  -4.378  -4.585  1.00  0.00     0.000 C 
BRANCH   7   8
ATOM      8  C   UNL     1      -4.578  -4.775  -3.883  1.00  0.00     0.006 C 
BRANCH   8   9
ATOM      9  C   UNL     1      -5.287  -5.938  -4.589  1.00  0.00     0.053 C 
BRANCH   9  10
ATOM     10  C   UNL     1      -5.205  -7.204  -3.794  1.00  0.00     0.041 C 
ATOM     11  O   UNL     1      -6.131  -7.517  -3.001  1.00  0.00    -0.550 OA
ATOM     12  O   UNL     1      -4.088  -8.022  -3.903  1.00  0.00    -0.550 OA
ENDBRANCH   9  10
ENDBRANCH   8   9
ENDBRANCH   7   8
ENDBRANCH   6   7
ENDBRANCH   5   6
ENDBRANCH   4   5
ENDBRANCH   3   4
ENDBRANCH   1   3
BRANCH   2  13
ATOM     13  C   UNL     1      -3.693  -0.180  -6.176  1.00  0.00     0.027 C 
BRANCH  13  14
ATOM     14  C   UNL     1      -4.449  -0.904  -7.300  1.00  0.00     0.004 C 
BRANCH  14  15
ATOM     15  C   UNL     1      -5.533  -1.846  -6.756  1.00  0.00     0.000 C 
BRANCH  15  16
ATOM     16  C   UNL     1      -5.363  -3.262  -7.318  1.00  0.00     0.000 C 
BRANCH  16  17
ATOM     17  C   UNL     1      -4.360  -3.277  -8.481  1.00  0.00    -0.000 C 
BRANCH  17  18
ATOM     18  C   UNL     1      -3.294  -4.378  -8.340  1.00  0.00    -0.000 C 
BRANCH  18  19
ATOM     19  C   UNL     1      -3.840  -5.759  -7.935  1.00  0.00    -0.003 C 
ATOM     20  C   UNL     1      -2.755  -6.701  -7.416  1.00  0.00     0.004 C 
ENDBRANCH  18  19
ENDBRANCH  17  18
ENDBRANCH  16  17
ENDBRANCH  15  16
ENDBRANCH  14  15
ENDBRANCH  13  14
ENDBRANCH   2  13
TORSDOF 15
ENDMDL
