MODEL 1
REMARK VINA RESULT:    -4.610      0.000      0.000
REMARK INTER + INTRA:          -5.882
REMARK INTER:                  -5.553
REMARK INTRA:                  -0.329
REMARK UNBOUND:                -0.329
REMARK SMILES O=c1c(O)c(-c2ccc(O)c(O)c2)oc2cc(O)cc(O)c12
REMARK SMILES IDX 5 1 3 2 2 3 1 4 22 5 20 6 19 7 17 8 16 9 15 10 14 11 6 12
REMARK SMILES IDX 7 13 8 14 9 15 13 16 11 17 10 18 12 20 4 22 21 24 18 26
REMARK H PARENT 10 19 12 21 4 23 21 25 18 27
REMARK Flexibility Score: inf
ROOT
ATOM      1  C   UNL     1      -0.068  23.189 -15.383  1.00  0.00     0.180 A 
ATOM      2  C   UNL     1       0.397  23.956 -16.468  1.00  0.00     0.208 A 
ATOM      3  C   UNL     1       1.651  24.581 -16.368  1.00  0.00     0.238 A 
ATOM      4  O   UNL     1       2.083  25.262 -17.339  1.00  0.00    -0.285 OA
ATOM      5  C   UNL     1       2.406  24.446 -15.186  1.00  0.00     0.111 A 
ATOM      6  C   UNL     1       3.675  25.046 -15.004  1.00  0.00     0.134 A 
ATOM      7  C   UNL     1       4.359  24.871 -13.792  1.00  0.00     0.093 A 
ATOM      8  C   UNL     1       3.799  24.110 -12.760  1.00  0.00     0.123 A 
ATOM      9  C   UNL     1       2.548  23.516 -12.934  1.00  0.00     0.094 A 
ATOM     10  C   UNL     1       1.851  23.677 -14.136  1.00  0.00     0.146 A 
ATOM     11  O   UNL     1       0.665  23.096 -14.276  1.00  0.00    -0.452 OA
ENDROOT
BRANCH   1  12
ATOM     12  C   UNL     1      -1.371  22.485 -15.418  1.00  0.00     0.025 A 
ATOM     13  C   UNL     1      -1.497  21.208 -15.992  1.00  0.00     0.016 A 
ATOM     14  C   UNL     1      -2.731  20.553 -15.992  1.00  0.00     0.051 A 
ATOM     15  C   UNL     1      -3.852  21.157 -15.408  1.00  0.00     0.157 A 
ATOM     16  C   UNL     1      -2.492  23.076 -14.814  1.00  0.00     0.062 A 
ATOM     17  C   UNL     1      -3.730  22.424 -14.813  1.00  0.00     0.158 A 
BRANCH  15  18
ATOM     18  O   UNL     1      -5.083  20.502 -15.412  1.00  0.00    -0.504 OA
ATOM     19  H   UNL     1      -5.957  21.014 -15.386  1.00  0.00     0.293 HD
ENDBRANCH  15  18
BRANCH  17  20
ATOM     20  O   UNL     1      -4.825  23.048 -14.216  1.00  0.00    -0.504 OA
ATOM     21  H   UNL     1      -5.677  22.546 -13.996  1.00  0.00     0.293 HD
ENDBRANCH  17  20
ENDBRANCH   1  12
BRANCH   2  22
ATOM     22  O   UNL     1      -0.391  24.116 -17.611  1.00  0.00    -0.502 OA
ATOM     23  H   UNL     1      -1.380  23.899 -17.621  1.00  0.00     0.293 HD
ENDBRANCH   2  22
BRANCH   6  24
ATOM     24  O   UNL     1       4.258  25.811 -16.014  1.00  0.00    -0.507 OA
ATOM     25  H   UNL     1       5.039  25.466 -16.562  1.00  0.00     0.293 HD
ENDBRANCH   6  24
BRANCH   8  26
ATOM     26  O   UNL     1       4.479  23.938 -11.556  1.00  0.00    -0.508 OA
ATOM     27  H   UNL     1       5.267  24.522 -11.304  1.00  0.00     0.293 HD
ENDBRANCH   8  26
TORSDOF 6
ENDMDL
MODEL 2
REMARK VINA RESULT:    -4.513      1.326      2.949
REMARK INTER + INTRA:          -5.765
REMARK INTER:                  -5.448
REMARK INTRA:                  -0.317
REMARK UNBOUND:                -0.329
REMARK SMILES O=c1c(O)c(-c2ccc(O)c(O)c2)oc2cc(O)cc(O)c12
REMARK SMILES IDX 5 1 3 2 2 3 1 4 22 5 20 6 19 7 17 8 16 9 15 10 14 11 6 12
REMARK SMILES IDX 7 13 8 14 9 15 13 16 11 17 10 18 12 20 4 22 21 24 18 26
REMARK H PARENT 10 19 12 21 4 23 21 25 18 27
REMARK Flexibility Score: inf
ROOT
ATOM      1  C   UNL     1      -0.357  22.313 -14.464  1.00  0.00     0.180 A 
ATOM      2  C   UNL     1       0.233  21.910 -13.249  1.00  0.00     0.208 A 
ATOM      3  C   UNL     1       1.442  22.503 -12.853  1.00  0.00     0.238 A 
ATOM      4  O   UNL     1       1.974  22.157 -11.762  1.00  0.00    -0.285 OA
ATOM      5  C   UNL     1       2.050  23.469 -13.681  1.00  0.00     0.111 A 
ATOM      6  C   UNL     1       3.269  24.110 -13.357  1.00  0.00     0.134 A 
ATOM      7  C   UNL     1       3.814  25.055 -14.239  1.00  0.00     0.093 A 
ATOM      8  C   UNL     1       3.164  25.370 -15.438  1.00  0.00     0.123 A 
ATOM      9  C   UNL     1       1.962  24.739 -15.762  1.00  0.00     0.094 A 
ATOM     10  C   UNL     1       1.401  23.796 -14.895  1.00  0.00     0.146 A 
ATOM     11  O   UNL     1       0.253  23.217 -15.226  1.00  0.00    -0.452 OA
ENDROOT
BRANCH   1  12
ATOM     12  C   UNL     1      -1.640  21.748 -14.941  1.00  0.00     0.025 A 
ATOM     13  C   UNL     1      -1.686  20.540 -15.658  1.00  0.00     0.016 A 
ATOM     14  C   UNL     1      -2.910  20.014 -16.078  1.00  0.00     0.051 A 
ATOM     15  C   UNL     1      -4.106  20.679 -15.775  1.00  0.00     0.157 A 
ATOM     16  C   UNL     1      -2.842  22.398 -14.622  1.00  0.00     0.062 A 
ATOM     17  C   UNL     1      -4.071  21.876 -15.041  1.00  0.00     0.158 A 
BRANCH  15  18
ATOM     18  O   UNL     1      -5.326  20.152 -16.197  1.00  0.00    -0.504 OA
ATOM     19  H   UNL     1      -5.571  19.183 -16.034  1.00  0.00     0.293 HD
ENDBRANCH  15  18
BRANCH  17  20
ATOM     20  O   UNL     1      -5.243  22.556 -14.717  1.00  0.00    -0.504 OA
ATOM     21  H   UNL     1      -6.055  22.550 -15.323  1.00  0.00     0.293 HD
ENDBRANCH  17  20
ENDBRANCH   1  12
BRANCH   2  22
ATOM     22  O   UNL     1      -0.364  20.915 -12.471  1.00  0.00    -0.502 OA
ATOM     23  H   UNL     1      -0.253  20.873 -11.465  1.00  0.00     0.293 HD
ENDBRANCH   2  22
BRANCH   6  24
ATOM     24  O   UNL     1       3.940  23.817 -12.169  1.00  0.00    -0.507 OA
ATOM     25  H   UNL     1       3.864  24.413 -11.352  1.00  0.00     0.293 HD
ENDBRANCH   6  24
BRANCH   8  26
ATOM     26  O   UNL     1       3.706  26.307 -16.314  1.00  0.00    -0.508 OA
ATOM     27  H   UNL     1       4.586  26.770 -16.117  1.00  0.00     0.293 HD
ENDBRANCH   8  26
TORSDOF 6
ENDMDL
MODEL 3
REMARK VINA RESULT:    -4.378      1.853      7.231
REMARK INTER + INTRA:          -5.603
REMARK INTER:                  -5.486
REMARK INTRA:                  -0.117
REMARK UNBOUND:                -0.329
REMARK SMILES O=c1c(O)c(-c2ccc(O)c(O)c2)oc2cc(O)cc(O)c12
REMARK SMILES IDX 5 1 3 2 2 3 1 4 22 5 20 6 19 7 17 8 16 9 15 10 14 11 6 12
REMARK SMILES IDX 7 13 8 14 9 15 13 16 11 17 10 18 12 20 4 22 21 24 18 26
REMARK H PARENT 10 19 12 21 4 23 21 25 18 27
REMARK Flexibility Score: inf
ROOT
ATOM      1  C   UNL     1      -0.481  22.338 -14.579  1.00  0.00     0.180 A 
ATOM      2  C   UNL     1      -0.595  20.941 -14.718  1.00  0.00     0.208 A 
ATOM      3  C   UNL     1      -1.839  20.395 -15.070  1.00  0.00     0.238 A 
ATOM      4  O   UNL     1      -1.951  19.145 -15.208  1.00  0.00    -0.285 OA
ATOM      5  C   UNL     1      -2.947  21.245 -15.258  1.00  0.00     0.111 A 
ATOM      6  C   UNL     1      -4.236  20.774 -15.610  1.00  0.00     0.134 A 
ATOM      7  C   UNL     1      -5.289  21.686 -15.769  1.00  0.00     0.093 A 
ATOM      8  C   UNL     1      -5.081  23.057 -15.583  1.00  0.00     0.123 A 
ATOM      9  C   UNL     1      -3.813  23.526 -15.236  1.00  0.00     0.094 A 
ATOM     10  C   UNL     1      -2.749  22.634 -15.075  1.00  0.00     0.146 A 
ATOM     11  O   UNL     1      -1.552  23.109 -14.750  1.00  0.00    -0.452 OA
ENDROOT
BRANCH   1  12
ATOM     12  C   UNL     1       0.801  22.992 -14.228  1.00  0.00     0.025 A 
ATOM     13  C   UNL     1       1.398  23.936 -15.081  1.00  0.00     0.016 A 
ATOM     14  C   UNL     1       2.596  24.557 -14.718  1.00  0.00     0.051 A 
ATOM     15  C   UNL     1       3.205  24.256 -13.493  1.00  0.00     0.157 A 
ATOM     16  C   UNL     1       1.404  22.710 -12.992  1.00  0.00     0.062 A 
ATOM     17  C   UNL     1       2.604  23.329 -12.625  1.00  0.00     0.158 A 
BRANCH  15  18
ATOM     18  O   UNL     1       4.401  24.877 -13.134  1.00  0.00    -0.504 OA
ATOM     19  H   UNL     1       5.047  24.447 -12.481  1.00  0.00     0.293 HD
ENDBRANCH  15  18
BRANCH  17  20
ATOM     20  O   UNL     1       3.181  23.014 -11.396  1.00  0.00    -0.504 OA
ATOM     21  H   UNL     1       3.072  22.103 -10.967  1.00  0.00     0.293 HD
ENDBRANCH  17  20
ENDBRANCH   1  12
BRANCH   2  22
ATOM     22  O   UNL     1       0.506  20.115 -14.478  1.00  0.00    -0.502 OA
ATOM     23  H   UNL     1       0.408  19.136 -14.239  1.00  0.00     0.293 HD
ENDBRANCH   2  22
BRANCH   6  24
ATOM     24  O   UNL     1      -4.474  19.413 -15.801  1.00  0.00    -0.507 OA
ATOM     25  H   UNL     1      -4.054  18.709 -15.204  1.00  0.00     0.293 HD
ENDBRANCH   6  24
BRANCH   8  26
ATOM     26  O   UNL     1      -6.128  23.962 -15.741  1.00  0.00    -0.508 OA
ATOM     27  H   UNL     1      -5.959  24.955 -15.853  1.00  0.00     0.293 HD
ENDBRANCH   8  26
TORSDOF 6
ENDMDL
MODEL 4
REMARK VINA RESULT:    -4.361      2.209      3.545
REMARK INTER + INTRA:          -5.582
REMARK INTER:                  -5.257
REMARK INTRA:                  -0.325
REMARK UNBOUND:                -0.329
REMARK SMILES O=c1c(O)c(-c2ccc(O)c(O)c2)oc2cc(O)cc(O)c12
REMARK SMILES IDX 5 1 3 2 2 3 1 4 22 5 20 6 19 7 17 8 16 9 15 10 14 11 6 12
REMARK SMILES IDX 7 13 8 14 9 15 13 16 11 17 10 18 12 20 4 22 21 24 18 26
REMARK H PARENT 10 19 12 21 4 23 21 25 18 27
REMARK Flexibility Score: inf
ROOT
ATOM      1  C   UNL     1       0.052  21.947 -13.922  1.00  0.00     0.180 A 
ATOM      2  C   UNL     1       0.311  20.714 -13.290  1.00  0.00     0.208 A 
ATOM      3  C   UNL     1       1.491  20.571 -12.543  1.00  0.00     0.238 A 
ATOM      4  O   UNL     1       1.729  19.475 -11.964  1.00  0.00    -0.285 OA
ATOM      5  C   UNL     1       2.398  21.646 -12.456  1.00  0.00     0.111 A 
ATOM      6  C   UNL     1       3.610  21.581 -11.728  1.00  0.00     0.134 A 
ATOM      7  C   UNL     1       4.464  22.694 -11.698  1.00  0.00     0.093 A 
ATOM      8  C   UNL     1       4.129  23.868 -12.382  1.00  0.00     0.123 A 
ATOM      9  C   UNL     1       2.935  23.937 -13.101  1.00  0.00     0.094 A 
ATOM     10  C   UNL     1       2.070  22.839 -13.142  1.00  0.00     0.146 A 
ATOM     11  O   UNL     1       0.938  22.935 -13.830  1.00  0.00    -0.452 OA
ENDROOT
BRANCH   1  12
ATOM     12  C   UNL     1      -1.178  22.183 -14.711  1.00  0.00     0.025 A 
ATOM     13  C   UNL     1      -1.232  21.896 -16.086  1.00  0.00     0.016 A 
ATOM     14  C   UNL     1      -2.411  22.104 -16.805  1.00  0.00     0.051 A 
ATOM     15  C   UNL     1      -3.557  22.588 -16.160  1.00  0.00     0.157 A 
ATOM     16  C   UNL     1      -2.335  22.646 -14.065  1.00  0.00     0.062 A 
ATOM     17  C   UNL     1      -3.519  22.858 -14.781  1.00  0.00     0.158 A 
BRANCH  15  18
ATOM     18  O   UNL     1      -4.732  22.797 -16.881  1.00  0.00    -0.504 OA
ATOM     19  H   UNL     1      -5.031  23.726 -17.150  1.00  0.00     0.293 HD
ENDBRANCH  15  18
BRANCH  17  20
ATOM     20  O   UNL     1      -4.644  23.331 -14.109  1.00  0.00    -0.504 OA
ATOM     21  H   UNL     1      -5.112  22.789 -13.393  1.00  0.00     0.293 HD
ENDBRANCH  17  20
ENDBRANCH   1  12
BRANCH   2  22
ATOM     22  O   UNL     1      -0.579  19.647 -13.432  1.00  0.00    -0.502 OA
ATOM     23  H   UNL     1      -1.499  19.759 -13.840  1.00  0.00     0.293 HD
ENDBRANCH   2  22
BRANCH   6  24
ATOM     24  O   UNL     1       3.971  20.424 -11.037  1.00  0.00    -0.507 OA
ATOM     25  H   UNL     1       4.612  19.745 -11.432  1.00  0.00     0.293 HD
ENDBRANCH   6  24
BRANCH   8  26
ATOM     26  O   UNL     1       4.978  24.972 -12.353  1.00  0.00    -0.508 OA
ATOM     27  H   UNL     1       5.679  25.121 -13.069  1.00  0.00     0.293 HD
ENDBRANCH   8  26
TORSDOF 6
ENDMDL
MODEL 5
REMARK VINA RESULT:    -4.344      3.962      6.759
REMARK INTER + INTRA:          -5.561
REMARK INTER:                  -5.927
REMARK INTRA:                   0.366
REMARK UNBOUND:                -0.329
REMARK SMILES O=c1c(O)c(-c2ccc(O)c(O)c2)oc2cc(O)cc(O)c12
REMARK SMILES IDX 5 1 3 2 2 3 1 4 22 5 20 6 19 7 17 8 16 9 15 10 14 11 6 12
REMARK SMILES IDX 7 13 8 14 9 15 13 16 11 17 10 18 12 20 4 22 21 24 18 26
REMARK H PARENT 10 19 12 21 4 23 21 25 18 27
REMARK Flexibility Score: inf
ROOT
ATOM      1  C   UNL     1       5.651  24.273 -12.224  1.00  0.00     0.180 A 
ATOM      2  C   UNL     1       6.457  24.852 -13.224  1.00  0.00     0.208 A 
ATOM      3  C   UNL     1       7.777  25.209 -12.908  1.00  0.00     0.238 A 
ATOM      4  O   UNL     1       8.512  25.719 -13.798  1.00  0.00    -0.285 OA
ATOM      5  C   UNL     1       8.263  25.002 -11.601  1.00  0.00     0.111 A 
ATOM      6  C   UNL     1       9.578  25.337 -11.200  1.00  0.00     0.134 A 
ATOM      7  C   UNL     1       9.982  25.107  -9.876  1.00  0.00     0.093 A 
ATOM      8  C   UNL     1       9.096  24.549  -8.947  1.00  0.00     0.123 A 
ATOM      9  C   UNL     1       7.798  24.217  -9.338  1.00  0.00     0.094 A 
ATOM     10  C   UNL     1       7.377  24.437 -10.653  1.00  0.00     0.146 A 
ATOM     11  O   UNL     1       6.138  24.106 -10.998  1.00  0.00    -0.452 OA
ENDROOT
BRANCH   1  12
ATOM     12  C   UNL     1       4.255  23.853 -12.485  1.00  0.00     0.025 A 
ATOM     13  C   UNL     1       3.521  24.380 -13.562  1.00  0.00     0.016 A 
ATOM     14  C   UNL     1       2.214  23.950 -13.802  1.00  0.00     0.051 A 
ATOM     15  C   UNL     1       1.626  22.980 -12.981  1.00  0.00     0.157 A 
ATOM     16  C   UNL     1       3.669  22.865 -11.678  1.00  0.00     0.062 A 
ATOM     17  C   UNL     1       2.359  22.433 -11.914  1.00  0.00     0.158 A 
BRANCH  15  18
ATOM     18  O   UNL     1       0.320  22.555 -13.222  1.00  0.00    -0.504 OA
ATOM     19  H   UNL     1       0.125  21.689 -13.710  1.00  0.00     0.293 HD
ENDBRANCH  15  18
BRANCH  17  20
ATOM     20  O   UNL     1       1.806  21.460 -11.084  1.00  0.00    -0.504 OA
ATOM     21  H   UNL     1       1.444  21.679 -10.164  1.00  0.00     0.293 HD
ENDBRANCH  17  20
ENDBRANCH   1  12
BRANCH   2  22
ATOM     22  O   UNL     1       5.937  25.094 -14.499  1.00  0.00    -0.502 OA
ATOM     23  H   UNL     1       5.764  26.029 -14.845  1.00  0.00     0.293 HD
ENDBRANCH   2  22
BRANCH   6  24
ATOM     24  O   UNL     1      10.483  25.895 -12.103  1.00  0.00    -0.507 OA
ATOM     25  H   UNL     1      10.201  26.175 -13.037  1.00  0.00     0.293 HD
ENDBRANCH   6  24
BRANCH   8  26
ATOM     26  O   UNL     1       9.497  24.322  -7.633  1.00  0.00    -0.508 OA
ATOM     27  H   UNL     1       9.238  24.952  -6.883  1.00  0.00     0.293 HD
ENDBRANCH   8  26
TORSDOF 6
ENDMDL
MODEL 6
REMARK VINA RESULT:    -4.328      6.521     11.373
REMARK INTER + INTRA:          -5.542
REMARK INTER:                  -5.217
REMARK INTRA:                  -0.325
REMARK UNBOUND:                -0.329
REMARK SMILES O=c1c(O)c(-c2ccc(O)c(O)c2)oc2cc(O)cc(O)c12
REMARK SMILES IDX 5 1 3 2 2 3 1 4 22 5 20 6 19 7 17 8 16 9 15 10 14 11 6 12
REMARK SMILES IDX 7 13 8 14 9 15 13 16 11 17 10 18 12 20 4 22 21 24 18 26
REMARK H PARENT 10 19 12 21 4 23 21 25 18 27
REMARK Flexibility Score: inf
ROOT
ATOM      1  C   UNL     1       8.788  24.423  -9.340  1.00  0.00     0.180 A 
ATOM      2  C   UNL     1       9.755  25.045 -10.154  1.00  0.00     0.208 A 
ATOM      3  C   UNL     1       9.429  25.344 -11.486  1.00  0.00     0.238 A 
ATOM      4  O   UNL     1      10.284  25.911 -12.221  1.00  0.00    -0.285 OA
ATOM      5  C   UNL     1       8.157  25.002 -11.987  1.00  0.00     0.111 A 
ATOM      6  C   UNL     1       7.751  25.265 -13.317  1.00  0.00     0.134 A 
ATOM      7  C   UNL     1       6.470  24.884 -13.742  1.00  0.00     0.093 A 
ATOM      8  C   UNL     1       5.587  24.246 -12.863  1.00  0.00     0.123 A 
ATOM      9  C   UNL     1       5.983  23.985 -11.550  1.00  0.00     0.094 A 
ATOM     10  C   UNL     1       7.255  24.358 -11.107  1.00  0.00     0.146 A 
ATOM     11  O   UNL     1       7.603  24.102  -9.851  1.00  0.00    -0.452 OA
ENDROOT
BRANCH   1  12
ATOM     12  C   UNL     1       9.049  24.093  -7.920  1.00  0.00     0.025 A 
ATOM     13  C   UNL     1       9.599  22.854  -7.546  1.00  0.00     0.016 A 
ATOM     14  C   UNL     1       9.859  22.573  -6.203  1.00  0.00     0.051 A 
ATOM     15  C   UNL     1       9.588  23.530  -5.216  1.00  0.00     0.157 A 
ATOM     16  C   UNL     1       8.801  25.056  -6.930  1.00  0.00     0.062 A 
ATOM     17  C   UNL     1       9.058  24.779  -5.582  1.00  0.00     0.158 A 
BRANCH  15  18
ATOM     18  O   UNL     1       9.847  23.246  -3.875  1.00  0.00    -0.504 OA
ATOM     19  H   UNL     1      10.775  22.996  -3.555  1.00  0.00     0.293 HD
ENDBRANCH  15  18
BRANCH  17  20
ATOM     20  O   UNL     1       8.786  25.754  -4.625  1.00  0.00    -0.504 OA
ATOM     21  H   UNL     1       8.674  25.530  -3.643  1.00  0.00     0.293 HD
ENDBRANCH  17  20
ENDBRANCH   1  12
BRANCH   2  22
ATOM     22  O   UNL     1      11.027  25.329  -9.648  1.00  0.00    -0.502 OA
ATOM     23  H   UNL     1      11.271  25.174  -8.678  1.00  0.00     0.293 HD
ENDBRANCH   2  22
BRANCH   6  24
ATOM     24  O   UNL     1       8.609  25.899 -14.217  1.00  0.00    -0.507 OA
ATOM     25  H   UNL     1       9.617  25.815 -14.142  1.00  0.00     0.293 HD
ENDBRANCH   6  24
BRANCH   8  26
ATOM     26  O   UNL     1       4.315  23.867 -13.285  1.00  0.00    -0.508 OA
ATOM     27  H   UNL     1       3.793  23.141 -12.809  1.00  0.00     0.293 HD
ENDBRANCH   8  26
TORSDOF 6
ENDMDL
MODEL 7
REMARK VINA RESULT:    -4.310      1.751      7.180
REMARK INTER + INTRA:          -5.521
REMARK INTER:                  -5.244
REMARK INTRA:                  -0.277
REMARK UNBOUND:                -0.329
REMARK SMILES O=c1c(O)c(-c2ccc(O)c(O)c2)oc2cc(O)cc(O)c12
REMARK SMILES IDX 5 1 3 2 2 3 1 4 22 5 20 6 19 7 17 8 16 9 15 10 14 11 6 12
REMARK SMILES IDX 7 13 8 14 9 15 13 16 11 17 10 18 12 20 4 22 21 24 18 26
REMARK H PARENT 10 19 12 21 4 23 21 25 18 27
REMARK Flexibility Score: inf
ROOT
ATOM      1  C   UNL     1       0.322  22.030 -14.188  1.00  0.00     0.180 A 
ATOM      2  C   UNL     1       0.424  20.679 -14.575  1.00  0.00     0.208 A 
ATOM      3  C   UNL     1      -0.731  20.010 -15.009  1.00  0.00     0.238 A 
ATOM      4  O   UNL     1      -0.650  18.802 -15.368  1.00  0.00    -0.285 OA
ATOM      5  C   UNL     1      -1.965  20.690 -15.032  1.00  0.00     0.111 A 
ATOM      6  C   UNL     1      -3.175  20.087 -15.452  1.00  0.00     0.134 A 
ATOM      7  C   UNL     1      -4.364  20.830 -15.436  1.00  0.00     0.093 A 
ATOM      8  C   UNL     1      -4.368  22.163 -15.009  1.00  0.00     0.123 A 
ATOM      9  C   UNL     1      -3.177  22.762 -14.594  1.00  0.00     0.094 A 
ATOM     10  C   UNL     1      -1.980  22.038 -14.604  1.00  0.00     0.146 A 
ATOM     11  O   UNL     1      -0.862  22.635 -14.209  1.00  0.00    -0.452 OA
ENDROOT
BRANCH   1  12
ATOM     12  C   UNL     1       1.497  22.809 -13.736  1.00  0.00     0.025 A 
ATOM     13  C   UNL     1       2.036  22.641 -12.448  1.00  0.00     0.016 A 
ATOM     14  C   UNL     1       3.160  23.370 -12.052  1.00  0.00     0.051 A 
ATOM     15  C   UNL     1       3.770  24.266 -12.940  1.00  0.00     0.157 A 
ATOM     16  C   UNL     1       2.126  23.692 -14.629  1.00  0.00     0.062 A 
ATOM     17  C   UNL     1       3.251  24.425 -14.236  1.00  0.00     0.158 A 
BRANCH  15  18
ATOM     18  O   UNL     1       4.891  24.994 -12.541  1.00  0.00    -0.504 OA
ATOM     19  H   UNL     1       5.080  25.919 -12.907  1.00  0.00     0.293 HD
ENDBRANCH  15  18
BRANCH  17  20
ATOM     20  O   UNL     1       3.840  25.303 -15.145  1.00  0.00    -0.504 OA
ATOM     21  H   UNL     1       4.664  25.844 -14.913  1.00  0.00     0.293 HD
ENDBRANCH  17  20
ENDBRANCH   1  12
BRANCH   2  22
ATOM     22  O   UNL     1       1.650  20.012 -14.496  1.00  0.00    -0.502 OA
ATOM     23  H   UNL     1       2.411  20.344 -13.917  1.00  0.00     0.293 HD
ENDBRANCH   2  22
BRANCH   6  24
ATOM     24  O   UNL     1      -3.203  18.760 -15.883  1.00  0.00    -0.507 OA
ATOM     25  H   UNL     1      -3.691  18.040 -15.361  1.00  0.00     0.293 HD
ENDBRANCH   6  24
BRANCH   8  26
ATOM     26  O   UNL     1      -5.549  22.900 -14.993  1.00  0.00    -0.508 OA
ATOM     27  H   UNL     1      -5.756  23.587 -15.709  1.00  0.00     0.293 HD
ENDBRANCH   8  26
TORSDOF 6
ENDMDL
MODEL 8
REMARK VINA RESULT:    -4.290      3.467      8.642
REMARK INTER + INTRA:          -5.497
REMARK INTER:                  -5.529
REMARK INTRA:                   0.032
REMARK UNBOUND:                -0.329
REMARK SMILES O=c1c(O)c(-c2ccc(O)c(O)c2)oc2cc(O)cc(O)c12
REMARK SMILES IDX 5 1 3 2 2 3 1 4 22 5 20 6 19 7 17 8 16 9 15 10 14 11 6 12
REMARK SMILES IDX 7 13 8 14 9 15 13 16 11 17 10 18 12 20 4 22 21 24 18 26
REMARK H PARENT 10 19 12 21 4 23 21 25 18 27
REMARK Flexibility Score: inf
ROOT
ATOM      1  C   UNL     1       5.710  23.714 -11.827  1.00  0.00     0.180 A 
ATOM      2  C   UNL     1       6.100  24.411 -12.987  1.00  0.00     0.208 A 
ATOM      3  C   UNL     1       5.147  24.640 -13.992  1.00  0.00     0.238 A 
ATOM      4  O   UNL     1       5.482  25.272 -15.032  1.00  0.00    -0.285 OA
ATOM      5  C   UNL     1       3.833  24.156 -13.832  1.00  0.00     0.111 A 
ATOM      6  C   UNL     1       2.815  24.340 -14.799  1.00  0.00     0.134 A 
ATOM      7  C   UNL     1       1.534  23.818 -14.568  1.00  0.00     0.093 A 
ATOM      8  C   UNL     1       1.251  23.116 -13.391  1.00  0.00     0.123 A 
ATOM      9  C   UNL     1       2.252  22.931 -12.435  1.00  0.00     0.094 A 
ATOM     10  C   UNL     1       3.535  23.445 -12.646  1.00  0.00     0.146 A 
ATOM     11  O   UNL     1       4.465  23.259 -11.716  1.00  0.00    -0.452 OA
ENDROOT
BRANCH   1  12
ATOM     12  C   UNL     1       6.652  23.449 -10.715  1.00  0.00     0.025 A 
ATOM     13  C   UNL     1       6.827  22.154 -10.197  1.00  0.00     0.016 A 
ATOM     14  C   UNL     1       7.738  21.925  -9.163  1.00  0.00     0.051 A 
ATOM     15  C   UNL     1       8.498  22.980  -8.643  1.00  0.00     0.157 A 
ATOM     16  C   UNL     1       7.431  24.500 -10.205  1.00  0.00     0.062 A 
ATOM     17  C   UNL     1       8.345  24.274  -9.169  1.00  0.00     0.158 A 
BRANCH  15  18
ATOM     18  O   UNL     1       9.406  22.748  -7.610  1.00  0.00    -0.504 OA
ATOM     19  H   UNL     1       9.137  22.836  -6.638  1.00  0.00     0.293 HD
ENDBRANCH  15  18
BRANCH  17  20
ATOM     20  O   UNL     1       9.092  25.344  -8.678  1.00  0.00    -0.504 OA
ATOM     21  H   UNL     1       9.664  25.923  -9.281  1.00  0.00     0.293 HD
ENDBRANCH  17  20
ENDBRANCH   1  12
BRANCH   2  22
ATOM     22  O   UNL     1       7.421  24.838 -13.145  1.00  0.00    -0.502 OA
ATOM     23  H   UNL     1       7.656  25.753 -13.509  1.00  0.00     0.293 HD
ENDBRANCH   2  22
BRANCH   6  24
ATOM     24  O   UNL     1       3.067  25.035 -15.982  1.00  0.00    -0.507 OA
ATOM     25  H   UNL     1       2.419  25.727 -16.343  1.00  0.00     0.293 HD
ENDBRANCH   6  24
BRANCH   8  26
ATOM     26  O   UNL     1      -0.021  22.597 -13.163  1.00  0.00    -0.508 OA
ATOM     27  H   UNL     1      -0.567  22.868 -12.353  1.00  0.00     0.293 HD
ENDBRANCH   8  26
TORSDOF 6
ENDMDL
MODEL 9
REMARK VINA RESULT:    -4.279      6.819     11.021
REMARK INTER + INTRA:          -5.484
REMARK INTER:                  -5.321
REMARK INTRA:                  -0.163
REMARK UNBOUND:                -0.329
REMARK SMILES O=c1c(O)c(-c2ccc(O)c(O)c2)oc2cc(O)cc(O)c12
REMARK SMILES IDX 5 1 3 2 2 3 1 4 22 5 20 6 19 7 17 8 16 9 15 10 14 11 6 12
REMARK SMILES IDX 7 13 8 14 9 15 13 16 11 17 10 18 12 20 4 22 21 24 18 26
REMARK H PARENT 10 19 12 21 4 23 21 25 18 27
REMARK Flexibility Score: inf
ROOT
ATOM      1  C   UNL     1       7.606  23.622  -9.537  1.00  0.00     0.180 A 
ATOM      2  C   UNL     1       6.859  24.127 -10.620  1.00  0.00     0.208 A 
ATOM      3  C   UNL     1       5.976  23.268 -11.294  1.00  0.00     0.238 A 
ATOM      4  O   UNL     1       5.295  23.712 -12.259  1.00  0.00    -0.285 OA
ATOM      5  C   UNL     1       5.868  21.922 -10.891  1.00  0.00     0.111 A 
ATOM      6  C   UNL     1       5.005  20.991 -11.519  1.00  0.00     0.134 A 
ATOM      7  C   UNL     1       4.963  19.666 -11.064  1.00  0.00     0.093 A 
ATOM      8  C   UNL     1       5.764  19.252  -9.994  1.00  0.00     0.123 A 
ATOM      9  C   UNL     1       6.616  20.166  -9.371  1.00  0.00     0.094 A 
ATOM     10  C   UNL     1       6.672  21.493  -9.809  1.00  0.00     0.146 A 
ATOM     11  O   UNL     1       7.488  22.342  -9.194  1.00  0.00    -0.452 OA
ENDROOT
BRANCH   1  12
ATOM     12  C   UNL     1       8.543  24.468  -8.765  1.00  0.00     0.025 A 
ATOM     13  C   UNL     1       9.688  25.024  -9.362  1.00  0.00     0.016 A 
ATOM     14  C   UNL     1      10.546  25.840  -8.620  1.00  0.00     0.051 A 
ATOM     15  C   UNL     1      10.266  26.123  -7.277  1.00  0.00     0.157 A 
ATOM     16  C   UNL     1       8.255  24.773  -7.426  1.00  0.00     0.062 A 
ATOM     17  C   UNL     1       9.112  25.589  -6.678  1.00  0.00     0.158 A 
BRANCH  15  18
ATOM     18  O   UNL     1      11.125  26.936  -6.538  1.00  0.00    -0.504 OA
ATOM     19  H   UNL     1      10.892  27.899  -6.324  1.00  0.00     0.293 HD
ENDBRANCH  15  18
BRANCH  17  20
ATOM     20  O   UNL     1       8.802  25.859  -5.346  1.00  0.00    -0.504 OA
ATOM     21  H   UNL     1       8.490  25.136  -4.709  1.00  0.00     0.293 HD
ENDBRANCH  17  20
ENDBRANCH   1  12
BRANCH   2  22
ATOM     22  O   UNL     1       7.021  25.452 -11.032  1.00  0.00    -0.502 OA
ATOM     23  H   UNL     1       7.878  25.968 -10.874  1.00  0.00     0.293 HD
ENDBRANCH   2  22
BRANCH   6  24
ATOM     24  O   UNL     1       4.195  21.374 -12.588  1.00  0.00    -0.507 OA
ATOM     25  H   UNL     1       4.373  21.055 -13.534  1.00  0.00     0.293 HD
ENDBRANCH   6  24
BRANCH   8  26
ATOM     26  O   UNL     1       5.722  17.936  -9.543  1.00  0.00    -0.508 OA
ATOM     27  H   UNL     1       6.337  17.607  -8.807  1.00  0.00     0.293 HD
ENDBRANCH   8  26
TORSDOF 6
ENDMDL
