MODEL 1
REMARK VINA RESULT:    -4.717      0.000      0.000
REMARK INTER + INTRA:          -5.176
REMARK INTER:                  -5.130
REMARK INTRA:                  -0.046
REMARK UNBOUND:                -0.046
REMARK SMILES COc1cc2ccc(=O)oc2cc1O
REMARK SMILES IDX 3 1 13 2 12 3 11 4 5 5 4 6 6 7 7 8 8 9 9 10 10 11 2 12 1 13
REMARK SMILES IDX 14 14
REMARK H PARENT 14 15
REMARK Flexibility Score: inf
ROOT
ATOM      1  C   UNL     1     -43.093 -35.747 -19.625  1.00  0.00     0.161 A 
ATOM      2  C   UNL     1     -42.132 -34.786 -19.975  1.00  0.00     0.161 A 
ATOM      3  C   UNL     1     -40.875 -35.183 -20.454  1.00  0.00     0.098 A 
ATOM      4  C   UNL     1     -40.569 -36.540 -20.586  1.00  0.00     0.142 A 
ATOM      5  C   UNL     1     -41.529 -37.512 -20.236  1.00  0.00     0.022 A 
ATOM      6  C   UNL     1     -42.785 -37.116 -19.757  1.00  0.00     0.062 A 
ATOM      7  C   UNL     1     -41.192 -38.862 -20.379  1.00  0.00     0.019 A 
ATOM      8  C   UNL     1     -39.930 -39.206 -20.859  1.00  0.00     0.094 A 
ATOM      9  C   UNL     1     -39.028 -38.188 -21.186  1.00  0.00     0.336 A 
ATOM     10  O   UNL     1     -37.883 -38.478 -21.621  1.00  0.00    -0.246 OA
ATOM     11  O   UNL     1     -39.374 -36.911 -21.041  1.00  0.00    -0.423 OA
ENDROOT
BRANCH   1  12
ATOM     12  O   UNL     1     -44.337 -35.304 -19.150  1.00  0.00    -0.493 OA
ATOM     13  C   UNL     1     -45.299 -36.136 -18.510  1.00  0.00     0.278 C 
ENDBRANCH   1  12
BRANCH   2  14
ATOM     14  O   UNL     1     -42.435 -33.431 -19.845  1.00  0.00    -0.504 OA
ATOM     15  H   UNL     1     -43.024 -32.953 -20.516  1.00  0.00     0.293 HD
ENDBRANCH   2  14
TORSDOF 2
ENDMDL
MODEL 2
REMARK VINA RESULT:    -4.444      2.008      4.610
REMARK INTER + INTRA:          -4.879
REMARK INTER:                  -4.831
REMARK INTRA:                  -0.048
REMARK UNBOUND:                -0.046
REMARK SMILES COc1cc2ccc(=O)oc2cc1O
REMARK SMILES IDX 3 1 13 2 12 3 11 4 5 5 4 6 6 7 7 8 8 9 9 10 10 11 2 12 1 13
REMARK SMILES IDX 14 14
REMARK H PARENT 14 15
REMARK Flexibility Score: inf
ROOT
ATOM      1  C   UNL     1     -41.519 -35.545 -19.991  1.00  0.00     0.161 A 
ATOM      2  C   UNL     1     -42.568 -34.642 -19.757  1.00  0.00     0.161 A 
ATOM      3  C   UNL     1     -43.836 -35.111 -19.386  1.00  0.00     0.098 A 
ATOM      4  C   UNL     1     -44.067 -36.482 -19.246  1.00  0.00     0.142 A 
ATOM      5  C   UNL     1     -43.019 -37.396 -19.480  1.00  0.00     0.022 A 
ATOM      6  C   UNL     1     -41.751 -36.928 -19.852  1.00  0.00     0.062 A 
ATOM      7  C   UNL     1     -43.282 -38.762 -19.333  1.00  0.00     0.019 A 
ATOM      8  C   UNL     1     -44.559 -39.178 -18.962  1.00  0.00     0.094 A 
ATOM      9  C   UNL     1     -45.550 -38.214 -18.747  1.00  0.00     0.336 A 
ATOM     10  O   UNL     1     -46.710 -38.569 -18.412  1.00  0.00    -0.246 OA
ATOM     11  O   UNL     1     -45.274 -36.920 -18.895  1.00  0.00    -0.423 OA
ENDROOT
BRANCH   1  12
ATOM     12  O   UNL     1     -40.267 -35.031 -20.361  1.00  0.00    -0.493 OA
ATOM     13  C   UNL     1     -39.018 -35.617 -20.007  1.00  0.00     0.278 C 
ENDBRANCH   1  12
BRANCH   2  14
ATOM     14  O   UNL     1     -42.341 -33.273 -19.896  1.00  0.00    -0.504 OA
ATOM     15  H   UNL     1     -41.917 -32.888 -20.732  1.00  0.00     0.293 HD
ENDBRANCH   2  14
TORSDOF 2
ENDMDL
MODEL 3
REMARK VINA RESULT:    -4.435      8.278      8.485
REMARK INTER + INTRA:          -4.869
REMARK INTER:                  -4.806
REMARK INTRA:                  -0.063
REMARK UNBOUND:                -0.046
REMARK SMILES COc1cc2ccc(=O)oc2cc1O
REMARK SMILES IDX 3 1 13 2 12 3 11 4 5 5 4 6 6 7 7 8 8 9 9 10 10 11 2 12 1 13
REMARK SMILES IDX 14 14
REMARK H PARENT 14 15
REMARK Flexibility Score: inf
ROOT
ATOM      1  C   UNL     1     -49.628 -35.462 -19.220  1.00  0.00     0.161 A 
ATOM      2  C   UNL     1     -49.783 -35.148 -20.580  1.00  0.00     0.161 A 
ATOM      3  C   UNL     1     -49.809 -36.167 -21.543  1.00  0.00     0.098 A 
ATOM      4  C   UNL     1     -49.680 -37.504 -21.157  1.00  0.00     0.142 A 
ATOM      5  C   UNL     1     -49.523 -37.827 -19.793  1.00  0.00     0.022 A 
ATOM      6  C   UNL     1     -49.497 -36.810 -18.830  1.00  0.00     0.062 A 
ATOM      7  C   UNL     1     -49.397 -39.175 -19.439  1.00  0.00     0.019 A 
ATOM      8  C   UNL     1     -49.428 -40.151 -20.433  1.00  0.00     0.094 A 
ATOM      9  C   UNL     1     -49.586 -39.755 -21.766  1.00  0.00     0.336 A 
ATOM     10  O   UNL     1     -49.617 -40.622 -22.679  1.00  0.00    -0.246 OA
ATOM     11  O   UNL     1     -49.704 -38.466 -22.076  1.00  0.00    -0.423 OA
ENDROOT
BRANCH   1  12
ATOM     12  O   UNL     1     -49.608 -34.410 -18.291  1.00  0.00    -0.493 OA
ATOM     13  C   UNL     1     -48.465 -34.023 -17.536  1.00  0.00     0.278 C 
ENDBRANCH   1  12
BRANCH   2  14
ATOM     14  O   UNL     1     -49.912 -33.815 -20.968  1.00  0.00    -0.504 OA
ATOM     15  H   UNL     1     -50.464 -33.549 -21.775  1.00  0.00     0.293 HD
ENDBRANCH   2  14
TORSDOF 2
ENDMDL
MODEL 4
REMARK VINA RESULT:    -4.405      6.242      8.697
REMARK INTER + INTRA:          -4.837
REMARK INTER:                  -4.772
REMARK INTRA:                  -0.065
REMARK UNBOUND:                -0.046
REMARK SMILES COc1cc2ccc(=O)oc2cc1O
REMARK SMILES IDX 3 1 13 2 12 3 11 4 5 5 4 6 6 7 7 8 8 9 9 10 10 11 2 12 1 13
REMARK SMILES IDX 14 14
REMARK H PARENT 14 15
REMARK Flexibility Score: inf
ROOT
ATOM      1  C   UNL     1     -47.192 -36.420 -18.017  1.00  0.00     0.161 A 
ATOM      2  C   UNL     1     -47.897 -35.207 -17.973  1.00  0.00     0.161 A 
ATOM      3  C   UNL     1     -49.177 -35.111 -18.536  1.00  0.00     0.098 A 
ATOM      4  C   UNL     1     -49.762 -36.223 -19.147  1.00  0.00     0.142 A 
ATOM      5  C   UNL     1     -49.060 -37.445 -19.197  1.00  0.00     0.022 A 
ATOM      6  C   UNL     1     -47.780 -37.542 -18.635  1.00  0.00     0.062 A 
ATOM      7  C   UNL     1     -49.672 -38.540 -19.817  1.00  0.00     0.019 A 
ATOM      8  C   UNL     1     -50.946 -38.395 -20.362  1.00  0.00     0.094 A 
ATOM      9  C   UNL     1     -51.582 -37.152 -20.276  1.00  0.00     0.336 A 
ATOM     10  O   UNL     1     -52.733 -37.000 -20.763  1.00  0.00    -0.246 OA
ATOM     11  O   UNL     1     -50.978 -36.126 -19.682  1.00  0.00    -0.423 OA
ENDROOT
BRANCH   1  12
ATOM     12  O   UNL     1     -45.913 -36.469 -17.440  1.00  0.00    -0.493 OA
ATOM     13  C   UNL     1     -45.624 -37.038 -16.167  1.00  0.00     0.278 C 
ENDBRANCH   1  12
BRANCH   2  14
ATOM     14  O   UNL     1     -47.316 -34.095 -17.363  1.00  0.00    -0.504 OA
ATOM     15  H   UNL     1     -46.572 -34.193 -16.682  1.00  0.00     0.293 HD
ENDBRANCH   2  14
TORSDOF 2
ENDMDL
MODEL 5
REMARK VINA RESULT:    -4.308     17.239     18.281
REMARK INTER + INTRA:          -4.731
REMARK INTER:                  -4.711
REMARK INTRA:                  -0.020
REMARK UNBOUND:                -0.046
REMARK SMILES COc1cc2ccc(=O)oc2cc1O
REMARK SMILES IDX 3 1 13 2 12 3 11 4 5 5 4 6 6 7 7 8 8 9 9 10 10 11 2 12 1 13
REMARK SMILES IDX 14 14
REMARK H PARENT 14 15
REMARK Flexibility Score: inf
ROOT
ATOM      1  C   UNL     1     -57.224 -29.525 -22.995  1.00  0.00     0.161 A 
ATOM      2  C   UNL     1     -57.529 -28.158 -22.912  1.00  0.00     0.161 A 
ATOM      3  C   UNL     1     -57.702 -27.545 -21.663  1.00  0.00     0.098 A 
ATOM      4  C   UNL     1     -57.571 -28.290 -20.489  1.00  0.00     0.142 A 
ATOM      5  C   UNL     1     -57.265 -29.665 -20.563  1.00  0.00     0.022 A 
ATOM      6  C   UNL     1     -57.093 -30.279 -21.810  1.00  0.00     0.062 A 
ATOM      7  C   UNL     1     -57.142 -30.385 -19.369  1.00  0.00     0.019 A 
ATOM      8  C   UNL     1     -57.323 -29.729 -18.153  1.00  0.00     0.094 A 
ATOM      9  C   UNL     1     -57.625 -28.363 -18.157  1.00  0.00     0.336 A 
ATOM     10  O   UNL     1     -57.792 -27.754 -17.068  1.00  0.00    -0.246 OA
ATOM     11  O   UNL     1     -57.737 -27.702 -19.306  1.00  0.00    -0.423 OA
ENDROOT
BRANCH   1  12
ATOM     12  O   UNL     1     -57.060 -30.097 -24.266  1.00  0.00    -0.493 OA
ATOM     13  C   UNL     1     -58.122 -30.618 -25.059  1.00  0.00     0.278 C 
ENDBRANCH   1  12
BRANCH   2  14
ATOM     14  O   UNL     1     -57.660 -27.411 -24.083  1.00  0.00    -0.504 OA
ATOM     15  H   UNL     1     -58.341 -27.653 -24.793  1.00  0.00     0.293 HD
ENDBRANCH   2  14
TORSDOF 2
ENDMDL
MODEL 6
REMARK VINA RESULT:    -4.254      6.844      7.988
REMARK INTER + INTRA:          -4.673
REMARK INTER:                  -4.613
REMARK INTRA:                  -0.060
REMARK UNBOUND:                -0.046
REMARK SMILES COc1cc2ccc(=O)oc2cc1O
REMARK SMILES IDX 3 1 13 2 12 3 11 4 5 5 4 6 6 7 7 8 8 9 9 10 10 11 2 12 1 13
REMARK SMILES IDX 14 14
REMARK H PARENT 14 15
REMARK Flexibility Score: inf
ROOT
ATOM      1  C   UNL     1     -48.962 -36.295 -18.668  1.00  0.00     0.161 A 
ATOM      2  C   UNL     1     -50.185 -36.982 -18.670  1.00  0.00     0.161 A 
ATOM      3  C   UNL     1     -50.212 -38.381 -18.756  1.00  0.00     0.098 A 
ATOM      4  C   UNL     1     -49.019 -39.104 -18.843  1.00  0.00     0.142 A 
ATOM      5  C   UNL     1     -47.785 -38.421 -18.843  1.00  0.00     0.022 A 
ATOM      6  C   UNL     1     -47.758 -37.022 -18.756  1.00  0.00     0.062 A 
ATOM      7  C   UNL     1     -46.608 -39.172 -18.931  1.00  0.00     0.019 A 
ATOM      8  C   UNL     1     -46.687 -40.561 -19.015  1.00  0.00     0.094 A 
ATOM      9  C   UNL     1     -47.946 -41.170 -19.011  1.00  0.00     0.336 A 
ATOM     10  O   UNL     1     -48.038 -42.423 -19.086  1.00  0.00    -0.246 OA
ATOM     11  O   UNL     1     -49.050 -40.432 -18.926  1.00  0.00    -0.423 OA
ENDROOT
BRANCH   1  12
ATOM     12  O   UNL     1     -48.984 -34.894 -18.579  1.00  0.00    -0.493 OA
ATOM     13  C   UNL     1     -48.376 -34.143 -17.534  1.00  0.00     0.278 C 
ENDBRANCH   1  12
BRANCH   2  14
ATOM     14  O   UNL     1     -51.378 -36.264 -18.583  1.00  0.00    -0.504 OA
ATOM     15  H   UNL     1     -52.155 -36.593 -18.022  1.00  0.00     0.293 HD
ENDBRANCH   2  14
TORSDOF 2
ENDMDL
MODEL 7
REMARK VINA RESULT:    -4.194      8.476     10.088
REMARK INTER + INTRA:          -4.608
REMARK INTER:                  -4.558
REMARK INTRA:                  -0.050
REMARK UNBOUND:                -0.046
REMARK SMILES COc1cc2ccc(=O)oc2cc1O
REMARK SMILES IDX 3 1 13 2 12 3 11 4 5 5 4 6 6 7 7 8 8 9 9 10 10 11 2 12 1 13
REMARK SMILES IDX 14 14
REMARK H PARENT 14 15
REMARK Flexibility Score: inf
ROOT
ATOM      1  C   UNL     1     -49.808 -36.215 -19.811  1.00  0.00     0.161 A 
ATOM      2  C   UNL     1     -50.826 -37.092 -19.405  1.00  0.00     0.161 A 
ATOM      3  C   UNL     1     -51.582 -37.788 -20.359  1.00  0.00     0.098 A 
ATOM      4  C   UNL     1     -51.329 -37.614 -21.722  1.00  0.00     0.142 A 
ATOM      5  C   UNL     1     -50.309 -36.733 -22.138  1.00  0.00     0.022 A 
ATOM      6  C   UNL     1     -49.552 -36.037 -21.185  1.00  0.00     0.062 A 
ATOM      7  C   UNL     1     -50.080 -36.579 -23.509  1.00  0.00     0.019 A 
ATOM      8  C   UNL     1     -50.859 -37.293 -24.418  1.00  0.00     0.094 A 
ATOM      9  C   UNL     1     -51.854 -38.148 -23.932  1.00  0.00     0.336 A 
ATOM     10  O   UNL     1     -52.569 -38.802 -24.737  1.00  0.00    -0.246 OA
ATOM     11  O   UNL     1     -52.052 -38.276 -22.622  1.00  0.00    -0.423 OA
ENDROOT
BRANCH   1  12
ATOM     12  O   UNL     1     -49.076 -35.539 -18.821  1.00  0.00    -0.493 OA
ATOM     13  C   UNL     1     -49.395 -34.243 -18.326  1.00  0.00     0.278 C 
ENDBRANCH   1  12
BRANCH   2  14
ATOM     14  O   UNL     1     -51.080 -37.269 -18.045  1.00  0.00    -0.504 OA
ATOM     15  H   UNL     1     -51.361 -38.168 -17.671  1.00  0.00     0.293 HD
ENDBRANCH   2  14
TORSDOF 2
ENDMDL
MODEL 8
REMARK VINA RESULT:    -4.151      2.230      4.722
REMARK INTER + INTRA:          -4.560
REMARK INTER:                  -4.538
REMARK INTRA:                  -0.022
REMARK UNBOUND:                -0.046
REMARK SMILES COc1cc2ccc(=O)oc2cc1O
REMARK SMILES IDX 3 1 13 2 12 3 11 4 5 5 4 6 6 7 7 8 8 9 9 10 10 11 2 12 1 13
REMARK SMILES IDX 14 14
REMARK H PARENT 14 15
REMARK Flexibility Score: inf
ROOT
ATOM      1  C   UNL     1     -39.778 -36.400 -20.145  1.00  0.00     0.161 A 
ATOM      2  C   UNL     1     -39.591 -37.743 -20.506  1.00  0.00     0.161 A 
ATOM      3  C   UNL     1     -40.690 -38.544 -20.848  1.00  0.00     0.098 A 
ATOM      4  C   UNL     1     -41.981 -38.012 -20.831  1.00  0.00     0.142 A 
ATOM      5  C   UNL     1     -42.178 -36.664 -20.468  1.00  0.00     0.022 A 
ATOM      6  C   UNL     1     -41.081 -35.862 -20.127  1.00  0.00     0.062 A 
ATOM      7  C   UNL     1     -43.484 -36.160 -20.460  1.00  0.00     0.019 A 
ATOM      8  C   UNL     1     -44.543 -36.997 -20.808  1.00  0.00     0.094 A 
ATOM      9  C   UNL     1     -44.272 -38.325 -21.156  1.00  0.00     0.336 A 
ATOM     10  O   UNL     1     -45.214 -39.097 -21.472  1.00  0.00    -0.246 OA
ATOM     11  O   UNL     1     -43.020 -38.779 -21.155  1.00  0.00    -0.423 OA
ENDROOT
BRANCH   1  12
ATOM     12  O   UNL     1     -38.650 -35.635 -19.811  1.00  0.00    -0.493 OA
ATOM     13  C   UNL     1     -38.081 -35.563 -18.508  1.00  0.00     0.278 C 
ENDBRANCH   1  12
BRANCH   2  14
ATOM     14  O   UNL     1     -38.303 -38.277 -20.524  1.00  0.00    -0.504 OA
ATOM     15  H   UNL     1     -37.856 -38.613 -19.679  1.00  0.00     0.293 HD
ENDBRANCH   2  14
TORSDOF 2
ENDMDL
MODEL 9
REMARK VINA RESULT:    -4.061      8.568      9.092
REMARK INTER + INTRA:          -4.462
REMARK INTER:                  -4.399
REMARK INTRA:                  -0.063
REMARK UNBOUND:                -0.046
REMARK SMILES COc1cc2ccc(=O)oc2cc1O
REMARK SMILES IDX 3 1 13 2 12 3 11 4 5 5 4 6 6 7 7 8 8 9 9 10 10 11 2 12 1 13
REMARK SMILES IDX 14 14
REMARK H PARENT 14 15
REMARK Flexibility Score: inf
ROOT
ATOM      1  C   UNL     1     -51.014 -37.304 -20.467  1.00  0.00     0.161 A 
ATOM      2  C   UNL     1     -50.603 -37.227 -19.127  1.00  0.00     0.161 A 
ATOM      3  C   UNL     1     -49.835 -38.255 -18.562  1.00  0.00     0.098 A 
ATOM      4  C   UNL     1     -49.472 -39.366 -19.328  1.00  0.00     0.142 A 
ATOM      5  C   UNL     1     -49.881 -39.451 -20.675  1.00  0.00     0.022 A 
ATOM      6  C   UNL     1     -50.649 -38.425 -21.240  1.00  0.00     0.062 A 
ATOM      7  C   UNL     1     -49.503 -40.576 -21.416  1.00  0.00     0.019 A 
ATOM      8  C   UNL     1     -48.739 -41.571 -20.808  1.00  0.00     0.094 A 
ATOM      9  C   UNL     1     -48.370 -41.418 -19.468  1.00  0.00     0.336 A 
ATOM     10  O   UNL     1     -47.680 -42.306 -18.901  1.00  0.00    -0.246 OA
ATOM     11  O   UNL     1     -48.743 -40.339 -18.785  1.00  0.00    -0.423 OA
ENDROOT
BRANCH   1  12
ATOM     12  O   UNL     1     -51.782 -36.252 -20.990  1.00  0.00    -0.493 OA
ATOM     13  C   UNL     1     -53.148 -36.364 -21.374  1.00  0.00     0.278 C 
ENDBRANCH   1  12
BRANCH   2  14
ATOM     14  O   UNL     1     -50.963 -36.120 -18.359  1.00  0.00    -0.504 OA
ATOM     15  H   UNL     1     -51.136 -35.215 -18.782  1.00  0.00     0.293 HD
ENDBRANCH   2  14
TORSDOF 2
ENDMDL
