MODEL 1
REMARK VINA RESULT:    -4.962      0.000      0.000
REMARK INTER + INTRA:          -9.980
REMARK INTER:                  -9.023
REMARK INTRA:                  -0.957
REMARK UNBOUND:                -0.957
REMARK SMILES CCCCCCCCCCCCCCCC(=O)[O-]
REMARK SMILES IDX 9 1 10 2 11 3 12 4 13 5 14 6 15 7 16 8 17 9 18 10 8 11 7 12
REMARK SMILES IDX 6 13 5 14 4 15 3 16 2 17 1 18
REMARK H PARENT
REMARK Flexibility Score: inf
ROOT
ATOM      1  C   UNL     1      -2.978   9.000  -3.466  1.00  0.00     0.000 C 
ENDROOT
BRANCH   1   2
ATOM      2  C   UNL     1      -4.012  10.124  -3.282  1.00  0.00     0.000 C 
BRANCH   2   3
ATOM      3  C   UNL     1      -5.187  10.010  -4.267  1.00  0.00     0.000 C 
BRANCH   3   4
ATOM      4  C   UNL     1      -5.201   8.665  -5.014  1.00  0.00     0.000 C 
BRANCH   4   5
ATOM      5  C   UNL     1      -6.577   7.980  -4.972  1.00  0.00     0.000 C 
BRANCH   5   6
ATOM      6  C   UNL     1      -6.497   6.469  -5.253  1.00  0.00     0.006 C 
BRANCH   6   7
ATOM      7  C   UNL     1      -5.359   6.120  -6.222  1.00  0.00     0.053 C 
BRANCH   7   8
ATOM      8  C   UNL     1      -5.844   6.001  -7.634  1.00  0.00     0.041 C 
ATOM      9  O   UNL     1      -6.918   6.558  -7.984  1.00  0.00    -0.550 OA
ATOM     10  O   UNL     1      -5.127   5.250  -8.557  1.00  0.00    -0.550 OA
ENDBRANCH   7   8
ENDBRANCH   6   7
ENDBRANCH   5   6
ENDBRANCH   4   5
ENDBRANCH   3   4
ENDBRANCH   2   3
ENDBRANCH   1   2
BRANCH   1  11
ATOM     11  C   UNL     1      -1.649   9.502  -4.055  1.00  0.00     0.000 C 
BRANCH  11  12
ATOM     12  C   UNL     1      -0.982   8.501  -5.022  1.00  0.00    -0.000 C 
BRANCH  12  13
ATOM     13  C   UNL     1      -1.304   8.814  -6.494  1.00  0.00    -0.000 C 
BRANCH  13  14
ATOM     14  C   UNL     1      -0.102   9.401  -7.250  1.00  0.00    -0.000 C 
BRANCH  14  15
ATOM     15  C   UNL     1       1.165   8.540  -7.105  1.00  0.00    -0.000 C 
BRANCH  15  16
ATOM     16  C   UNL     1       1.984   8.470  -8.402  1.00  0.00    -0.000 C 
BRANCH  16  17
ATOM     17  C   UNL     1       3.155   7.482  -8.309  1.00  0.00    -0.003 C 
ATOM     18  C   UNL     1       3.023   6.586  -7.081  1.00  0.00     0.004 C 
ENDBRANCH  16  17
ENDBRANCH  15  16
ENDBRANCH  14  15
ENDBRANCH  13  14
ENDBRANCH  12  13
ENDBRANCH  11  12
ENDBRANCH   1  11
TORSDOF 14
ENDMDL
MODEL 2
REMARK VINA RESULT:    -4.879      3.177      6.899
REMARK INTER + INTRA:          -9.829
REMARK INTER:                  -8.641
REMARK INTRA:                  -1.189
REMARK UNBOUND:                -0.957
REMARK SMILES CCCCCCCCCCCCCCCC(=O)[O-]
REMARK SMILES IDX 9 1 10 2 11 3 12 4 13 5 14 6 15 7 16 8 17 9 18 10 8 11 7 12
REMARK SMILES IDX 6 13 5 14 4 15 3 16 2 17 1 18
REMARK H PARENT
REMARK Flexibility Score: inf
ROOT
ATOM      1  C   UNL     1      -2.677   9.060  -3.425  1.00  0.00     0.000 C 
ENDROOT
BRANCH   1   2
ATOM      2  C   UNL     1      -2.302   8.945  -4.912  1.00  0.00     0.000 C 
BRANCH   2   3
ATOM      3  C   UNL     1      -0.783   8.849  -5.130  1.00  0.00     0.000 C 
BRANCH   3   4
ATOM      4  C   UNL     1      -0.240   9.992  -6.007  1.00  0.00     0.000 C 
BRANCH   4   5
ATOM      5  C   UNL     1       0.294   9.494  -7.360  1.00  0.00     0.000 C 
BRANCH   5   6
ATOM      6  C   UNL     1       1.283   8.324  -7.214  1.00  0.00     0.006 C 
BRANCH   6   7
ATOM      7  C   UNL     1       2.264   8.245  -8.392  1.00  0.00     0.053 C 
BRANCH   7   8
ATOM      8  C   UNL     1       3.293   7.175  -8.192  1.00  0.00     0.041 C 
ATOM      9  O   UNL     1       3.041   6.184  -7.456  1.00  0.00    -0.550 OA
ATOM     10  O   UNL     1       4.540   7.286  -8.792  1.00  0.00    -0.550 OA
ENDBRANCH   7   8
ENDBRANCH   6   7
ENDBRANCH   5   6
ENDBRANCH   4   5
ENDBRANCH   3   4
ENDBRANCH   2   3
ENDBRANCH   1   2
BRANCH   1  11
ATOM     11  C   UNL     1      -4.061   9.695  -3.206  1.00  0.00     0.000 C 
BRANCH  11  12
ATOM     12  C   UNL     1      -4.839   9.951  -4.515  1.00  0.00    -0.000 C 
BRANCH  12  13
ATOM     13  C   UNL     1      -6.024   8.983  -4.684  1.00  0.00    -0.000 C 
BRANCH  13  14
ATOM     14  C   UNL     1      -6.273   8.606  -6.153  1.00  0.00    -0.000 C 
BRANCH  14  15
ATOM     15  C   UNL     1      -6.419   7.089  -6.358  1.00  0.00    -0.000 C 
BRANCH  15  16
ATOM     16  C   UNL     1      -5.340   6.286  -5.615  1.00  0.00    -0.000 C 
BRANCH  16  17
ATOM     17  C   UNL     1      -4.043   6.150  -6.424  1.00  0.00    -0.003 C 
ATOM     18  C   UNL     1      -4.299   5.468  -7.764  1.00  0.00     0.004 C 
ENDBRANCH  16  17
ENDBRANCH  15  16
ENDBRANCH  14  15
ENDBRANCH  13  14
ENDBRANCH  12  13
ENDBRANCH  11  12
ENDBRANCH   1  11
TORSDOF 14
ENDMDL
MODEL 3
REMARK VINA RESULT:    -4.117      3.232      7.501
REMARK INTER + INTRA:          -8.444
REMARK INTER:                  -6.893
REMARK INTRA:                  -1.551
REMARK UNBOUND:                -0.957
REMARK SMILES CCCCCCCCCCCCCCCC(=O)[O-]
REMARK SMILES IDX 9 1 10 2 11 3 12 4 13 5 14 6 15 7 16 8 17 9 18 10 8 11 7 12
REMARK SMILES IDX 6 13 5 14 4 15 3 16 2 17 1 18
REMARK H PARENT
REMARK Flexibility Score: inf
ROOT
ATOM      1  C   UNL     1      -3.614   7.738  -7.650  1.00  0.00     0.000 C 
ENDROOT
BRANCH   1   2
ATOM      2  C   UNL     1      -2.993   7.247  -6.332  1.00  0.00     0.000 C 
BRANCH   2   3
ATOM      3  C   UNL     1      -2.345   8.385  -5.526  1.00  0.00     0.000 C 
BRANCH   3   4
ATOM      4  C   UNL     1      -0.808   8.296  -5.513  1.00  0.00     0.000 C 
BRANCH   4   5
ATOM      5  C   UNL     1      -0.147   9.375  -6.386  1.00  0.00     0.000 C 
BRANCH   5   6
ATOM      6  C   UNL     1       0.113   8.897  -7.825  1.00  0.00     0.006 C 
BRANCH   6   7
ATOM      7  C   UNL     1       1.516   9.280  -8.317  1.00  0.00     0.053 C 
BRANCH   7   8
ATOM      8  C   UNL     1       2.479   8.139  -8.204  1.00  0.00     0.041 C 
ATOM      9  O   UNL     1       3.368   7.971  -9.080  1.00  0.00    -0.550 OA
ATOM     10  O   UNL     1       2.376   7.242  -7.149  1.00  0.00    -0.550 OA
ENDBRANCH   7   8
ENDBRANCH   6   7
ENDBRANCH   5   6
ENDBRANCH   4   5
ENDBRANCH   3   4
ENDBRANCH   2   3
ENDBRANCH   1   2
BRANCH   1  11
ATOM     11  C   UNL     1      -4.039   9.216  -7.596  1.00  0.00     0.000 C 
BRANCH  11  12
ATOM     12  C   UNL     1      -5.533   9.420  -7.263  1.00  0.00    -0.000 C 
BRANCH  12  13
ATOM     13  C   UNL     1      -5.736  10.032  -5.866  1.00  0.00    -0.000 C 
BRANCH  13  14
ATOM     14  C   UNL     1      -5.917   8.965  -4.774  1.00  0.00    -0.000 C 
BRANCH  14  15
ATOM     15  C   UNL     1      -7.117   8.041  -5.043  1.00  0.00    -0.000 C 
BRANCH  15  16
ATOM     16  C   UNL     1      -6.695   6.590  -5.318  1.00  0.00    -0.000 C 
BRANCH  16  17
ATOM     17  C   UNL     1      -7.895   5.650  -5.501  1.00  0.00    -0.003 C 
ATOM     18  C   UNL     1      -8.471   5.763  -6.910  1.00  0.00     0.004 C 
ENDBRANCH  16  17
ENDBRANCH  15  16
ENDBRANCH  14  15
ENDBRANCH  13  14
ENDBRANCH  12  13
ENDBRANCH  11  12
ENDBRANCH   1  11
TORSDOF 14
ENDMDL
MODEL 4
REMARK VINA RESULT:    -3.988      3.373      7.437
REMARK INTER + INTRA:          -8.208
REMARK INTER:                  -6.530
REMARK INTRA:                  -1.678
REMARK UNBOUND:                -0.957
REMARK SMILES CCCCCCCCCCCCCCCC(=O)[O-]
REMARK SMILES IDX 9 1 10 2 11 3 12 4 13 5 14 6 15 7 16 8 17 9 18 10 8 11 7 12
REMARK SMILES IDX 6 13 5 14 4 15 3 16 2 17 1 18
REMARK H PARENT
REMARK Flexibility Score: inf
ROOT
ATOM      1  C   UNL     1      -3.287   7.889  -7.582  1.00  0.00     0.000 C 
ENDROOT
BRANCH   1   2
ATOM      2  C   UNL     1      -2.977   7.329  -6.184  1.00  0.00     0.000 C 
BRANCH   2   3
ATOM      3  C   UNL     1      -2.412   8.398  -5.233  1.00  0.00     0.000 C 
BRANCH   3   4
ATOM      4  C   UNL     1      -0.882   8.529  -5.337  1.00  0.00     0.000 C 
BRANCH   4   5
ATOM      5  C   UNL     1      -0.450   9.719  -6.210  1.00  0.00     0.000 C 
BRANCH   5   6
ATOM      6  C   UNL     1       0.640   9.342  -7.229  1.00  0.00     0.006 C 
BRANCH   6   7
ATOM      7  C   UNL     1       1.265   7.972  -6.927  1.00  0.00     0.053 C 
BRANCH   7   8
ATOM      8  C   UNL     1       2.469   7.708  -7.778  1.00  0.00     0.041 C 
ATOM      9  O   UNL     1       3.207   6.715  -7.542  1.00  0.00    -0.550 OA
ATOM     10  O   UNL     1       2.795   8.575  -8.813  1.00  0.00    -0.550 OA
ENDBRANCH   7   8
ENDBRANCH   6   7
ENDBRANCH   5   6
ENDBRANCH   4   5
ENDBRANCH   3   4
ENDBRANCH   2   3
ENDBRANCH   1   2
BRANCH   1  11
ATOM     11  C   UNL     1      -4.047   6.890  -8.471  1.00  0.00     0.000 C 
BRANCH  11  12
ATOM     12  C   UNL     1      -5.539   7.238  -8.658  1.00  0.00    -0.000 C 
BRANCH  12  13
ATOM     13  C   UNL     1      -6.428   5.982  -8.684  1.00  0.00    -0.000 C 
BRANCH  13  14
ATOM     14  C   UNL     1      -7.253   5.816  -7.398  1.00  0.00    -0.000 C 
BRANCH  14  15
ATOM     15  C   UNL     1      -7.373   7.125  -6.599  1.00  0.00    -0.000 C 
BRANCH  15  16
ATOM     16  C   UNL     1      -6.528   7.114  -5.317  1.00  0.00    -0.000 C 
BRANCH  16  17
ATOM     17  C   UNL     1      -6.427   8.499  -4.664  1.00  0.00    -0.003 C 
ATOM     18  C   UNL     1      -6.020   9.560  -5.683  1.00  0.00     0.004 C 
ENDBRANCH  16  17
ENDBRANCH  15  16
ENDBRANCH  14  15
ENDBRANCH  13  14
ENDBRANCH  12  13
ENDBRANCH  11  12
ENDBRANCH   1  11
TORSDOF 14
ENDMDL
MODEL 5
REMARK VINA RESULT:    -3.968      3.461      7.490
REMARK INTER + INTRA:          -8.172
REMARK INTER:                  -6.596
REMARK INTRA:                  -1.576
REMARK UNBOUND:                -0.957
REMARK SMILES CCCCCCCCCCCCCCCC(=O)[O-]
REMARK SMILES IDX 9 1 10 2 11 3 12 4 13 5 14 6 15 7 16 8 17 9 18 10 8 11 7 12
REMARK SMILES IDX 6 13 5 14 4 15 3 16 2 17 1 18
REMARK H PARENT
REMARK Flexibility Score: inf
ROOT
ATOM      1  C   UNL     1      -3.228   7.264  -6.963  1.00  0.00     0.000 C 
ENDROOT
BRANCH   1   2
ATOM      2  C   UNL     1      -2.250   8.435  -6.767  1.00  0.00     0.000 C 
BRANCH   2   3
ATOM      3  C   UNL     1      -1.235   8.173  -5.642  1.00  0.00     0.000 C 
BRANCH   3   4
ATOM      4  C   UNL     1       0.219   8.384  -6.100  1.00  0.00     0.000 C 
BRANCH   4   5
ATOM      5  C   UNL     1       0.324   9.306  -7.326  1.00  0.00     0.000 C 
BRANCH   5   6
ATOM      6  C   UNL     1       1.627   9.096  -8.117  1.00  0.00     0.006 C 
BRANCH   6   7
ATOM      7  C   UNL     1       1.839   7.625  -8.501  1.00  0.00     0.053 C 
BRANCH   7   8
ATOM      8  C   UNL     1       3.123   7.084  -7.953  1.00  0.00     0.041 C 
ATOM      9  O   UNL     1       3.132   6.460  -6.859  1.00  0.00    -0.550 OA
ATOM     10  O   UNL     1       4.315   7.294  -8.633  1.00  0.00    -0.550 OA
ENDBRANCH   7   8
ENDBRANCH   6   7
ENDBRANCH   5   6
ENDBRANCH   4   5
ENDBRANCH   3   4
ENDBRANCH   2   3
ENDBRANCH   1   2
BRANCH   1  11
ATOM     11  C   UNL     1      -3.787   7.187  -8.394  1.00  0.00     0.000 C 
BRANCH  11  12
ATOM     12  C   UNL     1      -4.364   8.524  -8.907  1.00  0.00    -0.000 C 
BRANCH  12  13
ATOM     13  C   UNL     1      -5.696   8.880  -8.223  1.00  0.00    -0.000 C 
BRANCH  13  14
ATOM     14  C   UNL     1      -5.586  10.125  -7.329  1.00  0.00    -0.000 C 
BRANCH  14  15
ATOM     15  C   UNL     1      -6.442  10.015  -6.055  1.00  0.00    -0.000 C 
BRANCH  15  16
ATOM     16  C   UNL     1      -5.946   8.916  -5.103  1.00  0.00    -0.000 C 
BRANCH  16  17
ATOM     17  C   UNL     1      -6.993   7.818  -4.872  1.00  0.00    -0.003 C 
ATOM     18  C   UNL     1      -6.535   6.487  -5.462  1.00  0.00     0.004 C 
ENDBRANCH  16  17
ENDBRANCH  15  16
ENDBRANCH  14  15
ENDBRANCH  13  14
ENDBRANCH  12  13
ENDBRANCH  11  12
ENDBRANCH   1  11
TORSDOF 14
ENDMDL
MODEL 6
REMARK VINA RESULT:    -3.812      3.450      7.329
REMARK INTER + INTRA:          -7.890
REMARK INTER:                  -6.427
REMARK INTRA:                  -1.462
REMARK UNBOUND:                -0.957
REMARK SMILES CCCCCCCCCCCCCCCC(=O)[O-]
REMARK SMILES IDX 9 1 10 2 11 3 12 4 13 5 14 6 15 7 16 8 17 9 18 10 8 11 7 12
REMARK SMILES IDX 6 13 5 14 4 15 3 16 2 17 1 18
REMARK H PARENT
REMARK Flexibility Score: inf
ROOT
ATOM      1  C   UNL     1      -3.056   8.539  -8.381  1.00  0.00     0.000 C 
ENDROOT
BRANCH   1   2
ATOM      2  C   UNL     1      -1.886   9.323  -7.763  1.00  0.00     0.000 C 
BRANCH   2   3
ATOM      3  C   UNL     1      -1.126   8.510  -6.702  1.00  0.00     0.000 C 
BRANCH   3   4
ATOM      4  C   UNL     1       0.383   8.815  -6.696  1.00  0.00     0.000 C 
BRANCH   4   5
ATOM      5  C   UNL     1       0.808   9.711  -7.871  1.00  0.00     0.000 C 
BRANCH   5   6
ATOM      6  C   UNL     1       1.976   9.117  -8.678  1.00  0.00     0.006 C 
BRANCH   6   7
ATOM      7  C   UNL     1       1.988   7.583  -8.634  1.00  0.00     0.053 C 
BRANCH   7   8
ATOM      8  C   UNL     1       3.234   7.052  -7.995  1.00  0.00     0.041 C 
ATOM      9  O   UNL     1       4.337   7.127  -8.598  1.00  0.00    -0.550 OA
ATOM     10  O   UNL     1       3.173   6.447  -6.746  1.00  0.00    -0.550 OA
ENDBRANCH   7   8
ENDBRANCH   6   7
ENDBRANCH   5   6
ENDBRANCH   4   5
ENDBRANCH   3   4
ENDBRANCH   2   3
ENDBRANCH   1   2
BRANCH   1  11
ATOM     11  C   UNL     1      -4.107   9.451  -9.034  1.00  0.00     0.000 C 
BRANCH  11  12
ATOM     12  C   UNL     1      -5.314   9.758  -8.122  1.00  0.00    -0.000 C 
BRANCH  12  13
ATOM     13  C   UNL     1      -5.772   8.521  -7.330  1.00  0.00    -0.000 C 
BRANCH  13  14
ATOM     14  C   UNL     1      -6.320   8.879  -5.940  1.00  0.00    -0.000 C 
BRANCH  14  15
ATOM     15  C   UNL     1      -5.310   8.593  -4.815  1.00  0.00    -0.000 C 
BRANCH  15  16
ATOM     16  C   UNL     1      -4.877   9.866  -4.072  1.00  0.00    -0.000 C 
BRANCH  16  17
ATOM     17  C   UNL     1      -3.366  10.118  -4.163  1.00  0.00    -0.003 C 
ATOM     18  C   UNL     1      -2.586   9.100  -3.337  1.00  0.00     0.004 C 
ENDBRANCH  16  17
ENDBRANCH  15  16
ENDBRANCH  14  15
ENDBRANCH  13  14
ENDBRANCH  12  13
ENDBRANCH  11  12
ENDBRANCH   1  11
TORSDOF 14
ENDMDL
MODEL 7
REMARK VINA RESULT:    -3.797      3.243      6.824
REMARK INTER + INTRA:          -7.861
REMARK INTER:                  -5.913
REMARK INTRA:                  -1.948
REMARK UNBOUND:                -0.957
REMARK SMILES CCCCCCCCCCCCCCCC(=O)[O-]
REMARK SMILES IDX 9 1 10 2 11 3 12 4 13 5 14 6 15 7 16 8 17 9 18 10 8 11 7 12
REMARK SMILES IDX 6 13 5 14 4 15 3 16 2 17 1 18
REMARK H PARENT
REMARK Flexibility Score: inf
ROOT
ATOM      1  C   UNL     1      -6.073   6.181  -6.018  1.00  0.00     0.000 C 
ENDROOT
BRANCH   1   2
ATOM      2  C   UNL     1      -5.379   7.394  -5.377  1.00  0.00     0.000 C 
BRANCH   2   3
ATOM      3  C   UNL     1      -6.374   8.490  -4.959  1.00  0.00     0.000 C 
BRANCH   3   4
ATOM      4  C   UNL     1      -5.706   9.869  -4.821  1.00  0.00     0.000 C 
BRANCH   4   5
ATOM      5  C   UNL     1      -4.171   9.788  -4.854  1.00  0.00     0.000 C 
BRANCH   5   6
ATOM      6  C   UNL     1      -3.551   9.703  -3.448  1.00  0.00     0.006 C 
BRANCH   6   7
ATOM      7  C   UNL     1      -2.184   9.003  -3.459  1.00  0.00     0.053 C 
BRANCH   7   8
ATOM      8  C   UNL     1      -1.630   8.883  -4.846  1.00  0.00     0.041 C 
ATOM      9  O   UNL     1      -1.771   7.813  -5.494  1.00  0.00    -0.550 OA
ATOM     10  O   UNL     1      -0.932   9.942  -5.411  1.00  0.00    -0.550 OA
ENDBRANCH   7   8
ENDBRANCH   6   7
ENDBRANCH   5   6
ENDBRANCH   4   5
ENDBRANCH   3   4
ENDBRANCH   2   3
ENDBRANCH   1   2
BRANCH   1  11
ATOM     11  C   UNL     1      -7.503   5.966  -5.494  1.00  0.00     0.000 C 
BRANCH  11  12
ATOM     12  C   UNL     1      -8.578   5.984  -6.602  1.00  0.00    -0.000 C 
BRANCH  12  13
ATOM     13  C   UNL     1      -9.480   7.228  -6.514  1.00  0.00    -0.000 C 
BRANCH  13  14
ATOM     14  C   UNL     1      -9.512   8.028  -7.826  1.00  0.00    -0.000 C 
BRANCH  14  15
ATOM     15  C   UNL     1      -8.153   8.036  -8.546  1.00  0.00    -0.000 C 
BRANCH  15  16
ATOM     16  C   UNL     1      -7.455   9.403  -8.476  1.00  0.00    -0.000 C 
BRANCH  16  17
ATOM     17  C   UNL     1      -5.924   9.286  -8.485  1.00  0.00    -0.003 C 
ATOM     18  C   UNL     1      -5.471   8.062  -9.275  1.00  0.00     0.004 C 
ENDBRANCH  16  17
ENDBRANCH  15  16
ENDBRANCH  14  15
ENDBRANCH  13  14
ENDBRANCH  12  13
ENDBRANCH  11  12
ENDBRANCH   1  11
TORSDOF 14
ENDMDL
MODEL 8
REMARK VINA RESULT:    -3.380     20.905     23.094
REMARK INTER + INTRA:          -7.102
REMARK INTER:                  -6.091
REMARK INTRA:                  -1.011
REMARK UNBOUND:                -0.957
REMARK SMILES CCCCCCCCCCCCCCCC(=O)[O-]
REMARK SMILES IDX 9 1 10 2 11 3 12 4 13 5 14 6 15 7 16 8 17 9 18 10 8 11 7 12
REMARK SMILES IDX 6 13 5 14 4 15 3 16 2 17 1 18
REMARK H PARENT
REMARK Flexibility Score: inf
ROOT
ATOM      1  C   UNL     1      -1.880  -8.254   5.837  1.00  0.00     0.000 C 
ENDROOT
BRANCH   1   2
ATOM      2  C   UNL     1      -1.814  -9.770   6.083  1.00  0.00     0.000 C 
BRANCH   2   3
ATOM      3  C   UNL     1      -1.153 -10.121   7.427  1.00  0.00     0.000 C 
BRANCH   3   4
ATOM      4  C   UNL     1      -0.010  -9.156   7.789  1.00  0.00     0.000 C 
BRANCH   4   5
ATOM      5  C   UNL     1       0.387  -9.242   9.272  1.00  0.00     0.000 C 
BRANCH   5   6
ATOM      6  C   UNL     1      -0.179  -8.080  10.107  1.00  0.00     0.006 C 
BRANCH   6   7
ATOM      7  C   UNL     1      -0.025  -6.728   9.395  1.00  0.00     0.053 C 
BRANCH   7   8
ATOM      8  C   UNL     1      -1.182  -5.818   9.669  1.00  0.00     0.041 C 
ATOM      9  O   UNL     1      -2.261  -6.283  10.125  1.00  0.00    -0.550 OA
ATOM     10  O   UNL     1      -1.082  -4.461   9.393  1.00  0.00    -0.550 OA
ENDBRANCH   7   8
ENDBRANCH   6   7
ENDBRANCH   5   6
ENDBRANCH   4   5
ENDBRANCH   3   4
ENDBRANCH   2   3
ENDBRANCH   1   2
BRANCH   1  11
ATOM     11  C   UNL     1      -2.977  -7.562   6.664  1.00  0.00     0.000 C 
BRANCH  11  12
ATOM     12  C   UNL     1      -3.952  -8.546   7.346  1.00  0.00    -0.000 C 
BRANCH  12  13
ATOM     13  C   UNL     1      -4.910  -7.833   8.318  1.00  0.00    -0.000 C 
BRANCH  13  14
ATOM     14  C   UNL     1      -5.004  -8.540   9.679  1.00  0.00    -0.000 C 
BRANCH  14  15
ATOM     15  C   UNL     1      -6.458  -8.772  10.125  1.00  0.00    -0.000 C 
BRANCH  15  16
ATOM     16  C   UNL     1      -7.315  -9.426   9.030  1.00  0.00    -0.000 C 
BRANCH  16  17
ATOM     17  C   UNL     1      -8.752  -9.703   9.492  1.00  0.00    -0.003 C 
ATOM     18  C   UNL     1      -9.759  -9.346   8.402  1.00  0.00     0.004 C 
ENDBRANCH  16  17
ENDBRANCH  15  16
ENDBRANCH  14  15
ENDBRANCH  13  14
ENDBRANCH  12  13
ENDBRANCH  11  12
ENDBRANCH   1  11
TORSDOF 14
ENDMDL
MODEL 9
REMARK VINA RESULT:    -3.276     20.654     21.979
REMARK INTER + INTRA:          -6.914
REMARK INTER:                  -5.872
REMARK INTRA:                  -1.042
REMARK UNBOUND:                -0.957
REMARK SMILES CCCCCCCCCCCCCCCC(=O)[O-]
REMARK SMILES IDX 9 1 10 2 11 3 12 4 13 5 14 6 15 7 16 8 17 9 18 10 8 11 7 12
REMARK SMILES IDX 6 13 5 14 4 15 3 16 2 17 1 18
REMARK H PARENT
REMARK Flexibility Score: inf
ROOT
ATOM      1  C   UNL     1      -1.670  -9.789   5.601  1.00  0.00     0.000 C 
ENDROOT
BRANCH   1   2
ATOM      2  C   UNL     1      -2.328  -8.630   4.832  1.00  0.00     0.000 C 
BRANCH   2   3
ATOM      3  C   UNL     1      -2.354  -7.325   5.644  1.00  0.00     0.000 C 
BRANCH   3   4
ATOM      4  C   UNL     1      -2.826  -7.542   7.092  1.00  0.00     0.000 C 
BRANCH   4   5
ATOM      5  C   UNL     1      -4.066  -8.447   7.180  1.00  0.00     0.000 C 
BRANCH   5   6
ATOM      6  C   UNL     1      -4.122  -9.250   8.491  1.00  0.00     0.006 C 
BRANCH   6   7
ATOM      7  C   UNL     1      -5.512  -9.854   8.741  1.00  0.00     0.053 C 
BRANCH   7   8
ATOM      8  C   UNL     1      -6.457  -8.853   9.331  1.00  0.00     0.041 C 
ATOM      9  O   UNL     1      -6.013  -7.824   9.907  1.00  0.00    -0.550 OA
ATOM     10  O   UNL     1      -7.828  -9.071   9.274  1.00  0.00    -0.550 OA
ENDBRANCH   7   8
ENDBRANCH   6   7
ENDBRANCH   5   6
ENDBRANCH   4   5
ENDBRANCH   3   4
ENDBRANCH   2   3
ENDBRANCH   1   2
BRANCH   1  11
ATOM     11  C   UNL     1      -0.301  -9.411   6.193  1.00  0.00     0.000 C 
BRANCH  11  12
ATOM     12  C   UNL     1       0.016 -10.125   7.525  1.00  0.00    -0.000 C 
BRANCH  12  13
ATOM     13  C   UNL     1      -0.258  -9.225   8.743  1.00  0.00    -0.000 C 
BRANCH  13  14
ATOM     14  C   UNL     1       0.866  -8.206   8.990  1.00  0.00    -0.000 C 
BRANCH  14  15
ATOM     15  C   UNL     1       0.491  -7.158  10.052  1.00  0.00    -0.000 C 
BRANCH  15  16
ATOM     16  C   UNL     1      -0.884  -6.523   9.795  1.00  0.00    -0.000 C 
BRANCH  16  17
ATOM     17  C   UNL     1      -0.781  -5.090   9.255  1.00  0.00    -0.003 C 
ATOM     18  C   UNL     1       0.395  -4.348   9.883  1.00  0.00     0.004 C 
ENDBRANCH  16  17
ENDBRANCH  15  16
ENDBRANCH  14  15
ENDBRANCH  13  14
ENDBRANCH  12  13
ENDBRANCH  11  12
ENDBRANCH   1  11
TORSDOF 14
ENDMDL
