MODEL 1
REMARK VINA RESULT:    -4.045      0.000      0.000
REMARK INTER + INTRA:          -9.911
REMARK INTER:                  -7.592
REMARK INTRA:                  -2.319
REMARK UNBOUND:                -2.319
REMARK SMILES CCCCCCCCC=CCCCCCCCC(=O)[O-]
REMARK SMILES IDX 10 1 9 2 11 3 12 4 13 5 14 6 15 7 16 8 17 9 18 10 19 11
REMARK SMILES IDX 20 12 8 13 7 14 6 15 5 16 4 17 3 18 2 19 1 20
REMARK H PARENT
REMARK Flexibility Score: inf
ROOT
ATOM      1  C   UNL     1     204.903 196.637 224.301  1.00  0.00    -0.031 C 
ATOM      2  C   UNL     1     204.040 195.740 223.788  1.00  0.00    -0.031 C 
ENDROOT
BRANCH   1   3
ATOM      3  C   UNL     1     205.076 196.916 225.774  1.00  0.00     0.027 C 
BRANCH   3   4
ATOM      4  C   UNL     1     206.226 196.098 226.395  1.00  0.00     0.004 C 
BRANCH   4   5
ATOM      5  C   UNL     1     207.420 195.891 225.448  1.00  0.00     0.000 C 
BRANCH   5   6
ATOM      6  C   UNL     1     208.777 196.044 226.156  1.00  0.00     0.000 C 
BRANCH   6   7
ATOM      7  C   UNL     1     209.842 196.689 225.243  1.00  0.00     0.000 C 
BRANCH   7   8
ATOM      8  C   UNL     1     209.446 196.711 223.757  1.00  0.00     0.006 C 
BRANCH   8   9
ATOM      9  C   UNL     1     210.421 197.515 222.890  1.00  0.00     0.053 C 
BRANCH   9  10
ATOM     10  C   UNL     1     211.703 196.764 222.713  1.00  0.00     0.041 C 
ATOM     11  O   UNL     1     212.800 197.299 223.024  1.00  0.00    -0.550 OA
ATOM     12  O   UNL     1     211.692 195.491 222.158  1.00  0.00    -0.550 OA
ENDBRANCH   9  10
ENDBRANCH   8   9
ENDBRANCH   7   8
ENDBRANCH   6   7
ENDBRANCH   5   6
ENDBRANCH   4   5
ENDBRANCH   3   4
ENDBRANCH   1   3
BRANCH   2  13
ATOM     13  C   UNL     1     203.169 194.821 224.606  1.00  0.00     0.027 C 
BRANCH  13  14
ATOM     14  C   UNL     1     203.548 193.353 224.365  1.00  0.00     0.004 C 
BRANCH  14  15
ATOM     15  C   UNL     1     205.025 193.056 224.680  1.00  0.00     0.000 C 
BRANCH  15  16
ATOM     16  C   UNL     1     205.800 192.324 223.563  1.00  0.00     0.000 C 
BRANCH  16  17
ATOM     17  C   UNL     1     206.473 193.240 222.525  1.00  0.00    -0.000 C 
BRANCH  17  18
ATOM     18  C   UNL     1     205.951 193.080 221.085  1.00  0.00    -0.000 C 
BRANCH  18  19
ATOM     19  C   UNL     1     204.769 194.014 220.747  1.00  0.00    -0.003 C 
ATOM     20  C   UNL     1     203.442 193.265 220.631  1.00  0.00     0.004 C 
ENDBRANCH  18  19
ENDBRANCH  17  18
ENDBRANCH  16  17
ENDBRANCH  15  16
ENDBRANCH  14  15
ENDBRANCH  13  14
ENDBRANCH   2  13
TORSDOF 15
ENDMDL
MODEL 2
REMARK VINA RESULT:    -4.033      3.274      6.074
REMARK INTER + INTRA:          -9.888
REMARK INTER:                  -7.347
REMARK INTRA:                  -2.541
REMARK UNBOUND:                -2.319
REMARK SMILES CCCCCCCCC=CCCCCCCCC(=O)[O-]
REMARK SMILES IDX 10 1 9 2 11 3 12 4 13 5 14 6 15 7 16 8 17 9 18 10 19 11
REMARK SMILES IDX 20 12 8 13 7 14 6 15 5 16 4 17 3 18 2 19 1 20
REMARK H PARENT
REMARK Flexibility Score: inf
ROOT
ATOM      1  C   UNL     1     204.005 195.791 223.808  1.00  0.00    -0.031 C 
ATOM      2  C   UNL     1     204.817 196.693 224.392  1.00  0.00    -0.031 C 
ENDROOT
BRANCH   1   3
ATOM      3  C   UNL     1     203.244 194.718 224.545  1.00  0.00     0.027 C 
BRANCH   3   4
ATOM      4  C   UNL     1     203.759 193.302 224.218  1.00  0.00     0.004 C 
BRANCH   4   5
ATOM      5  C   UNL     1     205.150 192.999 224.802  1.00  0.00     0.000 C 
BRANCH   5   6
ATOM      6  C   UNL     1     206.109 192.382 223.771  1.00  0.00     0.000 C 
BRANCH   6   7
ATOM      7  C   UNL     1     206.467 193.371 222.642  1.00  0.00     0.000 C 
BRANCH   7   8
ATOM      8  C   UNL     1     205.864 192.993 221.278  1.00  0.00     0.006 C 
BRANCH   8   9
ATOM      9  C   UNL     1     204.914 194.062 220.728  1.00  0.00     0.053 C 
BRANCH   9  10
ATOM     10  C   UNL     1     203.610 193.446 220.329  1.00  0.00     0.041 C 
ATOM     11  O   UNL     1     202.543 193.792 220.900  1.00  0.00    -0.550 OA
ATOM     12  O   UNL     1     203.579 192.451 219.360  1.00  0.00    -0.550 OA
ENDBRANCH   9  10
ENDBRANCH   8   9
ENDBRANCH   7   8
ENDBRANCH   6   7
ENDBRANCH   5   6
ENDBRANCH   4   5
ENDBRANCH   3   4
ENDBRANCH   1   3
BRANCH   2  13
ATOM     13  C   UNL     1     205.033 196.818 225.880  1.00  0.00     0.027 C 
BRANCH  13  14
ATOM     14  C   UNL     1     206.313 196.088 226.307  1.00  0.00     0.004 C 
BRANCH  14  15
ATOM     15  C   UNL     1     207.329 195.938 225.161  1.00  0.00     0.000 C 
BRANCH  15  16
ATOM     16  C   UNL     1     208.550 195.047 225.477  1.00  0.00     0.000 C 
BRANCH  16  17
ATOM     17  C   UNL     1     209.782 195.285 224.586  1.00  0.00    -0.000 C 
BRANCH  17  18
ATOM     18  C   UNL     1     209.706 196.541 223.697  1.00  0.00    -0.000 C 
BRANCH  18  19
ATOM     19  C   UNL     1     210.765 197.609 224.042  1.00  0.00    -0.003 C 
ATOM     20  C   UNL     1     210.465 198.333 225.354  1.00  0.00     0.004 C 
ENDBRANCH  18  19
ENDBRANCH  17  18
ENDBRANCH  16  17
ENDBRANCH  15  16
ENDBRANCH  14  15
ENDBRANCH  13  14
ENDBRANCH   2  13
TORSDOF 15
ENDMDL
MODEL 3
REMARK VINA RESULT:    -4.022      3.320      6.346
REMARK INTER + INTRA:          -9.867
REMARK INTER:                  -7.340
REMARK INTRA:                  -2.528
REMARK UNBOUND:                -2.319
REMARK SMILES CCCCCCCCC=CCCCCCCCC(=O)[O-]
REMARK SMILES IDX 10 1 9 2 11 3 12 4 13 5 14 6 15 7 16 8 17 9 18 10 19 11
REMARK SMILES IDX 20 12 8 13 7 14 6 15 5 16 4 17 3 18 2 19 1 20
REMARK H PARENT
REMARK Flexibility Score: inf
ROOT
ATOM      1  C   UNL     1     206.141 196.404 226.350  1.00  0.00    -0.031 C 
ATOM      2  C   UNL     1     206.846 195.261 226.455  1.00  0.00    -0.031 C 
ENDROOT
BRANCH   1   3
ATOM      3  C   UNL     1     204.760 196.509 225.754  1.00  0.00     0.027 C 
BRANCH   3   4
ATOM      4  C   UNL     1     204.789 196.606 224.216  1.00  0.00     0.004 C 
BRANCH   4   5
ATOM      5  C   UNL     1     203.985 195.500 223.511  1.00  0.00     0.000 C 
BRANCH   5   6
ATOM      6  C   UNL     1     203.096 194.699 224.477  1.00  0.00     0.000 C 
BRANCH   6   7
ATOM      7  C   UNL     1     203.061 193.196 224.128  1.00  0.00     0.000 C 
BRANCH   7   8
ATOM      8  C   UNL     1     204.103 192.785 223.073  1.00  0.00     0.006 C 
BRANCH   8   9
ATOM      9  C   UNL     1     203.512 191.919 221.955  1.00  0.00     0.053 C 
BRANCH   9  10
ATOM     10  C   UNL     1     202.869 192.778 220.913  1.00  0.00     0.041 C 
ATOM     11  O   UNL     1     203.477 193.779 220.451  1.00  0.00    -0.550 OA
ATOM     12  O   UNL     1     201.575 192.505 220.488  1.00  0.00    -0.550 OA
ENDBRANCH   9  10
ENDBRANCH   8   9
ENDBRANCH   7   8
ENDBRANCH   6   7
ENDBRANCH   5   6
ENDBRANCH   4   5
ENDBRANCH   3   4
ENDBRANCH   1   3
BRANCH   2  13
ATOM     13  C   UNL     1     206.334 193.898 226.063  1.00  0.00     0.027 C 
BRANCH  13  14
ATOM     14  C   UNL     1     207.289 193.224 225.068  1.00  0.00     0.004 C 
BRANCH  14  15
ATOM     15  C   UNL     1     207.540 194.072 223.809  1.00  0.00     0.000 C 
BRANCH  15  16
ATOM     16  C   UNL     1     208.913 193.858 223.135  1.00  0.00     0.000 C 
BRANCH  16  17
ATOM     17  C   UNL     1     209.961 194.948 223.425  1.00  0.00    -0.000 C 
BRANCH  17  18
ATOM     18  C   UNL     1     209.385 196.276 223.952  1.00  0.00    -0.000 C 
BRANCH  18  19
ATOM     19  C   UNL     1     210.227 197.511 223.568  1.00  0.00    -0.003 C 
ATOM     20  C   UNL     1     211.225 197.219 222.449  1.00  0.00     0.004 C 
ENDBRANCH  18  19
ENDBRANCH  17  18
ENDBRANCH  16  17
ENDBRANCH  15  16
ENDBRANCH  14  15
ENDBRANCH  13  14
ENDBRANCH   2  13
TORSDOF 15
ENDMDL
MODEL 4
REMARK VINA RESULT:    -3.958      1.747      3.050
REMARK INTER + INTRA:          -9.746
REMARK INTER:                  -7.983
REMARK INTRA:                  -1.763
REMARK UNBOUND:                -2.319
REMARK SMILES CCCCCCCCC=CCCCCCCCC(=O)[O-]
REMARK SMILES IDX 10 1 9 2 11 3 12 4 13 5 14 6 15 7 16 8 17 9 18 10 19 11
REMARK SMILES IDX 20 12 8 13 7 14 6 15 5 16 4 17 3 18 2 19 1 20
REMARK H PARENT
REMARK Flexibility Score: inf
ROOT
ATOM      1  C   UNL     1     206.609 196.111 226.348  1.00  0.00    -0.031 C 
ATOM      2  C   UNL     1     205.427 196.666 226.020  1.00  0.00    -0.031 C 
ENDROOT
BRANCH   1   3
ATOM      3  C   UNL     1     206.978 194.670 226.101  1.00  0.00     0.027 C 
BRANCH   3   4
ATOM      4  C   UNL     1     208.051 194.517 225.005  1.00  0.00     0.004 C 
BRANCH   4   5
ATOM      5  C   UNL     1     208.306 195.806 224.205  1.00  0.00     0.000 C 
BRANCH   5   6
ATOM      6  C   UNL     1     209.756 196.304 224.322  1.00  0.00     0.000 C 
BRANCH   6   7
ATOM      7  C   UNL     1     210.055 197.463 223.347  1.00  0.00     0.000 C 
BRANCH   7   8
ATOM      8  C   UNL     1     211.348 197.266 222.536  1.00  0.00     0.006 C 
BRANCH   8   9
ATOM      9  C   UNL     1     212.566 196.966 223.417  1.00  0.00     0.053 C 
BRANCH   9  10
ATOM     10  C   UNL     1     213.831 197.285 222.685  1.00  0.00     0.041 C 
ATOM     11  O   UNL     1     213.831 198.144 221.764  1.00  0.00    -0.550 OA
ATOM     12  O   UNL     1     215.000 196.598 222.985  1.00  0.00    -0.550 OA
ENDBRANCH   9  10
ENDBRANCH   8   9
ENDBRANCH   7   8
ENDBRANCH   6   7
ENDBRANCH   5   6
ENDBRANCH   4   5
ENDBRANCH   3   4
ENDBRANCH   1   3
BRANCH   2  13
ATOM     13  C   UNL     1     204.317 195.954 225.288  1.00  0.00     0.027 C 
BRANCH  13  14
ATOM     14  C   UNL     1     204.327 196.320 223.797  1.00  0.00     0.004 C 
BRANCH  14  15
ATOM     15  C   UNL     1     204.923 195.212 222.911  1.00  0.00     0.000 C 
BRANCH  15  16
ATOM     16  C   UNL     1     204.160 193.870 222.934  1.00  0.00     0.000 C 
BRANCH  16  17
ATOM     17  C   UNL     1     202.916 193.808 222.029  1.00  0.00    -0.000 C 
BRANCH  17  18
ATOM     18  C   UNL     1     201.574 193.719 222.779  1.00  0.00    -0.000 C 
BRANCH  18  19
ATOM     19  C   UNL     1     201.718 193.319 224.263  1.00  0.00    -0.003 C 
ATOM     20  C   UNL     1     200.995 194.281 225.205  1.00  0.00     0.004 C 
ENDBRANCH  18  19
ENDBRANCH  17  18
ENDBRANCH  16  17
ENDBRANCH  15  16
ENDBRANCH  14  15
ENDBRANCH  13  14
ENDBRANCH   2  13
TORSDOF 15
ENDMDL
MODEL 5
REMARK VINA RESULT:    -3.944      2.893      6.918
REMARK INTER + INTRA:          -9.721
REMARK INTER:                  -7.145
REMARK INTRA:                  -2.576
REMARK UNBOUND:                -2.319
REMARK SMILES CCCCCCCCC=CCCCCCCCC(=O)[O-]
REMARK SMILES IDX 10 1 9 2 11 3 12 4 13 5 14 6 15 7 16 8 17 9 18 10 19 11
REMARK SMILES IDX 20 12 8 13 7 14 6 15 5 16 4 17 3 18 2 19 1 20
REMARK H PARENT
REMARK Flexibility Score: inf
ROOT
ATOM      1  C   UNL     1     209.018 194.137 223.831  1.00  0.00    -0.031 C 
ATOM      2  C   UNL     1     210.217 194.224 224.437  1.00  0.00    -0.031 C 
ENDROOT
BRANCH   1   3
ATOM      3  C   UNL     1     207.689 194.234 224.538  1.00  0.00     0.027 C 
BRANCH   3   4
ATOM      4  C   UNL     1     207.109 195.662 224.505  1.00  0.00     0.004 C 
BRANCH   4   5
ATOM      5  C   UNL     1     206.641 196.171 225.879  1.00  0.00     0.000 C 
BRANCH   5   6
ATOM      6  C   UNL     1     205.161 196.586 225.890  1.00  0.00     0.000 C 
BRANCH   6   7
ATOM      7  C   UNL     1     204.412 196.110 224.627  1.00  0.00     0.000 C 
BRANCH   7   8
ATOM      8  C   UNL     1     203.350 195.034 224.910  1.00  0.00     0.006 C 
BRANCH   8   9
ATOM      9  C   UNL     1     203.730 193.658 224.352  1.00  0.00     0.053 C 
BRANCH   9  10
ATOM     10  C   UNL     1     203.937 193.735 222.872  1.00  0.00     0.041 C 
ATOM     11  O   UNL     1     205.047 193.416 222.369  1.00  0.00    -0.550 OA
ATOM     12  O   UNL     1     202.921 194.207 222.051  1.00  0.00    -0.550 OA
ENDBRANCH   9  10
ENDBRANCH   8   9
ENDBRANCH   7   8
ENDBRANCH   6   7
ENDBRANCH   5   6
ENDBRANCH   4   5
ENDBRANCH   3   4
ENDBRANCH   1   3
BRANCH   2  13
ATOM     13  C   UNL     1     210.418 194.507 225.905  1.00  0.00     0.027 C 
BRANCH  13  14
ATOM     14  C   UNL     1     211.137 195.849 226.106  1.00  0.00     0.004 C 
BRANCH  14  15
ATOM     15  C   UNL     1     210.208 197.061 225.917  1.00  0.00     0.000 C 
BRANCH  15  16
ATOM     16  C   UNL     1     210.624 198.039 224.798  1.00  0.00     0.000 C 
BRANCH  16  17
ATOM     17  C   UNL     1     210.083 197.699 223.397  1.00  0.00    -0.000 C 
BRANCH  17  18
ATOM     18  C   UNL     1     211.160 197.557 222.305  1.00  0.00    -0.000 C 
BRANCH  18  19
ATOM     19  C   UNL     1     212.378 196.715 222.741  1.00  0.00    -0.003 C 
ATOM     20  C   UNL     1     213.691 197.490 222.650  1.00  0.00     0.004 C 
ENDBRANCH  18  19
ENDBRANCH  17  18
ENDBRANCH  16  17
ENDBRANCH  15  16
ENDBRANCH  14  15
ENDBRANCH  13  14
ENDBRANCH   2  13
TORSDOF 15
ENDMDL
MODEL 6
REMARK VINA RESULT:    -3.884      4.206      6.510
REMARK INTER + INTRA:          -9.608
REMARK INTER:                  -6.684
REMARK INTRA:                  -2.924
REMARK UNBOUND:                -2.319
REMARK SMILES CCCCCCCCC=CCCCCCCCC(=O)[O-]
REMARK SMILES IDX 10 1 9 2 11 3 12 4 13 5 14 6 15 7 16 8 17 9 18 10 19 11
REMARK SMILES IDX 20 12 8 13 7 14 6 15 5 16 4 17 3 18 2 19 1 20
REMARK H PARENT
REMARK Flexibility Score: inf
ROOT
ATOM      1  C   UNL     1     204.906 196.845 225.359  1.00  0.00    -0.031 C 
ATOM      2  C   UNL     1     205.878 196.430 226.194  1.00  0.00    -0.031 C 
ENDROOT
BRANCH   1   3
ATOM      3  C   UNL     1     204.773 196.420 223.918  1.00  0.00     0.027 C 
BRANCH   3   4
ATOM      4  C   UNL     1     203.681 195.351 223.718  1.00  0.00     0.004 C 
BRANCH   4   5
ATOM      5  C   UNL     1     202.929 194.986 225.010  1.00  0.00     0.000 C 
BRANCH   5   6
ATOM      6  C   UNL     1     201.839 193.924 224.787  1.00  0.00     0.000 C 
BRANCH   6   7
ATOM      7  C   UNL     1     202.327 192.767 223.889  1.00  0.00     0.000 C 
BRANCH   7   8
ATOM      8  C   UNL     1     201.185 191.923 223.298  1.00  0.00     0.006 C 
BRANCH   8   9
ATOM      9  C   UNL     1     200.201 192.751 222.464  1.00  0.00     0.053 C 
BRANCH   9  10
ATOM     10  C   UNL     1     200.866 193.256 221.222  1.00  0.00     0.041 C 
ATOM     11  O   UNL     1     201.214 192.453 220.317  1.00  0.00    -0.550 OA
ATOM     12  O   UNL     1     201.147 194.609 221.086  1.00  0.00    -0.550 OA
ENDBRANCH   9  10
ENDBRANCH   8   9
ENDBRANCH   7   8
ENDBRANCH   6   7
ENDBRANCH   5   6
ENDBRANCH   4   5
ENDBRANCH   3   4
ENDBRANCH   1   3
BRANCH   2  13
ATOM     13  C   UNL     1     206.940 195.419 225.840  1.00  0.00     0.027 C 
BRANCH  13  14
ATOM     14  C   UNL     1     206.445 193.992 226.112  1.00  0.00     0.004 C 
BRANCH  14  15
ATOM     15  C   UNL     1     206.424 193.114 224.847  1.00  0.00     0.000 C 
BRANCH  15  16
ATOM     16  C   UNL     1     207.227 193.667 223.650  1.00  0.00     0.000 C 
BRANCH  16  17
ATOM     17  C   UNL     1     206.834 193.091 222.277  1.00  0.00    -0.000 C 
BRANCH  17  18
ATOM     18  C   UNL     1     205.533 192.266 222.270  1.00  0.00    -0.000 C 
BRANCH  18  19
ATOM     19  C   UNL     1     204.701 192.434 220.981  1.00  0.00    -0.003 C 
ATOM     20  C   UNL     1     204.624 193.888 220.515  1.00  0.00     0.004 C 
ENDBRANCH  18  19
ENDBRANCH  17  18
ENDBRANCH  16  17
ENDBRANCH  15  16
ENDBRANCH  14  15
ENDBRANCH  13  14
ENDBRANCH   2  13
TORSDOF 15
ENDMDL
MODEL 7
REMARK VINA RESULT:    -3.878      1.157      2.766
REMARK INTER + INTRA:          -9.597
REMARK INTER:                  -6.999
REMARK INTRA:                  -2.598
REMARK UNBOUND:                -2.319
REMARK SMILES CCCCCCCCC=CCCCCCCCC(=O)[O-]
REMARK SMILES IDX 10 1 9 2 11 3 12 4 13 5 14 6 15 7 16 8 17 9 18 10 19 11
REMARK SMILES IDX 20 12 8 13 7 14 6 15 5 16 4 17 3 18 2 19 1 20
REMARK H PARENT
REMARK Flexibility Score: inf
ROOT
ATOM      1  C   UNL     1     203.289 194.975 224.677  1.00  0.00    -0.031 C 
ATOM      2  C   UNL     1     202.316 194.133 224.280  1.00  0.00    -0.031 C 
ENDROOT
BRANCH   1   3
ATOM      3  C   UNL     1     204.079 195.870 223.754  1.00  0.00     0.027 C 
BRANCH   3   4
ATOM      4  C   UNL     1     205.118 196.722 224.509  1.00  0.00     0.004 C 
BRANCH   4   5
ATOM      5  C   UNL     1     205.098 196.515 226.033  1.00  0.00     0.000 C 
BRANCH   5   6
ATOM      6  C   UNL     1     206.455 196.052 226.590  1.00  0.00     0.000 C 
BRANCH   6   7
ATOM      7  C   UNL     1     207.361 195.451 225.494  1.00  0.00     0.000 C 
BRANCH   7   8
ATOM      8  C   UNL     1     208.706 196.180 225.339  1.00  0.00     0.006 C 
BRANCH   8   9
ATOM      9  C   UNL     1     209.256 196.123 223.909  1.00  0.00     0.053 C 
BRANCH   9  10
ATOM     10  C   UNL     1     210.238 197.229 223.683  1.00  0.00     0.041 C 
ATOM     11  O   UNL     1     210.094 198.017 222.712  1.00  0.00    -0.550 OA
ATOM     12  O   UNL     1     211.342 197.359 224.516  1.00  0.00    -0.550 OA
ENDBRANCH   9  10
ENDBRANCH   8   9
ENDBRANCH   7   8
ENDBRANCH   6   7
ENDBRANCH   5   6
ENDBRANCH   4   5
ENDBRANCH   3   4
ENDBRANCH   1   3
BRANCH   2  13
ATOM     13  C   UNL     1     201.812 194.008 222.864  1.00  0.00     0.027 C 
BRANCH  13  14
ATOM     14  C   UNL     1     202.643 192.983 222.079  1.00  0.00     0.004 C 
BRANCH  14  15
ATOM     15  C   UNL     1     203.170 193.536 220.743  1.00  0.00     0.000 C 
BRANCH  15  16
ATOM     16  C   UNL     1     204.655 193.955 220.745  1.00  0.00     0.000 C 
BRANCH  16  17
ATOM     17  C   UNL     1     205.627 192.917 221.336  1.00  0.00    -0.000 C 
BRANCH  17  18
ATOM     18  C   UNL     1     206.512 193.438 222.484  1.00  0.00    -0.000 C 
BRANCH  18  19
ATOM     19  C   UNL     1     206.758 192.398 223.597  1.00  0.00    -0.003 C 
ATOM     20  C   UNL     1     205.556 192.235 224.527  1.00  0.00     0.004 C 
ENDBRANCH  18  19
ENDBRANCH  17  18
ENDBRANCH  16  17
ENDBRANCH  15  16
ENDBRANCH  14  15
ENDBRANCH  13  14
ENDBRANCH   2  13
TORSDOF 15
ENDMDL
MODEL 8
REMARK VINA RESULT:    -3.830      1.693      2.532
REMARK INTER + INTRA:          -9.507
REMARK INTER:                  -6.980
REMARK INTRA:                  -2.527
REMARK UNBOUND:                -2.319
REMARK SMILES CCCCCCCCC=CCCCCCCCC(=O)[O-]
REMARK SMILES IDX 10 1 9 2 11 3 12 4 13 5 14 6 15 7 16 8 17 9 18 10 19 11
REMARK SMILES IDX 20 12 8 13 7 14 6 15 5 16 4 17 3 18 2 19 1 20
REMARK H PARENT
REMARK Flexibility Score: inf
ROOT
ATOM      1  C   UNL     1     204.727 196.693 224.551  1.00  0.00    -0.031 C 
ATOM      2  C   UNL     1     204.009 195.725 223.949  1.00  0.00    -0.031 C 
ENDROOT
BRANCH   1   3
ATOM      3  C   UNL     1     205.112 196.695 226.009  1.00  0.00     0.027 C 
BRANCH   3   4
ATOM      4  C   UNL     1     206.581 196.281 226.230  1.00  0.00     0.004 C 
BRANCH   4   5
ATOM      5  C   UNL     1     206.772 194.769 226.442  1.00  0.00     0.000 C 
BRANCH   5   6
ATOM      6  C   UNL     1     207.261 194.046 225.176  1.00  0.00     0.000 C 
BRANCH   6   7
ATOM      7  C   UNL     1     207.851 195.023 224.137  1.00  0.00     0.000 C 
BRANCH   7   8
ATOM      8  C   UNL     1     209.380 195.169 224.228  1.00  0.00     0.006 C 
BRANCH   8   9
ATOM      9  C   UNL     1     209.864 196.589 223.913  1.00  0.00     0.053 C 
BRANCH   9  10
ATOM     10  C   UNL     1     210.112 197.349 225.178  1.00  0.00     0.041 C 
ATOM     11  O   UNL     1     210.371 198.580 225.139  1.00  0.00    -0.550 OA
ATOM     12  O   UNL     1     210.109 196.686 226.399  1.00  0.00    -0.550 OA
ENDBRANCH   9  10
ENDBRANCH   8   9
ENDBRANCH   7   8
ENDBRANCH   6   7
ENDBRANCH   5   6
ENDBRANCH   4   5
ENDBRANCH   3   4
ENDBRANCH   1   3
BRANCH   2  13
ATOM     13  C   UNL     1     203.544 194.458 224.621  1.00  0.00     0.027 C 
BRANCH  13  14
ATOM     14  C   UNL     1     202.059 194.200 224.328  1.00  0.00     0.004 C 
BRANCH  14  15
ATOM     15  C   UNL     1     201.839 193.152 223.223  1.00  0.00     0.000 C 
BRANCH  15  16
ATOM     16  C   UNL     1     201.926 193.691 221.779  1.00  0.00     0.000 C 
BRANCH  16  17
ATOM     17  C   UNL     1     203.040 193.071 220.915  1.00  0.00    -0.000 C 
BRANCH  17  18
ATOM     18  C   UNL     1     204.274 193.969 220.707  1.00  0.00    -0.000 C 
BRANCH  18  19
ATOM     19  C   UNL     1     205.513 193.513 221.506  1.00  0.00    -0.003 C 
ATOM     20  C   UNL     1     205.309 192.161 222.189  1.00  0.00     0.004 C 
ENDBRANCH  18  19
ENDBRANCH  17  18
ENDBRANCH  16  17
ENDBRANCH  15  16
ENDBRANCH  14  15
ENDBRANCH  13  14
ENDBRANCH   2  13
TORSDOF 15
ENDMDL
MODEL 9
REMARK VINA RESULT:    -3.803      1.420      2.373
REMARK INTER + INTRA:          -9.456
REMARK INTER:                  -6.919
REMARK INTRA:                  -2.537
REMARK UNBOUND:                -2.319
REMARK SMILES CCCCCCCCC=CCCCCCCCC(=O)[O-]
REMARK SMILES IDX 10 1 9 2 11 3 12 4 13 5 14 6 15 7 16 8 17 9 18 10 19 11
REMARK SMILES IDX 20 12 8 13 7 14 6 15 5 16 4 17 3 18 2 19 1 20
REMARK H PARENT
REMARK Flexibility Score: inf
ROOT
ATOM      1  C   UNL     1     205.651 196.452 226.377  1.00  0.00    -0.031 C 
ATOM      2  C   UNL     1     204.742 196.804 225.448  1.00  0.00    -0.031 C 
ENDROOT
BRANCH   1   3
ATOM      3  C   UNL     1     206.961 195.766 226.080  1.00  0.00     0.027 C 
BRANCH   3   4
ATOM      4  C   UNL     1     206.876 194.236 226.253  1.00  0.00     0.004 C 
BRANCH   4   5
ATOM      5  C   UNL     1     206.845 193.463 224.924  1.00  0.00     0.000 C 
BRANCH   5   6
ATOM      6  C   UNL     1     207.597 194.187 223.794  1.00  0.00     0.000 C 
BRANCH   6   7
ATOM      7  C   UNL     1     209.113 193.896 223.823  1.00  0.00     0.000 C 
BRANCH   7   8
ATOM      8  C   UNL     1     209.964 195.003 223.177  1.00  0.00     0.006 C 
BRANCH   8   9
ATOM      9  C   UNL     1     210.072 196.260 224.048  1.00  0.00     0.053 C 
BRANCH   9  10
ATOM     10  C   UNL     1     211.073 197.210 223.471  1.00  0.00     0.041 C 
ATOM     11  O   UNL     1     210.912 197.675 222.312  1.00  0.00    -0.550 OA
ATOM     12  O   UNL     1     212.212 197.543 224.193  1.00  0.00    -0.550 OA
ENDBRANCH   9  10
ENDBRANCH   8   9
ENDBRANCH   7   8
ENDBRANCH   6   7
ENDBRANCH   5   6
ENDBRANCH   4   5
ENDBRANCH   3   4
ENDBRANCH   1   3
BRANCH   2  13
ATOM     13  C   UNL     1     204.925 196.635 223.961  1.00  0.00     0.027 C 
BRANCH  13  14
ATOM     14  C   UNL     1     203.945 195.591 223.407  1.00  0.00     0.004 C 
BRANCH  14  15
ATOM     15  C   UNL     1     203.358 194.681 224.499  1.00  0.00     0.000 C 
BRANCH  15  16
ATOM     16  C   UNL     1     203.278 193.183 224.134  1.00  0.00     0.000 C 
BRANCH  16  17
ATOM     17  C   UNL     1     203.250 192.878 222.625  1.00  0.00    -0.000 C 
BRANCH  17  18
ATOM     18  C   UNL     1     204.347 191.913 222.139  1.00  0.00    -0.000 C 
BRANCH  18  19
ATOM     19  C   UNL     1     205.469 192.605 221.337  1.00  0.00    -0.003 C 
ATOM     20  C   UNL     1     204.942 193.701 220.412  1.00  0.00     0.004 C 
ENDBRANCH  18  19
ENDBRANCH  17  18
ENDBRANCH  16  17
ENDBRANCH  15  16
ENDBRANCH  14  15
ENDBRANCH  13  14
ENDBRANCH   2  13
TORSDOF 15
ENDMDL
