MODEL 1
REMARK VINA RESULT:    -4.224      0.000      0.000
REMARK INTER + INTRA:          -7.914
REMARK INTER:                  -7.187
REMARK INTRA:                  -0.727
REMARK UNBOUND:                -0.727
REMARK SMILES CCCCCCCCCCCCCC(=O)[O-]
REMARK SMILES IDX 8 1 9 2 10 3 11 4 12 5 13 6 14 7 15 8 16 9 7 10 6 11 5 12
REMARK SMILES IDX 4 13 3 14 2 15 1 16
REMARK H PARENT
REMARK Flexibility Score: inf
ROOT
ATOM      1  C   UNL     1       1.742 -37.517  19.609  1.00  0.00     0.000 C 
ENDROOT
BRANCH   1   2
ATOM      2  C   UNL     1       3.158 -37.523  20.220  1.00  0.00     0.000 C 
BRANCH   2   3
ATOM      3  C   UNL     1       3.801 -36.134  20.403  1.00  0.00     0.000 C 
BRANCH   3   4
ATOM      4  C   UNL     1       5.310 -36.073  20.107  1.00  0.00     0.000 C 
BRANCH   4   5
ATOM      5  C   UNL     1       6.125 -35.502  21.276  1.00  0.00     0.006 C 
BRANCH   5   6
ATOM      6  C   UNL     1       6.012 -36.399  22.513  1.00  0.00     0.053 C 
BRANCH   6   7
ATOM      7  C   UNL     1       5.727 -35.578  23.731  1.00  0.00     0.041 C 
ATOM      8  O   UNL     1       5.764 -36.106  24.873  1.00  0.00    -0.550 OA
ATOM      9  O   UNL     1       5.469 -34.218  23.608  1.00  0.00    -0.550 OA
ENDBRANCH   6   7
ENDBRANCH   5   6
ENDBRANCH   4   5
ENDBRANCH   3   4
ENDBRANCH   2   3
ENDBRANCH   1   2
BRANCH   1  10
ATOM     10  C   UNL     1       1.695 -37.685  18.079  1.00  0.00     0.000 C 
BRANCH  10  11
ATOM     11  C   UNL     1       3.066 -37.492  17.416  1.00  0.00    -0.000 C 
BRANCH  11  12
ATOM     12  C   UNL     1       3.024 -36.352  16.390  1.00  0.00    -0.000 C 
BRANCH  12  13
ATOM     13  C   UNL     1       2.052 -36.678  15.246  1.00  0.00    -0.000 C 
BRANCH  13  14
ATOM     14  C   UNL     1       2.773 -36.939  13.914  1.00  0.00    -0.000 C 
BRANCH  14  15
ATOM     15  C   UNL     1       4.228 -37.393  14.108  1.00  0.00    -0.003 C 
ATOM     16  C   UNL     1       4.337 -38.915  14.067  1.00  0.00     0.004 C 
ENDBRANCH  14  15
ENDBRANCH  13  14
ENDBRANCH  12  13
ENDBRANCH  11  12
ENDBRANCH  10  11
ENDBRANCH   1  10
TORSDOF 12
ENDMDL
MODEL 2
REMARK VINA RESULT:    -3.820      3.828      7.599
REMARK INTER + INTRA:          -7.227
REMARK INTER:                  -6.210
REMARK INTRA:                  -1.017
REMARK UNBOUND:                -0.727
REMARK SMILES CCCCCCCCCCCCCC(=O)[O-]
REMARK SMILES IDX 8 1 9 2 10 3 11 4 12 5 13 6 14 7 15 8 16 9 7 10 6 11 5 12
REMARK SMILES IDX 4 13 3 14 2 15 1 16
REMARK H PARENT
REMARK Flexibility Score: inf
ROOT
ATOM      1  C   UNL     1       3.889 -37.811  20.139  1.00  0.00     0.000 C 
ENDROOT
BRANCH   1   2
ATOM      2  C   UNL     1       2.594 -36.975  20.077  1.00  0.00     0.000 C 
BRANCH   2   3
ATOM      3  C   UNL     1       1.398 -37.667  19.394  1.00  0.00     0.000 C 
BRANCH   3   4
ATOM      4  C   UNL     1       1.611 -38.017  17.910  1.00  0.00     0.000 C 
BRANCH   4   5
ATOM      5  C   UNL     1       1.864 -36.781  17.036  1.00  0.00     0.006 C 
BRANCH   5   6
ATOM      6  C   UNL     1       3.252 -36.841  16.390  1.00  0.00     0.053 C 
BRANCH   6   7
ATOM      7  C   UNL     1       3.148 -37.287  14.965  1.00  0.00     0.041 C 
ATOM      8  O   UNL     1       2.334 -36.726  14.185  1.00  0.00    -0.550 OA
ATOM      9  O   UNL     1       3.984 -38.288  14.487  1.00  0.00    -0.550 OA
ENDBRANCH   6   7
ENDBRANCH   5   6
ENDBRANCH   4   5
ENDBRANCH   3   4
ENDBRANCH   2   3
ENDBRANCH   1   2
BRANCH   1  10
ATOM     10  C   UNL     1       5.117 -37.155  19.482  1.00  0.00     0.000 C 
BRANCH  10  11
ATOM     11  C   UNL     1       5.474 -35.799  20.108  1.00  0.00    -0.000 C 
BRANCH  11  12
ATOM     12  C   UNL     1       5.942 -35.971  21.559  1.00  0.00    -0.000 C 
BRANCH  12  13
ATOM     13  C   UNL     1       5.134 -35.071  22.507  1.00  0.00    -0.000 C 
BRANCH  13  14
ATOM     14  C   UNL     1       5.666 -35.102  23.949  1.00  0.00    -0.000 C 
BRANCH  14  15
ATOM     15  C   UNL     1       6.125 -36.504  24.379  1.00  0.00    -0.003 C 
ATOM     16  C   UNL     1       5.301 -37.012  25.559  1.00  0.00     0.004 C 
ENDBRANCH  14  15
ENDBRANCH  13  14
ENDBRANCH  12  13
ENDBRANCH  11  12
ENDBRANCH  10  11
ENDBRANCH   1  10
TORSDOF 12
ENDMDL
MODEL 3
REMARK VINA RESULT:    -3.688      1.626      2.357
REMARK INTER + INTRA:          -7.001
REMARK INTER:                  -6.309
REMARK INTRA:                  -0.692
REMARK UNBOUND:                -0.727
REMARK SMILES CCCCCCCCCCCCCC(=O)[O-]
REMARK SMILES IDX 8 1 9 2 10 3 11 4 12 5 13 6 14 7 15 8 16 9 7 10 6 11 5 12
REMARK SMILES IDX 4 13 3 14 2 15 1 16
REMARK H PARENT
REMARK Flexibility Score: inf
ROOT
ATOM      1  C   UNL     1       4.896 -37.373  19.871  1.00  0.00     0.000 C 
ENDROOT
BRANCH   1   2
ATOM      2  C   UNL     1       5.344 -36.001  20.413  1.00  0.00     0.000 C 
BRANCH   2   3
ATOM      3  C   UNL     1       4.626 -35.535  21.695  1.00  0.00     0.000 C 
BRANCH   3   4
ATOM      4  C   UNL     1       5.557 -35.166  22.864  1.00  0.00     0.000 C 
BRANCH   4   5
ATOM      5  C   UNL     1       6.125 -36.396  23.586  1.00  0.00     0.006 C 
BRANCH   5   6
ATOM      6  C   UNL     1       5.767 -36.370  25.075  1.00  0.00     0.053 C 
BRANCH   6   7
ATOM      7  C   UNL     1       5.029 -37.615  25.458  1.00  0.00     0.041 C 
ATOM      8  O   UNL     1       4.088 -37.562  26.293  1.00  0.00    -0.550 OA
ATOM      9  O   UNL     1       5.348 -38.825  24.854  1.00  0.00    -0.550 OA
ENDBRANCH   6   7
ENDBRANCH   5   6
ENDBRANCH   4   5
ENDBRANCH   3   4
ENDBRANCH   2   3
ENDBRANCH   1   2
BRANCH   1  10
ATOM     10  C   UNL     1       3.435 -37.435  19.390  1.00  0.00     0.000 C 
BRANCH  10  11
ATOM     11  C   UNL     1       3.316 -37.510  17.861  1.00  0.00    -0.000 C 
BRANCH  11  12
ATOM     12  C   UNL     1       3.518 -36.128  17.226  1.00  0.00    -0.000 C 
BRANCH  12  13
ATOM     13  C   UNL     1       2.478 -35.873  16.124  1.00  0.00    -0.000 C 
BRANCH  13  14
ATOM     14  C   UNL     1       2.320 -37.069  15.172  1.00  0.00    -0.000 C 
BRANCH  14  15
ATOM     15  C   UNL     1       3.440 -37.143  14.123  1.00  0.00    -0.003 C 
ATOM     16  C   UNL     1       4.232 -38.441  14.257  1.00  0.00     0.004 C 
ENDBRANCH  14  15
ENDBRANCH  13  14
ENDBRANCH  12  13
ENDBRANCH  11  12
ENDBRANCH  10  11
ENDBRANCH   1  10
TORSDOF 12
ENDMDL
MODEL 4
REMARK VINA RESULT:    -3.475      3.757      7.894
REMARK INTER + INTRA:          -6.639
REMARK INTER:                  -5.626
REMARK INTRA:                  -1.013
REMARK UNBOUND:                -0.727
REMARK SMILES CCCCCCCCCCCCCC(=O)[O-]
REMARK SMILES IDX 8 1 9 2 10 3 11 4 12 5 13 6 14 7 15 8 16 9 7 10 6 11 5 12
REMARK SMILES IDX 4 13 3 14 2 15 1 16
REMARK H PARENT
REMARK Flexibility Score: inf
ROOT
ATOM      1  C   UNL     1       5.413 -37.619  21.000  1.00  0.00     0.000 C 
ENDROOT
BRANCH   1   2
ATOM      2  C   UNL     1       4.751 -37.870  19.630  1.00  0.00     0.000 C 
BRANCH   2   3
ATOM      3  C   UNL     1       3.216 -38.010  19.658  1.00  0.00     0.000 C 
BRANCH   3   4
ATOM      4  C   UNL     1       2.472 -37.220  18.568  1.00  0.00     0.000 C 
BRANCH   4   5
ATOM      5  C   UNL     1       3.403 -36.718  17.454  1.00  0.00     0.006 C 
BRANCH   5   6
ATOM      6  C   UNL     1       3.278 -37.590  16.201  1.00  0.00     0.053 C 
BRANCH   6   7
ATOM      7  C   UNL     1       2.586 -36.839  15.107  1.00  0.00     0.041 C 
ATOM      8  O   UNL     1       3.089 -36.794  13.954  1.00  0.00    -0.550 OA
ATOM      9  O   UNL     1       1.361 -36.230  15.349  1.00  0.00    -0.550 OA
ENDBRANCH   6   7
ENDBRANCH   5   6
ENDBRANCH   4   5
ENDBRANCH   3   4
ENDBRANCH   2   3
ENDBRANCH   1   2
BRANCH   1  10
ATOM     10  C   UNL     1       5.762 -36.148  21.292  1.00  0.00     0.000 C 
BRANCH  10  11
ATOM     11  C   UNL     1       4.529 -35.302  21.643  1.00  0.00    -0.000 C 
BRANCH  11  12
ATOM     12  C   UNL     1       4.682 -34.657  23.027  1.00  0.00    -0.000 C 
BRANCH  12  13
ATOM     13  C   UNL     1       6.105 -34.856  23.571  1.00  0.00    -0.000 C 
BRANCH  13  14
ATOM     14  C   UNL     1       6.123 -35.572  24.931  1.00  0.00    -0.000 C 
BRANCH  14  15
ATOM     15  C   UNL     1       5.730 -37.053  24.825  1.00  0.00    -0.003 C 
ATOM     16  C   UNL     1       4.803 -37.458  25.968  1.00  0.00     0.004 C 
ENDBRANCH  14  15
ENDBRANCH  13  14
ENDBRANCH  12  13
ENDBRANCH  11  12
ENDBRANCH  10  11
ENDBRANCH   1  10
TORSDOF 12
ENDMDL
MODEL 5
REMARK VINA RESULT:    -3.214      2.806      7.183
REMARK INTER + INTRA:          -6.196
REMARK INTER:                  -5.119
REMARK INTRA:                  -1.078
REMARK UNBOUND:                -0.727
REMARK SMILES CCCCCCCCCCCCCC(=O)[O-]
REMARK SMILES IDX 8 1 9 2 10 3 11 4 12 5 13 6 14 7 15 8 16 9 7 10 6 11 5 12
REMARK SMILES IDX 4 13 3 14 2 15 1 16
REMARK H PARENT
REMARK Flexibility Score: inf
ROOT
ATOM      1  C   UNL     1       5.681 -35.104  19.376  1.00  0.00     0.000 C 
ENDROOT
BRANCH   1   2
ATOM      2  C   UNL     1       4.697 -34.665  18.274  1.00  0.00     0.000 C 
BRANCH   2   3
ATOM      3  C   UNL     1       4.303 -35.766  17.269  1.00  0.00     0.000 C 
BRANCH   3   4
ATOM      4  C   UNL     1       2.891 -35.627  16.673  1.00  0.00     0.000 C 
BRANCH   4   5
ATOM      5  C   UNL     1       2.123 -36.956  16.639  1.00  0.00     0.006 C 
BRANCH   5   6
ATOM      6  C   UNL     1       2.542 -37.861  17.802  1.00  0.00     0.053 C 
BRANCH   6   7
ATOM      7  C   UNL     1       1.664 -37.624  18.991  1.00  0.00     0.041 C 
ATOM      8  O   UNL     1       2.169 -37.283  20.093  1.00  0.00    -0.550 OA
ATOM      9  O   UNL     1       0.284 -37.733  18.869  1.00  0.00    -0.550 OA
ENDBRANCH   6   7
ENDBRANCH   5   6
ENDBRANCH   4   5
ENDBRANCH   3   4
ENDBRANCH   2   3
ENDBRANCH   1   2
BRANCH   1  10
ATOM     10  C   UNL     1       5.496 -36.549  19.874  1.00  0.00     0.000 C 
BRANCH  10  11
ATOM     11  C   UNL     1       5.404 -36.644  21.404  1.00  0.00    -0.000 C 
BRANCH  11  12
ATOM     12  C   UNL     1       4.956 -35.307  22.011  1.00  0.00    -0.000 C 
BRANCH  12  13
ATOM     13  C   UNL     1       5.584 -35.095  23.396  1.00  0.00    -0.000 C 
BRANCH  13  14
ATOM     14  C   UNL     1       6.100 -36.403  24.019  1.00  0.00    -0.000 C 
BRANCH  14  15
ATOM     15  C   UNL     1       5.749 -36.526  25.509  1.00  0.00    -0.003 C 
ATOM     16  C   UNL     1       4.835 -37.722  25.760  1.00  0.00     0.004 C 
ENDBRANCH  14  15
ENDBRANCH  13  14
ENDBRANCH  12  13
ENDBRANCH  11  12
ENDBRANCH  10  11
ENDBRANCH   1  10
TORSDOF 12
ENDMDL
MODEL 6
REMARK VINA RESULT:    -2.937      4.432      7.388
REMARK INTER + INTRA:          -5.724
REMARK INTER:                  -5.244
REMARK INTRA:                  -0.480
REMARK UNBOUND:                -0.727
REMARK SMILES CCCCCCCCCCCCCC(=O)[O-]
REMARK SMILES IDX 8 1 9 2 10 3 11 4 12 5 13 6 14 7 15 8 16 9 7 10 6 11 5 12
REMARK SMILES IDX 4 13 3 14 2 15 1 16
REMARK H PARENT
REMARK Flexibility Score: inf
ROOT
ATOM      1  C   UNL     1       4.206 -35.744  20.773  1.00  0.00     0.000 C 
ENDROOT
BRANCH   1   2
ATOM      2  C   UNL     1       4.872 -35.473  19.409  1.00  0.00     0.000 C 
BRANCH   2   3
ATOM      3  C   UNL     1       4.110 -36.020  18.186  1.00  0.00     0.000 C 
BRANCH   3   4
ATOM      4  C   UNL     1       3.102 -37.140  18.497  1.00  0.00     0.000 C 
BRANCH   4   5
ATOM      5  C   UNL     1       2.199 -37.479  17.302  1.00  0.00     0.006 C 
BRANCH   5   6
ATOM      6  C   UNL     1       2.245 -36.369  16.248  1.00  0.00     0.053 C 
BRANCH   6   7
ATOM      7  C   UNL     1       2.685 -36.919  14.927  1.00  0.00     0.041 C 
ATOM      8  O   UNL     1       2.053 -36.626  13.878  1.00  0.00    -0.550 OA
ATOM      9  O   UNL     1       3.821 -37.715  14.849  1.00  0.00    -0.550 OA
ENDBRANCH   6   7
ENDBRANCH   5   6
ENDBRANCH   4   5
ENDBRANCH   3   4
ENDBRANCH   2   3
ENDBRANCH   1   2
BRANCH   1  10
ATOM     10  C   UNL     1       5.182 -35.886  21.956  1.00  0.00     0.000 C 
BRANCH  10  11
ATOM     11  C   UNL     1       5.781 -37.295  22.067  1.00  0.00    -0.000 C 
BRANCH  11  12
ATOM     12  C   UNL     1       5.198 -38.226  20.995  1.00  0.00    -0.000 C 
BRANCH  12  13
ATOM     13  C   UNL     1       5.848 -39.616  21.063  1.00  0.00    -0.000 C 
BRANCH  13  14
ATOM     14  C   UNL     1       5.498 -40.371  22.355  1.00  0.00    -0.000 C 
BRANCH  14  15
ATOM     15  C   UNL     1       6.097 -41.785  22.395  1.00  0.00    -0.003 C 
ATOM     16  C   UNL     1       6.123 -42.330  23.820  1.00  0.00     0.004 C 
ENDBRANCH  14  15
ENDBRANCH  13  14
ENDBRANCH  12  13
ENDBRANCH  11  12
ENDBRANCH  10  11
ENDBRANCH   1  10
TORSDOF 12
ENDMDL
MODEL 7
REMARK VINA RESULT:    -2.769      3.885      8.212
REMARK INTER + INTRA:          -5.439
REMARK INTER:                  -4.671
REMARK INTRA:                  -0.768
REMARK UNBOUND:                -0.727
REMARK SMILES CCCCCCCCCCCCCC(=O)[O-]
REMARK SMILES IDX 8 1 9 2 10 3 11 4 12 5 13 6 14 7 15 8 16 9 7 10 6 11 5 12
REMARK SMILES IDX 4 13 3 14 2 15 1 16
REMARK H PARENT
REMARK Flexibility Score: inf
ROOT
ATOM      1  C   UNL     1       4.594 -35.692  21.271  1.00  0.00     0.000 C 
ENDROOT
BRANCH   1   2
ATOM      2  C   UNL     1       5.183 -35.444  19.868  1.00  0.00     0.000 C 
BRANCH   2   3
ATOM      3  C   UNL     1       4.971 -36.587  18.855  1.00  0.00     0.000 C 
BRANCH   3   4
ATOM      4  C   UNL     1       3.695 -37.419  19.074  1.00  0.00     0.000 C 
BRANCH   4   5
ATOM      5  C   UNL     1       2.794 -37.468  17.832  1.00  0.00     0.006 C 
BRANCH   5   6
ATOM      6  C   UNL     1       3.362 -36.596  16.708  1.00  0.00     0.053 C 
BRANCH   6   7
ATOM      7  C   UNL     1       3.001 -37.165  15.372  1.00  0.00     0.041 C 
ATOM      8  O   UNL     1       2.125 -36.606  14.662  1.00  0.00    -0.550 OA
ATOM      9  O   UNL     1       3.669 -38.284  14.889  1.00  0.00    -0.550 OA
ENDBRANCH   6   7
ENDBRANCH   5   6
ENDBRANCH   4   5
ENDBRANCH   3   4
ENDBRANCH   2   3
ENDBRANCH   1   2
BRANCH   1  10
ATOM     10  C   UNL     1       5.633 -35.975  22.371  1.00  0.00     0.000 C 
BRANCH  10  11
ATOM     11  C   UNL     1       5.983 -34.727  23.195  1.00  0.00    -0.000 C 
BRANCH  11  12
ATOM     12  C   UNL     1       6.125 -35.074  24.683  1.00  0.00    -0.000 C 
BRANCH  12  13
ATOM     13  C   UNL     1       5.919 -36.578  24.918  1.00  0.00    -0.000 C 
BRANCH  13  14
ATOM     14  C   UNL     1       4.790 -36.871  25.920  1.00  0.00    -0.000 C 
BRANCH  14  15
ATOM     15  C   UNL     1       4.501 -38.373  26.062  1.00  0.00    -0.003 C 
ATOM     16  C   UNL     1       5.141 -39.164  24.925  1.00  0.00     0.004 C 
ENDBRANCH  14  15
ENDBRANCH  13  14
ENDBRANCH  12  13
ENDBRANCH  11  12
ENDBRANCH  10  11
ENDBRANCH   1  10
TORSDOF 12
ENDMDL
MODEL 8
REMARK VINA RESULT:    -2.588      2.974      3.819
REMARK INTER + INTRA:          -5.130
REMARK INTER:                  -4.306
REMARK INTRA:                  -0.824
REMARK UNBOUND:                -0.727
REMARK SMILES CCCCCCCCCCCCCC(=O)[O-]
REMARK SMILES IDX 8 1 9 2 10 3 11 4 12 5 13 6 14 7 15 8 16 9 7 10 6 11 5 12
REMARK SMILES IDX 4 13 3 14 2 15 1 16
REMARK H PARENT
REMARK Flexibility Score: inf
ROOT
ATOM      1  C   UNL     1       4.419 -35.430  20.059  1.00  0.00     0.000 C 
ENDROOT
BRANCH   1   2
ATOM      2  C   UNL     1       5.694 -35.715  20.878  1.00  0.00     0.000 C 
BRANCH   2   3
ATOM      3  C   UNL     1       5.754 -37.108  21.536  1.00  0.00     0.000 C 
BRANCH   3   4
ATOM      4  C   UNL     1       5.353 -38.277  20.619  1.00  0.00     0.000 C 
BRANCH   4   5
ATOM      5  C   UNL     1       5.840 -39.637  21.138  1.00  0.00     0.006 C 
BRANCH   5   6
ATOM      6  C   UNL     1       5.090 -40.037  22.413  1.00  0.00     0.053 C 
BRANCH   6   7
ATOM      7  C   UNL     1       5.679 -41.283  22.997  1.00  0.00     0.041 C 
ATOM      8  O   UNL     1       6.125 -42.186  22.243  1.00  0.00    -0.550 OA
ATOM      9  O   UNL     1       5.779 -41.425  24.376  1.00  0.00    -0.550 OA
ENDBRANCH   6   7
ENDBRANCH   5   6
ENDBRANCH   4   5
ENDBRANCH   3   4
ENDBRANCH   2   3
ENDBRANCH   1   2
BRANCH   1  10
ATOM     10  C   UNL     1       4.656 -35.156  18.562  1.00  0.00     0.000 C 
BRANCH  10  11
ATOM     11  C   UNL     1       4.294 -36.354  17.673  1.00  0.00    -0.000 C 
BRANCH  11  12
ATOM     12  C   UNL     1       3.047 -37.074  18.203  1.00  0.00    -0.000 C 
BRANCH  12  13
ATOM     13  C   UNL     1       2.115 -37.478  17.051  1.00  0.00    -0.000 C 
BRANCH  13  14
ATOM     14  C   UNL     1       1.880 -36.334  16.051  1.00  0.00    -0.000 C 
BRANCH  14  15
ATOM     15  C   UNL     1       2.224 -36.731  14.608  1.00  0.00    -0.003 C 
ATOM     16  C   UNL     1       3.540 -37.502  14.550  1.00  0.00     0.004 C 
ENDBRANCH  14  15
ENDBRANCH  13  14
ENDBRANCH  12  13
ENDBRANCH  11  12
ENDBRANCH  10  11
ENDBRANCH   1  10
TORSDOF 12
ENDMDL
