MODEL 1
REMARK VINA RESULT:    -7.133      0.000      0.000
REMARK INTER + INTRA:          -8.654
REMARK INTER:                  -8.384
REMARK INTRA:                  -0.270
REMARK UNBOUND:                -0.270
REMARK SMILES O=c1cc(-c2ccc(O)c(O)c2)oc2cc(O)cc(O)c12
REMARK SMILES IDX 4 1 3 2 2 3 1 4 21 5 19 6 18 7 16 8 15 9 14 10 13 11 5 12
REMARK SMILES IDX 6 13 7 14 8 15 12 16 10 17 9 18 11 20 20 22 17 24
REMARK H PARENT 9 19 11 21 20 23 17 25
REMARK Flexibility Score: inf
ROOT
ATOM      1  C   UNL     1     117.479 122.554 116.272  1.00  0.00     0.138 A 
ATOM      2  C   UNL     1     118.436 122.307 115.278  1.00  0.00     0.100 A 
ATOM      3  C   UNL     1     118.024 122.088 113.964  1.00  0.00     0.197 A 
ATOM      4  O   UNL     1     118.909 121.929 113.083  1.00  0.00    -0.289 OA
ATOM      5  C   UNL     1     116.645 122.085 113.650  1.00  0.00     0.107 A 
ATOM      6  C   UNL     1     116.106 121.832 112.351  1.00  0.00     0.134 A 
ATOM      7  C   UNL     1     114.730 121.971 112.136  1.00  0.00     0.093 A 
ATOM      8  C   UNL     1     113.866 122.295 113.185  1.00  0.00     0.123 A 
ATOM      9  C   UNL     1     114.374 122.491 114.466  1.00  0.00     0.094 A 
ATOM     10  C   UNL     1     115.747 122.393 114.707  1.00  0.00     0.146 A 
ATOM     11  O   UNL     1     116.193 122.601 115.940  1.00  0.00    -0.456 OA
ENDROOT
BRANCH   1  12
ATOM     12  C   UNL     1     117.862 122.793 117.686  1.00  0.00     0.021 A 
ATOM     13  C   UNL     1     117.303 121.993 118.699  1.00  0.00     0.016 A 
ATOM     14  C   UNL     1     117.653 122.193 120.037  1.00  0.00     0.051 A 
ATOM     15  C   UNL     1     118.575 123.187 120.386  1.00  0.00     0.157 A 
ATOM     16  C   UNL     1     118.799 123.783 118.044  1.00  0.00     0.062 A 
ATOM     17  C   UNL     1     119.152 123.984 119.383  1.00  0.00     0.158 A 
BRANCH  15  18
ATOM     18  O   UNL     1     118.921 123.385 121.722  1.00  0.00    -0.504 OA
ATOM     19  H   UNL     1     118.963 124.313 122.127  1.00  0.00     0.293 HD
ENDBRANCH  15  18
BRANCH  17  20
ATOM     20  O   UNL     1     120.082 124.974 119.697  1.00  0.00    -0.504 OA
ATOM     21  H   UNL     1     120.040 125.900 119.291  1.00  0.00     0.293 HD
ENDBRANCH  17  20
ENDBRANCH   1  12
BRANCH   6  22
ATOM     22  O   UNL     1     116.872 121.421 111.256  1.00  0.00    -0.507 OA
ATOM     23  H   UNL     1     117.834 121.677 111.096  1.00  0.00     0.293 HD
ENDBRANCH   6  22
BRANCH   8  24
ATOM     24  O   UNL     1     112.496 122.417 112.964  1.00  0.00    -0.508 OA
ATOM     25  H   UNL     1     111.849 122.595 113.725  1.00  0.00     0.293 HD
ENDBRANCH   8  24
TORSDOF 5
ENDMDL
MODEL 2
REMARK VINA RESULT:    -7.129      7.372      8.955
REMARK INTER + INTRA:          -8.650
REMARK INTER:                  -8.380
REMARK INTRA:                  -0.270
REMARK UNBOUND:                -0.270
REMARK SMILES O=c1cc(-c2ccc(O)c(O)c2)oc2cc(O)cc(O)c12
REMARK SMILES IDX 4 1 3 2 2 3 1 4 21 5 19 6 18 7 16 8 15 9 14 10 13 11 5 12
REMARK SMILES IDX 6 13 7 14 8 15 12 16 10 17 9 18 11 20 20 22 17 24
REMARK H PARENT 9 19 11 21 20 23 17 25
REMARK Flexibility Score: inf
ROOT
ATOM      1  C   UNL     1     121.597 116.482 116.232  1.00  0.00     0.138 A 
ATOM      2  C   UNL     1     120.647 116.744 115.236  1.00  0.00     0.100 A 
ATOM      3  C   UNL     1     121.066 116.963 113.924  1.00  0.00     0.197 A 
ATOM      4  O   UNL     1     120.187 117.135 113.040  1.00  0.00    -0.289 OA
ATOM      5  C   UNL     1     122.447 116.950 113.615  1.00  0.00     0.107 A 
ATOM      6  C   UNL     1     122.993 117.201 112.320  1.00  0.00     0.134 A 
ATOM      7  C   UNL     1     124.369 117.047 112.109  1.00  0.00     0.093 A 
ATOM      8  C   UNL     1     125.225 116.709 113.161  1.00  0.00     0.123 A 
ATOM      9  C   UNL     1     124.709 116.515 114.438  1.00  0.00     0.094 A 
ATOM     10  C   UNL     1     123.337 116.628 114.674  1.00  0.00     0.146 A 
ATOM     11  O   UNL     1     122.884 116.420 115.906  1.00  0.00    -0.456 OA
ENDROOT
BRANCH   1  12
ATOM     12  C   UNL     1     121.206 116.242 117.645  1.00  0.00     0.021 A 
ATOM     13  C   UNL     1     121.766 117.036 118.661  1.00  0.00     0.016 A 
ATOM     14  C   UNL     1     121.408 116.836 119.997  1.00  0.00     0.051 A 
ATOM     15  C   UNL     1     120.478 115.847 120.340  1.00  0.00     0.157 A 
ATOM     16  C   UNL     1     120.261 115.258 117.995  1.00  0.00     0.062 A 
ATOM     17  C   UNL     1     119.900 115.057 119.333  1.00  0.00     0.158 A 
BRANCH  15  18
ATOM     18  O   UNL     1     120.124 115.649 121.674  1.00  0.00    -0.504 OA
ATOM     19  H   UNL     1     119.971 116.428 122.303  1.00  0.00     0.293 HD
ENDBRANCH  15  18
BRANCH  17  20
ATOM     20  O   UNL     1     118.962 114.072 119.640  1.00  0.00    -0.504 OA
ATOM     21  H   UNL     1     119.188 113.085 119.610  1.00  0.00     0.293 HD
ENDBRANCH  17  20
ENDBRANCH   1  12
BRANCH   6  22
ATOM     22  O   UNL     1     122.237 117.626 111.223  1.00  0.00    -0.507 OA
ATOM     23  H   UNL     1     122.080 118.589 110.969  1.00  0.00     0.293 HD
ENDBRANCH   6  22
BRANCH   8  24
ATOM     24  O   UNL     1     126.594 116.572 112.944  1.00  0.00    -0.508 OA
ATOM     25  H   UNL     1     127.030 115.660 112.861  1.00  0.00     0.293 HD
ENDBRANCH   8  24
TORSDOF 5
ENDMDL
MODEL 3
REMARK VINA RESULT:    -7.105      5.587      6.294
REMARK INTER + INTRA:          -8.621
REMARK INTER:                  -8.351
REMARK INTRA:                  -0.270
REMARK UNBOUND:                -0.270
REMARK SMILES O=c1cc(-c2ccc(O)c(O)c2)oc2cc(O)cc(O)c12
REMARK SMILES IDX 4 1 3 2 2 3 1 4 21 5 19 6 18 7 16 8 15 9 14 10 13 11 5 12
REMARK SMILES IDX 6 13 7 14 8 15 12 16 10 17 9 18 11 20 20 22 17 24
REMARK H PARENT 9 19 11 21 20 23 17 25
REMARK Flexibility Score: inf
ROOT
ATOM      1  C   UNL     1     122.549 121.548 116.296  1.00  0.00     0.138 A 
ATOM      2  C   UNL     1     122.314 120.580 115.310  1.00  0.00     0.100 A 
ATOM      3  C   UNL     1     122.097 120.979 113.991  1.00  0.00     0.197 A 
ATOM      4  O   UNL     1     121.950 120.085 113.117  1.00  0.00    -0.289 OA
ATOM      5  C   UNL     1     122.085 122.356 113.665  1.00  0.00     0.107 A 
ATOM      6  C   UNL     1     121.833 122.880 112.361  1.00  0.00     0.134 A 
ATOM      7  C   UNL     1     121.963 124.256 112.134  1.00  0.00     0.093 A 
ATOM      8  C   UNL     1     122.275 125.132 113.177  1.00  0.00     0.123 A 
ATOM      9  C   UNL     1     122.469 124.636 114.463  1.00  0.00     0.094 A 
ATOM     10  C   UNL     1     122.381 123.264 114.715  1.00  0.00     0.146 A 
ATOM     11  O   UNL     1     122.588 122.832 115.954  1.00  0.00    -0.456 OA
ENDROOT
BRANCH   1  12
ATOM     12  C   UNL     1     122.786 121.179 117.715  1.00  0.00     0.021 A 
ATOM     13  C   UNL     1     121.975 121.738 118.719  1.00  0.00     0.016 A 
ATOM     14  C   UNL     1     122.172 121.402 120.061  1.00  0.00     0.051 A 
ATOM     15  C   UNL     1     123.174 120.493 120.423  1.00  0.00     0.157 A 
ATOM     16  C   UNL     1     123.783 120.255 118.085  1.00  0.00     0.062 A 
ATOM     17  C   UNL     1     123.981 119.915 119.428  1.00  0.00     0.158 A 
BRANCH  15  18
ATOM     18  O   UNL     1     123.368 120.160 121.762  1.00  0.00    -0.504 OA
ATOM     19  H   UNL     1     123.773 120.818 122.419  1.00  0.00     0.293 HD
ENDBRANCH  15  18
BRANCH  17  20
ATOM     20  O   UNL     1     124.979 118.999 119.755  1.00  0.00    -0.504 OA
ATOM     21  H   UNL     1     125.586 118.592 119.055  1.00  0.00     0.293 HD
ENDBRANCH  17  20
ENDBRANCH   1  12
BRANCH   6  22
ATOM     22  O   UNL     1     121.433 122.102 111.270  1.00  0.00    -0.507 OA
ATOM     23  H   UNL     1     120.566 122.215 110.769  1.00  0.00     0.293 HD
ENDBRANCH   6  22
BRANCH   8  24
ATOM     24  O   UNL     1     122.387 126.501 112.944  1.00  0.00    -0.508 OA
ATOM     25  H   UNL     1     122.813 127.121 113.624  1.00  0.00     0.293 HD
ENDBRANCH   8  24
TORSDOF 5
ENDMDL
MODEL 4
REMARK VINA RESULT:    -7.093      5.580      6.291
REMARK INTER + INTRA:          -8.607
REMARK INTER:                  -8.340
REMARK INTRA:                  -0.267
REMARK UNBOUND:                -0.270
REMARK SMILES O=c1cc(-c2ccc(O)c(O)c2)oc2cc(O)cc(O)c12
REMARK SMILES IDX 4 1 3 2 2 3 1 4 21 5 19 6 18 7 16 8 15 9 14 10 13 11 5 12
REMARK SMILES IDX 6 13 7 14 8 15 12 16 10 17 9 18 11 20 20 22 17 24
REMARK H PARENT 9 19 11 21 20 23 17 25
REMARK Flexibility Score: inf
ROOT
ATOM      1  C   UNL     1     116.504 117.502 116.297  1.00  0.00     0.138 A 
ATOM      2  C   UNL     1     116.766 118.453 115.301  1.00  0.00     0.100 A 
ATOM      3  C   UNL     1     116.978 118.036 113.987  1.00  0.00     0.197 A 
ATOM      4  O   UNL     1     117.150 118.916 113.105  1.00  0.00    -0.289 OA
ATOM      5  C   UNL     1     116.956 116.655 113.675  1.00  0.00     0.107 A 
ATOM      6  C   UNL     1     117.198 116.111 112.378  1.00  0.00     0.134 A 
ATOM      7  C   UNL     1     117.035 114.737 112.164  1.00  0.00     0.093 A 
ATOM      8  C   UNL     1     116.697 113.880 113.215  1.00  0.00     0.123 A 
ATOM      9  C   UNL     1     116.512 114.394 114.495  1.00  0.00     0.094 A 
ATOM     10  C   UNL     1     116.633 115.765 114.734  1.00  0.00     0.146 A 
ATOM     11  O   UNL     1     116.434 116.216 115.967  1.00  0.00    -0.456 OA
ENDROOT
BRANCH   1  12
ATOM     12  C   UNL     1     116.273 117.891 117.711  1.00  0.00     0.021 A 
ATOM     13  C   UNL     1     117.128 117.399 118.712  1.00  0.00     0.016 A 
ATOM     14  C   UNL     1     116.937 117.757 120.049  1.00  0.00     0.051 A 
ATOM     15  C   UNL     1     115.895 118.620 120.408  1.00  0.00     0.157 A 
ATOM     16  C   UNL     1     115.235 118.770 118.078  1.00  0.00     0.062 A 
ATOM     17  C   UNL     1     115.042 119.131 119.416  1.00  0.00     0.158 A 
BRANCH  15  18
ATOM     18  O   UNL     1     115.706 118.974 121.743  1.00  0.00    -0.504 OA
ATOM     19  H   UNL     1     114.802 119.272 122.090  1.00  0.00     0.293 HD
ENDBRANCH  15  18
BRANCH  17  20
ATOM     20  O   UNL     1     114.003 120.002 119.740  1.00  0.00    -0.504 OA
ATOM     21  H   UNL     1     113.467 120.488 119.032  1.00  0.00     0.293 HD
ENDBRANCH  17  20
ENDBRANCH   1  12
BRANCH   6  22
ATOM     22  O   UNL     1     117.622 116.868 111.280  1.00  0.00    -0.507 OA
ATOM     23  H   UNL     1     117.517 117.867 111.194  1.00  0.00     0.293 HD
ENDBRANCH   6  22
BRANCH   8  24
ATOM     24  O   UNL     1     116.552 112.512 112.996  1.00  0.00    -0.508 OA
ATOM     25  H   UNL     1     116.755 111.834 113.722  1.00  0.00     0.293 HD
ENDBRANCH   8  24
TORSDOF 5
ENDMDL
MODEL 5
REMARK VINA RESULT:    -6.639      7.601      9.913
REMARK INTER + INTRA:          -8.074
REMARK INTER:                  -7.756
REMARK INTRA:                  -0.318
REMARK UNBOUND:                -0.270
REMARK SMILES O=c1cc(-c2ccc(O)c(O)c2)oc2cc(O)cc(O)c12
REMARK SMILES IDX 4 1 3 2 2 3 1 4 21 5 19 6 18 7 16 8 15 9 14 10 13 11 5 12
REMARK SMILES IDX 6 13 7 14 8 15 12 16 10 17 9 18 11 20 20 22 17 24
REMARK H PARENT 9 19 11 21 20 23 17 25
REMARK Flexibility Score: inf
ROOT
ATOM      1  C   UNL     1     122.376 116.647 114.725  1.00  0.00     0.138 A 
ATOM      2  C   UNL     1     121.132 116.937 114.148  1.00  0.00     0.100 A 
ATOM      3  C   UNL     1     119.983 116.916 114.940  1.00  0.00     0.197 A 
ATOM      4  O   UNL     1     118.890 117.240 114.409  1.00  0.00    -0.289 OA
ATOM      5  C   UNL     1     120.079 116.574 116.310  1.00  0.00     0.107 A 
ATOM      6  C   UNL     1     118.970 116.481 117.205  1.00  0.00     0.134 A 
ATOM      7  C   UNL     1     119.200 116.248 118.566  1.00  0.00     0.093 A 
ATOM      8  C   UNL     1     120.493 116.045 119.054  1.00  0.00     0.123 A 
ATOM      9  C   UNL     1     121.576 116.080 118.181  1.00  0.00     0.094 A 
ATOM     10  C   UNL     1     121.384 116.344 116.822  1.00  0.00     0.146 A 
ATOM     11  O   UNL     1     122.446 116.383 116.026  1.00  0.00    -0.456 OA
ENDROOT
BRANCH   1  12
ATOM     12  C   UNL     1     123.629 116.654 113.928  1.00  0.00     0.021 A 
ATOM     13  C   UNL     1     123.585 117.027 112.573  1.00  0.00     0.016 A 
ATOM     14  C   UNL     1     124.751 117.050 111.804  1.00  0.00     0.051 A 
ATOM     15  C   UNL     1     125.983 116.709 112.377  1.00  0.00     0.157 A 
ATOM     16  C   UNL     1     124.874 116.325 114.501  1.00  0.00     0.062 A 
ATOM     17  C   UNL     1     126.043 116.347 113.733  1.00  0.00     0.158 A 
BRANCH  15  18
ATOM     18  O   UNL     1     127.144 116.730 111.606  1.00  0.00    -0.504 OA
ATOM     19  H   UNL     1     127.112 116.653 110.596  1.00  0.00     0.293 HD
ENDBRANCH  15  18
BRANCH  17  20
ATOM     20  O   UNL     1     127.256 116.014 114.335  1.00  0.00    -0.504 OA
ATOM     21  H   UNL     1     127.583 116.473 115.176  1.00  0.00     0.293 HD
ENDBRANCH  17  20
ENDBRANCH   1  12
BRANCH   6  22
ATOM     22  O   UNL     1     117.634 116.585 116.805  1.00  0.00    -0.507 OA
ATOM     23  H   UNL     1     117.324 116.951 115.918  1.00  0.00     0.293 HD
ENDBRANCH   6  22
BRANCH   8  24
ATOM     24  O   UNL     1     120.710 115.799 120.408  1.00  0.00    -0.508 OA
ATOM     25  H   UNL     1     120.030 115.303 120.973  1.00  0.00     0.293 HD
ENDBRANCH   8  24
TORSDOF 5
ENDMDL
MODEL 6
REMARK VINA RESULT:    -6.635      5.927      8.469
REMARK INTER + INTRA:          -8.070
REMARK INTER:                  -7.753
REMARK INTRA:                  -0.317
REMARK UNBOUND:                -0.270
REMARK SMILES O=c1cc(-c2ccc(O)c(O)c2)oc2cc(O)cc(O)c12
REMARK SMILES IDX 4 1 3 2 2 3 1 4 21 5 19 6 18 7 16 8 15 9 14 10 13 11 5 12
REMARK SMILES IDX 6 13 7 14 8 15 12 16 10 17 9 18 11 20 20 22 17 24
REMARK H PARENT 9 19 11 21 20 23 17 25
REMARK Flexibility Score: inf
ROOT
ATOM      1  C   UNL     1     122.411 121.115 115.982  1.00  0.00     0.138 A 
ATOM      2  C   UNL     1     122.340 119.753 115.661  1.00  0.00     0.100 A 
ATOM      3  C   UNL     1     122.423 118.800 116.678  1.00  0.00     0.197 A 
ATOM      4  O   UNL     1     122.295 117.588 116.367  1.00  0.00    -0.289 OA
ATOM      5  C   UNL     1     122.608 119.215 118.018  1.00  0.00     0.107 A 
ATOM      6  C   UNL     1     122.747 118.332 119.131  1.00  0.00     0.134 A 
ATOM      7  C   UNL     1     122.808 118.859 120.427  1.00  0.00     0.093 A 
ATOM      8  C   UNL     1     122.798 120.240 120.644  1.00  0.00     0.123 A 
ATOM      9  C   UNL     1     122.717 121.110 119.561  1.00  0.00     0.094 A 
ATOM     10  C   UNL     1     122.619 120.615 118.258  1.00  0.00     0.146 A 
ATOM     11  O   UNL     1     122.529 121.480 117.254  1.00  0.00    -0.456 OA
ENDROOT
BRANCH   1  12
ATOM     12  C   UNL     1     122.329 122.170 114.940  1.00  0.00     0.021 A 
ATOM     13  C   UNL     1     121.995 121.815 113.621  1.00  0.00     0.016 A 
ATOM     14  C   UNL     1     121.903 122.790 112.625  1.00  0.00     0.051 A 
ATOM     15  C   UNL     1     122.135 124.137 112.929  1.00  0.00     0.157 A 
ATOM     16  C   UNL     1     122.548 123.529 115.242  1.00  0.00     0.062 A 
ATOM     17  C   UNL     1     122.456 124.507 114.246  1.00  0.00     0.158 A 
BRANCH  15  18
ATOM     18  O   UNL     1     122.045 125.107 111.932  1.00  0.00    -0.504 OA
ATOM     19  H   UNL     1     121.225 125.695 111.837  1.00  0.00     0.293 HD
ENDBRANCH  15  18
BRANCH  17  20
ATOM     20  O   UNL     1     122.681 125.841 114.583  1.00  0.00    -0.504 OA
ATOM     21  H   UNL     1     122.239 126.276 115.383  1.00  0.00     0.293 HD
ENDBRANCH  17  20
ENDBRANCH   1  12
BRANCH   6  22
ATOM     22  O   UNL     1     122.853 116.942 119.016  1.00  0.00    -0.507 OA
ATOM     23  H   UNL     1     122.829 116.432 118.147  1.00  0.00     0.293 HD
ENDBRANCH   6  22
BRANCH   8  24
ATOM     24  O   UNL     1     122.875 120.755 121.936  1.00  0.00    -0.508 OA
ATOM     25  H   UNL     1     122.068 121.169 122.391  1.00  0.00     0.293 HD
ENDBRANCH   8  24
TORSDOF 5
ENDMDL
MODEL 7
REMARK VINA RESULT:    -6.606      5.109      8.387
REMARK INTER + INTRA:          -8.035
REMARK INTER:                  -7.718
REMARK INTRA:                  -0.316
REMARK UNBOUND:                -0.270
REMARK SMILES O=c1cc(-c2ccc(O)c(O)c2)oc2cc(O)cc(O)c12
REMARK SMILES IDX 4 1 3 2 2 3 1 4 21 5 19 6 18 7 16 8 15 9 14 10 13 11 5 12
REMARK SMILES IDX 6 13 7 14 8 15 12 16 10 17 9 18 11 20 20 22 17 24
REMARK H PARENT 9 19 11 21 20 23 17 25
REMARK Flexibility Score: inf
ROOT
ATOM      1  C   UNL     1     116.664 117.891 116.085  1.00  0.00     0.138 A 
ATOM      2  C   UNL     1     116.633 119.268 115.828  1.00  0.00     0.100 A 
ATOM      3  C   UNL     1     116.554 120.166 116.893  1.00  0.00     0.197 A 
ATOM      4  O   UNL     1     116.590 121.397 116.636  1.00  0.00    -0.289 OA
ATOM      5  C   UNL     1     116.474 119.679 118.219  1.00  0.00     0.107 A 
ATOM      6  C   UNL     1     116.349 120.500 119.381  1.00  0.00     0.134 A 
ATOM      7  C   UNL     1     116.397 119.912 120.650  1.00  0.00     0.093 A 
ATOM      8  C   UNL     1     116.503 118.526 120.798  1.00  0.00     0.123 A 
ATOM      9  C   UNL     1     116.572 117.713 119.671  1.00  0.00     0.094 A 
ATOM     10  C   UNL     1     116.562 118.272 118.391  1.00  0.00     0.146 A 
ATOM     11  O   UNL     1     116.644 117.461 117.342  1.00  0.00    -0.456 OA
ENDROOT
BRANCH   1  12
ATOM     12  C   UNL     1     116.747 116.892 114.989  1.00  0.00     0.021 A 
ATOM     13  C   UNL     1     117.035 117.322 113.682  1.00  0.00     0.016 A 
ATOM     14  C   UNL     1     117.126 116.401 112.635  1.00  0.00     0.051 A 
ATOM     15  C   UNL     1     116.942 115.034 112.877  1.00  0.00     0.157 A 
ATOM     16  C   UNL     1     116.576 115.514 115.228  1.00  0.00     0.062 A 
ATOM     17  C   UNL     1     116.668 114.589 114.181  1.00  0.00     0.158 A 
BRANCH  15  18
ATOM     18  O   UNL     1     117.032 114.118 111.830  1.00  0.00    -0.504 OA
ATOM     19  H   UNL     1     117.917 113.702 111.564  1.00  0.00     0.293 HD
ENDBRANCH  15  18
BRANCH  17  20
ATOM     20  O   UNL     1     116.491 113.234 114.457  1.00  0.00    -0.504 OA
ATOM     21  H   UNL     1     116.022 112.610 113.812  1.00  0.00     0.293 HD
ENDBRANCH  17  20
ENDBRANCH   1  12
BRANCH   6  22
ATOM     22  O   UNL     1     116.153 121.885 119.341  1.00  0.00    -0.507 OA
ATOM     23  H   UNL     1     115.316 122.357 119.644  1.00  0.00     0.293 HD
ENDBRANCH   6  22
BRANCH   8  24
ATOM     24  O   UNL     1     116.535 117.949 122.066  1.00  0.00    -0.508 OA
ATOM     25  H   UNL     1     117.409 117.681 122.505  1.00  0.00     0.293 HD
ENDBRANCH   8  24
TORSDOF 5
ENDMDL
MODEL 8
REMARK VINA RESULT:    -6.604      1.720      6.925
REMARK INTER + INTRA:          -8.033
REMARK INTER:                  -7.715
REMARK INTRA:                  -0.318
REMARK UNBOUND:                -0.270
REMARK SMILES O=c1cc(-c2ccc(O)c(O)c2)oc2cc(O)cc(O)c12
REMARK SMILES IDX 4 1 3 2 2 3 1 4 21 5 19 6 18 7 16 8 15 9 14 10 13 11 5 12
REMARK SMILES IDX 6 13 7 14 8 15 12 16 10 17 9 18 11 20 20 22 17 24
REMARK H PARENT 9 19 11 21 20 23 17 25
REMARK Flexibility Score: inf
ROOT
ATOM      1  C   UNL     1     118.013 122.365 115.965  1.00  0.00     0.138 A 
ATOM      2  C   UNL     1     119.360 122.162 115.636  1.00  0.00     0.100 A 
ATOM      3  C   UNL     1     120.331 122.221 116.636  1.00  0.00     0.197 A 
ATOM      4  O   UNL     1     121.524 121.974 116.321  1.00  0.00    -0.289 OA
ATOM      5  C   UNL     1     119.953 122.517 117.967  1.00  0.00     0.107 A 
ATOM      6  C   UNL     1     120.861 122.644 119.061  1.00  0.00     0.134 A 
ATOM      7  C   UNL     1     120.360 122.823 120.356  1.00  0.00     0.093 A 
ATOM      8  C   UNL     1     118.988 122.941 120.588  1.00  0.00     0.123 A 
ATOM      9  C   UNL     1     118.097 122.873 119.521  1.00  0.00     0.094 A 
ATOM     10  C   UNL     1     118.563 122.660 118.220  1.00  0.00     0.146 A 
ATOM     11  O   UNL     1     117.678 122.586 117.232  1.00  0.00    -0.456 OA
ENDROOT
BRANCH   1  12
ATOM     12  C   UNL     1     116.940 122.314 114.941  1.00  0.00     0.021 A 
ATOM     13  C   UNL     1     117.266 121.983 113.614  1.00  0.00     0.016 A 
ATOM     14  C   UNL     1     116.273 121.919 112.633  1.00  0.00     0.051 A 
ATOM     15  C   UNL     1     114.936 122.176 112.961  1.00  0.00     0.157 A 
ATOM     16  C   UNL     1     115.591 122.557 115.267  1.00  0.00     0.062 A 
ATOM     17  C   UNL     1     114.594 122.494 114.286  1.00  0.00     0.158 A 
BRANCH  15  18
ATOM     18  O   UNL     1     113.948 122.114 111.980  1.00  0.00    -0.504 OA
ATOM     19  H   UNL     1     113.219 122.815 111.916  1.00  0.00     0.293 HD
ENDBRANCH  15  18
BRANCH  17  20
ATOM     20  O   UNL     1     113.271 122.743 114.648  1.00  0.00    -0.504 OA
ATOM     21  H   UNL     1     113.022 123.455 115.322  1.00  0.00     0.293 HD
ENDBRANCH  17  20
ENDBRANCH   1  12
BRANCH   6  22
ATOM     22  O   UNL     1     122.253 122.625 118.927  1.00  0.00    -0.507 OA
ATOM     23  H   UNL     1     122.907 122.693 119.690  1.00  0.00     0.293 HD
ENDBRANCH   6  22
BRANCH   8  24
ATOM     24  O   UNL     1     118.500 123.135 121.878  1.00  0.00    -0.508 OA
ATOM     25  H   UNL     1     119.094 123.478 122.625  1.00  0.00     0.293 HD
ENDBRANCH   8  24
TORSDOF 5
ENDMDL
MODEL 9
REMARK VINA RESULT:    -6.594      6.192      8.846
REMARK INTER + INTRA:          -8.020
REMARK INTER:                  -7.703
REMARK INTRA:                  -0.318
REMARK UNBOUND:                -0.270
REMARK SMILES O=c1cc(-c2ccc(O)c(O)c2)oc2cc(O)cc(O)c12
REMARK SMILES IDX 4 1 3 2 2 3 1 4 21 5 19 6 18 7 16 8 15 9 14 10 13 11 5 12
REMARK SMILES IDX 6 13 7 14 8 15 12 16 10 17 9 18 11 20 20 22 17 24
REMARK H PARENT 9 19 11 21 20 23 17 25
REMARK Flexibility Score: inf
ROOT
ATOM      1  C   UNL     1     116.616 116.581 114.677  1.00  0.00     0.138 A 
ATOM      2  C   UNL     1     116.907 117.818 114.086  1.00  0.00     0.100 A 
ATOM      3  C   UNL     1     116.889 118.975 114.866  1.00  0.00     0.197 A 
ATOM      4  O   UNL     1     117.214 120.062 114.322  1.00  0.00    -0.289 OA
ATOM      5  C   UNL     1     116.547 118.895 116.236  1.00  0.00     0.107 A 
ATOM      6  C   UNL     1     116.455 120.014 117.119  1.00  0.00     0.134 A 
ATOM      7  C   UNL     1     116.222 119.800 118.483  1.00  0.00     0.093 A 
ATOM      8  C   UNL     1     116.016 118.512 118.985  1.00  0.00     0.123 A 
ATOM      9  C   UNL     1     116.050 117.419 118.124  1.00  0.00     0.094 A 
ATOM     10  C   UNL     1     116.315 117.596 116.763  1.00  0.00     0.146 A 
ATOM     11  O   UNL     1     116.352 116.525 115.978  1.00  0.00    -0.456 OA
ENDROOT
BRANCH   1  12
ATOM     12  C   UNL     1     116.620 115.319 113.894  1.00  0.00     0.021 A 
ATOM     13  C   UNL     1     117.010 115.344 112.543  1.00  0.00     0.016 A 
ATOM     14  C   UNL     1     117.030 114.170 111.787  1.00  0.00     0.051 A 
ATOM     15  C   UNL     1     116.672 112.947 112.369  1.00  0.00     0.157 A 
ATOM     16  C   UNL     1     116.274 114.083 114.477  1.00  0.00     0.062 A 
ATOM     17  C   UNL     1     116.295 112.905 113.722  1.00  0.00     0.158 A 
BRANCH  15  18
ATOM     18  O   UNL     1     116.692 111.777 111.612  1.00  0.00    -0.504 OA
ATOM     19  H   UNL     1     116.115 111.670 110.786  1.00  0.00     0.293 HD
ENDBRANCH  15  18
BRANCH  17  20
ATOM     20  O   UNL     1     115.944 111.703 114.334  1.00  0.00    -0.504 OA
ATOM     21  H   UNL     1     115.830 110.845 113.809  1.00  0.00     0.293 HD
ENDBRANCH  17  20
ENDBRANCH   1  12
BRANCH   6  22
ATOM     22  O   UNL     1     116.561 121.345 116.704  1.00  0.00    -0.507 OA
ATOM     23  H   UNL     1     115.811 121.885 116.300  1.00  0.00     0.293 HD
ENDBRANCH   6  22
BRANCH   8  24
ATOM     24  O   UNL     1     115.770 118.311 120.341  1.00  0.00    -0.508 OA
ATOM     25  H   UNL     1     115.592 119.087 120.969  1.00  0.00     0.293 HD
ENDBRANCH   8  24
TORSDOF 5
ENDMDL
