MODEL 1
REMARK VINA RESULT:    -5.067      0.000      0.000
REMARK INTER + INTRA:          -5.569
REMARK INTER:                  -5.512
REMARK INTRA:                  -0.058
REMARK UNBOUND:                -0.058
REMARK SMILES COc1cc2ccc(=O)oc2cc1O
REMARK SMILES IDX 3 1 13 2 12 3 11 4 5 5 4 6 6 7 7 8 8 9 9 10 10 11 2 12 1 13
REMARK SMILES IDX 14 14
REMARK H PARENT 14 15
REMARK Flexibility Score: inf
ROOT
ATOM      1  C   UNL     1      -6.985 -23.501 -21.219  1.00  0.00     0.161 A 
ATOM      2  C   UNL     1      -8.044 -24.255 -20.689  1.00  0.00     0.161 A 
ATOM      3  C   UNL     1      -8.339 -24.195 -19.319  1.00  0.00     0.098 A 
ATOM      4  C   UNL     1      -7.582 -23.385 -18.470  1.00  0.00     0.142 A 
ATOM      5  C   UNL     1      -6.516 -22.624 -18.994  1.00  0.00     0.022 A 
ATOM      6  C   UNL     1      -6.220 -22.683 -20.363  1.00  0.00     0.062 A 
ATOM      7  C   UNL     1      -5.777 -21.822 -18.119  1.00  0.00     0.019 A 
ATOM      8  C   UNL     1      -6.111 -21.797 -16.765  1.00  0.00     0.094 A 
ATOM      9  C   UNL     1      -7.181 -22.579 -16.317  1.00  0.00     0.336 A 
ATOM     10  O   UNL     1      -7.499 -22.570 -15.099  1.00  0.00    -0.246 OA
ATOM     11  O   UNL     1      -7.868 -23.333 -17.171  1.00  0.00    -0.423 OA
ENDROOT
BRANCH   1  12
ATOM     12  O   UNL     1      -6.724 -23.591 -22.596  1.00  0.00    -0.493 OA
ATOM     13  C   UNL     1      -6.669 -22.477 -23.480  1.00  0.00     0.278 C 
ENDBRANCH   1  12
BRANCH   2  14
ATOM     14  O   UNL     1      -8.800 -25.064 -21.535  1.00  0.00    -0.504 OA
ATOM     15  H   UNL     1      -9.493 -24.673 -22.162  1.00  0.00     0.293 HD
ENDBRANCH   2  14
TORSDOF 2
ENDMDL
MODEL 2
REMARK VINA RESULT:    -4.995      1.700      2.794
REMARK INTER + INTRA:          -5.491
REMARK INTER:                  -5.431
REMARK INTRA:                  -0.060
REMARK UNBOUND:                -0.058
REMARK SMILES COc1cc2ccc(=O)oc2cc1O
REMARK SMILES IDX 3 1 13 2 12 3 11 4 5 5 4 6 6 7 7 8 8 9 9 10 10 11 2 12 1 13
REMARK SMILES IDX 14 14
REMARK H PARENT 14 15
REMARK Flexibility Score: inf
ROOT
ATOM      1  C   UNL     1      -7.130 -22.445 -22.498  1.00  0.00     0.161 A 
ATOM      2  C   UNL     1      -5.886 -22.093 -21.951  1.00  0.00     0.161 A 
ATOM      3  C   UNL     1      -5.662 -22.208 -20.571  1.00  0.00     0.098 A 
ATOM      4  C   UNL     1      -6.674 -22.673 -19.729  1.00  0.00     0.142 A 
ATOM      5  C   UNL     1      -7.927 -23.030 -20.270  1.00  0.00     0.022 A 
ATOM      6  C   UNL     1      -8.153 -22.916 -21.648  1.00  0.00     0.062 A 
ATOM      7  C   UNL     1      -8.920 -23.492 -19.401  1.00  0.00     0.019 A 
ATOM      8  C   UNL     1      -8.646 -23.589 -18.036  1.00  0.00     0.094 A 
ATOM      9  C   UNL     1      -7.381 -23.216 -17.572  1.00  0.00     0.336 A 
ATOM     10  O   UNL     1      -7.113 -23.295 -16.345  1.00  0.00    -0.246 OA
ATOM     11  O   UNL     1      -6.453 -22.779 -18.421  1.00  0.00    -0.423 OA
ENDROOT
BRANCH   1  12
ATOM     12  O   UNL     1      -7.312 -22.316 -23.884  1.00  0.00    -0.493 OA
ATOM     13  C   UNL     1      -8.289 -21.481 -24.495  1.00  0.00     0.278 C 
ENDBRANCH   1  12
BRANCH   2  14
ATOM     14  O   UNL     1      -4.875 -21.628 -22.790  1.00  0.00    -0.504 OA
ATOM     15  H   UNL     1      -5.080 -21.244 -23.705  1.00  0.00     0.293 HD
ENDBRANCH   2  14
TORSDOF 2
ENDMDL
MODEL 3
REMARK VINA RESULT:    -4.940      1.496      2.661
REMARK INTER + INTRA:          -5.431
REMARK INTER:                  -5.374
REMARK INTRA:                  -0.057
REMARK UNBOUND:                -0.058
REMARK SMILES COc1cc2ccc(=O)oc2cc1O
REMARK SMILES IDX 3 1 13 2 12 3 11 4 5 5 4 6 6 7 7 8 8 9 9 10 10 11 2 12 1 13
REMARK SMILES IDX 14 14
REMARK H PARENT 14 15
REMARK Flexibility Score: inf
ROOT
ATOM      1  C   UNL     1      -8.604 -24.187 -20.243  1.00  0.00     0.161 A 
ATOM      2  C   UNL     1      -7.582 -23.527 -20.943  1.00  0.00     0.161 A 
ATOM      3  C   UNL     1      -6.630 -22.764 -20.251  1.00  0.00     0.098 A 
ATOM      4  C   UNL     1      -6.690 -22.653 -18.861  1.00  0.00     0.142 A 
ATOM      5  C   UNL     1      -7.714 -23.314 -18.149  1.00  0.00     0.022 A 
ATOM      6  C   UNL     1      -8.666 -24.077 -18.838  1.00  0.00     0.062 A 
ATOM      7  C   UNL     1      -7.747 -23.184 -16.757  1.00  0.00     0.019 A 
ATOM      8  C   UNL     1      -6.777 -22.414 -16.117  1.00  0.00     0.094 A 
ATOM      9  C   UNL     1      -5.792 -21.788 -16.888  1.00  0.00     0.336 A 
ATOM     10  O   UNL     1      -4.907 -21.088 -16.330  1.00  0.00    -0.246 OA
ATOM     11  O   UNL     1      -5.783 -21.927 -18.212  1.00  0.00    -0.423 OA
ENDROOT
BRANCH   1  12
ATOM     12  O   UNL     1      -9.536 -24.941 -20.974  1.00  0.00    -0.493 OA
ATOM     13  C   UNL     1      -9.442 -26.344 -21.197  1.00  0.00     0.278 C 
ENDBRANCH   1  12
BRANCH   2  14
ATOM     14  O   UNL     1      -7.520 -23.636 -22.331  1.00  0.00    -0.504 OA
ATOM     15  H   UNL     1      -7.275 -22.844 -22.914  1.00  0.00     0.293 HD
ENDBRANCH   2  14
TORSDOF 2
ENDMDL
MODEL 4
REMARK VINA RESULT:    -4.926      1.612      4.640
REMARK INTER + INTRA:          -5.415
REMARK INTER:                  -5.357
REMARK INTRA:                  -0.058
REMARK UNBOUND:                -0.058
REMARK SMILES COc1cc2ccc(=O)oc2cc1O
REMARK SMILES IDX 3 1 13 2 12 3 11 4 5 5 4 6 6 7 7 8 8 9 9 10 10 11 2 12 1 13
REMARK SMILES IDX 14 14
REMARK H PARENT 14 15
REMARK Flexibility Score: inf
ROOT
ATOM      1  C   UNL     1      -6.217 -22.168 -17.797  1.00  0.00     0.161 A 
ATOM      2  C   UNL     1      -7.338 -22.616 -17.081  1.00  0.00     0.161 A 
ATOM      3  C   UNL     1      -8.248 -23.503 -17.674  1.00  0.00     0.098 A 
ATOM      4  C   UNL     1      -8.048 -23.948 -18.981  1.00  0.00     0.142 A 
ATOM      5  C   UNL     1      -6.923 -23.504 -19.709  1.00  0.00     0.022 A 
ATOM      6  C   UNL     1      -6.013 -22.617 -19.118  1.00  0.00     0.062 A 
ATOM      7  C   UNL     1      -6.751 -23.968 -21.017  1.00  0.00     0.019 A 
ATOM      8  C   UNL     1      -7.685 -24.850 -21.560  1.00  0.00     0.094 A 
ATOM      9  C   UNL     1      -8.775 -25.247 -20.779  1.00  0.00     0.336 A 
ATOM     10  O   UNL     1      -9.629 -26.042 -21.251  1.00  0.00    -0.246 OA
ATOM     11  O   UNL     1      -8.916 -24.790 -19.537  1.00  0.00    -0.423 OA
ENDROOT
BRANCH   1  12
ATOM     12  O   UNL     1      -5.330 -21.280 -17.166  1.00  0.00    -0.493 OA
ATOM     13  C   UNL     1      -4.964 -20.005 -17.679  1.00  0.00     0.278 C 
ENDBRANCH   1  12
BRANCH   2  14
ATOM     14  O   UNL     1      -7.540 -22.172 -15.775  1.00  0.00    -0.504 OA
ATOM     15  H   UNL     1      -7.209 -22.703 -14.978  1.00  0.00     0.293 HD
ENDBRANCH   2  14
TORSDOF 2
ENDMDL
MODEL 5
REMARK VINA RESULT:    -4.856      1.788      5.425
REMARK INTER + INTRA:          -5.339
REMARK INTER:                  -5.274
REMARK INTRA:                  -0.065
REMARK UNBOUND:                -0.058
REMARK SMILES COc1cc2ccc(=O)oc2cc1O
REMARK SMILES IDX 3 1 13 2 12 3 11 4 5 5 4 6 6 7 7 8 8 9 9 10 10 11 2 12 1 13
REMARK SMILES IDX 14 14
REMARK H PARENT 14 15
REMARK Flexibility Score: inf
ROOT
ATOM      1  C   UNL     1      -6.752 -22.555 -17.596  1.00  0.00     0.161 A 
ATOM      2  C   UNL     1      -5.546 -22.032 -18.088  1.00  0.00     0.161 A 
ATOM      3  C   UNL     1      -5.020 -22.492 -19.305  1.00  0.00     0.098 A 
ATOM      4  C   UNL     1      -5.691 -23.474 -20.036  1.00  0.00     0.142 A 
ATOM      5  C   UNL     1      -6.904 -24.005 -19.548  1.00  0.00     0.022 A 
ATOM      6  C   UNL     1      -7.431 -23.547 -18.334  1.00  0.00     0.062 A 
ATOM      7  C   UNL     1      -7.552 -24.988 -20.304  1.00  0.00     0.019 A 
ATOM      8  C   UNL     1      -6.987 -25.411 -21.507  1.00  0.00     0.094 A 
ATOM      9  C   UNL     1      -5.782 -24.839 -21.927  1.00  0.00     0.336 A 
ATOM     10  O   UNL     1      -5.255 -25.206 -23.010  1.00  0.00    -0.246 OA
ATOM     11  O   UNL     1      -5.185 -23.906 -21.189  1.00  0.00    -0.423 OA
ENDROOT
BRANCH   1  12
ATOM     12  O   UNL     1      -7.243 -22.066 -16.374  1.00  0.00    -0.493 OA
ATOM     13  C   UNL     1      -7.113 -22.737 -15.126  1.00  0.00     0.278 C 
ENDBRANCH   1  12
BRANCH   2  14
ATOM     14  O   UNL     1      -4.875 -21.052 -17.360  1.00  0.00    -0.504 OA
ATOM     15  H   UNL     1      -5.333 -20.537 -16.617  1.00  0.00     0.293 HD
ENDBRANCH   2  14
TORSDOF 2
ENDMDL
MODEL 6
REMARK VINA RESULT:    -4.775      2.565      5.133
REMARK INTER + INTRA:          -5.252
REMARK INTER:                  -5.194
REMARK INTRA:                  -0.058
REMARK UNBOUND:                -0.058
REMARK SMILES COc1cc2ccc(=O)oc2cc1O
REMARK SMILES IDX 3 1 13 2 12 3 11 4 5 5 4 6 6 7 7 8 8 9 9 10 10 11 2 12 1 13
REMARK SMILES IDX 14 14
REMARK H PARENT 14 15
REMARK Flexibility Score: inf
ROOT
ATOM      1  C   UNL     1      -6.337 -24.048 -21.000  1.00  0.00     0.161 A 
ATOM      2  C   UNL     1      -7.345 -23.550 -20.159  1.00  0.00     0.161 A 
ATOM      3  C   UNL     1      -8.261 -22.602 -20.637  1.00  0.00     0.098 A 
ATOM      4  C   UNL     1      -8.179 -22.143 -21.953  1.00  0.00     0.142 A 
ATOM      5  C   UNL     1      -7.169 -22.638 -22.806  1.00  0.00     0.022 A 
ATOM      6  C   UNL     1      -6.253 -23.586 -22.330  1.00  0.00     0.062 A 
ATOM      7  C   UNL     1      -7.113 -22.160 -24.118  1.00  0.00     0.019 A 
ATOM      8  C   UNL     1      -8.048 -21.217 -24.545  1.00  0.00     0.094 A 
ATOM      9  C   UNL     1      -9.020 -20.772 -23.643  1.00  0.00     0.336 A 
ATOM     10  O   UNL     1      -9.873 -19.921 -24.008  1.00  0.00    -0.246 OA
ATOM     11  O   UNL     1      -9.052 -21.243 -22.399  1.00  0.00    -0.423 OA
ENDROOT
BRANCH   1  12
ATOM     12  O   UNL     1      -5.442 -24.997 -20.481  1.00  0.00    -0.493 OA
ATOM     13  C   UNL     1      -5.213 -26.283 -21.046  1.00  0.00     0.278 C 
ENDBRANCH   1  12
BRANCH   2  14
ATOM     14  O   UNL     1      -7.429 -24.006 -18.845  1.00  0.00    -0.504 OA
ATOM     15  H   UNL     1      -7.537 -24.991 -18.631  1.00  0.00     0.293 HD
ENDBRANCH   2  14
TORSDOF 2
ENDMDL
MODEL 7
REMARK VINA RESULT:    -4.744      2.496      4.113
REMARK INTER + INTRA:          -5.217
REMARK INTER:                  -5.166
REMARK INTRA:                  -0.051
REMARK UNBOUND:                -0.058
REMARK SMILES COc1cc2ccc(=O)oc2cc1O
REMARK SMILES IDX 3 1 13 2 12 3 11 4 5 5 4 6 6 7 7 8 8 9 9 10 10 11 2 12 1 13
REMARK SMILES IDX 14 14
REMARK H PARENT 14 15
REMARK Flexibility Score: inf
ROOT
ATOM      1  C   UNL     1      -7.912 -21.543 -23.941  1.00  0.00     0.161 A 
ATOM      2  C   UNL     1      -6.601 -22.016 -24.110  1.00  0.00     0.161 A 
ATOM      3  C   UNL     1      -5.979 -22.757 -23.095  1.00  0.00     0.098 A 
ATOM      4  C   UNL     1      -6.658 -23.031 -21.906  1.00  0.00     0.142 A 
ATOM      5  C   UNL     1      -7.976 -22.559 -21.727  1.00  0.00     0.022 A 
ATOM      6  C   UNL     1      -8.599 -21.819 -22.741  1.00  0.00     0.062 A 
ATOM      7  C   UNL     1      -8.630 -22.850 -20.526  1.00  0.00     0.019 A 
ATOM      8  C   UNL     1      -7.968 -23.592 -19.547  1.00  0.00     0.094 A 
ATOM      9  C   UNL     1      -6.661 -24.025 -19.794  1.00  0.00     0.336 A 
ATOM     10  O   UNL     1      -6.046 -24.696 -18.925  1.00  0.00    -0.246 OA
ATOM     11  O   UNL     1      -6.062 -23.735 -20.947  1.00  0.00    -0.423 OA
ENDROOT
BRANCH   1  12
ATOM     12  O   UNL     1      -8.496 -20.805 -24.983  1.00  0.00    -0.493 OA
ATOM     13  C   UNL     1      -9.313 -19.655 -24.797  1.00  0.00     0.278 C 
ENDBRANCH   1  12
BRANCH   2  14
ATOM     14  O   UNL     1      -5.921 -21.743 -25.296  1.00  0.00    -0.504 OA
ATOM     15  H   UNL     1      -5.308 -22.427 -25.725  1.00  0.00     0.293 HD
ENDBRANCH   2  14
TORSDOF 2
ENDMDL
MODEL 8
REMARK VINA RESULT:    -4.741      2.121      3.345
REMARK INTER + INTRA:          -5.214
REMARK INTER:                  -5.170
REMARK INTRA:                  -0.044
REMARK UNBOUND:                -0.058
REMARK SMILES COc1cc2ccc(=O)oc2cc1O
REMARK SMILES IDX 3 1 13 2 12 3 11 4 5 5 4 6 6 7 7 8 8 9 9 10 10 11 2 12 1 13
REMARK SMILES IDX 14 14
REMARK H PARENT 14 15
REMARK Flexibility Score: inf
ROOT
ATOM      1  C   UNL     1      -6.309 -22.251 -23.810  1.00  0.00     0.161 A 
ATOM      2  C   UNL     1      -7.672 -21.915 -23.783  1.00  0.00     0.161 A 
ATOM      3  C   UNL     1      -8.429 -22.125 -22.621  1.00  0.00     0.098 A 
ATOM      4  C   UNL     1      -7.835 -22.671 -21.482  1.00  0.00     0.142 A 
ATOM      5  C   UNL     1      -6.466 -23.011 -21.500  1.00  0.00     0.022 A 
ATOM      6  C   UNL     1      -5.708 -22.802 -22.660  1.00  0.00     0.062 A 
ATOM      7  C   UNL     1      -5.900 -23.555 -20.343  1.00  0.00     0.019 A 
ATOM      8  C   UNL     1      -6.696 -23.743 -19.213  1.00  0.00     0.094 A 
ATOM      9  C   UNL     1      -8.046 -23.383 -19.269  1.00  0.00     0.336 A 
ATOM     10  O   UNL     1      -8.782 -23.545 -18.261  1.00  0.00    -0.246 OA
ATOM     11  O   UNL     1      -8.560 -22.867 -20.383  1.00  0.00    -0.423 OA
ENDROOT
BRANCH   1  12
ATOM     12  O   UNL     1      -5.588 -22.024 -24.993  1.00  0.00    -0.493 OA
ATOM     13  C   UNL     1      -4.879 -20.825 -25.288  1.00  0.00     0.278 C 
ENDBRANCH   1  12
BRANCH   2  14
ATOM     14  O   UNL     1      -8.267 -21.371 -24.920  1.00  0.00    -0.504 OA
ATOM     15  H   UNL     1      -8.880 -21.920 -25.512  1.00  0.00     0.293 HD
ENDBRANCH   2  14
TORSDOF 2
ENDMDL
MODEL 9
REMARK VINA RESULT:    -4.667      1.221      4.890
REMARK INTER + INTRA:          -5.134
REMARK INTER:                  -5.070
REMARK INTRA:                  -0.065
REMARK UNBOUND:                -0.058
REMARK SMILES COc1cc2ccc(=O)oc2cc1O
REMARK SMILES IDX 3 1 13 2 12 3 11 4 5 5 4 6 6 7 7 8 8 9 9 10 10 11 2 12 1 13
REMARK SMILES IDX 14 14
REMARK H PARENT 14 15
REMARK Flexibility Score: inf
ROOT
ATOM      1  C   UNL     1      -6.895 -22.436 -17.338  1.00  0.00     0.161 A 
ATOM      2  C   UNL     1      -7.810 -23.380 -17.829  1.00  0.00     0.161 A 
ATOM      3  C   UNL     1      -7.844 -23.690 -19.196  1.00  0.00     0.098 A 
ATOM      4  C   UNL     1      -6.967 -23.060 -20.082  1.00  0.00     0.142 A 
ATOM      5  C   UNL     1      -6.043 -22.110 -19.598  1.00  0.00     0.022 A 
ATOM      6  C   UNL     1      -6.008 -21.800 -18.232  1.00  0.00     0.062 A 
ATOM      7  C   UNL     1      -5.178 -21.498 -20.510  1.00  0.00     0.019 A 
ATOM      8  C   UNL     1      -5.251 -21.841 -21.861  1.00  0.00     0.094 A 
ATOM      9  C   UNL     1      -6.193 -22.791 -22.268  1.00  0.00     0.336 A 
ATOM     10  O   UNL     1      -6.275 -23.115 -23.481  1.00  0.00    -0.246 OA
ATOM     11  O   UNL     1      -7.005 -23.359 -21.379  1.00  0.00    -0.423 OA
ENDROOT
BRANCH   1  12
ATOM     12  O   UNL     1      -6.895 -22.156 -15.962  1.00  0.00    -0.493 OA
ATOM     13  C   UNL     1      -5.883 -22.577 -15.054  1.00  0.00     0.278 C 
ENDBRANCH   1  12
BRANCH   2  14
ATOM     14  O   UNL     1      -8.687 -24.009 -16.946  1.00  0.00    -0.504 OA
ATOM     15  H   UNL     1      -8.793 -25.016 -16.932  1.00  0.00     0.293 HD
ENDBRANCH   2  14
TORSDOF 2
ENDMDL
