MODEL 1
REMARK VINA RESULT:    22.002      0.000      0.000
REMARK INTER + INTRA:          26.191
REMARK INTER:                  26.504
REMARK INTRA:                  -0.312
REMARK UNBOUND:                -0.312
REMARK SMILES Oc1cc(O)c2cc(O)c(-c3ccc(O)c(O)c3)[o+]c2c1
REMARK SMILES IDX 10 1 19 2 20 3 21 4 2 5 3 6 4 7 6 8 7 9 8 10 11 11 12 12
REMARK SMILES IDX 13 13 14 14 18 15 16 16 15 17 17 19 9 21 1 23 5 25
REMARK H PARENT 15 18 17 20 9 22 1 24 5 26
REMARK Flexibility Score: inf
ROOT
ATOM      1  C   UNL     1      -6.510  -7.579  15.781  1.00  0.00     0.402 A 
ATOM      2  O   UNL     1      -6.171  -8.586  16.582  1.00  0.00    -0.202 OA
ATOM      3  C   UNL     1      -6.370  -9.863  16.274  1.00  0.00     0.368 A 
ATOM      4  C   UNL     1      -5.982 -10.851  17.183  1.00  0.00     0.162 A 
ATOM      5  C   UNL     1      -6.183 -12.199  16.889  1.00  0.00     0.128 A 
ATOM      6  C   UNL     1      -6.779 -12.566  15.676  1.00  0.00     0.093 A 
ATOM      7  C   UNL     1      -7.177 -11.596  14.749  1.00  0.00     0.136 A 
ATOM      8  C   UNL     1      -6.972 -10.223  15.044  1.00  0.00     0.125 A 
ATOM      9  C   UNL     1      -7.328  -9.184  14.169  1.00  0.00     0.078 A 
ATOM     10  C   UNL     1      -7.090  -7.854  14.527  1.00  0.00     0.223 A 
ENDROOT
BRANCH   1  11
ATOM     11  C   UNL     1      -6.244  -6.197  16.241  1.00  0.00     0.087 A 
ATOM     12  C   UNL     1      -4.960  -5.631  16.156  1.00  0.00     0.022 A 
ATOM     13  C   UNL     1      -4.740  -4.316  16.575  1.00  0.00     0.051 A 
ATOM     14  C   UNL     1      -5.798  -3.545  17.074  1.00  0.00     0.157 A 
ATOM     15  C   UNL     1      -7.306  -5.414  16.722  1.00  0.00     0.068 A 
ATOM     16  C   UNL     1      -7.088  -4.097  17.144  1.00  0.00     0.158 A 
BRANCH  14  17
ATOM     17  O   UNL     1      -5.573  -2.235  17.494  1.00  0.00    -0.504 OA
ATOM     18  H   UNL     1      -6.303  -1.533  17.457  1.00  0.00     0.293 HD
ENDBRANCH  14  17
BRANCH  16  19
ATOM     19  O   UNL     1      -8.163  -3.354  17.628  1.00  0.00    -0.504 OA
ATOM     20  H   UNL     1      -8.041  -2.603  18.296  1.00  0.00     0.293 HD
ENDBRANCH  16  19
ENDBRANCH   1  11
BRANCH  10  21
ATOM     21  O   UNL     1      -7.397  -6.824  13.639  1.00  0.00    -0.500 OA
ATOM     22  H   UNL     1      -6.898  -5.942  13.651  1.00  0.00     0.294 HD
ENDBRANCH  10  21
BRANCH   5  23
ATOM     23  O   UNL     1      -5.788 -13.168  17.808  1.00  0.00    -0.507 OA
ATOM     24  H   UNL     1      -4.816 -13.286  18.069  1.00  0.00     0.293 HD
ENDBRANCH   5  23
BRANCH   7  25
ATOM     25  O   UNL     1      -7.768 -12.044  13.563  1.00  0.00    -0.507 OA
ATOM     26  H   UNL     1      -8.658 -12.516  13.513  1.00  0.00     0.293 HD
ENDBRANCH   7  25
TORSDOF 6
ENDMDL
MODEL 2
REMARK VINA RESULT:    22.357      1.142      2.648
REMARK INTER + INTRA:          26.619
REMARK INTER:                  26.929
REMARK INTRA:                  -0.311
REMARK UNBOUND:                -0.312
REMARK SMILES Oc1cc(O)c2cc(O)c(-c3ccc(O)c(O)c3)[o+]c2c1
REMARK SMILES IDX 10 1 19 2 20 3 21 4 2 5 3 6 4 7 6 8 7 9 8 10 11 11 12 12
REMARK SMILES IDX 13 13 14 14 18 15 16 16 15 17 17 19 9 21 1 23 5 25
REMARK H PARENT 15 18 17 20 9 22 1 24 5 26
REMARK Flexibility Score: inf
ROOT
ATOM      1  C   UNL     1      -6.083  -7.386  16.499  1.00  0.00     0.402 A 
ATOM      2  O   UNL     1      -6.782  -7.834  15.460  1.00  0.00    -0.202 OA
ATOM      3  C   UNL     1      -7.050  -9.120  15.260  1.00  0.00     0.368 A 
ATOM      4  C   UNL     1      -7.791  -9.493  14.136  1.00  0.00     0.162 A 
ATOM      5  C   UNL     1      -8.083 -10.836  13.898  1.00  0.00     0.128 A 
ATOM      6  C   UNL     1      -7.631 -11.816  14.789  1.00  0.00     0.093 A 
ATOM      7  C   UNL     1      -6.887 -11.468  15.923  1.00  0.00     0.136 A 
ATOM      8  C   UNL     1      -6.589 -10.102  16.169  1.00  0.00     0.125 A 
ATOM      9  C   UNL     1      -5.861  -9.660  17.286  1.00  0.00     0.078 A 
ATOM     10  C   UNL     1      -5.611  -8.297  17.464  1.00  0.00     0.223 A 
ENDROOT
BRANCH   1  11
ATOM     11  C   UNL     1      -5.843  -5.928  16.607  1.00  0.00     0.087 A 
ATOM     12  C   UNL     1      -4.587  -5.369  16.314  1.00  0.00     0.022 A 
ATOM     13  C   UNL     1      -4.392  -3.988  16.400  1.00  0.00     0.051 A 
ATOM     14  C   UNL     1      -5.449  -3.146  16.768  1.00  0.00     0.157 A 
ATOM     15  C   UNL     1      -6.905  -5.078  16.956  1.00  0.00     0.068 A 
ATOM     16  C   UNL     1      -6.712  -3.694  17.044  1.00  0.00     0.158 A 
BRANCH  14  17
ATOM     17  O   UNL     1      -5.249  -1.769  16.856  1.00  0.00    -0.504 OA
ATOM     18  H   UNL     1      -5.788  -1.194  17.494  1.00  0.00     0.293 HD
ENDBRANCH  14  17
BRANCH  16  19
ATOM     19  O   UNL     1      -7.786  -2.883  17.406  1.00  0.00    -0.504 OA
ATOM     20  H   UNL     1      -8.744  -3.213  17.375  1.00  0.00     0.293 HD
ENDBRANCH  16  19
ENDBRANCH   1  11
BRANCH  10  21
ATOM     21  O   UNL     1      -4.930  -7.852  18.598  1.00  0.00    -0.500 OA
ATOM     22  H   UNL     1      -4.919  -8.390  19.457  1.00  0.00     0.294 HD
ENDBRANCH  10  21
BRANCH   5  23
ATOM     23  O   UNL     1      -8.824 -11.188  12.772  1.00  0.00    -0.507 OA
ATOM     24  H   UNL     1      -8.988 -12.158  12.528  1.00  0.00     0.293 HD
ENDBRANCH   5  23
BRANCH   7  25
ATOM     25  O   UNL     1      -6.469 -12.506  16.762  1.00  0.00    -0.507 OA
ATOM     26  H   UNL     1      -5.766 -12.410  17.480  1.00  0.00     0.293 HD
ENDBRANCH   7  25
TORSDOF 6
ENDMDL
