MODEL 1
REMARK VINA RESULT:    -4.747      0.000      0.000
REMARK INTER + INTRA:          -8.755
REMARK INTER:                  -8.078
REMARK INTRA:                  -0.677
REMARK UNBOUND:                -0.677
REMARK SMILES CCCCCCCCCCCCCC(=O)[O-]
REMARK SMILES IDX 8 1 9 2 10 3 11 4 12 5 13 6 14 7 15 8 16 9 7 10 6 11 5 12
REMARK SMILES IDX 4 13 3 14 2 15 1 16
REMARK H PARENT
REMARK Flexibility Score: inf
ROOT
ATOM      1  C   UNL     1      -0.871   5.364  17.040  1.00  0.00     0.000 C 
ENDROOT
BRANCH   1   2
ATOM      2  C   UNL     1      -1.064   3.843  16.986  1.00  0.00     0.000 C 
BRANCH   2   3
ATOM      3  C   UNL     1      -2.072   3.455  15.898  1.00  0.00     0.000 C 
BRANCH   3   4
ATOM      4  C   UNL     1      -2.970   4.643  15.530  1.00  0.00     0.000 C 
BRANCH   4   5
ATOM      5  C   UNL     1      -4.419   4.188  15.304  1.00  0.00     0.006 C 
BRANCH   5   6
ATOM      6  C   UNL     1      -5.315   4.484  16.513  1.00  0.00     0.053 C 
BRANCH   6   7
ATOM      7  C   UNL     1      -6.078   5.763  16.339  1.00  0.00     0.041 C 
ATOM      8  O   UNL     1      -5.542   6.865  16.625  1.00  0.00    -0.550 OA
ATOM      9  O   UNL     1      -7.393   5.731  15.892  1.00  0.00    -0.550 OA
ENDBRANCH   6   7
ENDBRANCH   5   6
ENDBRANCH   4   5
ENDBRANCH   3   4
ENDBRANCH   2   3
ENDBRANCH   1   2
BRANCH   1  10
ATOM     10  C   UNL     1      -0.024   5.768  18.252  1.00  0.00     0.000 C 
BRANCH  10  11
ATOM     11  C   UNL     1       0.721   7.084  17.989  1.00  0.00    -0.000 C 
BRANCH  11  12
ATOM     12  C   UNL     1       0.687   8.042  19.192  1.00  0.00    -0.000 C 
BRANCH  12  13
ATOM     13  C   UNL     1       0.274   7.360  20.513  1.00  0.00    -0.000 C 
BRANCH  13  14
ATOM     14  C   UNL     1       1.474   7.134  21.449  1.00  0.00    -0.000 C 
BRANCH  14  15
ATOM     15  C   UNL     1       1.050   6.681  22.854  1.00  0.00    -0.003 C 
ATOM     16  C   UNL     1      -0.466   6.697  23.050  1.00  0.00     0.004 C 
ENDBRANCH  14  15
ENDBRANCH  13  14
ENDBRANCH  12  13
ENDBRANCH  11  12
ENDBRANCH  10  11
ENDBRANCH   1  10
TORSDOF 12
ENDMDL
MODEL 2
REMARK VINA RESULT:    -4.710      4.900      8.077
REMARK INTER + INTRA:          -8.692
REMARK INTER:                  -6.481
REMARK INTRA:                  -2.211
REMARK UNBOUND:                -0.677
REMARK SMILES CCCCCCCCCCCCCC(=O)[O-]
REMARK SMILES IDX 8 1 9 2 10 3 11 4 12 5 13 6 14 7 15 8 16 9 7 10 6 11 5 12
REMARK SMILES IDX 4 13 3 14 2 15 1 16
REMARK H PARENT
REMARK Flexibility Score: inf
ROOT
ATOM      1  C   UNL     1      -7.548   6.740  16.481  1.00  0.00     0.000 C 
ENDROOT
BRANCH   1   2
ATOM      2  C   UNL     1      -6.169   7.368  16.244  1.00  0.00     0.000 C 
BRANCH   2   3
ATOM      3  C   UNL     1      -5.077   6.293  16.197  1.00  0.00     0.000 C 
BRANCH   3   4
ATOM      4  C   UNL     1      -5.588   4.964  16.768  1.00  0.00     0.000 C 
BRANCH   4   5
ATOM      5  C   UNL     1      -4.793   3.779  16.198  1.00  0.00     0.006 C 
BRANCH   5   6
ATOM      6  C   UNL     1      -3.637   4.235  15.299  1.00  0.00     0.053 C 
BRANCH   6   7
ATOM      7  C   UNL     1      -2.310   3.780  15.826  1.00  0.00     0.041 C 
ATOM      8  O   UNL     1      -2.248   2.837  16.657  1.00  0.00    -0.550 OA
ATOM      9  O   UNL     1      -1.146   4.421  15.422  1.00  0.00    -0.550 OA
ENDBRANCH   6   7
ENDBRANCH   5   6
ENDBRANCH   4   5
ENDBRANCH   3   4
ENDBRANCH   2   3
ENDBRANCH   1   2
BRANCH   1  10
ATOM     10  C   UNL     1      -8.586   7.310  15.507  1.00  0.00     0.000 C 
BRANCH  10  11
ATOM     11  C   UNL     1      -8.415   6.707  14.106  1.00  0.00    -0.000 C 
BRANCH  11  12
ATOM     12  C   UNL     1      -8.325   5.171  14.122  1.00  0.00    -0.000 C 
BRANCH  12  13
ATOM     13  C   UNL     1      -7.082   4.617  13.396  1.00  0.00    -0.000 C 
BRANCH  13  14
ATOM     14  C   UNL     1      -6.625   5.534  12.247  1.00  0.00    -0.000 C 
BRANCH  14  15
ATOM     15  C   UNL     1      -5.181   6.026  12.422  1.00  0.00    -0.003 C 
ATOM     16  C   UNL     1      -5.093   7.535  12.652  1.00  0.00     0.004 C 
ENDBRANCH  14  15
ENDBRANCH  13  14
ENDBRANCH  12  13
ENDBRANCH  11  12
ENDBRANCH  10  11
ENDBRANCH   1  10
TORSDOF 12
ENDMDL
MODEL 3
REMARK VINA RESULT:    -4.662      4.412      7.897
REMARK INTER + INTRA:          -8.610
REMARK INTER:                  -6.729
REMARK INTRA:                  -1.880
REMARK UNBOUND:                -0.677
REMARK SMILES CCCCCCCCCCCCCC(=O)[O-]
REMARK SMILES IDX 8 1 9 2 10 3 11 4 12 5 13 6 14 7 15 8 16 9 7 10 6 11 5 12
REMARK SMILES IDX 4 13 3 14 2 15 1 16
REMARK H PARENT
REMARK Flexibility Score: inf
ROOT
ATOM      1  C   UNL     1      -6.546   6.987  16.982  1.00  0.00     0.000 C 
ENDROOT
BRANCH   1   2
ATOM      2  C   UNL     1      -5.375   6.045  17.290  1.00  0.00     0.000 C 
BRANCH   2   3
ATOM      3  C   UNL     1      -5.699   4.608  16.865  1.00  0.00     0.000 C 
BRANCH   3   4
ATOM      4  C   UNL     1      -4.543   3.998  16.061  1.00  0.00     0.000 C 
BRANCH   4   5
ATOM      5  C   UNL     1      -3.398   5.008  15.891  1.00  0.00     0.006 C 
BRANCH   5   6
ATOM      6  C   UNL     1      -2.097   4.338  15.434  1.00  0.00     0.053 C 
BRANCH   6   7
ATOM      7  C   UNL     1      -1.270   3.878  16.597  1.00  0.00     0.041 C 
ATOM      8  O   UNL     1      -0.525   4.690  17.206  1.00  0.00    -0.550 OA
ATOM      9  O   UNL     1      -1.301   2.545  16.987  1.00  0.00    -0.550 OA
ENDBRANCH   6   7
ENDBRANCH   5   6
ENDBRANCH   4   5
ENDBRANCH   3   4
ENDBRANCH   2   3
ENDBRANCH   1   2
BRANCH   1  10
ATOM     10  C   UNL     1      -6.370   7.654  15.613  1.00  0.00     0.000 C 
BRANCH  10  11
ATOM     11  C   UNL     1      -7.676   7.613  14.809  1.00  0.00    -0.000 C 
BRANCH  11  12
ATOM     12  C   UNL     1      -8.566   6.411  15.173  1.00  0.00    -0.000 C 
BRANCH  12  13
ATOM     13  C   UNL     1      -8.285   5.155  14.322  1.00  0.00    -0.000 C 
BRANCH  13  14
ATOM     14  C   UNL     1      -7.652   5.504  12.963  1.00  0.00    -0.000 C 
BRANCH  14  15
ATOM     15  C   UNL     1      -6.295   4.818  12.749  1.00  0.00    -0.003 C 
ATOM     16  C   UNL     1      -5.144   5.814  12.603  1.00  0.00     0.004 C 
ENDBRANCH  14  15
ENDBRANCH  13  14
ENDBRANCH  12  13
ENDBRANCH  11  12
ENDBRANCH  10  11
ENDBRANCH   1  10
TORSDOF 12
ENDMDL
MODEL 4
REMARK VINA RESULT:    -4.629      4.407      7.723
REMARK INTER + INTRA:          -8.554
REMARK INTER:                  -6.430
REMARK INTRA:                  -2.124
REMARK UNBOUND:                -0.677
REMARK SMILES CCCCCCCCCCCCCC(=O)[O-]
REMARK SMILES IDX 8 1 9 2 10 3 11 4 12 5 13 6 14 7 15 8 16 9 7 10 6 11 5 12
REMARK SMILES IDX 4 13 3 14 2 15 1 16
REMARK H PARENT
REMARK Flexibility Score: inf
ROOT
ATOM      1  C   UNL     1      -5.531   7.543  16.203  1.00  0.00     0.000 C 
ENDROOT
BRANCH   1   2
ATOM      2  C   UNL     1      -6.564   6.481  16.601  1.00  0.00     0.000 C 
BRANCH   2   3
ATOM      3  C   UNL     1      -5.959   5.074  16.538  1.00  0.00     0.000 C 
BRANCH   3   4
ATOM      4  C   UNL     1      -4.449   5.112  16.805  1.00  0.00     0.000 C 
BRANCH   4   5
ATOM      5  C   UNL     1      -3.698   4.164  15.857  1.00  0.00     0.006 C 
BRANCH   5   6
ATOM      6  C   UNL     1      -2.331   4.723  15.441  1.00  0.00     0.053 C 
BRANCH   6   7
ATOM      7  C   UNL     1      -1.233   4.219  16.327  1.00  0.00     0.041 C 
ATOM      8  O   UNL     1      -0.296   4.985  16.675  1.00  0.00    -0.550 OA
ATOM      9  O   UNL     1      -1.228   2.893  16.742  1.00  0.00    -0.550 OA
ENDBRANCH   6   7
ENDBRANCH   5   6
ENDBRANCH   4   5
ENDBRANCH   3   4
ENDBRANCH   2   3
ENDBRANCH   1   2
BRANCH   1  10
ATOM     10  C   UNL     1      -5.697   7.948  14.734  1.00  0.00     0.000 C 
BRANCH  10  11
ATOM     11  C   UNL     1      -4.545   7.404  13.879  1.00  0.00    -0.000 C 
BRANCH  11  12
ATOM     12  C   UNL     1      -5.031   6.684  12.608  1.00  0.00    -0.000 C 
BRANCH  12  13
ATOM     13  C   UNL     1      -5.390   5.201  12.838  1.00  0.00    -0.000 C 
BRANCH  13  14
ATOM     14  C   UNL     1      -6.804   4.863  12.335  1.00  0.00    -0.000 C 
BRANCH  14  15
ATOM     15  C   UNL     1      -7.836   4.799  13.471  1.00  0.00    -0.003 C 
ATOM     16  C   UNL     1      -8.692   6.061  13.566  1.00  0.00     0.004 C 
ENDBRANCH  14  15
ENDBRANCH  13  14
ENDBRANCH  12  13
ENDBRANCH  11  12
ENDBRANCH  10  11
ENDBRANCH   1  10
TORSDOF 12
ENDMDL
MODEL 5
REMARK VINA RESULT:    -4.609      4.544      7.160
REMARK INTER + INTRA:          -8.520
REMARK INTER:                  -6.457
REMARK INTRA:                  -2.063
REMARK UNBOUND:                -0.677
REMARK SMILES CCCCCCCCCCCCCC(=O)[O-]
REMARK SMILES IDX 8 1 9 2 10 3 11 4 12 5 13 6 14 7 15 8 16 9 7 10 6 11 5 12
REMARK SMILES IDX 4 13 3 14 2 15 1 16
REMARK H PARENT
REMARK Flexibility Score: inf
ROOT
ATOM      1  C   UNL     1      -7.436   5.018  14.156  1.00  0.00     0.000 C 
ENDROOT
BRANCH   1   2
ATOM      2  C   UNL     1      -6.249   4.774  13.215  1.00  0.00     0.000 C 
BRANCH   2   3
ATOM      3  C   UNL     1      -5.009   4.328  13.999  1.00  0.00     0.000 C 
BRANCH   3   4
ATOM      4  C   UNL     1      -5.376   3.949  15.440  1.00  0.00     0.000 C 
BRANCH   4   5
ATOM      5  C   UNL     1      -4.116   3.656  16.269  1.00  0.00     0.006 C 
BRANCH   5   6
ATOM      6  C   UNL     1      -2.939   4.557  15.874  1.00  0.00     0.053 C 
BRANCH   6   7
ATOM      7  C   UNL     1      -1.628   3.988  16.325  1.00  0.00     0.041 C 
ATOM      8  O   UNL     1      -1.552   2.788  16.698  1.00  0.00    -0.550 OA
ATOM      9  O   UNL     1      -0.498   4.794  16.363  1.00  0.00    -0.550 OA
ENDBRANCH   6   7
ENDBRANCH   5   6
ENDBRANCH   4   5
ENDBRANCH   3   4
ENDBRANCH   2   3
ENDBRANCH   1   2
BRANCH   1  10
ATOM     10  C   UNL     1      -8.116   6.356  13.846  1.00  0.00     0.000 C 
BRANCH  10  11
ATOM     11  C   UNL     1      -8.553   7.064  15.137  1.00  0.00    -0.000 C 
BRANCH  11  12
ATOM     12  C   UNL     1      -7.735   6.626  16.365  1.00  0.00    -0.000 C 
BRANCH  12  13
ATOM     13  C   UNL     1      -6.717   7.685  16.838  1.00  0.00    -0.000 C 
BRANCH  13  14
ATOM     14  C   UNL     1      -5.333   7.484  16.197  1.00  0.00    -0.000 C 
BRANCH  14  15
ATOM     15  C   UNL     1      -5.109   8.392  14.977  1.00  0.00    -0.003 C 
ATOM     16  C   UNL     1      -4.081   7.825  13.998  1.00  0.00     0.004 C 
ENDBRANCH  14  15
ENDBRANCH  13  14
ENDBRANCH  12  13
ENDBRANCH  11  12
ENDBRANCH  10  11
ENDBRANCH   1  10
TORSDOF 12
ENDMDL
MODEL 6
REMARK VINA RESULT:    -4.538      5.112      8.564
REMARK INTER + INTRA:          -8.398
REMARK INTER:                  -6.516
REMARK INTRA:                  -1.882
REMARK UNBOUND:                -0.677
REMARK SMILES CCCCCCCCCCCCCC(=O)[O-]
REMARK SMILES IDX 8 1 9 2 10 3 11 4 12 5 13 6 14 7 15 8 16 9 7 10 6 11 5 12
REMARK SMILES IDX 4 13 3 14 2 15 1 16
REMARK H PARENT
REMARK Flexibility Score: inf
ROOT
ATOM      1  C   UNL     1      -8.382   5.701  14.828  1.00  0.00     0.000 C 
ENDROOT
BRANCH   1   2
ATOM      2  C   UNL     1      -7.679   6.989  15.277  1.00  0.00     0.000 C 
BRANCH   2   3
ATOM      3  C   UNL     1      -6.814   6.740  16.517  1.00  0.00     0.000 C 
BRANCH   3   4
ATOM      4  C   UNL     1      -5.327   6.954  16.203  1.00  0.00     0.000 C 
BRANCH   4   5
ATOM      5  C   UNL     1      -4.524   5.666  16.441  1.00  0.00     0.006 C 
BRANCH   5   6
ATOM      6  C   UNL     1      -5.416   4.501  16.887  1.00  0.00     0.053 C 
BRANCH   6   7
ATOM      7  C   UNL     1      -4.708   3.185  16.775  1.00  0.00     0.041 C 
ATOM      8  O   UNL     1      -5.278   2.124  17.143  1.00  0.00    -0.550 OA
ATOM      9  O   UNL     1      -3.406   3.136  16.293  1.00  0.00    -0.550 OA
ENDBRANCH   6   7
ENDBRANCH   5   6
ENDBRANCH   4   5
ENDBRANCH   3   4
ENDBRANCH   2   3
ENDBRANCH   1   2
BRANCH   1  10
ATOM     10  C   UNL     1      -9.366   5.981  13.686  1.00  0.00     0.000 C 
BRANCH  10  11
ATOM     11  C   UNL     1      -8.852   7.110  12.782  1.00  0.00    -0.000 C 
BRANCH  11  12
ATOM     12  C   UNL     1      -8.525   6.633  11.356  1.00  0.00    -0.000 C 
BRANCH  12  13
ATOM     13  C   UNL     1      -7.361   5.621  11.295  1.00  0.00    -0.000 C 
BRANCH  13  14
ATOM     14  C   UNL     1      -5.990   6.307  11.431  1.00  0.00    -0.000 C 
BRANCH  14  15
ATOM     15  C   UNL     1      -5.220   5.847  12.678  1.00  0.00    -0.003 C 
ATOM     16  C   UNL     1      -5.493   4.386  13.038  1.00  0.00     0.004 C 
ENDBRANCH  14  15
ENDBRANCH  13  14
ENDBRANCH  12  13
ENDBRANCH  11  12
ENDBRANCH  10  11
ENDBRANCH   1  10
TORSDOF 12
ENDMDL
MODEL 7
REMARK VINA RESULT:    -4.527      3.299      7.234
REMARK INTER + INTRA:          -8.380
REMARK INTER:                  -7.791
REMARK INTRA:                  -0.589
REMARK UNBOUND:                -0.677
REMARK SMILES CCCCCCCCCCCCCC(=O)[O-]
REMARK SMILES IDX 8 1 9 2 10 3 11 4 12 5 13 6 14 7 15 8 16 9 7 10 6 11 5 12
REMARK SMILES IDX 4 13 3 14 2 15 1 16
REMARK H PARENT
REMARK Flexibility Score: inf
ROOT
ATOM      1  C   UNL     1      -0.705   4.573  16.694  1.00  0.00     0.000 C 
ENDROOT
BRANCH   1   2
ATOM      2  C   UNL     1       0.059   5.850  17.067  1.00  0.00     0.000 C 
BRANCH   2   3
ATOM      3  C   UNL     1      -0.033   6.125  18.572  1.00  0.00     0.000 C 
BRANCH   3   4
ATOM      4  C   UNL     1       0.651   7.451  18.932  1.00  0.00     0.000 C 
BRANCH   4   5
ATOM      5  C   UNL     1       0.636   7.683  20.450  1.00  0.00     0.006 C 
BRANCH   5   6
ATOM      6  C   UNL     1      -0.456   6.865  21.151  1.00  0.00     0.053 C 
BRANCH   6   7
ATOM      7  C   UNL     1      -0.186   6.722  22.619  1.00  0.00     0.041 C 
ATOM      8  O   UNL     1      -1.140   6.706  23.441  1.00  0.00    -0.550 OA
ATOM      9  O   UNL     1       1.122   6.638  23.080  1.00  0.00    -0.550 OA
ENDBRANCH   6   7
ENDBRANCH   5   6
ENDBRANCH   4   5
ENDBRANCH   3   4
ENDBRANCH   2   3
ENDBRANCH   1   2
BRANCH   1  10
ATOM     10  C   UNL     1      -2.218   4.823  16.676  1.00  0.00     0.000 C 
BRANCH  10  11
ATOM     11  C   UNL     1      -2.964   3.637  16.050  1.00  0.00    -0.000 C 
BRANCH  11  12
ATOM     12  C   UNL     1      -4.431   3.962  15.715  1.00  0.00    -0.000 C 
BRANCH  12  13
ATOM     13  C   UNL     1      -4.792   5.450  15.905  1.00  0.00    -0.000 C 
BRANCH  13  14
ATOM     14  C   UNL     1      -6.278   5.645  16.256  1.00  0.00    -0.000 C 
BRANCH  14  15
ATOM     15  C   UNL     1      -6.551   6.992  16.943  1.00  0.00    -0.003 C 
ATOM     16  C   UNL     1      -5.716   8.133  16.362  1.00  0.00     0.004 C 
ENDBRANCH  14  15
ENDBRANCH  13  14
ENDBRANCH  12  13
ENDBRANCH  11  12
ENDBRANCH  10  11
ENDBRANCH   1  10
TORSDOF 12
ENDMDL
MODEL 8
REMARK VINA RESULT:    -4.492      5.276      7.812
REMARK INTER + INTRA:          -8.321
REMARK INTER:                  -6.102
REMARK INTRA:                  -2.220
REMARK UNBOUND:                -0.677
REMARK SMILES CCCCCCCCCCCCCC(=O)[O-]
REMARK SMILES IDX 8 1 9 2 10 3 11 4 12 5 13 6 14 7 15 8 16 9 7 10 6 11 5 12
REMARK SMILES IDX 4 13 3 14 2 15 1 16
REMARK H PARENT
REMARK Flexibility Score: inf
ROOT
ATOM      1  C   UNL     1      -4.056   7.427  13.933  1.00  0.00     0.000 C 
ENDROOT
BRANCH   1   2
ATOM      2  C   UNL     1      -4.943   8.384  14.739  1.00  0.00     0.000 C 
BRANCH   2   3
ATOM      3  C   UNL     1      -5.533   7.683  15.968  1.00  0.00     0.000 C 
BRANCH   3   4
ATOM      4  C   UNL     1      -4.796   6.369  16.259  1.00  0.00     0.000 C 
BRANCH   4   5
ATOM      5  C   UNL     1      -5.757   5.313  16.824  1.00  0.00     0.006 C 
BRANCH   5   6
ATOM      6  C   UNL     1      -5.705   4.000  16.032  1.00  0.00     0.053 C 
BRANCH   6   7
ATOM      7  C   UNL     1      -4.778   3.006  16.664  1.00  0.00     0.041 C 
ATOM      8  O   UNL     1      -5.240   2.027  17.307  1.00  0.00    -0.550 OA
ATOM      9  O   UNL     1      -3.403   3.181  16.570  1.00  0.00    -0.550 OA
ENDBRANCH   6   7
ENDBRANCH   5   6
ENDBRANCH   4   5
ENDBRANCH   3   4
ENDBRANCH   2   3
ENDBRANCH   1   2
BRANCH   1  10
ATOM     10  C   UNL     1      -4.716   7.058  12.599  1.00  0.00     0.000 C 
BRANCH  10  11
ATOM     11  C   UNL     1      -5.255   5.621  12.631  1.00  0.00    -0.000 C 
BRANCH  11  12
ATOM     12  C   UNL     1      -6.792   5.560  12.675  1.00  0.00    -0.000 C 
BRANCH  12  13
ATOM     13  C   UNL     1      -7.472   6.921  12.419  1.00  0.00    -0.000 C 
BRANCH  13  14
ATOM     14  C   UNL     1      -8.625   7.187  13.404  1.00  0.00    -0.000 C 
BRANCH  14  15
ATOM     15  C   UNL     1      -8.752   6.093  14.474  1.00  0.00    -0.003 C 
ATOM     16  C   UNL     1      -9.127   6.649  15.848  1.00  0.00     0.004 C 
ENDBRANCH  14  15
ENDBRANCH  13  14
ENDBRANCH  12  13
ENDBRANCH  11  12
ENDBRANCH  10  11
ENDBRANCH   1  10
TORSDOF 12
ENDMDL
MODEL 9
REMARK VINA RESULT:    -4.384      5.218      8.011
REMARK INTER + INTRA:          -8.137
REMARK INTER:                  -5.926
REMARK INTRA:                  -2.210
REMARK UNBOUND:                -0.677
REMARK SMILES CCCCCCCCCCCCCC(=O)[O-]
REMARK SMILES IDX 8 1 9 2 10 3 11 4 12 5 13 6 14 7 15 8 16 9 7 10 6 11 5 12
REMARK SMILES IDX 4 13 3 14 2 15 1 16
REMARK H PARENT
REMARK Flexibility Score: inf
ROOT
ATOM      1  C   UNL     1      -8.596   6.078  14.544  1.00  0.00     0.000 C 
ENDROOT
BRANCH   1   2
ATOM      2  C   UNL     1      -7.699   6.790  15.565  1.00  0.00     0.000 C 
BRANCH   2   3
ATOM      3  C   UNL     1      -6.710   5.810  16.205  1.00  0.00     0.000 C 
BRANCH   3   4
ATOM      4  C   UNL     1      -5.304   6.419  16.282  1.00  0.00     0.000 C 
BRANCH   4   5
ATOM      5  C   UNL     1      -4.246   5.427  15.776  1.00  0.00     0.006 C 
BRANCH   5   6
ATOM      6  C   UNL     1      -4.822   4.020  15.571  1.00  0.00     0.053 C 
BRANCH   6   7
ATOM      7  C   UNL     1      -4.287   3.049  16.579  1.00  0.00     0.041 C 
ATOM      8  O   UNL     1      -5.076   2.374  17.291  1.00  0.00    -0.550 OA
ATOM      9  O   UNL     1      -2.915   2.914  16.754  1.00  0.00    -0.550 OA
ENDBRANCH   6   7
ENDBRANCH   5   6
ENDBRANCH   4   5
ENDBRANCH   3   4
ENDBRANCH   2   3
ENDBRANCH   1   2
BRANCH   1  10
ATOM     10  C   UNL     1      -7.876   4.875  13.925  1.00  0.00     0.000 C 
BRANCH  10  11
ATOM     11  C   UNL     1      -7.442   5.176  12.483  1.00  0.00    -0.000 C 
BRANCH  11  12
ATOM     12  C   UNL     1      -5.915   5.140  12.298  1.00  0.00    -0.000 C 
BRANCH  12  13
ATOM     13  C   UNL     1      -5.343   6.413  11.639  1.00  0.00    -0.000 C 
BRANCH  13  14
ATOM     14  C   UNL     1      -4.604   7.307  12.650  1.00  0.00    -0.000 C 
BRANCH  14  15
ATOM     15  C   UNL     1      -5.478   8.458  13.170  1.00  0.00    -0.003 C 
ATOM     16  C   UNL     1      -6.636   8.794  12.231  1.00  0.00     0.004 C 
ENDBRANCH  14  15
ENDBRANCH  13  14
ENDBRANCH  12  13
ENDBRANCH  11  12
ENDBRANCH  10  11
ENDBRANCH   1  10
TORSDOF 12
ENDMDL
