MODEL 1
REMARK VINA RESULT:    -3.530      0.000      0.000
REMARK INTER + INTRA:          -9.793
REMARK INTER:                  -6.831
REMARK INTRA:                  -2.961
REMARK UNBOUND:                -2.961
REMARK SMILES CCCCCCCCCCCCCCCCCC(=O)[O-]
REMARK SMILES IDX 10 1 11 2 12 3 13 4 14 5 15 6 16 7 17 8 18 9 19 10 20 11
REMARK SMILES IDX 9 12 8 13 7 14 6 15 5 16 4 17 3 18 2 19 1 20
REMARK H PARENT
REMARK Flexibility Score: inf
ROOT
ATOM      1  C   UNL     1       5.981   0.281  49.195  1.00  0.00     0.000 C 
ENDROOT
BRANCH   1   2
ATOM      2  C   UNL     1       6.027   0.242  50.730  1.00  0.00     0.000 C 
BRANCH   2   3
ATOM      3  C   UNL     1       6.879   1.375  51.323  1.00  0.00     0.000 C 
BRANCH   3   4
ATOM      4  C   UNL     1       6.068   2.306  52.242  1.00  0.00     0.000 C 
BRANCH   4   5
ATOM      5  C   UNL     1       4.560   1.974  52.226  1.00  0.00     0.000 C 
BRANCH   5   6
ATOM      6  C   UNL     1       3.658   3.203  52.007  1.00  0.00     0.000 C 
BRANCH   6   7
ATOM      7  C   UNL     1       2.682   3.089  50.819  1.00  0.00     0.006 C 
BRANCH   7   8
ATOM      8  C   UNL     1       2.777   1.762  50.050  1.00  0.00     0.053 C 
BRANCH   8   9
ATOM      9  C   UNL     1       1.569   0.903  50.261  1.00  0.00     0.041 C 
ATOM     10  O   UNL     1       0.841   1.072  51.275  1.00  0.00    -0.550 OA
ATOM     11  O   UNL     1       1.267  -0.107  49.357  1.00  0.00    -0.550 OA
ENDBRANCH   8   9
ENDBRANCH   7   8
ENDBRANCH   6   7
ENDBRANCH   5   6
ENDBRANCH   4   5
ENDBRANCH   3   4
ENDBRANCH   2   3
ENDBRANCH   1   2
BRANCH   1  12
ATOM     12  C   UNL     1       7.063   1.217  48.637  1.00  0.00     0.000 C 
BRANCH  12  13
ATOM     13  C   UNL     1       6.578   2.047  47.436  1.00  0.00    -0.000 C 
BRANCH  13  14
ATOM     14  C   UNL     1       5.472   3.075  47.754  1.00  0.00    -0.000 C 
BRANCH  14  15
ATOM     15  C   UNL     1       5.731   3.948  48.996  1.00  0.00    -0.000 C 
BRANCH  15  16
ATOM     16  C   UNL     1       6.874   4.968  48.846  1.00  0.00    -0.000 C 
BRANCH  16  17
ATOM     17  C   UNL     1       7.138   5.799  50.120  1.00  0.00    -0.000 C 
BRANCH  17  18
ATOM     18  C   UNL     1       5.891   5.922  51.012  1.00  0.00    -0.000 C 
BRANCH  18  19
ATOM     19  C   UNL     1       4.951   7.052  50.562  1.00  0.00    -0.003 C 
ATOM     20  C   UNL     1       3.482   6.750  50.859  1.00  0.00     0.004 C 
ENDBRANCH  18  19
ENDBRANCH  17  18
ENDBRANCH  16  17
ENDBRANCH  15  16
ENDBRANCH  14  15
ENDBRANCH  13  14
ENDBRANCH  12  13
ENDBRANCH   1  12
TORSDOF 16
ENDMDL
MODEL 2
REMARK VINA RESULT:    -3.457      1.567      2.152
REMARK INTER + INTRA:          -9.651
REMARK INTER:                  -7.245
REMARK INTRA:                  -2.406
REMARK UNBOUND:                -2.961
REMARK SMILES CCCCCCCCCCCCCCCCCC(=O)[O-]
REMARK SMILES IDX 10 1 11 2 12 3 13 4 14 5 15 6 16 7 17 8 18 9 19 10 20 11
REMARK SMILES IDX 9 12 8 13 7 14 6 15 5 16 4 17 3 18 2 19 1 20
REMARK H PARENT
REMARK Flexibility Score: inf
ROOT
ATOM      1  C   UNL     1       5.982   0.549  49.258  1.00  0.00     0.000 C 
ENDROOT
BRANCH   1   2
ATOM      2  C   UNL     1       6.240   0.663  50.768  1.00  0.00     0.000 C 
BRANCH   2   3
ATOM      3  C   UNL     1       7.125   1.868  51.125  1.00  0.00     0.000 C 
BRANCH   3   4
ATOM      4  C   UNL     1       6.364   2.947  51.916  1.00  0.00     0.000 C 
BRANCH   4   5
ATOM      5  C   UNL     1       4.934   2.499  52.286  1.00  0.00     0.000 C 
BRANCH   5   6
ATOM      6  C   UNL     1       3.833   3.425  51.735  1.00  0.00     0.000 C 
BRANCH   6   7
ATOM      7  C   UNL     1       2.542   2.708  51.292  1.00  0.00     0.006 C 
BRANCH   7   8
ATOM      8  C   UNL     1       2.691   1.877  50.008  1.00  0.00     0.053 C 
BRANCH   8   9
ATOM      9  C   UNL     1       2.187   0.478  50.184  1.00  0.00     0.041 C 
ATOM     10  O   UNL     1       2.692  -0.272  51.061  1.00  0.00    -0.550 OA
ATOM     11  O   UNL     1       1.184  -0.009  49.356  1.00  0.00    -0.550 OA
ENDBRANCH   8   9
ENDBRANCH   7   8
ENDBRANCH   6   7
ENDBRANCH   5   6
ENDBRANCH   4   5
ENDBRANCH   3   4
ENDBRANCH   2   3
ENDBRANCH   1   2
BRANCH   1  12
ATOM     12  C   UNL     1       7.082   1.262  48.457  1.00  0.00     0.000 C 
BRANCH  12  13
ATOM     13  C   UNL     1       6.526   2.297  47.464  1.00  0.00    -0.000 C 
BRANCH  13  14
ATOM     14  C   UNL     1       5.322   3.115  47.974  1.00  0.00    -0.000 C 
BRANCH  14  15
ATOM     15  C   UNL     1       5.683   4.394  48.750  1.00  0.00    -0.000 C 
BRANCH  15  16
ATOM     16  C   UNL     1       7.059   4.994  48.406  1.00  0.00    -0.000 C 
BRANCH  16  17
ATOM     17  C   UNL     1       7.365   6.314  49.146  1.00  0.00    -0.000 C 
BRANCH  17  18
ATOM     18  C   UNL     1       7.306   7.539  48.217  1.00  0.00    -0.000 C 
BRANCH  18  19
ATOM     19  C   UNL     1       8.667   7.862  47.580  1.00  0.00    -0.003 C 
ATOM     20  C   UNL     1       9.292   9.139  48.142  1.00  0.00     0.004 C 
ENDBRANCH  18  19
ENDBRANCH  17  18
ENDBRANCH  16  17
ENDBRANCH  15  16
ENDBRANCH  14  15
ENDBRANCH  13  14
ENDBRANCH  12  13
ENDBRANCH   1  12
TORSDOF 16
ENDMDL
MODEL 3
REMARK VINA RESULT:    -3.435      1.518      3.142
REMARK INTER + INTRA:          -9.609
REMARK INTER:                  -6.731
REMARK INTRA:                  -2.878
REMARK UNBOUND:                -2.961
REMARK SMILES CCCCCCCCCCCCCCCCCC(=O)[O-]
REMARK SMILES IDX 10 1 11 2 12 3 13 4 14 5 15 6 16 7 17 8 18 9 19 10 20 11
REMARK SMILES IDX 9 12 8 13 7 14 6 15 5 16 4 17 3 18 2 19 1 20
REMARK H PARENT
REMARK Flexibility Score: inf
ROOT
ATOM      1  C   UNL     1       6.594   1.677  47.806  1.00  0.00     0.000 C 
ENDROOT
BRANCH   1   2
ATOM      2  C   UNL     1       6.320   3.130  48.225  1.00  0.00     0.000 C 
BRANCH   2   3
ATOM      3  C   UNL     1       4.822   3.416  48.413  1.00  0.00     0.000 C 
BRANCH   3   4
ATOM      4  C   UNL     1       4.501   4.001  49.800  1.00  0.00     0.000 C 
BRANCH   4   5
ATOM      5  C   UNL     1       3.325   3.272  50.484  1.00  0.00     0.000 C 
BRANCH   5   6
ATOM      6  C   UNL     1       2.935   1.948  49.799  1.00  0.00     0.000 C 
BRANCH   6   7
ATOM      7  C   UNL     1       2.083   0.996  50.662  1.00  0.00     0.006 C 
BRANCH   7   8
ATOM      8  C   UNL     1       2.493  -0.481  50.562  1.00  0.00     0.053 C 
BRANCH   8   9
ATOM      9  C   UNL     1       1.862  -1.161  49.387  1.00  0.00     0.041 C 
ATOM     10  O   UNL     1       2.451  -2.117  48.816  1.00  0.00    -0.550 OA
ATOM     11  O   UNL     1       0.640  -0.715  48.899  1.00  0.00    -0.550 OA
ENDBRANCH   8   9
ENDBRANCH   7   8
ENDBRANCH   6   7
ENDBRANCH   5   6
ENDBRANCH   4   5
ENDBRANCH   3   4
ENDBRANCH   2   3
ENDBRANCH   1   2
BRANCH   1  12
ATOM     12  C   UNL     1       7.140   0.859  48.986  1.00  0.00     0.000 C 
BRANCH  12  13
ATOM     13  C   UNL     1       6.032   0.327  49.911  1.00  0.00    -0.000 C 
BRANCH  13  14
ATOM     14  C   UNL     1       6.240   0.608  51.414  1.00  0.00    -0.000 C 
BRANCH  14  15
ATOM     15  C   UNL     1       7.034   1.888  51.734  1.00  0.00    -0.000 C 
BRANCH  15  16
ATOM     16  C   UNL     1       6.335   2.859  52.703  1.00  0.00    -0.000 C 
BRANCH  16  17
ATOM     17  C   UNL     1       6.935   4.281  52.700  1.00  0.00    -0.000 C 
BRANCH  17  18
ATOM     18  C   UNL     1       7.601   4.636  51.359  1.00  0.00    -0.000 C 
BRANCH  18  19
ATOM     19  C   UNL     1       7.471   6.128  51.011  1.00  0.00    -0.003 C 
ATOM     20  C   UNL     1       7.508   6.387  49.505  1.00  0.00     0.004 C 
ENDBRANCH  18  19
ENDBRANCH  17  18
ENDBRANCH  16  17
ENDBRANCH  15  16
ENDBRANCH  14  15
ENDBRANCH  13  14
ENDBRANCH  12  13
ENDBRANCH   1  12
TORSDOF 16
ENDMDL
MODEL 4
REMARK VINA RESULT:    -3.412      3.348      5.531
REMARK INTER + INTRA:          -9.566
REMARK INTER:                  -6.511
REMARK INTRA:                  -3.055
REMARK UNBOUND:                -2.961
REMARK SMILES CCCCCCCCCCCCCCCCCC(=O)[O-]
REMARK SMILES IDX 10 1 11 2 12 3 13 4 14 5 15 6 16 7 17 8 18 9 19 10 20 11
REMARK SMILES IDX 9 12 8 13 7 14 6 15 5 16 4 17 3 18 2 19 1 20
REMARK H PARENT
REMARK Flexibility Score: inf
ROOT
ATOM      1  C   UNL     1       6.210   1.034  48.768  1.00  0.00     0.000 C 
ENDROOT
BRANCH   1   2
ATOM      2  C   UNL     1       7.138   1.052  49.992  1.00  0.00     0.000 C 
BRANCH   2   3
ATOM      3  C   UNL     1       6.368   0.953  51.318  1.00  0.00     0.000 C 
BRANCH   3   4
ATOM      4  C   UNL     1       6.581   2.182  52.219  1.00  0.00     0.000 C 
BRANCH   4   5
ATOM      5  C   UNL     1       7.609   3.170  51.627  1.00  0.00     0.000 C 
BRANCH   5   6
ATOM      6  C   UNL     1       7.082   4.612  51.503  1.00  0.00     0.000 C 
BRANCH   6   7
ATOM      7  C   UNL     1       7.543   5.366  50.240  1.00  0.00     0.006 C 
BRANCH   7   8
ATOM      8  C   UNL     1       6.574   6.463  49.772  1.00  0.00     0.053 C 
BRANCH   8   9
ATOM      9  C   UNL     1       7.074   7.170  48.550  1.00  0.00     0.041 C 
ATOM     10  O   UNL     1       7.989   6.659  47.852  1.00  0.00    -0.550 OA
ATOM     11  O   UNL     1       6.555   8.411  48.203  1.00  0.00    -0.550 OA
ENDBRANCH   8   9
ENDBRANCH   7   8
ENDBRANCH   6   7
ENDBRANCH   5   6
ENDBRANCH   4   5
ENDBRANCH   3   4
ENDBRANCH   2   3
ENDBRANCH   1   2
BRANCH   1  12
ATOM     12  C   UNL     1       6.398   2.300  47.918  1.00  0.00     0.000 C 
BRANCH  12  13
ATOM     13  C   UNL     1       5.319   3.364  48.179  1.00  0.00    -0.000 C 
BRANCH  13  14
ATOM     14  C   UNL     1       4.113   2.884  49.013  1.00  0.00    -0.000 C 
BRANCH  14  15
ATOM     15  C   UNL     1       3.820   3.719  50.274  1.00  0.00    -0.000 C 
BRANCH  15  16
ATOM     16  C   UNL     1       2.909   3.032  51.309  1.00  0.00    -0.000 C 
BRANCH  16  17
ATOM     17  C   UNL     1       2.202   1.769  50.774  1.00  0.00    -0.000 C 
BRANCH  17  18
ATOM     18  C   UNL     1       2.743   0.476  51.409  1.00  0.00    -0.000 C 
BRANCH  18  19
ATOM     19  C   UNL     1       3.106  -0.589  50.363  1.00  0.00    -0.003 C 
ATOM     20  C   UNL     1       1.888  -1.097  49.592  1.00  0.00     0.004 C 
ENDBRANCH  18  19
ENDBRANCH  17  18
ENDBRANCH  16  17
ENDBRANCH  15  16
ENDBRANCH  14  15
ENDBRANCH  13  14
ENDBRANCH  12  13
ENDBRANCH   1  12
TORSDOF 16
ENDMDL
MODEL 5
REMARK VINA RESULT:    -3.401      1.672      3.753
REMARK INTER + INTRA:          -9.544
REMARK INTER:                  -7.106
REMARK INTRA:                  -2.438
REMARK UNBOUND:                -2.961
REMARK SMILES CCCCCCCCCCCCCCCCCC(=O)[O-]
REMARK SMILES IDX 10 1 11 2 12 3 13 4 14 5 15 6 16 7 17 8 18 9 19 10 20 11
REMARK SMILES IDX 9 12 8 13 7 14 6 15 5 16 4 17 3 18 2 19 1 20
REMARK H PARENT
REMARK Flexibility Score: inf
ROOT
ATOM      1  C   UNL     1       6.774   4.298  48.458  1.00  0.00     0.000 C 
ENDROOT
BRANCH   1   2
ATOM      2  C   UNL     1       5.814   3.290  47.807  1.00  0.00     0.000 C 
BRANCH   2   3
ATOM      3  C   UNL     1       6.503   1.962  47.457  1.00  0.00     0.000 C 
BRANCH   3   4
ATOM      4  C   UNL     1       6.951   1.180  48.704  1.00  0.00     0.000 C 
BRANCH   4   5
ATOM      5  C   UNL     1       5.754   0.625  49.506  1.00  0.00     0.000 C 
BRANCH   5   6
ATOM      6  C   UNL     1       5.597   1.257  50.902  1.00  0.00     0.000 C 
BRANCH   6   7
ATOM      7  C   UNL     1       4.240   1.941  51.157  1.00  0.00     0.006 C 
BRANCH   7   8
ATOM      8  C   UNL     1       3.255   1.846  49.982  1.00  0.00     0.053 C 
BRANCH   8   9
ATOM      9  C   UNL     1       2.132   0.897  50.266  1.00  0.00     0.041 C 
ATOM     10  O   UNL     1       2.130  -0.254  49.756  1.00  0.00    -0.550 OA
ATOM     11  O   UNL     1       1.069   1.297  51.067  1.00  0.00    -0.550 OA
ENDBRANCH   8   9
ENDBRANCH   7   8
ENDBRANCH   6   7
ENDBRANCH   5   6
ENDBRANCH   4   5
ENDBRANCH   3   4
ENDBRANCH   2   3
ENDBRANCH   1   2
BRANCH   1  12
ATOM     12  C   UNL     1       6.221   4.793  49.802  1.00  0.00     0.000 C 
BRANCH  12  13
ATOM     13  C   UNL     1       7.313   4.971  50.872  1.00  0.00    -0.000 C 
BRANCH  13  14
ATOM     14  C   UNL     1       7.522   6.419  51.361  1.00  0.00    -0.000 C 
BRANCH  14  15
ATOM     15  C   UNL     1       6.262   7.303  51.341  1.00  0.00    -0.000 C 
BRANCH  15  16
ATOM     16  C   UNL     1       6.454   8.693  50.707  1.00  0.00    -0.000 C 
BRANCH  16  17
ATOM     17  C   UNL     1       5.710   8.873  49.366  1.00  0.00    -0.000 C 
BRANCH  17  18
ATOM     18  C   UNL     1       6.671   9.046  48.177  1.00  0.00    -0.000 C 
BRANCH  18  19
ATOM     19  C   UNL     1       7.346   7.728  47.767  1.00  0.00    -0.003 C 
ATOM     20  C   UNL     1       8.869   7.785  47.885  1.00  0.00     0.004 C 
ENDBRANCH  18  19
ENDBRANCH  17  18
ENDBRANCH  16  17
ENDBRANCH  15  16
ENDBRANCH  14  15
ENDBRANCH  13  14
ENDBRANCH  12  13
ENDBRANCH   1  12
TORSDOF 16
ENDMDL
MODEL 6
REMARK VINA RESULT:    -3.379      1.468      2.521
REMARK INTER + INTRA:          -9.500
REMARK INTER:                  -7.059
REMARK INTRA:                  -2.441
REMARK UNBOUND:                -2.961
REMARK SMILES CCCCCCCCCCCCCCCCCC(=O)[O-]
REMARK SMILES IDX 10 1 11 2 12 3 13 4 14 5 15 6 16 7 17 8 18 9 19 10 20 11
REMARK SMILES IDX 9 12 8 13 7 14 6 15 5 16 4 17 3 18 2 19 1 20
REMARK H PARENT
REMARK Flexibility Score: inf
ROOT
ATOM      1  C   UNL     1       6.365   0.721  51.461  1.00  0.00     0.000 C 
ENDROOT
BRANCH   1   2
ATOM      2  C   UNL     1       5.869   1.581  52.634  1.00  0.00     0.000 C 
BRANCH   2   3
ATOM      3  C   UNL     1       5.348   2.953  52.181  1.00  0.00     0.000 C 
BRANCH   3   4
ATOM      4  C   UNL     1       3.813   2.999  52.079  1.00  0.00     0.000 C 
BRANCH   4   5
ATOM      5  C   UNL     1       3.331   3.300  50.644  1.00  0.00     0.000 C 
BRANCH   5   6
ATOM      6  C   UNL     1       3.053   2.038  49.806  1.00  0.00     0.000 C 
BRANCH   6   7
ATOM      7  C   UNL     1       2.578   0.814  50.614  1.00  0.00     0.006 C 
BRANCH   7   8
ATOM      8  C   UNL     1       3.209  -0.516  50.173  1.00  0.00     0.053 C 
BRANCH   8   9
ATOM      9  C   UNL     1       2.240  -1.376  49.422  1.00  0.00     0.041 C 
ATOM     10  O   UNL     1       2.567  -2.539  49.069  1.00  0.00    -0.550 OA
ATOM     11  O   UNL     1       0.989  -0.878  49.081  1.00  0.00    -0.550 OA
ENDBRANCH   8   9
ENDBRANCH   7   8
ENDBRANCH   6   7
ENDBRANCH   5   6
ENDBRANCH   4   5
ENDBRANCH   3   4
ENDBRANCH   2   3
ENDBRANCH   1   2
BRANCH   1  12
ATOM     12  C   UNL     1       6.901   1.603  50.323  1.00  0.00     0.000 C 
BRANCH  12  13
ATOM     13  C   UNL     1       6.656   0.999  48.929  1.00  0.00    -0.000 C 
BRANCH  13  14
ATOM     14  C   UNL     1       6.598   2.019  47.773  1.00  0.00    -0.000 C 
BRANCH  14  15
ATOM     15  C   UNL     1       5.863   3.333  48.099  1.00  0.00    -0.000 C 
BRANCH  15  16
ATOM     16  C   UNL     1       6.772   4.569  48.230  1.00  0.00    -0.000 C 
BRANCH  16  17
ATOM     17  C   UNL     1       7.001   5.021  49.688  1.00  0.00    -0.000 C 
BRANCH  17  18
ATOM     18  C   UNL     1       7.271   6.531  49.802  1.00  0.00    -0.000 C 
BRANCH  18  19
ATOM     19  C   UNL     1       8.057   7.083  48.602  1.00  0.00    -0.003 C 
ATOM     20  C   UNL     1       7.278   8.146  47.827  1.00  0.00     0.004 C 
ENDBRANCH  18  19
ENDBRANCH  17  18
ENDBRANCH  16  17
ENDBRANCH  15  16
ENDBRANCH  14  15
ENDBRANCH  13  14
ENDBRANCH  12  13
ENDBRANCH   1  12
TORSDOF 16
ENDMDL
MODEL 7
REMARK VINA RESULT:    -3.355      1.202      3.165
REMARK INTER + INTRA:          -9.455
REMARK INTER:                  -6.947
REMARK INTRA:                  -2.508
REMARK UNBOUND:                -2.961
REMARK SMILES CCCCCCCCCCCCCCCCCC(=O)[O-]
REMARK SMILES IDX 10 1 11 2 12 3 13 4 14 5 15 6 16 7 17 8 18 9 19 10 20 11
REMARK SMILES IDX 9 12 8 13 7 14 6 15 5 16 4 17 3 18 2 19 1 20
REMARK H PARENT
REMARK Flexibility Score: inf
ROOT
ATOM      1  C   UNL     1       5.880   3.544  48.384  1.00  0.00     0.000 C 
ENDROOT
BRANCH   1   2
ATOM      2  C   UNL     1       6.497   2.415  47.544  1.00  0.00     0.000 C 
BRANCH   2   3
ATOM      3  C   UNL     1       6.844   1.177  48.385  1.00  0.00     0.000 C 
BRANCH   3   4
ATOM      4  C   UNL     1       6.693   1.426  49.896  1.00  0.00     0.000 C 
BRANCH   4   5
ATOM      5  C   UNL     1       6.075   0.216  50.628  1.00  0.00     0.000 C 
BRANCH   5   6
ATOM      6  C   UNL     1       5.198  -0.672  49.726  1.00  0.00     0.000 C 
BRANCH   6   7
ATOM      7  C   UNL     1       3.717  -0.763  50.144  1.00  0.00     0.006 C 
BRANCH   7   8
ATOM      8  C   UNL     1       3.007   0.596  50.249  1.00  0.00     0.053 C 
BRANCH   8   9
ATOM      9  C   UNL     1       1.519   0.461  50.146  1.00  0.00     0.041 C 
ATOM     10  O   UNL     1       0.778   0.899  51.065  1.00  0.00    -0.550 OA
ATOM     11  O   UNL     1       0.954  -0.182  49.052  1.00  0.00    -0.550 OA
ENDBRANCH   8   9
ENDBRANCH   7   8
ENDBRANCH   6   7
ENDBRANCH   5   6
ENDBRANCH   4   5
ENDBRANCH   3   4
ENDBRANCH   2   3
ENDBRANCH   1   2
BRANCH   1  12
ATOM     12  C   UNL     1       6.801   4.774  48.411  1.00  0.00     0.000 C 
BRANCH  12  13
ATOM     13  C   UNL     1       6.573   5.667  49.643  1.00  0.00    -0.000 C 
BRANCH  13  14
ATOM     14  C   UNL     1       7.455   5.337  50.864  1.00  0.00    -0.000 C 
BRANCH  14  15
ATOM     15  C   UNL     1       6.764   4.510  51.964  1.00  0.00    -0.000 C 
BRANCH  15  16
ATOM     16  C   UNL     1       5.272   4.828  52.173  1.00  0.00    -0.000 C 
BRANCH  16  17
ATOM     17  C   UNL     1       4.333   3.643  51.858  1.00  0.00    -0.000 C 
BRANCH  17  18
ATOM     18  C   UNL     1       3.208   4.026  50.880  1.00  0.00    -0.000 C 
BRANCH  18  19
ATOM     19  C   UNL     1       3.037   5.547  50.743  1.00  0.00    -0.003 C 
ATOM     20  C   UNL     1       1.606   6.007  51.023  1.00  0.00     0.004 C 
ENDBRANCH  18  19
ENDBRANCH  17  18
ENDBRANCH  16  17
ENDBRANCH  15  16
ENDBRANCH  14  15
ENDBRANCH  13  14
ENDBRANCH  12  13
ENDBRANCH   1  12
TORSDOF 16
ENDMDL
MODEL 8
REMARK VINA RESULT:    -3.326      4.005      6.376
REMARK INTER + INTRA:          -9.398
REMARK INTER:                  -7.068
REMARK INTRA:                  -2.330
REMARK UNBOUND:                -2.961
REMARK SMILES CCCCCCCCCCCCCCCCCC(=O)[O-]
REMARK SMILES IDX 10 1 11 2 12 3 13 4 14 5 15 6 16 7 17 8 18 9 19 10 20 11
REMARK SMILES IDX 9 12 8 13 7 14 6 15 5 16 4 17 3 18 2 19 1 20
REMARK H PARENT
REMARK Flexibility Score: inf
ROOT
ATOM      1  C   UNL     1       6.663   4.466  48.345  1.00  0.00     0.000 C 
ENDROOT
BRANCH   1   2
ATOM      2  C   UNL     1       6.187   5.028  49.693  1.00  0.00     0.000 C 
BRANCH   2   3
ATOM      3  C   UNL     1       7.336   5.204  50.697  1.00  0.00     0.000 C 
BRANCH   3   4
ATOM      4  C   UNL     1       7.500   6.663  51.159  1.00  0.00     0.000 C 
BRANCH   4   5
ATOM      5  C   UNL     1       6.351   7.565  50.661  1.00  0.00     0.000 C 
BRANCH   5   6
ATOM      6  C   UNL     1       6.766   9.033  50.444  1.00  0.00     0.000 C 
BRANCH   6   7
ATOM      7  C   UNL     1       6.750   9.503  48.976  1.00  0.00     0.006 C 
BRANCH   7   8
ATOM      8  C   UNL     1       7.166   8.424  47.964  1.00  0.00     0.053 C 
BRANCH   8   9
ATOM      9  C   UNL     1       8.651   8.229  47.930  1.00  0.00     0.041 C 
ATOM     10  O   UNL     1       9.421   9.224  47.966  1.00  0.00    -0.550 OA
ATOM     11  O   UNL     1       9.182   6.950  47.824  1.00  0.00    -0.550 OA
ENDBRANCH   8   9
ENDBRANCH   7   8
ENDBRANCH   6   7
ENDBRANCH   5   6
ENDBRANCH   4   5
ENDBRANCH   3   4
ENDBRANCH   2   3
ENDBRANCH   1   2
BRANCH   1  12
ATOM     12  C   UNL     1       5.825   3.248  47.930  1.00  0.00     0.000 C 
BRANCH  12  13
ATOM     13  C   UNL     1       6.674   1.986  47.696  1.00  0.00    -0.000 C 
BRANCH  13  14
ATOM     14  C   UNL     1       6.490   0.868  48.743  1.00  0.00    -0.000 C 
BRANCH  14  15
ATOM     15  C   UNL     1       6.681   1.308  50.206  1.00  0.00    -0.000 C 
BRANCH  15  16
ATOM     16  C   UNL     1       5.987   0.411  51.249  1.00  0.00    -0.000 C 
BRANCH  16  17
ATOM     17  C   UNL     1       4.725   1.046  51.873  1.00  0.00    -0.000 C 
BRANCH  17  18
ATOM     18  C   UNL     1       4.542   2.518  51.465  1.00  0.00    -0.000 C 
BRANCH  18  19
ATOM     19  C   UNL     1       3.272   2.747  50.632  1.00  0.00    -0.003 C 
ATOM     20  C   UNL     1       2.675   1.445  50.098  1.00  0.00     0.004 C 
ENDBRANCH  18  19
ENDBRANCH  17  18
ENDBRANCH  16  17
ENDBRANCH  15  16
ENDBRANCH  14  15
ENDBRANCH  13  14
ENDBRANCH  12  13
ENDBRANCH   1  12
TORSDOF 16
ENDMDL
MODEL 9
REMARK VINA RESULT:    -3.272      3.221      5.866
REMARK INTER + INTRA:          -9.294
REMARK INTER:                  -6.952
REMARK INTRA:                  -2.342
REMARK UNBOUND:                -2.961
REMARK SMILES CCCCCCCCCCCCCCCCCC(=O)[O-]
REMARK SMILES IDX 10 1 11 2 12 3 13 4 14 5 15 6 16 7 17 8 18 9 19 10 20 11
REMARK SMILES IDX 9 12 8 13 7 14 6 15 5 16 4 17 3 18 2 19 1 20
REMARK H PARENT
REMARK Flexibility Score: inf
ROOT
ATOM      1  C   UNL     1       5.696   3.315  48.086  1.00  0.00     0.000 C 
ENDROOT
BRANCH   1   2
ATOM      2  C   UNL     1       6.731   4.437  48.263  1.00  0.00     0.000 C 
BRANCH   2   3
ATOM      3  C   UNL     1       6.705   5.046  49.674  1.00  0.00     0.000 C 
BRANCH   3   4
ATOM      4  C   UNL     1       7.185   6.507  49.696  1.00  0.00     0.000 C 
BRANCH   4   5
ATOM      5  C   UNL     1       7.436   7.062  48.277  1.00  0.00     0.000 C 
BRANCH   5   6
ATOM      6  C   UNL     1       7.362   8.598  48.190  1.00  0.00     0.000 C 
BRANCH   6   7
ATOM      7  C   UNL     1       5.954   9.167  47.927  1.00  0.00     0.006 C 
BRANCH   7   8
ATOM      8  C   UNL     1       5.440  10.110  49.026  1.00  0.00     0.053 C 
BRANCH   8   9
ATOM      9  C   UNL     1       4.841   9.360  50.175  1.00  0.00     0.041 C 
ATOM     10  O   UNL     1       5.270   9.543  51.344  1.00  0.00    -0.550 OA
ATOM     11  O   UNL     1       3.832   8.432  49.949  1.00  0.00    -0.550 OA
ENDBRANCH   8   9
ENDBRANCH   7   8
ENDBRANCH   6   7
ENDBRANCH   5   6
ENDBRANCH   4   5
ENDBRANCH   3   4
ENDBRANCH   2   3
ENDBRANCH   1   2
BRANCH   1  12
ATOM     12  C   UNL     1       6.360   2.035  47.556  1.00  0.00     0.000 C 
BRANCH  12  13
ATOM     13  C   UNL     1       7.088   1.237  48.652  1.00  0.00    -0.000 C 
BRANCH  13  14
ATOM     14  C   UNL     1       6.347   1.153  50.002  1.00  0.00    -0.000 C 
BRANCH  14  15
ATOM     15  C   UNL     1       7.126   1.709  51.209  1.00  0.00    -0.000 C 
BRANCH  15  16
ATOM     16  C   UNL     1       6.256   2.371  52.293  1.00  0.00    -0.000 C 
BRANCH  16  17
ATOM     17  C   UNL     1       4.739   2.179  52.077  1.00  0.00    -0.000 C 
BRANCH  17  18
ATOM     18  C   UNL     1       4.004   3.510  51.842  1.00  0.00    -0.000 C 
BRANCH  18  19
ATOM     19  C   UNL     1       3.076   3.464  50.618  1.00  0.00    -0.003 C 
ATOM     20  C   UNL     1       2.827   2.040  50.120  1.00  0.00     0.004 C 
ENDBRANCH  18  19
ENDBRANCH  17  18
ENDBRANCH  16  17
ENDBRANCH  15  16
ENDBRANCH  14  15
ENDBRANCH  13  14
ENDBRANCH  12  13
ENDBRANCH   1  12
TORSDOF 16
ENDMDL
