MODEL 1
REMARK VINA RESULT:    -3.888      0.000      0.000
REMARK INTER + INTRA:          -8.305
REMARK INTER:                  -6.616
REMARK INTRA:                  -1.688
REMARK UNBOUND:                -1.688
REMARK SMILES CCCCCCCCCCCCCC(=O)[O-]
REMARK SMILES IDX 8 1 9 2 10 3 11 4 12 5 13 6 14 7 15 8 16 9 7 10 6 11 5 12
REMARK SMILES IDX 4 13 3 14 2 15 1 16
REMARK H PARENT
REMARK Flexibility Score: inf
ROOT
ATOM      1  C   UNL     1     173.831 177.694 153.008  1.00  0.00     0.000 C 
ENDROOT
BRANCH   1   2
ATOM      2  C   UNL     1     175.293 178.051 153.299  1.00  0.00     0.000 C 
BRANCH   2   3
ATOM      3  C   UNL     1     175.949 176.998 154.201  1.00  0.00     0.000 C 
BRANCH   3   4
ATOM      4  C   UNL     1     174.975 176.514 155.282  1.00  0.00     0.000 C 
BRANCH   4   5
ATOM      5  C   UNL     1     175.332 175.099 155.752  1.00  0.00     0.006 C 
BRANCH   5   6
ATOM      6  C   UNL     1     175.680 174.198 154.564  1.00  0.00     0.053 C 
BRANCH   6   7
ATOM      7  C   UNL     1     176.735 173.209 154.948  1.00  0.00     0.041 C 
ATOM      8  O   UNL     1     176.756 172.725 156.110  1.00  0.00    -0.550 OA
ATOM      9  O   UNL     1     177.667 172.787 154.009  1.00  0.00    -0.550 OA
ENDBRANCH   6   7
ENDBRANCH   5   6
ENDBRANCH   4   5
ENDBRANCH   3   4
ENDBRANCH   2   3
ENDBRANCH   1   2
BRANCH   1  10
ATOM     10  C   UNL     1     173.478 177.978 151.541  1.00  0.00     0.000 C 
BRANCH  10  11
ATOM     11  C   UNL     1     173.862 176.823 150.599  1.00  0.00    -0.000 C 
BRANCH  11  12
ATOM     12  C   UNL     1     173.494 175.414 151.106  1.00  0.00    -0.000 C 
BRANCH  12  13
ATOM     13  C   UNL     1     174.653 174.402 151.122  1.00  0.00    -0.000 C 
BRANCH  13  14
ATOM     14  C   UNL     1     176.033 175.075 151.085  1.00  0.00    -0.000 C 
BRANCH  14  15
ATOM     15  C   UNL     1     177.135 174.050 150.788  1.00  0.00    -0.003 C 
ATOM     16  C   UNL     1     176.540 172.700 150.396  1.00  0.00     0.004 C 
ENDBRANCH  14  15
ENDBRANCH  13  14
ENDBRANCH  12  13
ENDBRANCH  11  12
ENDBRANCH  10  11
ENDBRANCH   1  10
TORSDOF 12
ENDMDL
MODEL 2
REMARK VINA RESULT:    -3.864      9.979     11.891
REMARK INTER + INTRA:          -8.262
REMARK INTER:                  -6.606
REMARK INTRA:                  -1.656
REMARK UNBOUND:                -1.688
REMARK SMILES CCCCCCCCCCCCCC(=O)[O-]
REMARK SMILES IDX 8 1 9 2 10 3 11 4 12 5 13 6 14 7 15 8 16 9 7 10 6 11 5 12
REMARK SMILES IDX 4 13 3 14 2 15 1 16
REMARK H PARENT
REMARK Flexibility Score: inf
ROOT
ATOM      1  C   UNL     1     164.772 176.990 152.952  1.00  0.00     0.000 C 
ENDROOT
BRANCH   1   2
ATOM      2  C   UNL     1     164.470 177.961 151.806  1.00  0.00     0.000 C 
BRANCH   2   3
ATOM      3  C   UNL     1     165.332 177.649 150.576  1.00  0.00     0.000 C 
BRANCH   3   4
ATOM      4  C   UNL     1     165.729 176.168 150.543  1.00  0.00     0.000 C 
BRANCH   4   5
ATOM      5  C   UNL     1     167.093 175.979 149.869  1.00  0.00     0.006 C 
BRANCH   5   6
ATOM      6  C   UNL     1     168.087 177.048 150.329  1.00  0.00     0.053 C 
BRANCH   6   7
ATOM      7  C   UNL     1     168.678 176.678 151.653  1.00  0.00     0.041 C 
ATOM      8  O   UNL     1     168.415 177.362 152.677  1.00  0.00    -0.550 OA
ATOM      9  O   UNL     1     169.480 175.550 151.766  1.00  0.00    -0.550 OA
ENDBRANCH   6   7
ENDBRANCH   5   6
ENDBRANCH   4   5
ENDBRANCH   3   4
ENDBRANCH   2   3
ENDBRANCH   1   2
BRANCH   1  10
ATOM     10  C   UNL     1     163.748 177.142 154.085  1.00  0.00     0.000 C 
BRANCH  10  11
ATOM     11  C   UNL     1     162.553 178.031 153.697  1.00  0.00    -0.000 C 
BRANCH  11  12
ATOM     12  C   UNL     1     161.166 177.444 154.024  1.00  0.00    -0.000 C 
BRANCH  12  13
ATOM     13  C   UNL     1     160.270 177.165 152.805  1.00  0.00    -0.000 C 
BRANCH  13  14
ATOM     14  C   UNL     1     160.685 177.969 151.563  1.00  0.00    -0.000 C 
BRANCH  14  15
ATOM     15  C   UNL     1     160.900 177.044 150.359  1.00  0.00    -0.003 C 
ATOM     16  C   UNL     1     161.733 175.824 150.743  1.00  0.00     0.004 C 
ENDBRANCH  14  15
ENDBRANCH  13  14
ENDBRANCH  12  13
ENDBRANCH  11  12
ENDBRANCH  10  11
ENDBRANCH   1  10
TORSDOF 12
ENDMDL
MODEL 3
REMARK VINA RESULT:    -3.780     10.514     12.472
REMARK INTER + INTRA:          -8.121
REMARK INTER:                  -6.997
REMARK INTRA:                  -1.124
REMARK UNBOUND:                -1.688
REMARK SMILES CCCCCCCCCCCCCC(=O)[O-]
REMARK SMILES IDX 8 1 9 2 10 3 11 4 12 5 13 6 14 7 15 8 16 9 7 10 6 11 5 12
REMARK SMILES IDX 4 13 3 14 2 15 1 16
REMARK H PARENT
REMARK Flexibility Score: inf
ROOT
ATOM      1  C   UNL     1     163.928 176.194 151.106  1.00  0.00     0.000 C 
ENDROOT
BRANCH   1   2
ATOM      2  C   UNL     1     164.253 177.684 151.266  1.00  0.00     0.000 C 
BRANCH   2   3
ATOM      3  C   UNL     1     165.768 177.915 151.326  1.00  0.00     0.000 C 
BRANCH   3   4
ATOM      4  C   UNL     1     166.396 177.813 149.931  1.00  0.00     0.000 C 
BRANCH   4   5
ATOM      5  C   UNL     1     167.533 176.785 149.912  1.00  0.00     0.006 C 
BRANCH   5   6
ATOM      6  C   UNL     1     167.184 175.595 149.014  1.00  0.00     0.053 C 
BRANCH   6   7
ATOM      7  C   UNL     1     167.217 174.320 149.797  1.00  0.00     0.041 C 
ATOM      8  O   UNL     1     168.279 173.954 150.365  1.00  0.00    -0.550 OA
ATOM      9  O   UNL     1     166.063 173.561 149.940  1.00  0.00    -0.550 OA
ENDBRANCH   6   7
ENDBRANCH   5   6
ENDBRANCH   4   5
ENDBRANCH   3   4
ENDBRANCH   2   3
ENDBRANCH   1   2
BRANCH   1  10
ATOM     10  C   UNL     1     162.441 175.987 150.785  1.00  0.00     0.000 C 
BRANCH  10  11
ATOM     11  C   UNL     1     161.664 177.311 150.672  1.00  0.00    -0.000 C 
BRANCH  11  12
ATOM     12  C   UNL     1     160.282 177.320 151.357  1.00  0.00    -0.000 C 
BRANCH  12  13
ATOM     13  C   UNL     1     160.207 178.125 152.666  1.00  0.00    -0.000 C 
BRANCH  13  14
ATOM     14  C   UNL     1     161.499 178.041 153.493  1.00  0.00    -0.000 C 
BRANCH  14  15
ATOM     15  C   UNL     1     161.242 177.361 154.843  1.00  0.00    -0.003 C 
ATOM     16  C   UNL     1     160.736 175.934 154.655  1.00  0.00     0.004 C 
ENDBRANCH  14  15
ENDBRANCH  13  14
ENDBRANCH  12  13
ENDBRANCH  11  12
ENDBRANCH  10  11
ENDBRANCH   1  10
TORSDOF 12
ENDMDL
MODEL 4
REMARK VINA RESULT:    -3.754     12.747     14.236
REMARK INTER + INTRA:          -8.076
REMARK INTER:                  -6.048
REMARK INTRA:                  -2.029
REMARK UNBOUND:                -1.688
REMARK SMILES CCCCCCCCCCCCCC(=O)[O-]
REMARK SMILES IDX 8 1 9 2 10 3 11 4 12 5 13 6 14 7 15 8 16 9 7 10 6 11 5 12
REMARK SMILES IDX 4 13 3 14 2 15 1 16
REMARK H PARENT
REMARK Flexibility Score: inf
ROOT
ATOM      1  C   UNL     1     162.348 176.587 150.795  1.00  0.00     0.000 C 
ENDROOT
BRANCH   1   2
ATOM      2  C   UNL     1     163.398 177.625 151.207  1.00  0.00     0.000 C 
BRANCH   2   3
ATOM      3  C   UNL     1     163.603 177.629 152.727  1.00  0.00     0.000 C 
BRANCH   3   4
ATOM      4  C   UNL     1     163.707 176.200 153.273  1.00  0.00     0.000 C 
BRANCH   4   5
ATOM      5  C   UNL     1     163.060 176.092 154.659  1.00  0.00     0.006 C 
BRANCH   5   6
ATOM      6  C   UNL     1     162.234 177.341 154.979  1.00  0.00     0.053 C 
BRANCH   6   7
ATOM      7  C   UNL     1     161.253 177.055 156.071  1.00  0.00     0.041 C 
ATOM      8  O   UNL     1     160.031 176.913 155.803  1.00  0.00    -0.550 OA
ATOM      9  O   UNL     1     161.694 176.896 157.378  1.00  0.00    -0.550 OA
ENDBRANCH   6   7
ENDBRANCH   5   6
ENDBRANCH   4   5
ENDBRANCH   3   4
ENDBRANCH   2   3
ENDBRANCH   1   2
BRANCH   1  10
ATOM     10  C   UNL     1     161.013 177.262 150.451  1.00  0.00     0.000 C 
BRANCH  10  11
ATOM     11  C   UNL     1     159.985 177.170 151.593  1.00  0.00    -0.000 C 
BRANCH  11  12
ATOM     12  C   UNL     1     160.054 175.880 152.435  1.00  0.00    -0.000 C 
BRANCH  12  13
ATOM     13  C   UNL     1     159.190 174.716 151.919  1.00  0.00    -0.000 C 
BRANCH  13  14
ATOM     14  C   UNL     1     159.980 173.407 151.771  1.00  0.00    -0.000 C 
BRANCH  14  15
ATOM     15  C   UNL     1     161.209 173.401 152.688  1.00  0.00    -0.003 C 
ATOM     16  C   UNL     1     162.464 172.988 151.925  1.00  0.00     0.004 C 
ENDBRANCH  14  15
ENDBRANCH  13  14
ENDBRANCH  12  13
ENDBRANCH  11  12
ENDBRANCH  10  11
ENDBRANCH   1  10
TORSDOF 12
ENDMDL
MODEL 5
REMARK VINA RESULT:    -3.742      1.342      2.298
REMARK INTER + INTRA:          -8.056
REMARK INTER:                  -6.346
REMARK INTRA:                  -1.710
REMARK UNBOUND:                -1.688
REMARK SMILES CCCCCCCCCCCCCC(=O)[O-]
REMARK SMILES IDX 8 1 9 2 10 3 11 4 12 5 13 6 14 7 15 8 16 9 7 10 6 11 5 12
REMARK SMILES IDX 4 13 3 14 2 15 1 16
REMARK H PARENT
REMARK Flexibility Score: inf
ROOT
ATOM      1  C   UNL     1     173.759 176.526 150.666  1.00  0.00     0.000 C 
ENDROOT
BRANCH   1   2
ATOM      2  C   UNL     1     173.941 177.993 151.073  1.00  0.00     0.000 C 
BRANCH   2   3
ATOM      3  C   UNL     1     174.148 178.124 152.587  1.00  0.00     0.000 C 
BRANCH   3   4
ATOM      4  C   UNL     1     175.638 178.081 152.946  1.00  0.00     0.000 C 
BRANCH   4   5
ATOM      5  C   UNL     1     175.867 177.322 154.258  1.00  0.00     0.006 C 
BRANCH   5   6
ATOM      6  C   UNL     1     174.937 176.110 154.362  1.00  0.00     0.053 C 
BRANCH   6   7
ATOM      7  C   UNL     1     175.605 175.000 155.110  1.00  0.00     0.041 C 
ATOM      8  O   UNL     1     175.014 173.900 155.269  1.00  0.00    -0.550 OA
ATOM      9  O   UNL     1     176.898 175.164 155.589  1.00  0.00    -0.550 OA
ENDBRANCH   6   7
ENDBRANCH   5   6
ENDBRANCH   4   5
ENDBRANCH   3   4
ENDBRANCH   2   3
ENDBRANCH   1   2
BRANCH   1  10
ATOM     10  C   UNL     1     172.657 175.857 151.500  1.00  0.00     0.000 C 
BRANCH  10  11
ATOM     11  C   UNL     1     172.868 174.341 151.663  1.00  0.00    -0.000 C 
BRANCH  11  12
ATOM     12  C   UNL     1     173.408 173.617 150.414  1.00  0.00    -0.000 C 
BRANCH  12  13
ATOM     13  C   UNL     1     174.738 172.870 150.615  1.00  0.00    -0.000 C 
BRANCH  13  14
ATOM     14  C   UNL     1     175.560 173.421 151.790  1.00  0.00    -0.000 C 
BRANCH  14  15
ATOM     15  C   UNL     1     176.750 174.246 151.286  1.00  0.00    -0.003 C 
ATOM     16  C   UNL     1     177.378 173.610 150.048  1.00  0.00     0.004 C 
ENDBRANCH  14  15
ENDBRANCH  13  14
ENDBRANCH  12  13
ENDBRANCH  11  12
ENDBRANCH  10  11
ENDBRANCH   1  10
TORSDOF 12
ENDMDL
MODEL 6
REMARK VINA RESULT:    -3.735      1.754      4.580
REMARK INTER + INTRA:          -8.044
REMARK INTER:                  -6.919
REMARK INTRA:                  -1.125
REMARK UNBOUND:                -1.688
REMARK SMILES CCCCCCCCCCCCCC(=O)[O-]
REMARK SMILES IDX 8 1 9 2 10 3 11 4 12 5 13 6 14 7 15 8 16 9 7 10 6 11 5 12
REMARK SMILES IDX 4 13 3 14 2 15 1 16
REMARK H PARENT
REMARK Flexibility Score: inf
ROOT
ATOM      1  C   UNL     1     175.257 174.823 151.173  1.00  0.00     0.000 C 
ENDROOT
BRANCH   1   2
ATOM      2  C   UNL     1     176.703 174.326 151.281  1.00  0.00     0.000 C 
BRANCH   2   3
ATOM      3  C   UNL     1     177.020 173.308 150.179  1.00  0.00     0.000 C 
BRANCH   3   4
ATOM      4  C   UNL     1     175.957 172.205 150.125  1.00  0.00     0.000 C 
BRANCH   4   5
ATOM      5  C   UNL     1     176.589 170.822 150.325  1.00  0.00     0.006 C 
BRANCH   5   6
ATOM      6  C   UNL     1     175.973 170.106 151.531  1.00  0.00     0.053 C 
BRANCH   6   7
ATOM      7  C   UNL     1     176.881 170.200 152.716  1.00  0.00     0.041 C 
ATOM      8  O   UNL     1     177.481 169.176 153.136  1.00  0.00    -0.550 OA
ATOM      9  O   UNL     1     177.103 171.427 153.326  1.00  0.00    -0.550 OA
ENDBRANCH   6   7
ENDBRANCH   5   6
ENDBRANCH   4   5
ENDBRANCH   3   4
ENDBRANCH   2   3
ENDBRANCH   1   2
BRANCH   1  10
ATOM     10  C   UNL     1     175.213 176.300 150.758  1.00  0.00     0.000 C 
BRANCH  10  11
ATOM     11  C   UNL     1     173.892 176.991 151.144  1.00  0.00    -0.000 C 
BRANCH  11  12
ATOM     12  C   UNL     1     174.025 178.125 152.181  1.00  0.00    -0.000 C 
BRANCH  12  13
ATOM     13  C   UNL     1     173.608 177.752 153.614  1.00  0.00    -0.000 C 
BRANCH  13  14
ATOM     14  C   UNL     1     174.757 177.891 154.625  1.00  0.00    -0.000 C 
BRANCH  14  15
ATOM     15  C   UNL     1     175.913 176.947 154.274  1.00  0.00    -0.003 C 
ATOM     16  C   UNL     1     175.944 175.743 155.212  1.00  0.00     0.004 C 
ENDBRANCH  14  15
ENDBRANCH  13  14
ENDBRANCH  12  13
ENDBRANCH  11  12
ENDBRANCH  10  11
ENDBRANCH   1  10
TORSDOF 12
ENDMDL
MODEL 7
REMARK VINA RESULT:    -3.713      1.260      2.762
REMARK INTER + INTRA:          -8.006
REMARK INTER:                  -6.445
REMARK INTRA:                  -1.561
REMARK UNBOUND:                -1.688
REMARK SMILES CCCCCCCCCCCCCC(=O)[O-]
REMARK SMILES IDX 8 1 9 2 10 3 11 4 12 5 13 6 14 7 15 8 16 9 7 10 6 11 5 12
REMARK SMILES IDX 4 13 3 14 2 15 1 16
REMARK H PARENT
REMARK Flexibility Score: inf
ROOT
ATOM      1  C   UNL     1     173.896 176.246 150.765  1.00  0.00     0.000 C 
ENDROOT
BRANCH   1   2
ATOM      2  C   UNL     1     173.064 177.225 151.601  1.00  0.00     0.000 C 
BRANCH   2   3
ATOM      3  C   UNL     1     173.944 177.978 152.607  1.00  0.00     0.000 C 
BRANCH   3   4
ATOM      4  C   UNL     1     175.390 177.470 152.563  1.00  0.00     0.000 C 
BRANCH   4   5
ATOM      5  C   UNL     1     175.845 176.985 153.944  1.00  0.00     0.006 C 
BRANCH   5   6
ATOM      6  C   UNL     1     175.192 175.646 154.300  1.00  0.00     0.053 C 
BRANCH   6   7
ATOM      7  C   UNL     1     176.216 174.682 154.810  1.00  0.00     0.041 C 
ATOM      8  O   UNL     1     176.512 173.659 154.139  1.00  0.00    -0.550 OA
ATOM      9  O   UNL     1     176.878 174.939 156.003  1.00  0.00    -0.550 OA
ENDBRANCH   6   7
ENDBRANCH   5   6
ENDBRANCH   4   5
ENDBRANCH   3   4
ENDBRANCH   2   3
ENDBRANCH   1   2
BRANCH   1  10
ATOM     10  C   UNL     1     173.352 174.816 150.890  1.00  0.00     0.000 C 
BRANCH  10  11
ATOM     11  C   UNL     1     174.458 173.776 151.140  1.00  0.00    -0.000 C 
BRANCH  11  12
ATOM     12  C   UNL     1     175.892 174.262 150.849  1.00  0.00    -0.000 C 
BRANCH  12  13
ATOM     13  C   UNL     1     176.879 173.164 150.416  1.00  0.00    -0.000 C 
BRANCH  13  14
ATOM     14  C   UNL     1     176.184 171.964 149.756  1.00  0.00    -0.000 C 
BRANCH  14  15
ATOM     15  C   UNL     1     176.636 170.647 150.399  1.00  0.00    -0.003 C 
ATOM     16  C   UNL     1     176.404 170.663 151.908  1.00  0.00     0.004 C 
ENDBRANCH  14  15
ENDBRANCH  13  14
ENDBRANCH  12  13
ENDBRANCH  11  12
ENDBRANCH  10  11
ENDBRANCH   1  10
TORSDOF 12
ENDMDL
MODEL 8
REMARK VINA RESULT:    -3.681     11.803     13.357
REMARK INTER + INTRA:          -7.952
REMARK INTER:                  -7.147
REMARK INTRA:                  -0.805
REMARK UNBOUND:                -1.688
REMARK SMILES CCCCCCCCCCCCCC(=O)[O-]
REMARK SMILES IDX 8 1 9 2 10 3 11 4 12 5 13 6 14 7 15 8 16 9 7 10 6 11 5 12
REMARK SMILES IDX 4 13 3 14 2 15 1 16
REMARK H PARENT
REMARK Flexibility Score: inf
ROOT
ATOM      1  C   UNL     1     162.397 176.600 150.752  1.00  0.00     0.000 C 
ENDROOT
BRANCH   1   2
ATOM      2  C   UNL     1     160.932 176.989 150.527  1.00  0.00     0.000 C 
BRANCH   2   3
ATOM      3  C   UNL     1     160.189 177.139 151.861  1.00  0.00     0.000 C 
BRANCH   3   4
ATOM      4  C   UNL     1     160.330 175.874 152.715  1.00  0.00     0.000 C 
BRANCH   4   5
ATOM      5  C   UNL     1     159.635 174.680 152.050  1.00  0.00     0.006 C 
BRANCH   5   6
ATOM      6  C   UNL     1     160.603 173.505 151.882  1.00  0.00     0.053 C 
BRANCH   6   7
ATOM      7  C   UNL     1     159.862 172.207 151.926  1.00  0.00     0.041 C 
ATOM      8  O   UNL     1     159.214 171.882 152.956  1.00  0.00    -0.550 OA
ATOM      9  O   UNL     1     159.846 171.377 150.813  1.00  0.00    -0.550 OA
ENDBRANCH   6   7
ENDBRANCH   5   6
ENDBRANCH   4   5
ENDBRANCH   3   4
ENDBRANCH   2   3
ENDBRANCH   1   2
BRANCH   1  10
ATOM     10  C   UNL     1     163.175 177.745 151.417  1.00  0.00     0.000 C 
BRANCH  10  11
ATOM     11  C   UNL     1     164.523 177.290 152.005  1.00  0.00    -0.000 C 
BRANCH  11  12
ATOM     12  C   UNL     1     165.743 178.125 151.568  1.00  0.00    -0.000 C 
BRANCH  12  13
ATOM     13  C   UNL     1     166.157 177.955 150.095  1.00  0.00    -0.000 C 
BRANCH  13  14
ATOM     14  C   UNL     1     167.145 176.798 149.883  1.00  0.00    -0.000 C 
BRANCH  14  15
ATOM     15  C   UNL     1     168.417 177.003 150.715  1.00  0.00    -0.003 C 
ATOM     16  C   UNL     1     168.745 175.758 151.535  1.00  0.00     0.004 C 
ENDBRANCH  14  15
ENDBRANCH  13  14
ENDBRANCH  12  13
ENDBRANCH  11  12
ENDBRANCH  10  11
ENDBRANCH   1  10
TORSDOF 12
ENDMDL
MODEL 9
REMARK VINA RESULT:    -3.420     10.700     12.671
REMARK INTER + INTRA:          -7.507
REMARK INTER:                  -5.571
REMARK INTRA:                  -1.935
REMARK UNBOUND:                -1.688
REMARK SMILES CCCCCCCCCCCCCC(=O)[O-]
REMARK SMILES IDX 8 1 9 2 10 3 11 4 12 5 13 6 14 7 15 8 16 9 7 10 6 11 5 12
REMARK SMILES IDX 4 13 3 14 2 15 1 16
REMARK H PARENT
REMARK Flexibility Score: inf
ROOT
ATOM      1  C   UNL     1     165.800 174.024 150.957  1.00  0.00     0.000 C 
ENDROOT
BRANCH   1   2
ATOM      2  C   UNL     1     164.524 174.309 151.757  1.00  0.00     0.000 C 
BRANCH   2   3
ATOM      3  C   UNL     1     163.502 175.077 150.911  1.00  0.00     0.000 C 
BRANCH   3   4
ATOM      4  C   UNL     1     162.955 176.289 151.674  1.00  0.00     0.000 C 
BRANCH   4   5
ATOM      5  C   UNL     1     162.248 177.264 150.725  1.00  0.00     0.006 C 
BRANCH   5   6
ATOM      6  C   UNL     1     160.786 176.862 150.513  1.00  0.00     0.053 C 
BRANCH   6   7
ATOM      7  C   UNL     1     160.082 176.732 151.827  1.00  0.00     0.041 C 
ATOM      8  O   UNL     1     159.627 175.617 152.193  1.00  0.00    -0.550 OA
ATOM      9  O   UNL     1     159.972 177.831 152.668  1.00  0.00    -0.550 OA
ENDBRANCH   6   7
ENDBRANCH   5   6
ENDBRANCH   4   5
ENDBRANCH   3   4
ENDBRANCH   2   3
ENDBRANCH   1   2
BRANCH   1  10
ATOM     10  C   UNL     1     165.768 174.737 149.598  1.00  0.00     0.000 C 
BRANCH  10  11
ATOM     11  C   UNL     1     167.089 175.455 149.267  1.00  0.00    -0.000 C 
BRANCH  11  12
ATOM     12  C   UNL     1     167.415 176.669 150.160  1.00  0.00    -0.000 C 
BRANCH  12  13
ATOM     13  C   UNL     1     166.349 177.779 150.170  1.00  0.00    -0.000 C 
BRANCH  13  14
ATOM     14  C   UNL     1     165.860 178.125 151.584  1.00  0.00    -0.000 C 
BRANCH  14  15
ATOM     15  C   UNL     1     166.727 177.439 152.647  1.00  0.00    -0.003 C 
ATOM     16  C   UNL     1     165.886 176.993 153.840  1.00  0.00     0.004 C 
ENDBRANCH  14  15
ENDBRANCH  13  14
ENDBRANCH  12  13
ENDBRANCH  11  12
ENDBRANCH  10  11
ENDBRANCH   1  10
TORSDOF 12
ENDMDL
