MODEL 1
REMARK VINA RESULT:    -6.615      0.000      0.000
REMARK INTER + INTRA:         -18.738
REMARK INTER:                 -16.669
REMARK INTRA:                  -2.068
REMARK UNBOUND:                -2.068
REMARK SMILES CCCCCCCCCCCCCCCCCCCCCCCCCCCC(=O)[O-]
REMARK SMILES IDX 15 1 16 2 17 3 18 4 19 5 20 6 21 7 22 8 23 9 24 10 25 11
REMARK SMILES IDX 26 12 27 13 28 14 29 15 30 16 14 17 13 18 12 19 11 20 10 21
REMARK SMILES IDX 9 22 8 23 7 24 6 25 5 26 4 27 3 28 2 29 1 30
REMARK H PARENT
REMARK Flexibility Score: inf
ROOT
ATOM      1  C   UNL     1      45.617 -47.203 163.338  1.00  0.00     0.000 C 
ENDROOT
BRANCH   1   2
ATOM      2  C   UNL     1      45.730 -48.650 163.844  1.00  0.00     0.000 C 
BRANCH   2   3
ATOM      3  C   UNL     1      44.359 -49.326 164.024  1.00  0.00     0.000 C 
BRANCH   3   4
ATOM      4  C   UNL     1      43.526 -48.676 165.142  1.00  0.00     0.000 C 
BRANCH   4   5
ATOM      5  C   UNL     1      42.088 -48.355 164.698  1.00  0.00     0.000 C 
BRANCH   5   6
ATOM      6  C   UNL     1      41.837 -48.706 163.223  1.00  0.00     0.000 C 
BRANCH   6   7
ATOM      7  C   UNL     1      40.352 -48.986 162.929  1.00  0.00     0.000 C 
BRANCH   7   8
ATOM      8  C   UNL     1      39.758 -47.986 161.914  1.00  0.00     0.000 C 
BRANCH   8   9
ATOM      9  C   UNL     1      38.320 -48.323 161.487  1.00  0.00     0.000 C 
BRANCH   9  10
ATOM     10  C   UNL     1      37.569 -49.159 162.531  1.00  0.00     0.000 C 
BRANCH  10  11
ATOM     11  C   UNL     1      36.057 -49.153 162.263  1.00  0.00     0.000 C 
BRANCH  11  12
ATOM     12  C   UNL     1      35.361 -50.440 162.743  1.00  0.00     0.006 C 
BRANCH  12  13
ATOM     13  C   UNL     1      36.132 -51.733 162.430  1.00  0.00     0.053 C 
BRANCH  13  14
ATOM     14  C   UNL     1      35.839 -52.817 163.420  1.00  0.00     0.041 C 
ATOM     15  O   UNL     1      35.433 -52.526 164.575  1.00  0.00    -0.550 OA
ATOM     16  O   UNL     1      36.026 -54.147 163.070  1.00  0.00    -0.550 OA
ENDBRANCH  13  14
ENDBRANCH  12  13
ENDBRANCH  11  12
ENDBRANCH  10  11
ENDBRANCH   9  10
ENDBRANCH   8   9
ENDBRANCH   7   8
ENDBRANCH   6   7
ENDBRANCH   5   6
ENDBRANCH   4   5
ENDBRANCH   3   4
ENDBRANCH   2   3
ENDBRANCH   1   2
BRANCH   1  17
ATOM     17  C   UNL     1      45.893 -46.162 164.437  1.00  0.00     0.000 C 
BRANCH  17  18
ATOM     18  C   UNL     1      47.237 -46.401 165.155  1.00  0.00     0.000 C 
BRANCH  18  19
ATOM     19  C   UNL     1      48.416 -45.622 164.543  1.00  0.00     0.000 C 
BRANCH  19  20
ATOM     20  C   UNL     1      49.760 -46.349 164.708  1.00  0.00     0.000 C 
BRANCH  20  21
ATOM     21  C   UNL     1      49.586 -47.805 165.171  1.00  0.00     0.000 C 
BRANCH  21  22
ATOM     22  C   UNL     1      50.893 -48.404 165.718  1.00  0.00    -0.000 C 
BRANCH  22  23
ATOM     23  C   UNL     1      52.010 -47.360 165.875  1.00  0.00    -0.000 C 
BRANCH  23  24
ATOM     24  C   UNL     1      53.395 -47.993 166.098  1.00  0.00    -0.000 C 
BRANCH  24  25
ATOM     25  C   UNL     1      54.341 -47.057 166.868  1.00  0.00    -0.000 C 
BRANCH  25  26
ATOM     26  C   UNL     1      53.604 -45.842 167.454  1.00  0.00    -0.000 C 
BRANCH  26  27
ATOM     27  C   UNL     1      54.355 -44.526 167.196  1.00  0.00    -0.000 C 
BRANCH  27  28
ATOM     28  C   UNL     1      54.747 -44.369 165.715  1.00  0.00    -0.000 C 
BRANCH  28  29
ATOM     29  C   UNL     1      53.587 -43.860 164.847  1.00  0.00    -0.003 C 
ATOM     30  C   UNL     1      53.451 -42.337 164.871  1.00  0.00     0.004 C 
ENDBRANCH  28  29
ENDBRANCH  27  28
ENDBRANCH  26  27
ENDBRANCH  25  26
ENDBRANCH  24  25
ENDBRANCH  23  24
ENDBRANCH  22  23
ENDBRANCH  21  22
ENDBRANCH  20  21
ENDBRANCH  19  20
ENDBRANCH  18  19
ENDBRANCH  17  18
ENDBRANCH   1  17
TORSDOF 26
ENDMDL
MODEL 2
REMARK VINA RESULT:    -6.602      2.987      4.392
REMARK INTER + INTRA:         -18.706
REMARK INTER:                 -15.889
REMARK INTRA:                  -2.817
REMARK UNBOUND:                -2.068
REMARK SMILES CCCCCCCCCCCCCCCCCCCCCCCCCCCC(=O)[O-]
REMARK SMILES IDX 15 1 16 2 17 3 18 4 19 5 20 6 21 7 22 8 23 9 24 10 25 11
REMARK SMILES IDX 26 12 27 13 28 14 29 15 30 16 14 17 13 18 12 19 11 20 10 21
REMARK SMILES IDX 9 22 8 23 7 24 6 25 5 26 4 27 3 28 2 29 1 30
REMARK H PARENT
REMARK Flexibility Score: inf
ROOT
ATOM      1  C   UNL     1      45.891 -48.593 162.452  1.00  0.00     0.000 C 
ENDROOT
BRANCH   1   2
ATOM      2  C   UNL     1      45.347 -49.721 163.344  1.00  0.00     0.000 C 
BRANCH   2   3
ATOM      3  C   UNL     1      45.300 -49.333 164.833  1.00  0.00     0.000 C 
BRANCH   3   4
ATOM      4  C   UNL     1      43.886 -48.936 165.291  1.00  0.00     0.000 C 
BRANCH   4   5
ATOM      5  C   UNL     1      42.794 -49.412 164.317  1.00  0.00     0.000 C 
BRANCH   5   6
ATOM      6  C   UNL     1      41.660 -48.386 164.158  1.00  0.00     0.000 C 
BRANCH   6   7
ATOM      7  C   UNL     1      40.970 -48.478 162.785  1.00  0.00     0.000 C 
BRANCH   7   8
ATOM      8  C   UNL     1      39.605 -49.193 162.864  1.00  0.00     0.000 C 
BRANCH   8   9
ATOM      9  C   UNL     1      38.517 -48.541 161.995  1.00  0.00     0.000 C 
BRANCH   9  10
ATOM     10  C   UNL     1      37.155 -49.236 162.124  1.00  0.00     0.000 C 
BRANCH  10  11
ATOM     11  C   UNL     1      36.362 -49.149 160.812  1.00  0.00     0.000 C 
BRANCH  11  12
ATOM     12  C   UNL     1      35.685 -47.780 160.613  1.00  0.00     0.006 C 
BRANCH  12  13
ATOM     13  C   UNL     1      36.035 -47.086 159.287  1.00  0.00     0.053 C 
BRANCH  13  14
ATOM     14  C   UNL     1      36.077 -45.596 159.425  1.00  0.00     0.041 C 
ATOM     15  O   UNL     1      36.803 -44.909 158.660  1.00  0.00    -0.550 OA
ATOM     16  O   UNL     1      35.324 -44.968 160.408  1.00  0.00    -0.550 OA
ENDBRANCH  13  14
ENDBRANCH  12  13
ENDBRANCH  11  12
ENDBRANCH  10  11
ENDBRANCH   9  10
ENDBRANCH   8   9
ENDBRANCH   7   8
ENDBRANCH   6   7
ENDBRANCH   5   6
ENDBRANCH   4   5
ENDBRANCH   3   4
ENDBRANCH   2   3
ENDBRANCH   1   2
BRANCH   1  17
ATOM     17  C   UNL     1      44.779 -47.701 161.872  1.00  0.00     0.000 C 
BRANCH  17  18
ATOM     18  C   UNL     1      44.480 -46.475 162.759  1.00  0.00     0.000 C 
BRANCH  18  19
ATOM     19  C   UNL     1      45.727 -45.878 163.436  1.00  0.00     0.000 C 
BRANCH  19  20
ATOM     20  C   UNL     1      45.571 -45.744 164.959  1.00  0.00     0.000 C 
BRANCH  20  21
ATOM     21  C   UNL     1      46.907 -45.902 165.703  1.00  0.00     0.000 C 
BRANCH  21  22
ATOM     22  C   UNL     1      48.070 -46.230 164.751  1.00  0.00    -0.000 C 
BRANCH  22  23
ATOM     23  C   UNL     1      48.593 -47.667 164.918  1.00  0.00    -0.000 C 
BRANCH  23  24
ATOM     24  C   UNL     1      50.100 -47.724 165.221  1.00  0.00    -0.000 C 
BRANCH  24  25
ATOM     25  C   UNL     1      50.745 -46.327 165.212  1.00  0.00    -0.000 C 
BRANCH  25  26
ATOM     26  C   UNL     1      52.246 -46.380 165.541  1.00  0.00    -0.000 C 
BRANCH  26  27
ATOM     27  C   UNL     1      52.777 -47.821 165.604  1.00  0.00    -0.000 C 
BRANCH  27  28
ATOM     28  C   UNL     1      53.357 -48.159 166.989  1.00  0.00    -0.000 C 
BRANCH  28  29
ATOM     29  C   UNL     1      54.174 -49.460 166.988  1.00  0.00    -0.003 C 
ATOM     30  C   UNL     1      54.040 -50.246 168.293  1.00  0.00     0.004 C 
ENDBRANCH  28  29
ENDBRANCH  27  28
ENDBRANCH  26  27
ENDBRANCH  25  26
ENDBRANCH  24  25
ENDBRANCH  23  24
ENDBRANCH  22  23
ENDBRANCH  21  22
ENDBRANCH  20  21
ENDBRANCH  19  20
ENDBRANCH  18  19
ENDBRANCH  17  18
ENDBRANCH   1  17
TORSDOF 26
ENDMDL
MODEL 3
REMARK VINA RESULT:    -6.479      1.544      3.102
REMARK INTER + INTRA:         -18.394
REMARK INTER:                 -16.691
REMARK INTRA:                  -1.703
REMARK UNBOUND:                -2.068
REMARK SMILES CCCCCCCCCCCCCCCCCCCCCCCCCCCC(=O)[O-]
REMARK SMILES IDX 15 1 16 2 17 3 18 4 19 5 20 6 21 7 22 8 23 9 24 10 25 11
REMARK SMILES IDX 26 12 27 13 28 14 29 15 30 16 14 17 13 18 12 19 11 20 10 21
REMARK SMILES IDX 9 22 8 23 7 24 6 25 5 26 4 27 3 28 2 29 1 30
REMARK H PARENT
REMARK Flexibility Score: inf
ROOT
ATOM      1  C   UNL     1      44.813 -47.255 165.238  1.00  0.00     0.000 C 
ENDROOT
BRANCH   1   2
ATOM      2  C   UNL     1      45.350 -48.605 164.733  1.00  0.00     0.000 C 
BRANCH   2   3
ATOM      3  C   UNL     1      44.356 -49.333 163.810  1.00  0.00     0.000 C 
BRANCH   3   4
ATOM      4  C   UNL     1      42.908 -48.858 164.016  1.00  0.00     0.000 C 
BRANCH   4   5
ATOM      5  C   UNL     1      42.373 -48.057 162.816  1.00  0.00     0.000 C 
BRANCH   5   6
ATOM      6  C   UNL     1      40.863 -48.254 162.605  1.00  0.00     0.000 C 
BRANCH   6   7
ATOM      7  C   UNL     1      40.256 -47.193 161.669  1.00  0.00     0.000 C 
BRANCH   7   8
ATOM      8  C   UNL     1      38.764 -47.459 161.375  1.00  0.00     0.000 C 
BRANCH   8   9
ATOM      9  C   UNL     1      38.257 -48.803 161.925  1.00  0.00     0.000 C 
BRANCH   9  10
ATOM     10  C   UNL     1      36.859 -49.168 161.410  1.00  0.00     0.000 C 
BRANCH  10  11
ATOM     11  C   UNL     1      35.895 -49.443 162.572  1.00  0.00     0.000 C 
BRANCH  11  12
ATOM     12  C   UNL     1      35.011 -50.682 162.334  1.00  0.00     0.006 C 
BRANCH  12  13
ATOM     13  C   UNL     1      35.793 -51.974 162.047  1.00  0.00     0.053 C 
BRANCH  13  14
ATOM     14  C   UNL     1      35.788 -52.907 163.217  1.00  0.00     0.041 C 
ATOM     15  O   UNL     1      35.967 -54.141 163.045  1.00  0.00    -0.550 OA
ATOM     16  O   UNL     1      35.574 -52.414 164.497  1.00  0.00    -0.550 OA
ENDBRANCH  13  14
ENDBRANCH  12  13
ENDBRANCH  11  12
ENDBRANCH  10  11
ENDBRANCH   9  10
ENDBRANCH   8   9
ENDBRANCH   7   8
ENDBRANCH   6   7
ENDBRANCH   5   6
ENDBRANCH   4   5
ENDBRANCH   3   4
ENDBRANCH   2   3
ENDBRANCH   1   2
BRANCH   1  17
ATOM     17  C   UNL     1      45.729 -46.074 164.872  1.00  0.00     0.000 C 
BRANCH  17  18
ATOM     18  C   UNL     1      47.124 -46.531 164.397  1.00  0.00     0.000 C 
BRANCH  18  19
ATOM     19  C   UNL     1      48.278 -45.666 164.935  1.00  0.00     0.000 C 
BRANCH  19  20
ATOM     20  C   UNL     1      49.661 -46.201 164.531  1.00  0.00     0.000 C 
BRANCH  20  21
ATOM     21  C   UNL     1      49.971 -47.567 165.166  1.00  0.00     0.000 C 
BRANCH  21  22
ATOM     22  C   UNL     1      51.464 -47.732 165.500  1.00  0.00    -0.000 C 
BRANCH  22  23
ATOM     23  C   UNL     1      52.180 -46.389 165.713  1.00  0.00    -0.000 C 
BRANCH  23  24
ATOM     24  C   UNL     1      53.643 -46.556 166.163  1.00  0.00    -0.000 C 
BRANCH  24  25
ATOM     25  C   UNL     1      54.314 -47.772 165.504  1.00  0.00    -0.000 C 
BRANCH  25  26
ATOM     26  C   UNL     1      55.101 -48.619 166.518  1.00  0.00    -0.000 C 
BRANCH  26  27
ATOM     27  C   UNL     1      54.239 -49.038 167.719  1.00  0.00    -0.000 C 
BRANCH  27  28
ATOM     28  C   UNL     1      53.315 -50.221 167.379  1.00  0.00    -0.000 C 
BRANCH  28  29
ATOM     29  C   UNL     1      54.044 -51.573 167.421  1.00  0.00    -0.003 C 
ATOM     30  C   UNL     1      54.186 -52.127 168.839  1.00  0.00     0.004 C 
ENDBRANCH  28  29
ENDBRANCH  27  28
ENDBRANCH  26  27
ENDBRANCH  25  26
ENDBRANCH  24  25
ENDBRANCH  23  24
ENDBRANCH  22  23
ENDBRANCH  21  22
ENDBRANCH  20  21
ENDBRANCH  19  20
ENDBRANCH  18  19
ENDBRANCH  17  18
ENDBRANCH   1  17
TORSDOF 26
ENDMDL
MODEL 4
REMARK VINA RESULT:    -6.477      1.326      2.988
REMARK INTER + INTRA:         -18.389
REMARK INTER:                 -16.063
REMARK INTRA:                  -2.326
REMARK UNBOUND:                -2.068
REMARK SMILES CCCCCCCCCCCCCCCCCCCCCCCCCCCC(=O)[O-]
REMARK SMILES IDX 15 1 16 2 17 3 18 4 19 5 20 6 21 7 22 8 23 9 24 10 25 11
REMARK SMILES IDX 26 12 27 13 28 14 29 15 30 16 14 17 13 18 12 19 11 20 10 21
REMARK SMILES IDX 9 22 8 23 7 24 6 25 5 26 4 27 3 28 2 29 1 30
REMARK H PARENT
REMARK Flexibility Score: inf
ROOT
ATOM      1  C   UNL     1      43.874 -49.157 164.019  1.00  0.00     0.000 C 
ENDROOT
BRANCH   1   2
ATOM      2  C   UNL     1      42.736 -48.385 164.706  1.00  0.00     0.000 C 
BRANCH   2   3
ATOM      3  C   UNL     1      41.373 -49.089 164.571  1.00  0.00     0.000 C 
BRANCH   3   4
ATOM      4  C   UNL     1      40.858 -49.095 163.122  1.00  0.00     0.000 C 
BRANCH   4   5
ATOM      5  C   UNL     1      40.736 -47.678 162.532  1.00  0.00     0.000 C 
BRANCH   5   6
ATOM      6  C   UNL     1      39.673 -47.592 161.425  1.00  0.00     0.000 C 
BRANCH   6   7
ATOM      7  C   UNL     1      38.428 -48.442 161.736  1.00  0.00     0.000 C 
BRANCH   7   8
ATOM      8  C   UNL     1      37.410 -48.433 160.576  1.00  0.00     0.000 C 
BRANCH   8   9
ATOM      9  C   UNL     1      35.978 -48.085 161.017  1.00  0.00     0.000 C 
BRANCH   9  10
ATOM     10  C   UNL     1      35.254 -49.268 161.673  1.00  0.00     0.000 C 
BRANCH  10  11
ATOM     11  C   UNL     1      35.180 -50.471 160.721  1.00  0.00     0.000 C 
BRANCH  11  12
ATOM     12  C   UNL     1      35.307 -51.820 161.453  1.00  0.00     0.006 C 
BRANCH  12  13
ATOM     13  C   UNL     1      36.202 -51.783 162.703  1.00  0.00     0.053 C 
BRANCH  13  14
ATOM     14  C   UNL     1      35.886 -52.894 163.654  1.00  0.00     0.041 C 
ATOM     15  O   UNL     1      35.363 -52.643 164.771  1.00  0.00    -0.550 OA
ATOM     16  O   UNL     1      36.181 -54.207 163.311  1.00  0.00    -0.550 OA
ENDBRANCH  13  14
ENDBRANCH  12  13
ENDBRANCH  11  12
ENDBRANCH  10  11
ENDBRANCH   9  10
ENDBRANCH   8   9
ENDBRANCH   7   8
ENDBRANCH   6   7
ENDBRANCH   5   6
ENDBRANCH   4   5
ENDBRANCH   3   4
ENDBRANCH   2   3
ENDBRANCH   1   2
BRANCH   1  17
ATOM     17  C   UNL     1      44.459 -48.406 162.810  1.00  0.00     0.000 C 
BRANCH  17  18
ATOM     18  C   UNL     1      44.188 -46.889 162.866  1.00  0.00     0.000 C 
BRANCH  18  19
ATOM     19  C   UNL     1      45.399 -46.057 163.325  1.00  0.00     0.000 C 
BRANCH  19  20
ATOM     20  C   UNL     1      45.424 -45.830 164.846  1.00  0.00     0.000 C 
BRANCH  20  21
ATOM     21  C   UNL     1      46.691 -46.401 165.504  1.00  0.00     0.000 C 
BRANCH  21  22
ATOM     22  C   UNL     1      47.614 -47.097 164.489  1.00  0.00    -0.000 C 
BRANCH  22  23
ATOM     23  C   UNL     1      49.105 -46.901 164.804  1.00  0.00    -0.000 C 
BRANCH  23  24
ATOM     24  C   UNL     1      49.757 -48.151 165.421  1.00  0.00    -0.000 C 
BRANCH  24  25
ATOM     25  C   UNL     1      51.251 -47.940 165.714  1.00  0.00    -0.000 C 
BRANCH  25  26
ATOM     26  C   UNL     1      51.730 -46.537 165.304  1.00  0.00    -0.000 C 
BRANCH  26  27
ATOM     27  C   UNL     1      53.012 -46.121 166.042  1.00  0.00    -0.000 C 
BRANCH  27  28
ATOM     28  C   UNL     1      53.625 -47.291 166.831  1.00  0.00    -0.000 C 
BRANCH  28  29
ATOM     29  C   UNL     1      54.627 -46.825 167.899  1.00  0.00    -0.003 C 
ATOM     30  C   UNL     1      54.423 -45.365 168.307  1.00  0.00     0.004 C 
ENDBRANCH  28  29
ENDBRANCH  27  28
ENDBRANCH  26  27
ENDBRANCH  25  26
ENDBRANCH  24  25
ENDBRANCH  23  24
ENDBRANCH  22  23
ENDBRANCH  21  22
ENDBRANCH  20  21
ENDBRANCH  19  20
ENDBRANCH  18  19
ENDBRANCH  17  18
ENDBRANCH   1  17
TORSDOF 26
ENDMDL
MODEL 5
REMARK VINA RESULT:    -6.458      3.171      4.114
REMARK INTER + INTRA:         -18.342
REMARK INTER:                 -16.554
REMARK INTRA:                  -1.787
REMARK UNBOUND:                -2.068
REMARK SMILES CCCCCCCCCCCCCCCCCCCCCCCCCCCC(=O)[O-]
REMARK SMILES IDX 15 1 16 2 17 3 18 4 19 5 20 6 21 7 22 8 23 9 24 10 25 11
REMARK SMILES IDX 26 12 27 13 28 14 29 15 30 16 14 17 13 18 12 19 11 20 10 21
REMARK SMILES IDX 9 22 8 23 7 24 6 25 5 26 4 27 3 28 2 29 1 30
REMARK H PARENT
REMARK Flexibility Score: inf
ROOT
ATOM      1  C   UNL     1      45.042 -48.797 164.407  1.00  0.00     0.000 C 
ENDROOT
BRANCH   1   2
ATOM      2  C   UNL     1      43.591 -49.146 164.042  1.00  0.00     0.000 C 
BRANCH   2   3
ATOM      3  C   UNL     1      42.571 -48.574 165.043  1.00  0.00     0.000 C 
BRANCH   3   4
ATOM      4  C   UNL     1      41.128 -48.643 164.514  1.00  0.00     0.000 C 
BRANCH   4   5
ATOM      5  C   UNL     1      41.067 -48.864 162.992  1.00  0.00     0.000 C 
BRANCH   5   6
ATOM      6  C   UNL     1      40.670 -47.590 162.229  1.00  0.00     0.000 C 
BRANCH   6   7
ATOM      7  C   UNL     1      39.309 -47.727 161.523  1.00  0.00     0.000 C 
BRANCH   7   8
ATOM      8  C   UNL     1      38.406 -48.783 162.194  1.00  0.00     0.000 C 
BRANCH   8   9
ATOM      9  C   UNL     1      36.994 -48.860 161.589  1.00  0.00     0.000 C 
BRANCH   9  10
ATOM     10  C   UNL     1      36.979 -48.603 160.077  1.00  0.00     0.000 C 
BRANCH  10  11
ATOM     11  C   UNL     1      35.560 -48.289 159.581  1.00  0.00     0.000 C 
BRANCH  11  12
ATOM     12  C   UNL     1      35.406 -46.836 159.097  1.00  0.00     0.006 C 
BRANCH  12  13
ATOM     13  C   UNL     1      36.317 -45.826 159.814  1.00  0.00     0.053 C 
BRANCH  13  14
ATOM     14  C   UNL     1      36.546 -44.594 158.996  1.00  0.00     0.041 C 
ATOM     15  O   UNL     1      37.716 -44.173 158.800  1.00  0.00    -0.550 OA
ATOM     16  O   UNL     1      35.467 -43.905 158.461  1.00  0.00    -0.550 OA
ENDBRANCH  13  14
ENDBRANCH  12  13
ENDBRANCH  11  12
ENDBRANCH  10  11
ENDBRANCH   9  10
ENDBRANCH   8   9
ENDBRANCH   7   8
ENDBRANCH   6   7
ENDBRANCH   5   6
ENDBRANCH   4   5
ENDBRANCH   3   4
ENDBRANCH   2   3
ENDBRANCH   1   2
BRANCH   1  17
ATOM     17  C   UNL     1      45.773 -48.034 163.288  1.00  0.00     0.000 C 
BRANCH  17  18
ATOM     18  C   UNL     1      45.702 -46.504 163.471  1.00  0.00     0.000 C 
BRANCH  18  19
ATOM     19  C   UNL     1      45.468 -46.061 164.926  1.00  0.00     0.000 C 
BRANCH  19  20
ATOM     20  C   UNL     1      46.778 -45.781 165.681  1.00  0.00     0.000 C 
BRANCH  20  21
ATOM     21  C   UNL     1      48.006 -45.811 164.757  1.00  0.00     0.000 C 
BRANCH  21  22
ATOM     22  C   UNL     1      48.880 -47.056 164.986  1.00  0.00    -0.000 C 
BRANCH  22  23
ATOM     23  C   UNL     1      50.375 -46.721 165.118  1.00  0.00    -0.000 C 
BRANCH  23  24
ATOM     24  C   UNL     1      51.217 -47.920 165.588  1.00  0.00    -0.000 C 
BRANCH  24  25
ATOM     25  C   UNL     1      52.677 -47.526 165.867  1.00  0.00    -0.000 C 
BRANCH  25  26
ATOM     26  C   UNL     1      52.794 -46.107 166.447  1.00  0.00    -0.000 C 
BRANCH  26  27
ATOM     27  C   UNL     1      54.199 -45.819 166.999  1.00  0.00    -0.000 C 
BRANCH  27  28
ATOM     28  C   UNL     1      54.613 -44.353 166.781  1.00  0.00    -0.000 C 
BRANCH  28  29
ATOM     29  C   UNL     1      53.992 -43.744 165.514  1.00  0.00    -0.003 C 
ATOM     30  C   UNL     1      54.795 -44.058 164.250  1.00  0.00     0.004 C 
ENDBRANCH  28  29
ENDBRANCH  27  28
ENDBRANCH  26  27
ENDBRANCH  25  26
ENDBRANCH  24  25
ENDBRANCH  23  24
ENDBRANCH  22  23
ENDBRANCH  21  22
ENDBRANCH  20  21
ENDBRANCH  19  20
ENDBRANCH  18  19
ENDBRANCH  17  18
ENDBRANCH   1  17
TORSDOF 26
ENDMDL
MODEL 6
REMARK VINA RESULT:    -6.448      1.424      3.472
REMARK INTER + INTRA:         -18.317
REMARK INTER:                 -16.725
REMARK INTRA:                  -1.592
REMARK UNBOUND:                -2.068
REMARK SMILES CCCCCCCCCCCCCCCCCCCCCCCCCCCC(=O)[O-]
REMARK SMILES IDX 15 1 16 2 17 3 18 4 19 5 20 6 21 7 22 8 23 9 24 10 25 11
REMARK SMILES IDX 26 12 27 13 28 14 29 15 30 16 14 17 13 18 12 19 11 20 10 21
REMARK SMILES IDX 9 22 8 23 7 24 6 25 5 26 4 27 3 28 2 29 1 30
REMARK H PARENT
REMARK Flexibility Score: inf
ROOT
ATOM      1  C   UNL     1      43.354 -48.300 165.128  1.00  0.00     0.000 C 
ENDROOT
BRANCH   1   2
ATOM      2  C   UNL     1      41.841 -48.392 164.871  1.00  0.00     0.000 C 
BRANCH   2   3
ATOM      3  C   UNL     1      41.467 -49.544 163.921  1.00  0.00     0.000 C 
BRANCH   3   4
ATOM      4  C   UNL     1      40.362 -49.149 162.927  1.00  0.00     0.000 C 
BRANCH   4   5
ATOM      5  C   UNL     1      40.620 -47.783 162.268  1.00  0.00     0.000 C 
BRANCH   5   6
ATOM      6  C   UNL     1      39.388 -47.249 161.519  1.00  0.00     0.000 C 
BRANCH   6   7
ATOM      7  C   UNL     1      38.368 -48.357 161.199  1.00  0.00     0.000 C 
BRANCH   7   8
ATOM      8  C   UNL     1      37.052 -47.791 160.623  1.00  0.00     0.000 C 
BRANCH   8   9
ATOM      9  C   UNL     1      35.832 -48.694 160.873  1.00  0.00     0.000 C 
BRANCH   9  10
ATOM     10  C   UNL     1      35.430 -48.755 162.353  1.00  0.00     0.000 C 
BRANCH  10  11
ATOM     11  C   UNL     1      35.015 -50.177 162.756  1.00  0.00     0.000 C 
BRANCH  11  12
ATOM     12  C   UNL     1      36.149 -51.204 162.573  1.00  0.00     0.006 C 
BRANCH  12  13
ATOM     13  C   UNL     1      35.670 -52.653 162.388  1.00  0.00     0.053 C 
BRANCH  13  14
ATOM     14  C   UNL     1      36.015 -53.514 163.562  1.00  0.00     0.041 C 
ATOM     15  O   UNL     1      35.644 -54.716 163.597  1.00  0.00    -0.550 OA
ATOM     16  O   UNL     1      36.737 -52.985 164.623  1.00  0.00    -0.550 OA
ENDBRANCH  13  14
ENDBRANCH  12  13
ENDBRANCH  11  12
ENDBRANCH  10  11
ENDBRANCH   9  10
ENDBRANCH   8   9
ENDBRANCH   7   8
ENDBRANCH   6   7
ENDBRANCH   5   6
ENDBRANCH   4   5
ENDBRANCH   3   4
ENDBRANCH   2   3
ENDBRANCH   1   2
BRANCH   1  17
ATOM     17  C   UNL     1      44.184 -48.354 163.834  1.00  0.00     0.000 C 
BRANCH  17  18
ATOM     18  C   UNL     1      45.629 -47.854 164.036  1.00  0.00     0.000 C 
BRANCH  18  19
ATOM     19  C   UNL     1      45.720 -46.411 164.562  1.00  0.00     0.000 C 
BRANCH  19  20
ATOM     20  C   UNL     1      47.084 -46.093 165.196  1.00  0.00     0.000 C 
BRANCH  20  21
ATOM     21  C   UNL     1      48.174 -47.093 164.777  1.00  0.00     0.000 C 
BRANCH  21  22
ATOM     22  C   UNL     1      49.514 -46.403 164.470  1.00  0.00    -0.000 C 
BRANCH  22  23
ATOM     23  C   UNL     1      50.588 -46.683 165.533  1.00  0.00    -0.000 C 
BRANCH  23  24
ATOM     24  C   UNL     1      51.873 -45.865 165.315  1.00  0.00    -0.000 C 
BRANCH  24  25
ATOM     25  C   UNL     1      52.951 -46.191 166.362  1.00  0.00    -0.000 C 
BRANCH  25  26
ATOM     26  C   UNL     1      53.897 -47.309 165.891  1.00  0.00    -0.000 C 
BRANCH  26  27
ATOM     27  C   UNL     1      54.589 -48.018 167.066  1.00  0.00    -0.000 C 
BRANCH  27  28
ATOM     28  C   UNL     1      54.339 -49.536 167.048  1.00  0.00    -0.000 C 
BRANCH  28  29
ATOM     29  C   UNL     1      54.044 -50.105 168.444  1.00  0.00    -0.003 C 
ATOM     30  C   UNL     1      53.960 -51.632 168.457  1.00  0.00     0.004 C 
ENDBRANCH  28  29
ENDBRANCH  27  28
ENDBRANCH  26  27
ENDBRANCH  25  26
ENDBRANCH  24  25
ENDBRANCH  23  24
ENDBRANCH  22  23
ENDBRANCH  21  22
ENDBRANCH  20  21
ENDBRANCH  19  20
ENDBRANCH  18  19
ENDBRANCH  17  18
ENDBRANCH   1  17
TORSDOF 26
ENDMDL
MODEL 7
REMARK VINA RESULT:    -6.432      3.088      3.723
REMARK INTER + INTRA:         -18.277
REMARK INTER:                 -16.271
REMARK INTRA:                  -2.006
REMARK UNBOUND:                -2.068
REMARK SMILES CCCCCCCCCCCCCCCCCCCCCCCCCCCC(=O)[O-]
REMARK SMILES IDX 15 1 16 2 17 3 18 4 19 5 20 6 21 7 22 8 23 9 24 10 25 11
REMARK SMILES IDX 26 12 27 13 28 14 29 15 30 16 14 17 13 18 12 19 11 20 10 21
REMARK SMILES IDX 9 22 8 23 7 24 6 25 5 26 4 27 3 28 2 29 1 30
REMARK H PARENT
REMARK Flexibility Score: inf
ROOT
ATOM      1  C   UNL     1      44.928 -46.124 163.960  1.00  0.00     0.000 C 
ENDROOT
BRANCH   1   2
ATOM      2  C   UNL     1      45.179 -46.701 162.558  1.00  0.00     0.000 C 
BRANCH   2   3
ATOM      3  C   UNL     1      44.407 -48.009 162.306  1.00  0.00     0.000 C 
BRANCH   3   4
ATOM      4  C   UNL     1      43.600 -47.971 160.997  1.00  0.00     0.000 C 
BRANCH   4   5
ATOM      5  C   UNL     1      42.090 -47.799 161.240  1.00  0.00     0.000 C 
BRANCH   5   6
ATOM      6  C   UNL     1      41.701 -48.024 162.710  1.00  0.00     0.000 C 
BRANCH   6   7
ATOM      7  C   UNL     1      40.370 -48.783 162.858  1.00  0.00     0.000 C 
BRANCH   7   8
ATOM      8  C   UNL     1      39.269 -48.216 161.937  1.00  0.00     0.000 C 
BRANCH   8   9
ATOM      9  C   UNL     1      38.071 -49.163 161.754  1.00  0.00     0.000 C 
BRANCH   9  10
ATOM     10  C   UNL     1      36.730 -48.421 161.689  1.00  0.00     0.000 C 
BRANCH  10  11
ATOM     11  C   UNL     1      35.996 -48.716 160.373  1.00  0.00     0.000 C 
BRANCH  11  12
ATOM     12  C   UNL     1      35.532 -47.439 159.649  1.00  0.00     0.006 C 
BRANCH  12  13
ATOM     13  C   UNL     1      36.388 -46.196 159.943  1.00  0.00     0.053 C 
BRANCH  13  14
ATOM     14  C   UNL     1      36.164 -45.108 158.940  1.00  0.00     0.041 C 
ATOM     15  O   UNL     1      35.753 -43.978 159.313  1.00  0.00    -0.550 OA
ATOM     16  O   UNL     1      36.398 -45.346 157.593  1.00  0.00    -0.550 OA
ENDBRANCH  13  14
ENDBRANCH  12  13
ENDBRANCH  11  12
ENDBRANCH  10  11
ENDBRANCH   9  10
ENDBRANCH   8   9
ENDBRANCH   7   8
ENDBRANCH   6   7
ENDBRANCH   5   6
ENDBRANCH   4   5
ENDBRANCH   3   4
ENDBRANCH   2   3
ENDBRANCH   1   2
BRANCH   1  17
ATOM     17  C   UNL     1      45.918 -46.655 165.011  1.00  0.00     0.000 C 
BRANCH  17  18
ATOM     18  C   UNL     1      47.382 -46.604 164.525  1.00  0.00     0.000 C 
BRANCH  18  19
ATOM     19  C   UNL     1      48.112 -47.957 164.607  1.00  0.00     0.000 C 
BRANCH  19  20
ATOM     20  C   UNL     1      49.568 -47.820 165.081  1.00  0.00     0.000 C 
BRANCH  20  21
ATOM     21  C   UNL     1      50.144 -46.420 164.811  1.00  0.00     0.000 C 
BRANCH  21  22
ATOM     22  C   UNL     1      51.520 -46.218 165.467  1.00  0.00    -0.000 C 
BRANCH  22  23
ATOM     23  C   UNL     1      52.236 -47.542 165.776  1.00  0.00    -0.000 C 
BRANCH  23  24
ATOM     24  C   UNL     1      53.768 -47.401 165.808  1.00  0.00    -0.000 C 
BRANCH  24  25
ATOM     25  C   UNL     1      54.301 -47.204 167.237  1.00  0.00    -0.000 C 
BRANCH  25  26
ATOM     26  C   UNL     1      54.558 -45.723 167.561  1.00  0.00    -0.000 C 
BRANCH  26  27
ATOM     27  C   UNL     1      54.961 -44.917 166.316  1.00  0.00    -0.000 C 
BRANCH  27  28
ATOM     28  C   UNL     1      54.148 -43.617 166.185  1.00  0.00    -0.000 C 
BRANCH  28  29
ATOM     29  C   UNL     1      53.701 -43.341 164.741  1.00  0.00    -0.003 C 
ATOM     30  C   UNL     1      54.158 -41.974 164.230  1.00  0.00     0.004 C 
ENDBRANCH  28  29
ENDBRANCH  27  28
ENDBRANCH  26  27
ENDBRANCH  25  26
ENDBRANCH  24  25
ENDBRANCH  23  24
ENDBRANCH  22  23
ENDBRANCH  21  22
ENDBRANCH  20  21
ENDBRANCH  19  20
ENDBRANCH  18  19
ENDBRANCH  17  18
ENDBRANCH   1  17
TORSDOF 26
ENDMDL
MODEL 8
REMARK VINA RESULT:    -6.425      5.825     15.046
REMARK INTER + INTRA:         -18.260
REMARK INTER:                 -16.184
REMARK INTRA:                  -2.076
REMARK UNBOUND:                -2.068
REMARK SMILES CCCCCCCCCCCCCCCCCCCCCCCCCCCC(=O)[O-]
REMARK SMILES IDX 15 1 16 2 17 3 18 4 19 5 20 6 21 7 22 8 23 9 24 10 25 11
REMARK SMILES IDX 26 12 27 13 28 14 29 15 30 16 14 17 13 18 12 19 11 20 10 21
REMARK SMILES IDX 9 22 8 23 7 24 6 25 5 26 4 27 3 28 2 29 1 30
REMARK H PARENT
REMARK Flexibility Score: inf
ROOT
ATOM      1  C   UNL     1      42.830 -47.476 162.014  1.00  0.00     0.000 C 
ENDROOT
BRANCH   1   2
ATOM      2  C   UNL     1      43.874 -47.537 163.141  1.00  0.00     0.000 C 
BRANCH   2   3
ATOM      3  C   UNL     1      45.133 -48.329 162.744  1.00  0.00     0.000 C 
BRANCH   3   4
ATOM      4  C   UNL     1      46.259 -48.198 163.784  1.00  0.00     0.000 C 
BRANCH   4   5
ATOM      5  C   UNL     1      46.354 -46.782 164.378  1.00  0.00     0.000 C 
BRANCH   5   6
ATOM      6  C   UNL     1      47.708 -46.518 165.055  1.00  0.00     0.000 C 
BRANCH   6   7
ATOM      7  C   UNL     1      48.846 -47.355 164.443  1.00  0.00     0.000 C 
BRANCH   7   8
ATOM      8  C   UNL     1      49.725 -48.023 165.522  1.00  0.00     0.000 C 
BRANCH   8   9
ATOM      9  C   UNL     1      51.218 -47.676 165.400  1.00  0.00     0.000 C 
BRANCH   9  10
ATOM     10  C   UNL     1      51.565 -46.314 166.016  1.00  0.00     0.000 C 
BRANCH  10  11
ATOM     11  C   UNL     1      52.294 -45.418 165.004  1.00  0.00     0.000 C 
BRANCH  11  12
ATOM     12  C   UNL     1      53.642 -44.894 165.535  1.00  0.00     0.006 C 
BRANCH  12  13
ATOM     13  C   UNL     1      54.420 -44.019 164.538  1.00  0.00     0.053 C 
BRANCH  13  14
ATOM     14  C   UNL     1      54.025 -42.578 164.626  1.00  0.00     0.041 C 
ATOM     15  O   UNL     1      54.064 -41.847 163.603  1.00  0.00    -0.550 OA
ATOM     16  O   UNL     1      53.627 -42.040 165.842  1.00  0.00    -0.550 OA
ENDBRANCH  13  14
ENDBRANCH  12  13
ENDBRANCH  11  12
ENDBRANCH  10  11
ENDBRANCH   9  10
ENDBRANCH   8   9
ENDBRANCH   7   8
ENDBRANCH   6   7
ENDBRANCH   5   6
ENDBRANCH   4   5
ENDBRANCH   3   4
ENDBRANCH   2   3
ENDBRANCH   1   2
BRANCH   1  17
ATOM     17  C   UNL     1      41.385 -47.567 162.532  1.00  0.00     0.000 C 
BRANCH  17  18
ATOM     18  C   UNL     1      40.344 -47.216 161.449  1.00  0.00     0.000 C 
BRANCH  18  19
ATOM     19  C   UNL     1      38.974 -47.885 161.664  1.00  0.00     0.000 C 
BRANCH  19  20
ATOM     20  C   UNL     1      39.059 -49.153 162.529  1.00  0.00     0.000 C 
BRANCH  20  21
ATOM     21  C   UNL     1      37.750 -49.959 162.520  1.00  0.00     0.000 C 
BRANCH  21  22
ATOM     22  C   UNL     1      36.507 -49.056 162.606  1.00  0.00    -0.000 C 
BRANCH  22  23
ATOM     23  C   UNL     1      35.250 -49.711 162.012  1.00  0.00    -0.000 C 
BRANCH  23  24
ATOM     24  C   UNL     1      35.576 -50.809 160.984  1.00  0.00    -0.000 C 
BRANCH  24  25
ATOM     25  C   UNL     1      35.260 -50.367 159.546  1.00  0.00    -0.000 C 
BRANCH  25  26
ATOM     26  C   UNL     1      36.095 -49.148 159.118  1.00  0.00    -0.000 C 
BRANCH  26  27
ATOM     27  C   UNL     1      35.217 -47.938 158.761  1.00  0.00    -0.000 C 
BRANCH  27  28
ATOM     28  C   UNL     1      35.232 -46.871 159.869  1.00  0.00    -0.000 C 
BRANCH  28  29
ATOM     29  C   UNL     1      36.388 -45.870 159.712  1.00  0.00    -0.003 C 
ATOM     30  C   UNL     1      36.398 -45.185 158.345  1.00  0.00     0.004 C 
ENDBRANCH  28  29
ENDBRANCH  27  28
ENDBRANCH  26  27
ENDBRANCH  25  26
ENDBRANCH  24  25
ENDBRANCH  23  24
ENDBRANCH  22  23
ENDBRANCH  21  22
ENDBRANCH  20  21
ENDBRANCH  19  20
ENDBRANCH  18  19
ENDBRANCH  17  18
ENDBRANCH   1  17
TORSDOF 26
ENDMDL
MODEL 9
REMARK VINA RESULT:    -6.376      5.378     15.096
REMARK INTER + INTRA:         -18.136
REMARK INTER:                 -16.618
REMARK INTRA:                  -1.518
REMARK UNBOUND:                -2.068
REMARK SMILES CCCCCCCCCCCCCCCCCCCCCCCCCCCC(=O)[O-]
REMARK SMILES IDX 15 1 16 2 17 3 18 4 19 5 20 6 21 7 22 8 23 9 24 10 25 11
REMARK SMILES IDX 26 12 27 13 28 14 29 15 30 16 14 17 13 18 12 19 11 20 10 21
REMARK SMILES IDX 9 22 8 23 7 24 6 25 5 26 4 27 3 28 2 29 1 30
REMARK H PARENT
REMARK Flexibility Score: inf
ROOT
ATOM      1  C   UNL     1      46.724 -46.500 164.529  1.00  0.00     0.000 C 
ENDROOT
BRANCH   1   2
ATOM      2  C   UNL     1      47.342 -47.903 164.420  1.00  0.00     0.000 C 
BRANCH   2   3
ATOM      3  C   UNL     1      48.882 -47.878 164.427  1.00  0.00     0.000 C 
BRANCH   3   4
ATOM      4  C   UNL     1      49.444 -46.480 164.736  1.00  0.00     0.000 C 
BRANCH   4   5
ATOM      5  C   UNL     1      50.780 -46.536 165.498  1.00  0.00     0.000 C 
BRANCH   5   6
ATOM      6  C   UNL     1      51.365 -47.957 165.555  1.00  0.00     0.000 C 
BRANCH   6   7
ATOM      7  C   UNL     1      52.902 -47.964 165.476  1.00  0.00     0.000 C 
BRANCH   7   8
ATOM      8  C   UNL     1      53.552 -48.473 166.780  1.00  0.00     0.000 C 
BRANCH   8   9
ATOM      9  C   UNL     1      54.779 -47.654 167.217  1.00  0.00     0.000 C 
BRANCH   9  10
ATOM     10  C   UNL     1      54.599 -47.003 168.595  1.00  0.00     0.000 C 
BRANCH  10  11
ATOM     11  C   UNL     1      54.067 -45.568 168.464  1.00  0.00     0.000 C 
BRANCH  11  12
ATOM     12  C   UNL     1      55.048 -44.632 167.734  1.00  0.00     0.006 C 
BRANCH  12  13
ATOM     13  C   UNL     1      54.391 -43.398 167.094  1.00  0.00     0.053 C 
BRANCH  13  14
ATOM     14  C   UNL     1      54.032 -43.631 165.659  1.00  0.00     0.041 C 
ATOM     15  O   UNL     1      53.536 -42.701 164.972  1.00  0.00    -0.550 OA
ATOM     16  O   UNL     1      54.237 -44.878 165.086  1.00  0.00    -0.550 OA
ENDBRANCH  13  14
ENDBRANCH  12  13
ENDBRANCH  11  12
ENDBRANCH  10  11
ENDBRANCH   9  10
ENDBRANCH   8   9
ENDBRANCH   7   8
ENDBRANCH   6   7
ENDBRANCH   5   6
ENDBRANCH   4   5
ENDBRANCH   3   4
ENDBRANCH   2   3
ENDBRANCH   1   2
BRANCH   1  17
ATOM     17  C   UNL     1      45.188 -46.528 164.612  1.00  0.00     0.000 C 
BRANCH  17  18
ATOM     18  C   UNL     1      44.617 -47.958 164.525  1.00  0.00     0.000 C 
BRANCH  18  19
ATOM     19  C   UNL     1      43.986 -48.294 163.162  1.00  0.00     0.000 C 
BRANCH  19  20
ATOM     20  C   UNL     1      42.482 -47.979 163.108  1.00  0.00     0.000 C 
BRANCH  20  21
ATOM     21  C   UNL     1      42.068 -47.317 161.784  1.00  0.00     0.000 C 
BRANCH  21  22
ATOM     22  C   UNL     1      40.548 -47.097 161.690  1.00  0.00    -0.000 C 
BRANCH  22  23
ATOM     23  C   UNL     1      39.738 -48.343 162.082  1.00  0.00    -0.000 C 
BRANCH  23  24
ATOM     24  C   UNL     1      38.320 -48.346 161.485  1.00  0.00    -0.000 C 
BRANCH  24  25
ATOM     25  C   UNL     1      37.300 -49.012 162.424  1.00  0.00    -0.000 C 
BRANCH  25  26
ATOM     26  C   UNL     1      36.124 -49.636 161.654  1.00  0.00    -0.000 C 
BRANCH  26  27
ATOM     27  C   UNL     1      35.350 -50.658 162.502  1.00  0.00    -0.000 C 
BRANCH  27  28
ATOM     28  C   UNL     1      35.958 -52.068 162.399  1.00  0.00    -0.000 C 
BRANCH  28  29
ATOM     29  C   UNL     1      36.007 -52.793 163.752  1.00  0.00    -0.003 C 
ATOM     30  C   UNL     1      35.806 -54.304 163.624  1.00  0.00     0.004 C 
ENDBRANCH  28  29
ENDBRANCH  27  28
ENDBRANCH  26  27
ENDBRANCH  25  26
ENDBRANCH  24  25
ENDBRANCH  23  24
ENDBRANCH  22  23
ENDBRANCH  21  22
ENDBRANCH  20  21
ENDBRANCH  19  20
ENDBRANCH  18  19
ENDBRANCH  17  18
ENDBRANCH   1  17
TORSDOF 26
ENDMDL
