MODEL 1
REMARK VINA RESULT:    -3.237      0.000      0.000
REMARK INTER + INTRA:         -14.914
REMARK INTER:                  -8.537
REMARK INTRA:                  -6.377
REMARK UNBOUND:                -6.377
REMARK SMILES CCCCCCCCCCCCCCCCCCCCCCCCCCCCCC(=O)[O-]
REMARK SMILES IDX 16 1 17 2 18 3 19 4 20 5 21 6 22 7 23 8 24 9 25 10 26 11
REMARK SMILES IDX 27 12 28 13 29 14 30 15 31 16 32 17 15 18 14 19 13 20 12 21
REMARK SMILES IDX 11 22 10 23 9 24 8 25 7 26 6 27 5 28 4 29 3 30 2 31 1 32
REMARK H PARENT
REMARK Flexibility Score: inf
ROOT
ATOM      1  C   UNL     1      -6.532   4.113  39.152  1.00  0.00     0.000 C 
ENDROOT
BRANCH   1   2
ATOM      2  C   UNL     1      -7.577   5.158  38.721  1.00  0.00     0.000 C 
BRANCH   2   3
ATOM      3  C   UNL     1      -8.715   4.561  37.869  1.00  0.00     0.000 C 
BRANCH   3   4
ATOM      4  C   UNL     1      -9.250   5.481  36.756  1.00  0.00     0.000 C 
BRANCH   4   5
ATOM      5  C   UNL     1     -10.473   4.900  36.033  1.00  0.00     0.000 C 
BRANCH   5   6
ATOM      6  C   UNL     1     -10.134   3.571  35.342  1.00  0.00     0.000 C 
BRANCH   6   7
ATOM      7  C   UNL     1     -11.351   2.643  35.210  1.00  0.00     0.000 C 
BRANCH   7   8
ATOM      8  C   UNL     1     -12.715   3.313  35.466  1.00  0.00     0.000 C 
BRANCH   8   9
ATOM      9  C   UNL     1     -13.467   2.754  36.693  1.00  0.00     0.000 C 
BRANCH   9  10
ATOM     10  C   UNL     1     -12.884   3.261  38.025  1.00  0.00     0.000 C 
BRANCH  10  11
ATOM     11  C   UNL     1     -12.394   2.118  38.940  1.00  0.00     0.000 C 
BRANCH  11  12
ATOM     12  C   UNL     1     -10.864   2.069  39.123  1.00  0.00     0.000 C 
BRANCH  12  13
ATOM     13  C   UNL     1     -10.122   1.061  38.223  1.00  0.00     0.006 C 
BRANCH  13  14
ATOM     14  C   UNL     1     -10.885  -0.250  37.967  1.00  0.00     0.053 C 
BRANCH  14  15
ATOM     15  C   UNL     1     -10.267  -1.410  38.686  1.00  0.00     0.041 C 
ATOM     16  O   UNL     1     -10.022  -1.333  39.918  1.00  0.00    -0.550 OA
ATOM     17  O   UNL     1      -9.934  -2.565  37.991  1.00  0.00    -0.550 OA
ENDBRANCH  14  15
ENDBRANCH  13  14
ENDBRANCH  12  13
ENDBRANCH  11  12
ENDBRANCH  10  11
ENDBRANCH   9  10
ENDBRANCH   8   9
ENDBRANCH   7   8
ENDBRANCH   6   7
ENDBRANCH   5   6
ENDBRANCH   4   5
ENDBRANCH   3   4
ENDBRANCH   2   3
ENDBRANCH   1   2
BRANCH   1  18
ATOM     18  C   UNL     1      -7.141   2.698  39.276  1.00  0.00     0.000 C 
BRANCH  18  19
ATOM     19  C   UNL     1      -6.146   1.564  38.969  1.00  0.00     0.000 C 
BRANCH  19  20
ATOM     20  C   UNL     1      -4.738   2.086  38.643  1.00  0.00     0.000 C 
BRANCH  20  21
ATOM     21  C   UNL     1      -3.819   0.999  38.062  1.00  0.00     0.000 C 
BRANCH  21  22
ATOM     22  C   UNL     1      -3.291   1.349  36.662  1.00  0.00     0.000 C 
BRANCH  22  23
ATOM     23  C   UNL     1      -3.682   0.268  35.646  1.00  0.00     0.000 C 
BRANCH  23  24
ATOM     24  C   UNL     1      -5.202   0.066  35.543  1.00  0.00    -0.000 C 
BRANCH  24  25
ATOM     25  C   UNL     1      -5.905   1.127  34.671  1.00  0.00    -0.000 C 
BRANCH  25  26
ATOM     26  C   UNL     1      -6.816   2.044  35.500  1.00  0.00    -0.000 C 
BRANCH  26  27
ATOM     27  C   UNL     1      -6.337   3.500  35.430  1.00  0.00    -0.000 C 
BRANCH  27  28
ATOM     28  C   UNL     1      -5.216   3.665  34.394  1.00  0.00    -0.000 C 
BRANCH  28  29
ATOM     29  C   UNL     1      -4.085   4.590  34.883  1.00  0.00    -0.000 C 
BRANCH  29  30
ATOM     30  C   UNL     1      -4.178   5.003  36.364  1.00  0.00    -0.000 C 
BRANCH  30  31
ATOM     31  C   UNL     1      -2.814   5.003  37.069  1.00  0.00    -0.003 C 
ATOM     32  C   UNL     1      -2.966   5.241  38.569  1.00  0.00     0.004 C 
ENDBRANCH  30  31
ENDBRANCH  29  30
ENDBRANCH  28  29
ENDBRANCH  27  28
ENDBRANCH  26  27
ENDBRANCH  25  26
ENDBRANCH  24  25
ENDBRANCH  23  24
ENDBRANCH  22  23
ENDBRANCH  21  22
ENDBRANCH  20  21
ENDBRANCH  19  20
ENDBRANCH  18  19
ENDBRANCH   1  18
TORSDOF 28
ENDMDL
MODEL 2
REMARK VINA RESULT:    -3.180      1.537      4.671
REMARK INTER + INTRA:         -14.763
REMARK INTER:                  -8.679
REMARK INTRA:                  -6.084
REMARK UNBOUND:                -6.377
REMARK SMILES CCCCCCCCCCCCCCCCCCCCCCCCCCCCCC(=O)[O-]
REMARK SMILES IDX 16 1 17 2 18 3 19 4 20 5 21 6 22 7 23 8 24 9 25 10 26 11
REMARK SMILES IDX 27 12 28 13 29 14 30 15 31 16 32 17 15 18 14 19 13 20 12 21
REMARK SMILES IDX 11 22 10 23 9 24 8 25 7 26 6 27 5 28 4 29 3 30 2 31 1 32
REMARK H PARENT
REMARK Flexibility Score: inf
ROOT
ATOM      1  C   UNL     1     -10.315   3.245  34.468  1.00  0.00     0.000 C 
ENDROOT
BRANCH   1   2
ATOM      2  C   UNL     1     -11.478   4.218  34.210  1.00  0.00     0.000 C 
BRANCH   2   3
ATOM      3  C   UNL     1     -12.864   3.570  34.400  1.00  0.00     0.000 C 
BRANCH   3   4
ATOM      4  C   UNL     1     -12.841   2.078  34.781  1.00  0.00     0.000 C 
BRANCH   4   5
ATOM      5  C   UNL     1     -13.325   1.817  36.215  1.00  0.00     0.000 C 
BRANCH   5   6
ATOM      6  C   UNL     1     -13.531   3.132  36.982  1.00  0.00     0.000 C 
BRANCH   6   7
ATOM      7  C   UNL     1     -12.541   3.302  38.144  1.00  0.00     0.000 C 
BRANCH   7   8
ATOM      8  C   UNL     1     -11.852   2.006  38.612  1.00  0.00     0.000 C 
BRANCH   8   9
ATOM      9  C   UNL     1     -10.368   2.189  38.997  1.00  0.00     0.000 C 
BRANCH   9  10
ATOM     10  C   UNL     1      -9.466   1.084  38.417  1.00  0.00     0.000 C 
BRANCH  10  11
ATOM     11  C   UNL     1     -10.077   0.401  37.175  1.00  0.00     0.000 C 
BRANCH  11  12
ATOM     12  C   UNL     1     -10.263  -1.122  37.321  1.00  0.00     0.000 C 
BRANCH  12  13
ATOM     13  C   UNL     1      -9.931  -1.951  36.063  1.00  0.00     0.006 C 
BRANCH  13  14
ATOM     14  C   UNL     1      -9.155  -3.250  36.341  1.00  0.00     0.053 C 
BRANCH  14  15
ATOM     15  C   UNL     1      -9.553  -3.876  37.643  1.00  0.00     0.041 C 
ATOM     16  O   UNL     1     -10.662  -4.461  37.750  1.00  0.00    -0.550 OA
ATOM     17  O   UNL     1      -8.714  -3.787  38.746  1.00  0.00    -0.550 OA
ENDBRANCH  14  15
ENDBRANCH  13  14
ENDBRANCH  12  13
ENDBRANCH  11  12
ENDBRANCH  10  11
ENDBRANCH   9  10
ENDBRANCH   8   9
ENDBRANCH   7   8
ENDBRANCH   6   7
ENDBRANCH   5   6
ENDBRANCH   4   5
ENDBRANCH   3   4
ENDBRANCH   2   3
ENDBRANCH   1   2
BRANCH   1  18
ATOM     18  C   UNL     1      -9.512   3.620  35.735  1.00  0.00     0.000 C 
BRANCH  18  19
ATOM     19  C   UNL     1      -9.823   5.028  36.273  1.00  0.00     0.000 C 
BRANCH  19  20
ATOM     20  C   UNL     1      -8.796   5.503  37.313  1.00  0.00     0.000 C 
BRANCH  20  21
ATOM     21  C   UNL     1      -7.801   4.401  37.713  1.00  0.00     0.000 C 
BRANCH  21  22
ATOM     22  C   UNL     1      -7.393   4.473  39.192  1.00  0.00     0.000 C 
BRANCH  22  23
ATOM     23  C   UNL     1      -6.526   3.266  39.577  1.00  0.00     0.000 C 
BRANCH  23  24
ATOM     24  C   UNL     1      -5.031   3.609  39.672  1.00  0.00    -0.000 C 
BRANCH  24  25
ATOM     25  C   UNL     1      -4.119   2.582  38.968  1.00  0.00    -0.000 C 
BRANCH  25  26
ATOM     26  C   UNL     1      -3.663   3.066  37.584  1.00  0.00    -0.000 C 
BRANCH  26  27
ATOM     27  C   UNL     1      -3.902   1.987  36.520  1.00  0.00    -0.000 C 
BRANCH  27  28
ATOM     28  C   UNL     1      -5.250   2.195  35.814  1.00  0.00    -0.000 C 
BRANCH  28  29
ATOM     29  C   UNL     1      -6.369   1.308  36.394  1.00  0.00    -0.000 C 
BRANCH  29  30
ATOM     30  C   UNL     1      -6.190  -0.202  36.154  1.00  0.00    -0.000 C 
BRANCH  30  31
ATOM     31  C   UNL     1      -6.526  -1.045  37.393  1.00  0.00    -0.003 C 
ATOM     32  C   UNL     1      -5.557  -0.760  38.537  1.00  0.00     0.004 C 
ENDBRANCH  30  31
ENDBRANCH  29  30
ENDBRANCH  28  29
ENDBRANCH  27  28
ENDBRANCH  26  27
ENDBRANCH  25  26
ENDBRANCH  24  25
ENDBRANCH  23  24
ENDBRANCH  22  23
ENDBRANCH  21  22
ENDBRANCH  20  21
ENDBRANCH  19  20
ENDBRANCH  18  19
ENDBRANCH   1  18
TORSDOF 28
ENDMDL
MODEL 3
REMARK VINA RESULT:    -3.154      1.951      5.653
REMARK INTER + INTRA:         -14.693
REMARK INTER:                  -8.305
REMARK INTRA:                  -6.389
REMARK UNBOUND:                -6.377
REMARK SMILES CCCCCCCCCCCCCCCCCCCCCCCCCCCCCC(=O)[O-]
REMARK SMILES IDX 16 1 17 2 18 3 19 4 20 5 21 6 22 7 23 8 24 9 25 10 26 11
REMARK SMILES IDX 27 12 28 13 29 14 30 15 31 16 32 17 15 18 14 19 13 20 12 21
REMARK SMILES IDX 11 22 10 23 9 24 8 25 7 26 6 27 5 28 4 29 3 30 2 31 1 32
REMARK H PARENT
REMARK Flexibility Score: inf
ROOT
ATOM      1  C   UNL     1      -5.538   3.233  39.396  1.00  0.00     0.000 C 
ENDROOT
BRANCH   1   2
ATOM      2  C   UNL     1      -4.481   2.284  38.805  1.00  0.00     0.000 C 
BRANCH   2   3
ATOM      3  C   UNL     1      -5.089   1.014  38.178  1.00  0.00     0.000 C 
BRANCH   3   4
ATOM      4  C   UNL     1      -4.544   0.646  36.785  1.00  0.00     0.000 C 
BRANCH   4   5
ATOM      5  C   UNL     1      -3.054   0.274  36.803  1.00  0.00     0.000 C 
BRANCH   5   6
ATOM      6  C   UNL     1      -2.448   0.331  35.393  1.00  0.00     0.000 C 
BRANCH   6   7
ATOM      7  C   UNL     1      -3.387   0.988  34.370  1.00  0.00     0.000 C 
BRANCH   7   8
ATOM      8  C   UNL     1      -3.628   0.171  33.085  1.00  0.00     0.000 C 
BRANCH   8   9
ATOM      9  C   UNL     1      -4.977  -0.578  33.063  1.00  0.00     0.000 C 
BRANCH   9  10
ATOM     10  C   UNL     1      -4.813  -2.098  33.248  1.00  0.00     0.000 C 
BRANCH  10  11
ATOM     11  C   UNL     1      -5.875  -2.707  34.188  1.00  0.00     0.000 C 
BRANCH  11  12
ATOM     12  C   UNL     1      -6.303  -1.778  35.341  1.00  0.00     0.000 C 
BRANCH  12  13
ATOM     13  C   UNL     1      -7.511  -2.264  36.167  1.00  0.00     0.006 C 
BRANCH  13  14
ATOM     14  C   UNL     1      -7.869  -1.367  37.364  1.00  0.00     0.053 C 
BRANCH  14  15
ATOM     15  C   UNL     1      -8.376  -2.159  38.530  1.00  0.00     0.041 C 
ATOM     16  O   UNL     1      -9.610  -2.373  38.661  1.00  0.00    -0.550 OA
ATOM     17  O   UNL     1      -7.492  -2.636  39.488  1.00  0.00    -0.550 OA
ENDBRANCH  14  15
ENDBRANCH  13  14
ENDBRANCH  12  13
ENDBRANCH  11  12
ENDBRANCH  10  11
ENDBRANCH   9  10
ENDBRANCH   8   9
ENDBRANCH   7   8
ENDBRANCH   6   7
ENDBRANCH   5   6
ENDBRANCH   4   5
ENDBRANCH   3   4
ENDBRANCH   2   3
ENDBRANCH   1   2
BRANCH   1  18
ATOM     18  C   UNL     1      -6.957   2.620  39.358  1.00  0.00     0.000 C 
BRANCH  18  19
ATOM     19  C   UNL     1      -8.086   3.666  39.356  1.00  0.00     0.000 C 
BRANCH  19  20
ATOM     20  C   UNL     1      -7.640   5.015  38.768  1.00  0.00     0.000 C 
BRANCH  20  21
ATOM     21  C   UNL     1      -8.501   5.458  37.573  1.00  0.00     0.000 C 
BRANCH  21  22
ATOM     22  C   UNL     1      -9.598   4.443  37.220  1.00  0.00     0.000 C 
BRANCH  22  23
ATOM     23  C   UNL     1      -9.813   4.380  35.701  1.00  0.00     0.000 C 
BRANCH  23  24
ATOM     24  C   UNL     1      -9.634   2.965  35.129  1.00  0.00    -0.000 C 
BRANCH  24  25
ATOM     25  C   UNL     1      -8.487   2.175  35.793  1.00  0.00    -0.000 C 
BRANCH  25  26
ATOM     26  C   UNL     1      -7.392   1.790  34.788  1.00  0.00    -0.000 C 
BRANCH  26  27
ATOM     27  C   UNL     1      -6.574   3.019  34.372  1.00  0.00    -0.000 C 
BRANCH  27  28
ATOM     28  C   UNL     1      -6.055   3.781  35.600  1.00  0.00    -0.000 C 
BRANCH  28  29
ATOM     29  C   UNL     1      -4.611   4.288  35.419  1.00  0.00    -0.000 C 
BRANCH  29  30
ATOM     30  C   UNL     1      -4.109   5.225  36.533  1.00  0.00    -0.000 C 
BRANCH  30  31
ATOM     31  C   UNL     1      -2.577   5.329  36.577  1.00  0.00    -0.003 C 
ATOM     32  C   UNL     1      -1.932   3.951  36.705  1.00  0.00     0.004 C 
ENDBRANCH  30  31
ENDBRANCH  29  30
ENDBRANCH  28  29
ENDBRANCH  27  28
ENDBRANCH  26  27
ENDBRANCH  25  26
ENDBRANCH  24  25
ENDBRANCH  23  24
ENDBRANCH  22  23
ENDBRANCH  21  22
ENDBRANCH  20  21
ENDBRANCH  19  20
ENDBRANCH  18  19
ENDBRANCH   1  18
TORSDOF 28
ENDMDL
MODEL 4
REMARK VINA RESULT:    -3.143      3.640      5.750
REMARK INTER + INTRA:         -14.665
REMARK INTER:                  -8.657
REMARK INTRA:                  -6.009
REMARK UNBOUND:                -6.377
REMARK SMILES CCCCCCCCCCCCCCCCCCCCCCCCCCCCCC(=O)[O-]
REMARK SMILES IDX 16 1 17 2 18 3 19 4 20 5 21 6 22 7 23 8 24 9 25 10 26 11
REMARK SMILES IDX 27 12 28 13 29 14 30 15 31 16 32 17 15 18 14 19 13 20 12 21
REMARK SMILES IDX 11 22 10 23 9 24 8 25 7 26 6 27 5 28 4 29 3 30 2 31 1 32
REMARK H PARENT
REMARK Flexibility Score: inf
ROOT
ATOM      1  C   UNL     1      -8.502   1.865  34.642  1.00  0.00     0.000 C 
ENDROOT
BRANCH   1   2
ATOM      2  C   UNL     1      -9.288   3.184  34.734  1.00  0.00     0.000 C 
BRANCH   2   3
ATOM      3  C   UNL     1      -8.793   4.106  35.866  1.00  0.00     0.000 C 
BRANCH   3   4
ATOM      4  C   UNL     1      -9.894   4.646  36.798  1.00  0.00     0.000 C 
BRANCH   4   5
ATOM      5  C   UNL     1     -11.304   4.209  36.378  1.00  0.00     0.000 C 
BRANCH   5   6
ATOM      6  C   UNL     1     -12.037   3.504  37.529  1.00  0.00     0.000 C 
BRANCH   6   7
ATOM      7  C   UNL     1     -12.923   2.345  37.047  1.00  0.00     0.000 C 
BRANCH   7   8
ATOM      8  C   UNL     1     -12.161   1.084  36.595  1.00  0.00     0.000 C 
BRANCH   8   9
ATOM      9  C   UNL     1     -12.098   0.906  35.062  1.00  0.00     0.000 C 
BRANCH   9  10
ATOM     10  C   UNL     1     -13.246   1.632  34.335  1.00  0.00     0.000 C 
BRANCH  10  11
ATOM     11  C   UNL     1     -12.756   2.500  33.156  1.00  0.00     0.000 C 
BRANCH  11  12
ATOM     12  C   UNL     1     -13.143   3.988  33.265  1.00  0.00     0.000 C 
BRANCH  12  13
ATOM     13  C   UNL     1     -12.065   4.986  32.795  1.00  0.00     0.006 C 
BRANCH  13  14
ATOM     14  C   UNL     1     -11.587   4.778  31.349  1.00  0.00     0.053 C 
BRANCH  14  15
ATOM     15  C   UNL     1     -12.498   5.432  30.355  1.00  0.00     0.041 C 
ATOM     16  O   UNL     1     -12.408   6.668  30.133  1.00  0.00    -0.550 OA
ATOM     17  O   UNL     1     -13.467   4.685  29.698  1.00  0.00    -0.550 OA
ENDBRANCH  14  15
ENDBRANCH  13  14
ENDBRANCH  12  13
ENDBRANCH  11  12
ENDBRANCH  10  11
ENDBRANCH   9  10
ENDBRANCH   8   9
ENDBRANCH   7   8
ENDBRANCH   6   7
ENDBRANCH   5   6
ENDBRANCH   4   5
ENDBRANCH   3   4
ENDBRANCH   2   3
ENDBRANCH   1   2
BRANCH   1  18
ATOM     18  C   UNL     1      -8.450   1.122  35.996  1.00  0.00     0.000 C 
BRANCH  18  19
ATOM     19  C   UNL     1      -7.026   0.749  36.446  1.00  0.00     0.000 C 
BRANCH  19  20
ATOM     20  C   UNL     1      -6.917  -0.714  36.907  1.00  0.00     0.000 C 
BRANCH  20  21
ATOM     21  C   UNL     1      -6.751  -0.847  38.430  1.00  0.00     0.000 C 
BRANCH  21  22
ATOM     22  C   UNL     1      -8.033  -1.322  39.131  1.00  0.00     0.000 C 
BRANCH  22  23
ATOM     23  C   UNL     1      -8.564  -0.242  40.084  1.00  0.00     0.000 C 
BRANCH  23  24
ATOM     24  C   UNL     1      -9.785   0.503  39.521  1.00  0.00    -0.000 C 
BRANCH  24  25
ATOM     25  C   UNL     1      -9.594   2.032  39.453  1.00  0.00    -0.000 C 
BRANCH  25  26
ATOM     26  C   UNL     1      -8.289   2.482  40.125  1.00  0.00    -0.000 C 
BRANCH  26  27
ATOM     27  C   UNL     1      -7.342   3.128  39.106  1.00  0.00    -0.000 C 
BRANCH  27  28
ATOM     28  C   UNL     1      -5.881   2.749  39.388  1.00  0.00    -0.000 C 
BRANCH  28  29
ATOM     29  C   UNL     1      -4.950   3.035  38.195  1.00  0.00    -0.000 C 
BRANCH  29  30
ATOM     30  C   UNL     1      -3.517   2.491  38.346  1.00  0.00    -0.000 C 
BRANCH  30  31
ATOM     31  C   UNL     1      -3.462   0.956  38.350  1.00  0.00    -0.003 C 
ATOM     32  C   UNL     1      -3.387   0.400  36.930  1.00  0.00     0.004 C 
ENDBRANCH  30  31
ENDBRANCH  29  30
ENDBRANCH  28  29
ENDBRANCH  27  28
ENDBRANCH  26  27
ENDBRANCH  25  26
ENDBRANCH  24  25
ENDBRANCH  23  24
ENDBRANCH  22  23
ENDBRANCH  21  22
ENDBRANCH  20  21
ENDBRANCH  19  20
ENDBRANCH  18  19
ENDBRANCH   1  18
TORSDOF 28
ENDMDL
MODEL 5
REMARK VINA RESULT:    -3.127      3.166      5.903
REMARK INTER + INTRA:         -14.622
REMARK INTER:                  -8.590
REMARK INTRA:                  -6.033
REMARK UNBOUND:                -6.377
REMARK SMILES CCCCCCCCCCCCCCCCCCCCCCCCCCCCCC(=O)[O-]
REMARK SMILES IDX 16 1 17 2 18 3 19 4 20 5 21 6 22 7 23 8 24 9 25 10 26 11
REMARK SMILES IDX 27 12 28 13 29 14 30 15 31 16 32 17 15 18 14 19 13 20 12 21
REMARK SMILES IDX 11 22 10 23 9 24 8 25 7 26 6 27 5 28 4 29 3 30 2 31 1 32
REMARK H PARENT
REMARK Flexibility Score: inf
ROOT
ATOM      1  C   UNL     1      -5.995  -2.221  34.478  1.00  0.00     0.000 C 
ENDROOT
BRANCH   1   2
ATOM      2  C   UNL     1      -6.946  -1.327  35.293  1.00  0.00     0.000 C 
BRANCH   2   3
ATOM      3  C   UNL     1      -6.890  -1.606  36.808  1.00  0.00     0.000 C 
BRANCH   3   4
ATOM      4  C   UNL     1      -6.951  -0.356  37.707  1.00  0.00     0.000 C 
BRANCH   4   5
ATOM      5  C   UNL     1      -6.739  -0.675  39.194  1.00  0.00     0.000 C 
BRANCH   5   6
ATOM      6  C   UNL     1      -7.605   0.225  40.087  1.00  0.00     0.000 C 
BRANCH   6   7
ATOM      7  C   UNL     1      -8.681   0.986  39.297  1.00  0.00     0.000 C 
BRANCH   7   8
ATOM      8  C   UNL     1      -8.706   2.510  39.526  1.00  0.00     0.000 C 
BRANCH   8   9
ATOM      9  C   UNL     1      -9.248   3.315  38.325  1.00  0.00     0.000 C 
BRANCH   9  10
ATOM     10  C   UNL     1     -10.154   2.471  37.409  1.00  0.00     0.000 C 
BRANCH  10  11
ATOM     11  C   UNL     1     -11.296   3.293  36.773  1.00  0.00     0.000 C 
BRANCH  11  12
ATOM     12  C   UNL     1     -10.830   4.288  35.691  1.00  0.00     0.000 C 
BRANCH  12  13
ATOM     13  C   UNL     1     -11.299   3.971  34.257  1.00  0.00     0.006 C 
BRANCH  13  14
ATOM     14  C   UNL     1     -11.332   5.185  33.313  1.00  0.00     0.053 C 
BRANCH  14  15
ATOM     15  C   UNL     1     -12.498   5.136  32.374  1.00  0.00     0.041 C 
ATOM     16  O   UNL     1     -13.509   4.441  32.656  1.00  0.00    -0.550 OA
ATOM     17  O   UNL     1     -12.459   5.833  31.174  1.00  0.00    -0.550 OA
ENDBRANCH  14  15
ENDBRANCH  13  14
ENDBRANCH  12  13
ENDBRANCH  11  12
ENDBRANCH  10  11
ENDBRANCH   9  10
ENDBRANCH   8   9
ENDBRANCH   7   8
ENDBRANCH   6   7
ENDBRANCH   5   6
ENDBRANCH   4   5
ENDBRANCH   3   4
ENDBRANCH   2   3
ENDBRANCH   1   2
BRANCH   1  18
ATOM     18  C   UNL     1      -4.877  -1.406  33.789  1.00  0.00     0.000 C 
BRANCH  18  19
ATOM     19  C   UNL     1      -4.846   0.078  34.200  1.00  0.00     0.000 C 
BRANCH  19  20
ATOM     20  C   UNL     1      -3.416   0.621  34.345  1.00  0.00     0.000 C 
BRANCH  20  21
ATOM     21  C   UNL     1      -3.088   1.060  35.782  1.00  0.00     0.000 C 
BRANCH  21  22
ATOM     22  C   UNL     1      -3.426  -0.016  36.825  1.00  0.00     0.000 C 
BRANCH  22  23
ATOM     23  C   UNL     1      -3.428   0.580  38.240  1.00  0.00     0.000 C 
BRANCH  23  24
ATOM     24  C   UNL     1      -3.451   2.117  38.241  1.00  0.00    -0.000 C 
BRANCH  24  25
ATOM     25  C   UNL     1      -4.643   2.713  39.020  1.00  0.00    -0.000 C 
BRANCH  25  26
ATOM     26  C   UNL     1      -5.529   3.598  38.132  1.00  0.00    -0.000 C 
BRANCH  26  27
ATOM     27  C   UNL     1      -4.711   4.229  36.998  1.00  0.00    -0.000 C 
BRANCH  27  28
ATOM     28  C   UNL     1      -5.345   3.939  35.630  1.00  0.00    -0.000 C 
BRANCH  28  29
ATOM     29  C   UNL     1      -6.586   3.031  35.729  1.00  0.00    -0.000 C 
BRANCH  29  30
ATOM     30  C   UNL     1      -7.573   3.152  34.553  1.00  0.00    -0.000 C 
BRANCH  30  31
ATOM     31  C   UNL     1      -8.321   1.841  34.268  1.00  0.00    -0.003 C 
ATOM     32  C   UNL     1      -8.095   1.376  32.831  1.00  0.00     0.004 C 
ENDBRANCH  30  31
ENDBRANCH  29  30
ENDBRANCH  28  29
ENDBRANCH  27  28
ENDBRANCH  26  27
ENDBRANCH  25  26
ENDBRANCH  24  25
ENDBRANCH  23  24
ENDBRANCH  22  23
ENDBRANCH  21  22
ENDBRANCH  20  21
ENDBRANCH  19  20
ENDBRANCH  18  19
ENDBRANCH   1  18
TORSDOF 28
ENDMDL
MODEL 6
REMARK VINA RESULT:    -3.107      2.841      5.689
REMARK INTER + INTRA:         -14.570
REMARK INTER:                  -8.935
REMARK INTRA:                  -5.635
REMARK UNBOUND:                -6.377
REMARK SMILES CCCCCCCCCCCCCCCCCCCCCCCCCCCCCC(=O)[O-]
REMARK SMILES IDX 16 1 17 2 18 3 19 4 20 5 21 6 22 7 23 8 24 9 25 10 26 11
REMARK SMILES IDX 27 12 28 13 29 14 30 15 31 16 32 17 15 18 14 19 13 20 12 21
REMARK SMILES IDX 11 22 10 23 9 24 8 25 7 26 6 27 5 28 4 29 3 30 2 31 1 32
REMARK H PARENT
REMARK Flexibility Score: inf
ROOT
ATOM      1  C   UNL     1      -4.964  -0.005  38.334  1.00  0.00     0.000 C 
ENDROOT
BRANCH   1   2
ATOM      2  C   UNL     1      -5.378  -0.847  37.114  1.00  0.00     0.000 C 
BRANCH   2   3
ATOM      3  C   UNL     1      -6.905  -0.907  36.909  1.00  0.00     0.000 C 
BRANCH   3   4
ATOM      4  C   UNL     1      -7.744  -0.390  38.092  1.00  0.00     0.000 C 
BRANCH   4   5
ATOM      5  C   UNL     1      -8.678   0.766  37.706  1.00  0.00     0.000 C 
BRANCH   5   6
ATOM      6  C   UNL     1      -8.645   1.886  38.756  1.00  0.00     0.000 C 
BRANCH   6   7
ATOM      7  C   UNL     1      -9.346   3.167  38.279  1.00  0.00     0.000 C 
BRANCH   7   8
ATOM      8  C   UNL     1      -8.444   4.413  38.192  1.00  0.00     0.000 C 
BRANCH   8   9
ATOM      9  C   UNL     1      -8.782   5.350  37.013  1.00  0.00     0.000 C 
BRANCH   9  10
ATOM     10  C   UNL     1     -10.181   5.082  36.427  1.00  0.00     0.000 C 
BRANCH  10  11
ATOM     11  C   UNL     1     -10.213   5.170  34.886  1.00  0.00     0.000 C 
BRANCH  11  12
ATOM     12  C   UNL     1      -9.181   4.268  34.181  1.00  0.00     0.000 C 
BRANCH  12  13
ATOM     13  C   UNL     1      -9.747   2.976  33.559  1.00  0.00     0.006 C 
BRANCH  13  14
ATOM     14  C   UNL     1      -9.898   1.806  34.546  1.00  0.00     0.053 C 
BRANCH  14  15
ATOM     15  C   UNL     1     -11.329   1.565  34.918  1.00  0.00     0.041 C 
ATOM     16  O   UNL     1     -11.779   1.996  36.012  1.00  0.00    -0.550 OA
ATOM     17  O   UNL     1     -12.158   0.839  34.074  1.00  0.00    -0.550 OA
ENDBRANCH  14  15
ENDBRANCH  13  14
ENDBRANCH  12  13
ENDBRANCH  11  12
ENDBRANCH  10  11
ENDBRANCH   9  10
ENDBRANCH   8   9
ENDBRANCH   7   8
ENDBRANCH   6   7
ENDBRANCH   5   6
ENDBRANCH   4   5
ENDBRANCH   3   4
ENDBRANCH   2   3
ENDBRANCH   1   2
BRANCH   1  18
ATOM     18  C   UNL     1      -3.591   0.676  38.132  1.00  0.00     0.000 C 
BRANCH  18  19
ATOM     19  C   UNL     1      -3.643   2.212  38.212  1.00  0.00     0.000 C 
BRANCH  19  20
ATOM     20  C   UNL     1      -5.062   2.767  38.008  1.00  0.00     0.000 C 
BRANCH  20  21
ATOM     21  C   UNL     1      -5.260   3.400  36.621  1.00  0.00     0.000 C 
BRANCH  21  22
ATOM     22  C   UNL     1      -6.193   2.579  35.718  1.00  0.00     0.000 C 
BRANCH  22  23
ATOM     23  C   UNL     1      -5.401   1.896  34.594  1.00  0.00     0.000 C 
BRANCH  23  24
ATOM     24  C   UNL     1      -3.913   2.281  34.593  1.00  0.00    -0.000 C 
BRANCH  24  25
ATOM     25  C   UNL     1      -3.021   1.285  33.821  1.00  0.00    -0.000 C 
BRANCH  25  26
ATOM     26  C   UNL     1      -2.913  -0.069  34.538  1.00  0.00    -0.000 C 
BRANCH  26  27
ATOM     27  C   UNL     1      -3.109  -1.228  33.552  1.00  0.00    -0.000 C 
BRANCH  27  28
ATOM     28  C   UNL     1      -4.523  -1.815  33.662  1.00  0.00    -0.000 C 
BRANCH  28  29
ATOM     29  C   UNL     1      -4.575  -3.313  33.306  1.00  0.00    -0.000 C 
BRANCH  29  30
ATOM     30  C   UNL     1      -3.413  -3.813  32.429  1.00  0.00    -0.000 C 
BRANCH  30  31
ATOM     31  C   UNL     1      -2.493  -4.798  33.165  1.00  0.00    -0.003 C 
ATOM     32  C   UNL     1      -1.545  -5.500  32.196  1.00  0.00     0.004 C 
ENDBRANCH  30  31
ENDBRANCH  29  30
ENDBRANCH  28  29
ENDBRANCH  27  28
ENDBRANCH  26  27
ENDBRANCH  25  26
ENDBRANCH  24  25
ENDBRANCH  23  24
ENDBRANCH  22  23
ENDBRANCH  21  22
ENDBRANCH  20  21
ENDBRANCH  19  20
ENDBRANCH  18  19
ENDBRANCH   1  18
TORSDOF 28
ENDMDL
MODEL 7
REMARK VINA RESULT:    -3.089      2.710      7.004
REMARK INTER + INTRA:         -14.521
REMARK INTER:                  -8.803
REMARK INTRA:                  -5.718
REMARK UNBOUND:                -6.377
REMARK SMILES CCCCCCCCCCCCCCCCCCCCCCCCCCCCCC(=O)[O-]
REMARK SMILES IDX 16 1 17 2 18 3 19 4 20 5 21 6 22 7 23 8 24 9 25 10 26 11
REMARK SMILES IDX 27 12 28 13 29 14 30 15 31 16 32 17 15 18 14 19 13 20 12 21
REMARK SMILES IDX 11 22 10 23 9 24 8 25 7 26 6 27 5 28 4 29 3 30 2 31 1 32
REMARK H PARENT
REMARK Flexibility Score: inf
ROOT
ATOM      1  C   UNL     1      -8.613   1.154  38.959  1.00  0.00     0.000 C 
ENDROOT
BRANCH   1   2
ATOM      2  C   UNL     1      -8.418   2.439  39.783  1.00  0.00     0.000 C 
BRANCH   2   3
ATOM      3  C   UNL     1      -6.947   2.895  39.854  1.00  0.00     0.000 C 
BRANCH   3   4
ATOM      4  C   UNL     1      -6.683   4.332  39.367  1.00  0.00     0.000 C 
BRANCH   4   5
ATOM      5  C   UNL     1      -5.991   4.384  37.998  1.00  0.00     0.000 C 
BRANCH   5   6
ATOM      6  C   UNL     1      -5.543   2.987  37.545  1.00  0.00     0.000 C 
BRANCH   6   7
ATOM      7  C   UNL     1      -4.032   2.766  37.711  1.00  0.00     0.000 C 
BRANCH   7   8
ATOM      8  C   UNL     1      -3.639   1.586  38.621  1.00  0.00     0.000 C 
BRANCH   8   9
ATOM      9  C   UNL     1      -3.836   0.200  37.969  1.00  0.00     0.000 C 
BRANCH   9  10
ATOM     10  C   UNL     1      -5.201  -0.425  38.311  1.00  0.00     0.000 C 
BRANCH  10  11
ATOM     11  C   UNL     1      -5.989  -0.869  37.059  1.00  0.00     0.000 C 
BRANCH  11  12
ATOM     12  C   UNL     1      -5.486  -0.244  35.743  1.00  0.00     0.000 C 
BRANCH  12  13
ATOM     13  C   UNL     1      -5.759  -1.072  34.472  1.00  0.00     0.006 C 
BRANCH  13  14
ATOM     14  C   UNL     1      -4.721  -0.885  33.352  1.00  0.00     0.053 C 
BRANCH  14  15
ATOM     15  C   UNL     1      -4.314   0.548  33.197  1.00  0.00     0.041 C 
ATOM     16  O   UNL     1      -3.144   0.908  33.490  1.00  0.00    -0.550 OA
ATOM     17  O   UNL     1      -5.232   1.492  32.758  1.00  0.00    -0.550 OA
ENDBRANCH  14  15
ENDBRANCH  13  14
ENDBRANCH  12  13
ENDBRANCH  11  12
ENDBRANCH  10  11
ENDBRANCH   9  10
ENDBRANCH   8   9
ENDBRANCH   7   8
ENDBRANCH   6   7
ENDBRANCH   5   6
ENDBRANCH   4   5
ENDBRANCH   3   4
ENDBRANCH   2   3
ENDBRANCH   1   2
BRANCH   1  18
ATOM     18  C   UNL     1     -10.080   0.968  38.510  1.00  0.00     0.000 C 
BRANCH  18  19
ATOM     19  C   UNL     1     -11.105   1.649  39.435  1.00  0.00     0.000 C 
BRANCH  19  20
ATOM     20  C   UNL     1     -12.474   1.838  38.762  1.00  0.00     0.000 C 
BRANCH  20  21
ATOM     21  C   UNL     1     -12.657   3.243  38.167  1.00  0.00     0.000 C 
BRANCH  21  22
ATOM     22  C   UNL     1     -13.286   3.221  36.765  1.00  0.00     0.000 C 
BRANCH  22  23
ATOM     23  C   UNL     1     -12.431   2.392  35.798  1.00  0.00     0.000 C 
BRANCH  23  24
ATOM     24  C   UNL     1     -12.853   2.561  34.330  1.00  0.00    -0.000 C 
BRANCH  24  25
ATOM     25  C   UNL     1     -11.764   3.211  33.449  1.00  0.00    -0.000 C 
BRANCH  25  26
ATOM     26  C   UNL     1     -11.673   4.727  33.667  1.00  0.00    -0.000 C 
BRANCH  26  27
ATOM     27  C   UNL     1     -10.276   5.128  34.156  1.00  0.00    -0.000 C 
BRANCH  27  28
ATOM     28  C   UNL     1     -10.245   5.277  35.684  1.00  0.00    -0.000 C 
BRANCH  28  29
ATOM     29  C   UNL     1      -9.403   4.186  36.373  1.00  0.00    -0.000 C 
BRANCH  29  30
ATOM     30  C   UNL     1      -8.385   3.479  35.459  1.00  0.00    -0.000 C 
BRANCH  30  31
ATOM     31  C   UNL     1      -8.566   1.954  35.435  1.00  0.00    -0.003 C 
ATOM     32  C   UNL     1      -8.578   1.420  34.005  1.00  0.00     0.004 C 
ENDBRANCH  30  31
ENDBRANCH  29  30
ENDBRANCH  28  29
ENDBRANCH  27  28
ENDBRANCH  26  27
ENDBRANCH  25  26
ENDBRANCH  24  25
ENDBRANCH  23  24
ENDBRANCH  22  23
ENDBRANCH  21  22
ENDBRANCH  20  21
ENDBRANCH  19  20
ENDBRANCH  18  19
ENDBRANCH   1  18
TORSDOF 28
ENDMDL
MODEL 8
REMARK VINA RESULT:    -3.083      2.823      5.799
REMARK INTER + INTRA:         -14.506
REMARK INTER:                  -7.855
REMARK INTRA:                  -6.650
REMARK UNBOUND:                -6.377
REMARK SMILES CCCCCCCCCCCCCCCCCCCCCCCCCCCCCC(=O)[O-]
REMARK SMILES IDX 16 1 17 2 18 3 19 4 20 5 21 6 22 7 23 8 24 9 25 10 26 11
REMARK SMILES IDX 27 12 28 13 29 14 30 15 31 16 32 17 15 18 14 19 13 20 12 21
REMARK SMILES IDX 11 22 10 23 9 24 8 25 7 26 6 27 5 28 4 29 3 30 2 31 1 32
REMARK H PARENT
REMARK Flexibility Score: inf
ROOT
ATOM      1  C   UNL     1     -10.950   3.115  34.040  1.00  0.00     0.000 C 
ENDROOT
BRANCH   1   2
ATOM      2  C   UNL     1     -10.555   1.813  34.758  1.00  0.00     0.000 C 
BRANCH   2   3
ATOM      3  C   UNL     1     -11.267   1.628  36.113  1.00  0.00     0.000 C 
BRANCH   3   4
ATOM      4  C   UNL     1     -12.387   2.643  36.407  1.00  0.00     0.000 C 
BRANCH   4   5
ATOM      5  C   UNL     1     -12.373   3.150  37.856  1.00  0.00     0.000 C 
BRANCH   5   6
ATOM      6  C   UNL     1     -12.493   1.989  38.855  1.00  0.00     0.000 C 
BRANCH   6   7
ATOM      7  C   UNL     1     -11.195   1.744  39.639  1.00  0.00     0.000 C 
BRANCH   7   8
ATOM      8  C   UNL     1     -10.573   0.347  39.456  1.00  0.00     0.000 C 
BRANCH   8   9
ATOM      9  C   UNL     1     -11.601  -0.805  39.479  1.00  0.00     0.000 C 
BRANCH   9  10
ATOM     10  C   UNL     1     -11.690  -1.545  38.131  1.00  0.00     0.000 C 
BRANCH  10  11
ATOM     11  C   UNL     1     -13.058  -1.368  37.439  1.00  0.00     0.000 C 
BRANCH  11  12
ATOM     12  C   UNL     1     -13.022  -1.570  35.911  1.00  0.00     0.000 C 
BRANCH  12  13
ATOM     13  C   UNL     1     -14.022  -0.714  35.108  1.00  0.00     0.006 C 
BRANCH  13  14
ATOM     14  C   UNL     1     -13.511  -0.259  33.730  1.00  0.00     0.053 C 
BRANCH  14  15
ATOM     15  C   UNL     1     -14.430   0.735  33.089  1.00  0.00     0.041 C 
ATOM     16  O   UNL     1     -15.638   0.443  32.890  1.00  0.00    -0.550 OA
ATOM     17  O   UNL     1     -13.947   1.972  32.683  1.00  0.00    -0.550 OA
ENDBRANCH  14  15
ENDBRANCH  13  14
ENDBRANCH  12  13
ENDBRANCH  11  12
ENDBRANCH  10  11
ENDBRANCH   9  10
ENDBRANCH   8   9
ENDBRANCH   7   8
ENDBRANCH   6   7
ENDBRANCH   5   6
ENDBRANCH   4   5
ENDBRANCH   3   4
ENDBRANCH   2   3
ENDBRANCH   1   2
BRANCH   1  18
ATOM     18  C   UNL     1      -9.854   4.198  34.153  1.00  0.00     0.000 C 
BRANCH  18  19
ATOM     19  C   UNL     1     -10.322   5.484  34.858  1.00  0.00     0.000 C 
BRANCH  19  20
ATOM     20  C   UNL     1      -9.946   5.511  36.348  1.00  0.00     0.000 C 
BRANCH  20  21
ATOM     21  C   UNL     1      -8.655   4.733  36.651  1.00  0.00     0.000 C 
BRANCH  21  22
ATOM     22  C   UNL     1      -8.759   3.873  37.920  1.00  0.00     0.000 C 
BRANCH  22  23
ATOM     23  C   UNL     1      -8.065   2.519  37.717  1.00  0.00     0.000 C 
BRANCH  23  24
ATOM     24  C   UNL     1      -7.272   2.444  36.403  1.00  0.00    -0.000 C 
BRANCH  24  25
ATOM     25  C   UNL     1      -5.750   2.301  36.611  1.00  0.00    -0.000 C 
BRANCH  25  26
ATOM     26  C   UNL     1      -5.355   2.422  38.090  1.00  0.00    -0.000 C 
BRANCH  26  27
ATOM     27  C   UNL     1      -4.311   1.364  38.467  1.00  0.00    -0.000 C 
BRANCH  27  28
ATOM     28  C   UNL     1      -4.584   0.035  37.747  1.00  0.00    -0.000 C 
BRANCH  28  29
ATOM     29  C   UNL     1      -5.460  -0.923  38.576  1.00  0.00    -0.000 C 
BRANCH  29  30
ATOM     30  C   UNL     1      -6.952  -0.933  38.194  1.00  0.00    -0.000 C 
BRANCH  30  31
ATOM     31  C   UNL     1      -7.186  -1.296  36.720  1.00  0.00    -0.003 C 
ATOM     32  C   UNL     1      -8.637  -1.049  36.313  1.00  0.00     0.004 C 
ENDBRANCH  30  31
ENDBRANCH  29  30
ENDBRANCH  28  29
ENDBRANCH  27  28
ENDBRANCH  26  27
ENDBRANCH  25  26
ENDBRANCH  24  25
ENDBRANCH  23  24
ENDBRANCH  22  23
ENDBRANCH  21  22
ENDBRANCH  20  21
ENDBRANCH  19  20
ENDBRANCH  18  19
ENDBRANCH   1  18
TORSDOF 28
ENDMDL
MODEL 9
REMARK VINA RESULT:    -3.065      3.415      7.688
REMARK INTER + INTRA:         -14.458
REMARK INTER:                 -10.134
REMARK INTRA:                  -4.324
REMARK UNBOUND:                -6.377
REMARK SMILES CCCCCCCCCCCCCCCCCCCCCCCCCCCCCC(=O)[O-]
REMARK SMILES IDX 16 1 17 2 18 3 19 4 20 5 21 6 22 7 23 8 24 9 25 10 26 11
REMARK SMILES IDX 27 12 28 13 29 14 30 15 31 16 32 17 15 18 14 19 13 20 12 21
REMARK SMILES IDX 11 22 10 23 9 24 8 25 7 26 6 27 5 28 4 29 3 30 2 31 1 32
REMARK H PARENT
REMARK Flexibility Score: inf
ROOT
ATOM      1  C   UNL     1      -4.940  -0.367  37.434  1.00  0.00     0.000 C 
ENDROOT
BRANCH   1   2
ATOM      2  C   UNL     1      -3.538   0.229  37.656  1.00  0.00     0.000 C 
BRANCH   2   3
ATOM      3  C   UNL     1      -3.543   1.456  38.590  1.00  0.00     0.000 C 
BRANCH   3   4
ATOM      4  C   UNL     1      -3.479   2.821  37.879  1.00  0.00     0.000 C 
BRANCH   4   5
ATOM      5  C   UNL     1      -4.839   3.277  37.332  1.00  0.00     0.000 C 
BRANCH   5   6
ATOM      6  C   UNL     1      -4.904   3.132  35.804  1.00  0.00     0.000 C 
BRANCH   6   7
ATOM      7  C   UNL     1      -6.283   2.668  35.310  1.00  0.00     0.000 C 
BRANCH   7   8
ATOM      8  C   UNL     1      -6.346   1.207  34.825  1.00  0.00     0.000 C 
BRANCH   8   9
ATOM      9  C   UNL     1      -5.770   0.992  33.409  1.00  0.00     0.000 C 
BRANCH   9  10
ATOM     10  C   UNL     1      -4.318   0.480  33.433  1.00  0.00     0.000 C 
BRANCH  10  11
ATOM     11  C   UNL     1      -4.191  -0.934  34.041  1.00  0.00     0.000 C 
BRANCH  11  12
ATOM     12  C   UNL     1      -3.125  -1.818  33.364  1.00  0.00     0.000 C 
BRANCH  12  13
ATOM     13  C   UNL     1      -3.576  -3.252  33.023  1.00  0.00     0.006 C 
BRANCH  13  14
ATOM     14  C   UNL     1      -2.720  -3.954  31.955  1.00  0.00     0.053 C 
BRANCH  14  15
ATOM     15  C   UNL     1      -1.929  -5.090  32.526  1.00  0.00     0.041 C 
ATOM     16  O   UNL     1      -2.022  -5.375  33.749  1.00  0.00    -0.550 OA
ATOM     17  O   UNL     1      -1.065  -5.816  31.716  1.00  0.00    -0.550 OA
ENDBRANCH  14  15
ENDBRANCH  13  14
ENDBRANCH  12  13
ENDBRANCH  11  12
ENDBRANCH  10  11
ENDBRANCH   9  10
ENDBRANCH   8   9
ENDBRANCH   7   8
ENDBRANCH   6   7
ENDBRANCH   5   6
ENDBRANCH   4   5
ENDBRANCH   3   4
ENDBRANCH   2   3
ENDBRANCH   1   2
BRANCH   1  18
ATOM     18  C   UNL     1      -5.804  -0.315  38.714  1.00  0.00     0.000 C 
BRANCH  18  19
ATOM     19  C   UNL     1      -7.077   0.539  38.570  1.00  0.00     0.000 C 
BRANCH  19  20
ATOM     20  C   UNL     1      -7.248   1.543  39.721  1.00  0.00     0.000 C 
BRANCH  20  21
ATOM     21  C   UNL     1      -7.821   2.892  39.254  1.00  0.00     0.000 C 
BRANCH  21  22
ATOM     22  C   UNL     1      -9.270   2.784  38.756  1.00  0.00     0.000 C 
BRANCH  22  23
ATOM     23  C   UNL     1      -9.376   3.231  37.291  1.00  0.00     0.000 C 
BRANCH  23  24
ATOM     24  C   UNL     1      -9.035   4.716  37.092  1.00  0.00    -0.000 C 
BRANCH  24  25
ATOM     25  C   UNL     1      -9.904   5.408  36.020  1.00  0.00    -0.000 C 
BRANCH  25  26
ATOM     26  C   UNL     1      -9.821   4.697  34.662  1.00  0.00    -0.000 C 
BRANCH  26  27
ATOM     27  C   UNL     1     -10.977   5.124  33.748  1.00  0.00    -0.000 C 
BRANCH  27  28
ATOM     28  C   UNL     1     -12.218   4.251  33.981  1.00  0.00    -0.000 C 
BRANCH  28  29
ATOM     29  C   UNL     1     -11.871   2.857  34.537  1.00  0.00    -0.000 C 
BRANCH  29  30
ATOM     30  C   UNL     1     -12.832   2.333  35.621  1.00  0.00    -0.000 C 
BRANCH  30  31
ATOM     31  C   UNL     1     -12.898   3.250  36.851  1.00  0.00    -0.003 C 
ATOM     32  C   UNL     1     -12.879   2.442  38.146  1.00  0.00     0.004 C 
ENDBRANCH  30  31
ENDBRANCH  29  30
ENDBRANCH  28  29
ENDBRANCH  27  28
ENDBRANCH  26  27
ENDBRANCH  25  26
ENDBRANCH  24  25
ENDBRANCH  23  24
ENDBRANCH  22  23
ENDBRANCH  21  22
ENDBRANCH  20  21
ENDBRANCH  19  20
ENDBRANCH  18  19
ENDBRANCH   1  18
TORSDOF 28
ENDMDL
