MODEL 1
REMARK VINA RESULT:     7.970      0.000      0.000
REMARK INTER + INTRA:          18.797
REMARK INTER:                  20.083
REMARK INTRA:                  -1.286
REMARK UNBOUND:                -1.286
REMARK SMILES CCCCCCCCCCCCCCCCCCCCCCCCCCCC(=O)[O-]
REMARK SMILES IDX 15 1 16 2 17 3 18 4 19 5 20 6 21 7 22 8 23 9 24 10 25 11
REMARK SMILES IDX 26 12 27 13 28 14 29 15 30 16 14 17 13 18 12 19 11 20 10 21
REMARK SMILES IDX 9 22 8 23 7 24 6 25 5 26 4 27 3 28 2 29 1 30
REMARK H PARENT
REMARK Flexibility Score: inf
ROOT
ATOM      1  C   UNL     1      30.991  19.414  37.080  1.00  0.00     0.000 C 
ENDROOT
BRANCH   1   2
ATOM      2  C   UNL     1      31.961  18.293  37.483  1.00  0.00     0.000 C 
BRANCH   2   3
ATOM      3  C   UNL     1      32.636  18.556  38.837  1.00  0.00     0.000 C 
BRANCH   3   4
ATOM      4  C   UNL     1      33.615  17.438  39.235  1.00  0.00     0.000 C 
BRANCH   4   5
ATOM      5  C   UNL     1      34.489  17.812  40.445  1.00  0.00     0.000 C 
BRANCH   5   6
ATOM      6  C   UNL     1      33.995  17.211  41.778  1.00  0.00     0.000 C 
BRANCH   6   7
ATOM      7  C   UNL     1      34.937  17.531  42.948  1.00  0.00     0.000 C 
BRANCH   7   8
ATOM      8  C   UNL     1      35.217  16.275  43.789  1.00  0.00     0.000 C 
BRANCH   8   9
ATOM      9  C   UNL     1      36.005  15.200  43.020  1.00  0.00     0.000 C 
BRANCH   9  10
ATOM     10  C   UNL     1      35.254  13.871  42.815  1.00  0.00     0.000 C 
BRANCH  10  11
ATOM     11  C   UNL     1      35.486  13.263  41.421  1.00  0.00     0.000 C 
BRANCH  11  12
ATOM     12  C   UNL     1      34.857  11.866  41.270  1.00  0.00     0.006 C 
BRANCH  12  13
ATOM     13  C   UNL     1      33.963  11.710  40.030  1.00  0.00     0.053 C 
BRANCH  13  14
ATOM     14  C   UNL     1      33.256  10.389  40.012  1.00  0.00     0.041 C 
ATOM     15  O   UNL     1      32.247  10.202  40.740  1.00  0.00    -0.550 OA
ATOM     16  O   UNL     1      33.731   9.355  39.216  1.00  0.00    -0.550 OA
ENDBRANCH  13  14
ENDBRANCH  12  13
ENDBRANCH  11  12
ENDBRANCH  10  11
ENDBRANCH   9  10
ENDBRANCH   8   9
ENDBRANCH   7   8
ENDBRANCH   6   7
ENDBRANCH   5   6
ENDBRANCH   4   5
ENDBRANCH   3   4
ENDBRANCH   2   3
ENDBRANCH   1   2
BRANCH   1  17
ATOM     17  C   UNL     1      31.438  20.761  37.667  1.00  0.00     0.000 C 
BRANCH  17  18
ATOM     18  C   UNL     1      31.129  21.942  36.735  1.00  0.00     0.000 C 
BRANCH  18  19
ATOM     19  C   UNL     1      32.036  23.156  37.001  1.00  0.00     0.000 C 
BRANCH  19  20
ATOM     20  C   UNL     1      31.906  24.246  35.924  1.00  0.00     0.000 C 
BRANCH  20  21
ATOM     21  C   UNL     1      32.428  23.813  34.538  1.00  0.00     0.000 C 
BRANCH  21  22
ATOM     22  C   UNL     1      32.929  25.007  33.706  1.00  0.00    -0.000 C 
BRANCH  22  23
ATOM     23  C   UNL     1      32.213  25.125  32.350  1.00  0.00    -0.000 C 
BRANCH  23  24
ATOM     24  C   UNL     1      30.869  24.377  32.330  1.00  0.00    -0.000 C 
BRANCH  24  25
ATOM     25  C   UNL     1      29.841  25.026  31.387  1.00  0.00    -0.000 C 
BRANCH  25  26
ATOM     26  C   UNL     1      29.896  24.448  29.962  1.00  0.00    -0.000 C 
BRANCH  26  27
ATOM     27  C   UNL     1      31.071  25.012  29.146  1.00  0.00    -0.000 C 
BRANCH  27  28
ATOM     28  C   UNL     1      32.092  23.928  28.751  1.00  0.00    -0.000 C 
BRANCH  28  29
ATOM     29  C   UNL     1      33.192  24.466  27.824  1.00  0.00    -0.003 C 
ATOM     30  C   UNL     1      34.554  23.827  28.093  1.00  0.00     0.004 C 
ENDBRANCH  28  29
ENDBRANCH  27  28
ENDBRANCH  26  27
ENDBRANCH  25  26
ENDBRANCH  24  25
ENDBRANCH  23  24
ENDBRANCH  22  23
ENDBRANCH  21  22
ENDBRANCH  20  21
ENDBRANCH  19  20
ENDBRANCH  18  19
ENDBRANCH  17  18
ENDBRANCH   1  17
TORSDOF 26
ENDMDL
MODEL 2
REMARK VINA RESULT:     8.522      0.953      1.931
REMARK INTER + INTRA:          20.189
REMARK INTER:                  21.822
REMARK INTRA:                  -1.633
REMARK UNBOUND:                -1.286
REMARK SMILES CCCCCCCCCCCCCCCCCCCCCCCCCCCC(=O)[O-]
REMARK SMILES IDX 15 1 16 2 17 3 18 4 19 5 20 6 21 7 22 8 23 9 24 10 25 11
REMARK SMILES IDX 26 12 27 13 28 14 29 15 30 16 14 17 13 18 12 19 11 20 10 21
REMARK SMILES IDX 9 22 8 23 7 24 6 25 5 26 4 27 3 28 2 29 1 30
REMARK H PARENT
REMARK Flexibility Score: inf
ROOT
ATOM      1  C   UNL     1      31.089  19.629  36.960  1.00  0.00     0.000 C 
ENDROOT
BRANCH   1   2
ATOM      2  C   UNL     1      31.905  18.469  37.550  1.00  0.00     0.000 C 
BRANCH   2   3
ATOM      3  C   UNL     1      32.597  18.846  38.869  1.00  0.00     0.000 C 
BRANCH   3   4
ATOM      4  C   UNL     1      33.899  18.062  39.098  1.00  0.00     0.000 C 
BRANCH   4   5
ATOM      5  C   UNL     1      33.780  17.021  40.224  1.00  0.00     0.000 C 
BRANCH   5   6
ATOM      6  C   UNL     1      33.652  17.641  41.632  1.00  0.00     0.000 C 
BRANCH   6   7
ATOM      7  C   UNL     1      34.927  17.462  42.469  1.00  0.00     0.000 C 
BRANCH   7   8
ATOM      8  C   UNL     1      34.825  16.220  43.368  1.00  0.00     0.000 C 
BRANCH   8   9
ATOM      9  C   UNL     1      35.888  15.155  43.047  1.00  0.00     0.000 C 
BRANCH   9  10
ATOM     10  C   UNL     1      35.325  13.783  42.634  1.00  0.00     0.000 C 
BRANCH  10  11
ATOM     11  C   UNL     1      35.630  13.428  41.169  1.00  0.00     0.000 C 
BRANCH  11  12
ATOM     12  C   UNL     1      35.247  11.979  40.815  1.00  0.00     0.006 C 
BRANCH  12  13
ATOM     13  C   UNL     1      34.008  11.858  39.914  1.00  0.00     0.053 C 
BRANCH  13  14
ATOM     14  C   UNL     1      33.061  10.805  40.402  1.00  0.00     0.041 C 
ATOM     15  O   UNL     1      32.975   9.703  39.801  1.00  0.00    -0.550 OA
ATOM     16  O   UNL     1      32.249  11.055  41.501  1.00  0.00    -0.550 OA
ENDBRANCH  13  14
ENDBRANCH  12  13
ENDBRANCH  11  12
ENDBRANCH  10  11
ENDBRANCH   9  10
ENDBRANCH   8   9
ENDBRANCH   7   8
ENDBRANCH   6   7
ENDBRANCH   5   6
ENDBRANCH   4   5
ENDBRANCH   3   4
ENDBRANCH   2   3
ENDBRANCH   1   2
BRANCH   1  17
ATOM     17  C   UNL     1      31.452  20.956  37.642  1.00  0.00     0.000 C 
BRANCH  17  18
ATOM     18  C   UNL     1      31.333  22.159  36.693  1.00  0.00     0.000 C 
BRANCH  18  19
ATOM     19  C   UNL     1      32.468  23.178  36.889  1.00  0.00     0.000 C 
BRANCH  19  20
ATOM     20  C   UNL     1      32.209  24.508  36.162  1.00  0.00     0.000 C 
BRANCH  20  21
ATOM     21  C   UNL     1      32.048  24.357  34.634  1.00  0.00     0.000 C 
BRANCH  21  22
ATOM     22  C   UNL     1      33.318  23.798  33.968  1.00  0.00    -0.000 C 
BRANCH  22  23
ATOM     23  C   UNL     1      34.389  24.877  33.740  1.00  0.00    -0.000 C 
BRANCH  23  24
ATOM     24  C   UNL     1      34.808  24.988  32.264  1.00  0.00    -0.000 C 
BRANCH  24  25
ATOM     25  C   UNL     1      33.618  24.862  31.298  1.00  0.00    -0.000 C 
BRANCH  25  26
ATOM     26  C   UNL     1      34.012  25.124  29.833  1.00  0.00    -0.000 C 
BRANCH  26  27
ATOM     27  C   UNL     1      33.132  24.345  28.842  1.00  0.00    -0.000 C 
BRANCH  27  28
ATOM     28  C   UNL     1      31.869  25.125  28.432  1.00  0.00    -0.000 C 
BRANCH  28  29
ATOM     29  C   UNL     1      30.578  24.344  28.716  1.00  0.00    -0.003 C 
ATOM     30  C   UNL     1      30.028  24.605  30.119  1.00  0.00     0.004 C 
ENDBRANCH  28  29
ENDBRANCH  27  28
ENDBRANCH  26  27
ENDBRANCH  25  26
ENDBRANCH  24  25
ENDBRANCH  23  24
ENDBRANCH  22  23
ENDBRANCH  21  22
ENDBRANCH  20  21
ENDBRANCH  19  20
ENDBRANCH  18  19
ENDBRANCH  17  18
ENDBRANCH   1  17
TORSDOF 26
ENDMDL
MODEL 3
REMARK VINA RESULT:     8.881      4.738     13.821
REMARK INTER + INTRA:          21.095
REMARK INTER:                  21.376
REMARK INTRA:                  -0.281
REMARK UNBOUND:                -1.286
REMARK SMILES CCCCCCCCCCCCCCCCCCCCCCCCCCCC(=O)[O-]
REMARK SMILES IDX 15 1 16 2 17 3 18 4 19 5 20 6 21 7 22 8 23 9 24 10 25 11
REMARK SMILES IDX 26 12 27 13 28 14 29 15 30 16 14 17 13 18 12 19 11 20 10 21
REMARK SMILES IDX 9 22 8 23 7 24 6 25 5 26 4 27 3 28 2 29 1 30
REMARK H PARENT
REMARK Flexibility Score: inf
ROOT
ATOM      1  C   UNL     1      31.498  18.947  38.409  1.00  0.00     0.000 C 
ENDROOT
BRANCH   1   2
ATOM      2  C   UNL     1      31.172  19.958  37.299  1.00  0.00     0.000 C 
BRANCH   2   3
ATOM      3  C   UNL     1      31.520  21.401  37.695  1.00  0.00     0.000 C 
BRANCH   3   4
ATOM      4  C   UNL     1      32.149  22.195  36.538  1.00  0.00     0.000 C 
BRANCH   4   5
ATOM      5  C   UNL     1      32.054  23.718  36.737  1.00  0.00     0.000 C 
BRANCH   5   6
ATOM      6  C   UNL     1      31.271  24.442  35.623  1.00  0.00     0.000 C 
BRANCH   6   7
ATOM      7  C   UNL     1      32.065  24.529  34.311  1.00  0.00     0.000 C 
BRANCH   7   8
ATOM      8  C   UNL     1      31.205  25.125  33.185  1.00  0.00     0.000 C 
BRANCH   8   9
ATOM      9  C   UNL     1      31.328  24.352  31.860  1.00  0.00     0.000 C 
BRANCH   9  10
ATOM     10  C   UNL     1      29.993  24.093  31.137  1.00  0.00     0.000 C 
BRANCH  10  11
ATOM     11  C   UNL     1      29.728  25.094  29.999  1.00  0.00     0.000 C 
BRANCH  11  12
ATOM     12  C   UNL     1      30.814  25.056  28.908  1.00  0.00     0.006 C 
BRANCH  12  13
ATOM     13  C   UNL     1      32.245  24.907  29.450  1.00  0.00     0.053 C 
BRANCH  13  14
ATOM     14  C   UNL     1      33.071  23.989  28.602  1.00  0.00     0.041 C 
ATOM     15  O   UNL     1      32.786  22.766  28.530  1.00  0.00    -0.550 OA
ATOM     16  O   UNL     1      34.177  24.479  27.919  1.00  0.00    -0.550 OA
ENDBRANCH  13  14
ENDBRANCH  12  13
ENDBRANCH  11  12
ENDBRANCH  10  11
ENDBRANCH   9  10
ENDBRANCH   8   9
ENDBRANCH   7   8
ENDBRANCH   6   7
ENDBRANCH   5   6
ENDBRANCH   4   5
ENDBRANCH   3   4
ENDBRANCH   2   3
ENDBRANCH   1   2
BRANCH   1  17
ATOM     17  C   UNL     1      32.625  18.000  37.973  1.00  0.00     0.000 C 
BRANCH  17  18
ATOM     18  C   UNL     1      33.817  18.016  38.942  1.00  0.00     0.000 C 
BRANCH  18  19
ATOM     19  C   UNL     1      33.380  18.117  40.413  1.00  0.00     0.000 C 
BRANCH  19  20
ATOM     20  C   UNL     1      34.140  17.145  41.331  1.00  0.00     0.000 C 
BRANCH  20  21
ATOM     21  C   UNL     1      34.858  17.840  42.507  1.00  0.00     0.000 C 
BRANCH  21  22
ATOM     22  C   UNL     1      34.952  16.933  43.748  1.00  0.00    -0.000 C 
BRANCH  22  23
ATOM     23  C   UNL     1      34.926  15.438  43.390  1.00  0.00    -0.000 C 
BRANCH  23  24
ATOM     24  C   UNL     1      36.281  14.938  42.860  1.00  0.00    -0.000 C 
BRANCH  24  25
ATOM     25  C   UNL     1      36.190  13.545  42.216  1.00  0.00    -0.000 C 
BRANCH  25  26
ATOM     26  C   UNL     1      34.805  12.897  42.393  1.00  0.00    -0.000 C 
BRANCH  26  27
ATOM     27  C   UNL     1      34.080  12.689  41.053  1.00  0.00    -0.000 C 
BRANCH  27  28
ATOM     28  C   UNL     1      34.478  11.371  40.363  1.00  0.00    -0.000 C 
BRANCH  28  29
ATOM     29  C   UNL     1      33.280  10.432  40.156  1.00  0.00    -0.003 C 
ATOM     30  C   UNL     1      33.619   9.233  39.269  1.00  0.00     0.004 C 
ENDBRANCH  28  29
ENDBRANCH  27  28
ENDBRANCH  26  27
ENDBRANCH  25  26
ENDBRANCH  24  25
ENDBRANCH  23  24
ENDBRANCH  22  23
ENDBRANCH  21  22
ENDBRANCH  20  21
ENDBRANCH  19  20
ENDBRANCH  18  19
ENDBRANCH  17  18
ENDBRANCH   1  17
TORSDOF 26
ENDMDL
MODEL 4
REMARK VINA RESULT:     9.946      4.903     13.831
REMARK INTER + INTRA:          23.778
REMARK INTER:                  24.921
REMARK INTRA:                  -1.143
REMARK UNBOUND:                -1.286
REMARK SMILES CCCCCCCCCCCCCCCCCCCCCCCCCCCC(=O)[O-]
REMARK SMILES IDX 15 1 16 2 17 3 18 4 19 5 20 6 21 7 22 8 23 9 24 10 25 11
REMARK SMILES IDX 26 12 27 13 28 14 29 15 30 16 14 17 13 18 12 19 11 20 10 21
REMARK SMILES IDX 9 22 8 23 7 24 6 25 5 26 4 27 3 28 2 29 1 30
REMARK H PARENT
REMARK Flexibility Score: inf
ROOT
ATOM      1  C   UNL     1      32.770  19.047  38.766  1.00  0.00     0.000 C 
ENDROOT
BRANCH   1   2
ATOM      2  C   UNL     1      31.747  19.082  37.621  1.00  0.00     0.000 C 
BRANCH   2   3
ATOM      3  C   UNL     1      31.074  20.455  37.473  1.00  0.00     0.000 C 
BRANCH   3   4
ATOM      4  C   UNL     1      32.024  21.518  36.896  1.00  0.00     0.000 C 
BRANCH   4   5
ATOM      5  C   UNL     1      31.867  22.891  37.572  1.00  0.00     0.000 C 
BRANCH   5   6
ATOM      6  C   UNL     1      31.337  23.991  36.628  1.00  0.00     0.000 C 
BRANCH   6   7
ATOM      7  C   UNL     1      32.064  24.001  35.275  1.00  0.00     0.000 C 
BRANCH   7   8
ATOM      8  C   UNL     1      31.419  25.009  34.311  1.00  0.00     0.000 C 
BRANCH   8   9
ATOM      9  C   UNL     1      32.013  24.950  32.893  1.00  0.00     0.000 C 
BRANCH   9  10
ATOM     10  C   UNL     1      31.153  24.194  31.863  1.00  0.00     0.000 C 
BRANCH  10  11
ATOM     11  C   UNL     1      29.847  24.931  31.520  1.00  0.00     0.000 C 
BRANCH  11  12
ATOM     12  C   UNL     1      29.647  25.111  30.004  1.00  0.00     0.006 C 
BRANCH  12  13
ATOM     13  C   UNL     1      30.089  23.903  29.163  1.00  0.00     0.053 C 
BRANCH  13  14
ATOM     14  C   UNL     1      31.415  24.134  28.504  1.00  0.00     0.041 C 
ATOM     15  O   UNL     1      32.461  24.218  29.199  1.00  0.00    -0.550 OA
ATOM     16  O   UNL     1      31.490  24.291  27.126  1.00  0.00    -0.550 OA
ENDBRANCH  13  14
ENDBRANCH  12  13
ENDBRANCH  11  12
ENDBRANCH  10  11
ENDBRANCH   9  10
ENDBRANCH   8   9
ENDBRANCH   7   8
ENDBRANCH   6   7
ENDBRANCH   5   6
ENDBRANCH   4   5
ENDBRANCH   3   4
ENDBRANCH   2   3
ENDBRANCH   1   2
BRANCH   1  17
ATOM     17  C   UNL     1      33.153  17.601  39.114  1.00  0.00     0.000 C 
BRANCH  17  18
ATOM     18  C   UNL     1      34.235  17.522  40.202  1.00  0.00     0.000 C 
BRANCH  18  19
ATOM     19  C   UNL     1      33.659  17.158  41.581  1.00  0.00     0.000 C 
BRANCH  19  20
ATOM     20  C   UNL     1      34.747  16.965  42.650  1.00  0.00     0.000 C 
BRANCH  20  21
ATOM     21  C   UNL     1      34.725  15.569  43.310  1.00  0.00     0.000 C 
BRANCH  21  22
ATOM     22  C   UNL     1      36.063  14.826  43.142  1.00  0.00    -0.000 C 
BRANCH  22  23
ATOM     23  C   UNL     1      35.910  13.495  42.387  1.00  0.00    -0.000 C 
BRANCH  23  24
ATOM     24  C   UNL     1      35.994  13.673  40.861  1.00  0.00    -0.000 C 
BRANCH  24  25
ATOM     25  C   UNL     1      34.682  13.309  40.147  1.00  0.00    -0.000 C 
BRANCH  25  26
ATOM     26  C   UNL     1      33.627  12.725  41.103  1.00  0.00    -0.000 C 
BRANCH  26  27
ATOM     27  C   UNL     1      33.828  11.220  41.348  1.00  0.00    -0.000 C 
BRANCH  27  28
ATOM     28  C   UNL     1      32.633  10.377  40.866  1.00  0.00    -0.000 C 
BRANCH  28  29
ATOM     29  C   UNL     1      32.880   9.739  39.491  1.00  0.00    -0.003 C 
ATOM     30  C   UNL     1      34.257   9.081  39.386  1.00  0.00     0.004 C 
ENDBRANCH  28  29
ENDBRANCH  27  28
ENDBRANCH  26  27
ENDBRANCH  25  26
ENDBRANCH  24  25
ENDBRANCH  23  24
ENDBRANCH  22  23
ENDBRANCH  21  22
ENDBRANCH  20  21
ENDBRANCH  19  20
ENDBRANCH  18  19
ENDBRANCH  17  18
ENDBRANCH   1  17
TORSDOF 26
ENDMDL
MODEL 5
REMARK VINA RESULT:    10.156      5.087     13.721
REMARK INTER + INTRA:          24.307
REMARK INTER:                  24.844
REMARK INTRA:                  -0.537
REMARK UNBOUND:                -1.286
REMARK SMILES CCCCCCCCCCCCCCCCCCCCCCCCCCCC(=O)[O-]
REMARK SMILES IDX 15 1 16 2 17 3 18 4 19 5 20 6 21 7 22 8 23 9 24 10 25 11
REMARK SMILES IDX 26 12 27 13 28 14 29 15 30 16 14 17 13 18 12 19 11 20 10 21
REMARK SMILES IDX 9 22 8 23 7 24 6 25 5 26 4 27 3 28 2 29 1 30
REMARK H PARENT
REMARK Flexibility Score: inf
ROOT
ATOM      1  C   UNL     1      30.964  19.975  37.053  1.00  0.00     0.000 C 
ENDROOT
BRANCH   1   2
ATOM      2  C   UNL     1      31.569  20.813  38.189  1.00  0.00     0.000 C 
BRANCH   2   3
ATOM      3  C   UNL     1      31.308  22.317  38.015  1.00  0.00     0.000 C 
BRANCH   3   4
ATOM      4  C   UNL     1      31.451  22.776  36.555  1.00  0.00     0.000 C 
BRANCH   4   5
ATOM      5  C   UNL     1      32.074  24.177  36.427  1.00  0.00     0.000 C 
BRANCH   5   6
ATOM      6  C   UNL     1      31.647  24.933  35.151  1.00  0.00     0.000 C 
BRANCH   6   7
ATOM      7  C   UNL     1      32.438  24.483  33.913  1.00  0.00     0.000 C 
BRANCH   7   8
ATOM      8  C   UNL     1      31.826  25.063  32.628  1.00  0.00     0.000 C 
BRANCH   8   9
ATOM      9  C   UNL     1      30.475  24.422  32.262  1.00  0.00     0.000 C 
BRANCH   9  10
ATOM     10  C   UNL     1      29.820  24.981  30.986  1.00  0.00     0.000 C 
BRANCH  10  11
ATOM     11  C   UNL     1      30.811  25.125  29.818  1.00  0.00     0.000 C 
BRANCH  11  12
ATOM     12  C   UNL     1      31.529  23.805  29.482  1.00  0.00     0.006 C 
BRANCH  12  13
ATOM     13  C   UNL     1      31.462  23.413  27.997  1.00  0.00     0.053 C 
BRANCH  13  14
ATOM     14  C   UNL     1      30.144  23.772  27.382  1.00  0.00     0.041 C 
ATOM     15  O   UNL     1      29.970  24.911  26.877  1.00  0.00    -0.550 OA
ATOM     16  O   UNL     1      29.098  22.858  27.395  1.00  0.00    -0.550 OA
ENDBRANCH  13  14
ENDBRANCH  12  13
ENDBRANCH  11  12
ENDBRANCH  10  11
ENDBRANCH   9  10
ENDBRANCH   8   9
ENDBRANCH   7   8
ENDBRANCH   6   7
ENDBRANCH   5   6
ENDBRANCH   4   5
ENDBRANCH   3   4
ENDBRANCH   2   3
ENDBRANCH   1   2
BRANCH   1  17
ATOM     17  C   UNL     1      30.925  18.487  37.431  1.00  0.00     0.000 C 
BRANCH  17  18
ATOM     18  C   UNL     1      32.288  17.799  37.259  1.00  0.00     0.000 C 
BRANCH  18  19
ATOM     19  C   UNL     1      33.350  18.345  38.229  1.00  0.00     0.000 C 
BRANCH  19  20
ATOM     20  C   UNL     1      33.105  17.917  39.686  1.00  0.00     0.000 C 
BRANCH  20  21
ATOM     21  C   UNL     1      34.106  16.858  40.196  1.00  0.00     0.000 C 
BRANCH  21  22
ATOM     22  C   UNL     1      33.935  16.574  41.700  1.00  0.00    -0.000 C 
BRANCH  22  23
ATOM     23  C   UNL     1      35.280  16.430  42.431  1.00  0.00    -0.000 C 
BRANCH  23  24
ATOM     24  C   UNL     1      35.226  15.387  43.560  1.00  0.00    -0.000 C 
BRANCH  24  25
ATOM     25  C   UNL     1      35.700  13.996  43.108  1.00  0.00    -0.000 C 
BRANCH  25  26
ATOM     26  C   UNL     1      35.349  13.697  41.640  1.00  0.00    -0.000 C 
BRANCH  26  27
ATOM     27  C   UNL     1      34.081  12.838  41.503  1.00  0.00    -0.000 C 
BRANCH  27  28
ATOM     28  C   UNL     1      33.849  12.351  40.060  1.00  0.00    -0.000 C 
BRANCH  28  29
ATOM     29  C   UNL     1      34.424  10.949  39.813  1.00  0.00    -0.003 C 
ATOM     30  C   UNL     1      33.387   9.843  40.014  1.00  0.00     0.004 C 
ENDBRANCH  28  29
ENDBRANCH  27  28
ENDBRANCH  26  27
ENDBRANCH  25  26
ENDBRANCH  24  25
ENDBRANCH  23  24
ENDBRANCH  22  23
ENDBRANCH  21  22
ENDBRANCH  20  21
ENDBRANCH  19  20
ENDBRANCH  18  19
ENDBRANCH  17  18
ENDBRANCH   1  17
TORSDOF 26
ENDMDL
