MODEL 1
REMARK VINA RESULT:    -6.974      0.000      0.000
REMARK INTER + INTRA:          -7.765
REMARK INTER:                  -7.585
REMARK INTRA:                  -0.180
REMARK UNBOUND:                -0.180
REMARK SMILES CC1(C)CC[C@@]2(C(=O)[O-])CC[C@@]3(C)C(=CC[C@H]4[C@]5(C)CC[C@H](O)C(C)(C)[C@@H]5CC[C@]43C)[C@H]2C1
REMARK SMILES IDX 6 1 5 2 10 3 32 4 4 5 11 6 14 7 33 8 2 9 12 10 15 11 1 12
REMARK SMILES IDX 3 13 13 14 30 15 16 16 17 17 29 18 31 19 18 20 28 21 27 22
REMARK SMILES IDX 20 23 19 24 24 25 21 26 22 27 25 28 26 29 7 30 8 31 9 32
REMARK SMILES IDX 23 33
REMARK H PARENT 23 34
REMARK Flexibility Score: inf
ROOT
ATOM      1  C   UNL     1       7.647  14.531 -17.309  1.00  0.00     0.017 C 
ATOM      2  C   UNL     1       7.102  15.974 -17.514  1.00  0.00     0.014 C 
ATOM      3  C   UNL     1       6.661  13.485 -17.900  1.00  0.00     0.014 C 
ATOM      4  C   UNL     1       9.057  14.360 -17.970  1.00  0.00     0.028 C 
ATOM      5  C   UNL     1       7.248  16.518 -18.945  1.00  0.00     0.007 C 
ATOM      6  C   UNL     1       7.169  12.018 -17.789  1.00  0.00     0.013 C 
ATOM      7  C   UNL     1       9.501  12.884 -17.902  1.00  0.00    -0.064 C 
ATOM      8  C   UNL     1       9.186  14.971 -19.388  1.00  0.00     0.015 C 
ATOM      9  C   UNL     1       8.696  16.436 -19.483  1.00  0.00    -0.035 C 
ATOM     10  C   UNL     1       8.569  11.757 -18.440  1.00  0.00    -0.006 C 
ATOM     11  C   UNL     1      10.541  12.627 -17.067  1.00  0.00    -0.027 C 
ATOM     12  C   UNL     1       8.691  16.862 -20.968  1.00  0.00     0.011 C 
ATOM     13  C   UNL     1       9.636  17.401 -18.721  1.00  0.00     0.011 C 
ATOM     14  C   UNL     1       8.360  11.873 -19.987  1.00  0.00     0.017 C 
ATOM     15  C   UNL     1       9.199  10.286 -18.151  1.00  0.00    -0.020 C 
ATOM     16  C   UNL     1      10.943  11.281 -16.536  1.00  0.00     0.032 C 
ATOM     17  C   UNL     1       9.881  10.177 -16.733  1.00  0.00     0.006 C 
ATOM     18  C   UNL     1       8.168   9.110 -18.351  1.00  0.00     0.008 C 
ATOM     19  C   UNL     1      10.355  10.017 -19.197  1.00  0.00     0.012 C 
ATOM     20  C   UNL     1       8.998   9.793 -15.442  1.00  0.00    -0.025 C 
ATOM     21  C   UNL     1       8.026   8.151 -17.157  1.00  0.00     0.005 C 
ATOM     22  C   UNL     1       7.719   8.938 -15.857  1.00  0.00     0.003 C 
ATOM     23  C   UNL     1       9.933   8.937 -14.507  1.00  0.00     0.010 C 
ATOM     24  C   UNL     1       8.560  11.071 -14.649  1.00  0.00     0.012 C 
ATOM     25  C   UNL     1       7.060   8.063 -14.693  1.00  0.00    -0.006 C 
ATOM     26  C   UNL     1       9.227   8.233 -13.350  1.00  0.00     0.033 C 
ATOM     27  C   UNL     1       8.132   7.296 -13.868  1.00  0.00     0.120 C 
ATOM     28  C   UNL     1       6.224   8.965 -13.740  1.00  0.00     0.014 C 
ATOM     29  C   UNL     1       6.035   7.027 -15.242  1.00  0.00     0.014 C 
ENDROOT
BRANCH   1  30
ATOM     30  C   UNL     1       7.729  14.336 -15.796  1.00  0.00     0.048 C 
ATOM     31  O   UNL     1       8.757  14.679 -15.153  1.00  0.00    -0.550 OA
ATOM     32  O   UNL     1       6.609  13.909 -15.084  1.00  0.00    -0.550 OA
ENDBRANCH   1  30
BRANCH  27  33
ATOM     33  O   UNL     1       8.714   6.278 -14.645  1.00  0.00    -0.393 OA
ATOM     34  H   UNL     1       8.631   5.434 -14.130  1.00  0.00     0.210 HD
ENDBRANCH  27  33
TORSDOF 2
ENDMDL
MODEL 2
REMARK VINA RESULT:    -6.971      1.734      2.852
REMARK INTER + INTRA:          -7.763
REMARK INTER:                  -7.701
REMARK INTRA:                  -0.062
REMARK UNBOUND:                -0.180
REMARK SMILES CC1(C)CC[C@@]2(C(=O)[O-])CC[C@@]3(C)C(=CC[C@H]4[C@]5(C)CC[C@H](O)C(C)(C)[C@@H]5CC[C@]43C)[C@H]2C1
REMARK SMILES IDX 6 1 5 2 10 3 32 4 4 5 11 6 14 7 33 8 2 9 12 10 15 11 1 12
REMARK SMILES IDX 3 13 13 14 30 15 16 16 17 17 29 18 31 19 18 20 28 21 27 22
REMARK SMILES IDX 20 23 19 24 24 25 21 26 22 27 25 28 26 29 7 30 8 31 9 32
REMARK SMILES IDX 23 33
REMARK H PARENT 23 34
REMARK Flexibility Score: inf
ROOT
ATOM      1  C   UNL     1       8.883  15.443 -19.338  1.00  0.00     0.017 C 
ATOM      2  C   UNL     1       9.127  16.895 -19.843  1.00  0.00     0.014 C 
ATOM      3  C   UNL     1       7.474  15.318 -18.692  1.00  0.00     0.014 C 
ATOM      4  C   UNL     1       9.023  14.408 -20.505  1.00  0.00     0.028 C 
ATOM      5  C   UNL     1       8.401  17.250 -21.151  1.00  0.00     0.007 C 
ATOM      6  C   UNL     1       7.132  13.876 -18.220  1.00  0.00     0.013 C 
ATOM      7  C   UNL     1       8.613  13.002 -20.021  1.00  0.00    -0.064 C 
ATOM      8  C   UNL     1       8.329  14.824 -21.826  1.00  0.00     0.015 C 
ATOM      9  C   UNL     1       8.692  16.253 -22.298  1.00  0.00    -0.035 C 
ATOM     10  C   UNL     1       7.232  12.778 -19.333  1.00  0.00    -0.006 C 
ATOM     11  C   UNL     1       9.625  12.102 -19.923  1.00  0.00    -0.027 C 
ATOM     12  C   UNL     1       7.797  16.619 -23.503  1.00  0.00     0.011 C 
ATOM     13  C   UNL     1      10.165  16.343 -22.764  1.00  0.00     0.011 C 
ATOM     14  C   UNL     1       6.047  13.047 -20.320  1.00  0.00     0.017 C 
ATOM     15  C   UNL     1       7.080  11.248 -18.806  1.00  0.00    -0.020 C 
ATOM     16  C   UNL     1       9.594  10.808 -19.161  1.00  0.00     0.032 C 
ATOM     17  C   UNL     1       8.409  10.677 -18.178  1.00  0.00     0.006 C 
ATOM     18  C   UNL     1       5.875  11.043 -17.809  1.00  0.00     0.008 C 
ATOM     19  C   UNL     1       6.765  10.316 -20.046  1.00  0.00     0.012 C 
ATOM     20  C   UNL     1       8.738  10.931 -16.621  1.00  0.00    -0.025 C 
ATOM     21  C   UNL     1       6.237  10.379 -16.470  1.00  0.00     0.005 C 
ATOM     22  C   UNL     1       7.400  11.137 -15.781  1.00  0.00     0.003 C 
ATOM     23  C   UNL     1       9.494   9.645 -16.116  1.00  0.00     0.010 C 
ATOM     24  C   UNL     1       9.690  12.159 -16.432  1.00  0.00     0.012 C 
ATOM     25  C   UNL     1       7.521  10.876 -14.207  1.00  0.00    -0.006 C 
ATOM     26  C   UNL     1       9.665   9.545 -14.602  1.00  0.00     0.033 C 
ATOM     27  C   UNL     1       8.307   9.572 -13.896  1.00  0.00     0.120 C 
ATOM     28  C   UNL     1       8.219  12.078 -13.508  1.00  0.00     0.014 C 
ATOM     29  C   UNL     1       6.129  10.783 -13.517  1.00  0.00     0.014 C 
ENDROOT
BRANCH   1  30
ATOM     30  C   UNL     1       9.943  15.199 -18.265  1.00  0.00     0.048 C 
ATOM     31  O   UNL     1      11.146  14.995 -18.579  1.00  0.00    -0.550 OA
ATOM     32  O   UNL     1       9.620  15.344 -16.917  1.00  0.00    -0.550 OA
ENDBRANCH   1  30
BRANCH  27  33
ATOM     33  O   UNL     1       7.557   8.444 -14.278  1.00  0.00    -0.393 OA
ATOM     34  H   UNL     1       7.302   8.572 -15.229  1.00  0.00     0.210 HD
ENDBRANCH  27  33
TORSDOF 2
ENDMDL
MODEL 3
REMARK VINA RESULT:    -6.300      1.977      7.443
REMARK INTER + INTRA:          -7.033
REMARK INTER:                  -6.856
REMARK INTRA:                  -0.177
REMARK UNBOUND:                -0.180
REMARK SMILES CC1(C)CC[C@@]2(C(=O)[O-])CC[C@@]3(C)C(=CC[C@H]4[C@]5(C)CC[C@H](O)C(C)(C)[C@@H]5CC[C@]43C)[C@H]2C1
REMARK SMILES IDX 6 1 5 2 10 3 32 4 4 5 11 6 14 7 33 8 2 9 12 10 15 11 1 12
REMARK SMILES IDX 3 13 13 14 30 15 16 16 17 17 29 18 31 19 18 20 28 21 27 22
REMARK SMILES IDX 20 23 19 24 24 25 21 26 22 27 25 28 26 29 7 30 8 31 9 32
REMARK SMILES IDX 23 33
REMARK H PARENT 23 34
REMARK Flexibility Score: inf
ROOT
ATOM      1  C   UNL     1       7.279   9.565 -16.624  1.00  0.00     0.017 C 
ATOM      2  C   UNL     1       6.605   8.163 -16.622  1.00  0.00     0.014 C 
ATOM      3  C   UNL     1       6.228  10.679 -16.357  1.00  0.00     0.014 C 
ATOM      4  C   UNL     1       8.417   9.646 -15.551  1.00  0.00     0.028 C 
ATOM      5  C   UNL     1       6.257   7.619 -15.227  1.00  0.00     0.007 C 
ATOM      6  C   UNL     1       6.839  12.107 -16.281  1.00  0.00     0.013 C 
ATOM      7  C   UNL     1       8.956  11.088 -15.454  1.00  0.00    -0.064 C 
ATOM      8  C   UNL     1       8.054   9.037 -14.174  1.00  0.00     0.015 C 
ATOM      9  C   UNL     1       7.464   7.608 -14.260  1.00  0.00    -0.035 C 
ATOM     10  C   UNL     1       7.978  12.278 -15.219  1.00  0.00    -0.006 C 
ATOM     11  C   UNL     1      10.220  11.270 -15.916  1.00  0.00    -0.027 C 
ATOM     12  C   UNL     1       6.965   7.193 -12.858  1.00  0.00     0.011 C 
ATOM     13  C   UNL     1       8.531   6.577 -14.702  1.00  0.00     0.011 C 
ATOM     14  C   UNL     1       7.285  12.186 -13.818  1.00  0.00     0.017 C 
ATOM     15  C   UNL     1       8.760  13.702 -15.274  1.00  0.00    -0.020 C 
ATOM     16  C   UNL     1      10.856  12.583 -16.273  1.00  0.00     0.032 C 
ATOM     17  C   UNL     1       9.860  13.757 -16.403  1.00  0.00     0.006 C 
ATOM     18  C   UNL     1       7.798  14.946 -15.390  1.00  0.00     0.008 C 
ATOM     19  C   UNL     1       9.544  13.900 -13.913  1.00  0.00     0.012 C 
ATOM     20  C   UNL     1       9.454  14.191 -17.901  1.00  0.00    -0.025 C 
ATOM     21  C   UNL     1       8.102  15.904 -16.553  1.00  0.00     0.005 C 
ATOM     22  C   UNL     1       8.169  15.131 -17.895  1.00  0.00     0.003 C 
ATOM     23  C   UNL     1      10.690  14.977 -18.481  1.00  0.00     0.010 C 
ATOM     24  C   UNL     1       9.205  12.941 -18.810  1.00  0.00     0.012 C 
ATOM     25  C   UNL     1       7.967  16.042 -19.194  1.00  0.00    -0.006 C 
ATOM     26  C   UNL     1      10.431  15.720 -19.790  1.00  0.00     0.033 C 
ATOM     27  C   UNL     1       9.292  16.730 -19.629  1.00  0.00     0.120 C 
ATOM     28  C   UNL     1       7.417  15.191 -20.375  1.00  0.00     0.014 C 
ATOM     29  C   UNL     1       6.892  17.147 -18.979  1.00  0.00     0.014 C 
ENDROOT
BRANCH   1  30
ATOM     30  C   UNL     1       7.845   9.745 -18.032  1.00  0.00     0.048 C 
ATOM     31  O   UNL     1       9.009   9.355 -18.316  1.00  0.00    -0.550 OA
ATOM     32  O   UNL     1       7.028  10.212 -19.060  1.00  0.00    -0.550 OA
ENDBRANCH   1  30
BRANCH  27  33
ATOM     33  O   UNL     1       9.665  17.712 -18.692  1.00  0.00    -0.393 OA
ATOM     34  H   UNL     1       9.670  17.277 -17.801  1.00  0.00     0.210 HD
ENDBRANCH  27  33
TORSDOF 2
ENDMDL
MODEL 4
REMARK VINA RESULT:    -6.223      1.907      3.575
REMARK INTER + INTRA:          -6.949
REMARK INTER:                  -6.824
REMARK INTRA:                  -0.125
REMARK UNBOUND:                -0.180
REMARK SMILES CC1(C)CC[C@@]2(C(=O)[O-])CC[C@@]3(C)C(=CC[C@H]4[C@]5(C)CC[C@H](O)C(C)(C)[C@@H]5CC[C@]43C)[C@H]2C1
REMARK SMILES IDX 6 1 5 2 10 3 32 4 4 5 11 6 14 7 33 8 2 9 12 10 15 11 1 12
REMARK SMILES IDX 3 13 13 14 30 15 16 16 17 17 29 18 31 19 18 20 28 21 27 22
REMARK SMILES IDX 20 23 19 24 24 25 21 26 22 27 25 28 26 29 7 30 8 31 9 32
REMARK SMILES IDX 23 33
REMARK H PARENT 23 34
REMARK Flexibility Score: inf
ROOT
ATOM      1  C   UNL     1       8.205  14.795 -19.446  1.00  0.00     0.017 C 
ATOM      2  C   UNL     1       8.319  15.759 -20.662  1.00  0.00     0.014 C 
ATOM      3  C   UNL     1       9.514  13.976 -19.272  1.00  0.00     0.014 C 
ATOM      4  C   UNL     1       7.896  15.583 -18.128  1.00  0.00     0.028 C 
ATOM      5  C   UNL     1       9.172  17.013 -20.410  1.00  0.00     0.007 C 
ATOM      6  C   UNL     1       9.499  13.034 -18.035  1.00  0.00     0.013 C 
ATOM      7  C   UNL     1       7.955  14.633 -16.914  1.00  0.00    -0.064 C 
ATOM      8  C   UNL     1       8.732  16.873 -17.934  1.00  0.00     0.015 C 
ATOM      9  C   UNL     1       8.724  17.812 -19.164  1.00  0.00    -0.035 C 
ATOM     10  C   UNL     1       9.213  13.747 -16.670  1.00  0.00    -0.006 C 
ATOM     11  C   UNL     1       6.762  14.380 -16.315  1.00  0.00    -0.027 C 
ATOM     12  C   UNL     1       9.738  18.953 -18.923  1.00  0.00     0.011 C 
ATOM     13  C   UNL     1       7.334  18.460 -19.378  1.00  0.00     0.011 C 
ATOM     14  C   UNL     1      10.477  14.615 -16.356  1.00  0.00     0.017 C 
ATOM     15  C   UNL     1       8.991  12.748 -15.406  1.00  0.00    -0.020 C 
ATOM     16  C   UNL     1       6.464  13.250 -15.371  1.00  0.00     0.032 C 
ATOM     17  C   UNL     1       7.537  12.140 -15.349  1.00  0.00     0.006 C 
ATOM     18  C   UNL     1      10.066  11.598 -15.316  1.00  0.00     0.008 C 
ATOM     19  C   UNL     1       9.151  13.581 -14.070  1.00  0.00     0.012 C 
ATOM     20  C   UNL     1       7.195  10.796 -16.169  1.00  0.00    -0.025 C 
ATOM     21  C   UNL     1       9.496  10.173 -15.223  1.00  0.00     0.005 C 
ATOM     22  C   UNL     1       8.499   9.907 -16.380  1.00  0.00     0.003 C 
ATOM     23  C   UNL     1       6.144  10.006 -15.301  1.00  0.00     0.010 C 
ATOM     24  C   UNL     1       6.534  11.122 -17.551  1.00  0.00     0.012 C 
ATOM     25  C   UNL     1       8.243   8.358 -16.690  1.00  0.00    -0.006 C 
ATOM     26  C   UNL     1       5.878   8.571 -15.749  1.00  0.00     0.033 C 
ATOM     27  C   UNL     1       7.170   7.749 -15.745  1.00  0.00     0.120 C 
ATOM     28  C   UNL     1       7.798   8.166 -18.168  1.00  0.00     0.014 C 
ATOM     29  C   UNL     1       9.542   7.509 -16.565  1.00  0.00     0.014 C 
ENDROOT
BRANCH   1  30
ATOM     30  C   UNL     1       7.064  13.839 -19.788  1.00  0.00     0.048 C 
ATOM     31  O   UNL     1       5.888  14.067 -19.395  1.00  0.00    -0.550 OA
ATOM     32  O   UNL     1       7.280  12.775 -20.662  1.00  0.00    -0.550 OA
ENDBRANCH   1  30
BRANCH  27  33
ATOM     33  O   UNL     1       7.666   7.661 -14.431  1.00  0.00    -0.393 OA
ATOM     34  H   UNL     1       8.425   7.022 -14.449  1.00  0.00     0.210 HD
ENDBRANCH  27  33
TORSDOF 2
ENDMDL
MODEL 5
REMARK VINA RESULT:    -6.204      1.874      3.794
REMARK INTER + INTRA:          -6.929
REMARK INTER:                  -7.621
REMARK INTRA:                   0.693
REMARK UNBOUND:                -0.180
REMARK SMILES CC1(C)CC[C@@]2(C(=O)[O-])CC[C@@]3(C)C(=CC[C@H]4[C@]5(C)CC[C@H](O)C(C)(C)[C@@H]5CC[C@]43C)[C@H]2C1
REMARK SMILES IDX 6 1 5 2 10 3 32 4 4 5 11 6 14 7 33 8 2 9 12 10 15 11 1 12
REMARK SMILES IDX 3 13 13 14 30 15 16 16 17 17 29 18 31 19 18 20 28 21 27 22
REMARK SMILES IDX 20 23 19 24 24 25 21 26 22 27 25 28 26 29 7 30 8 31 9 32
REMARK SMILES IDX 23 33
REMARK H PARENT 23 34
REMARK Flexibility Score: inf
ROOT
ATOM      1  C   UNL     1       9.476  14.609 -18.684  1.00  0.00     0.017 C 
ATOM      2  C   UNL     1      10.179  15.699 -19.544  1.00  0.00     0.014 C 
ATOM      3  C   UNL     1      10.260  14.361 -17.365  1.00  0.00     0.014 C 
ATOM      4  C   UNL     1       8.000  15.016 -18.352  1.00  0.00     0.028 C 
ATOM      5  C   UNL     1       9.972  17.139 -19.049  1.00  0.00     0.007 C 
ATOM      6  C   UNL     1       9.581  13.327 -16.422  1.00  0.00     0.013 C 
ATOM      7  C   UNL     1       7.379  14.008 -17.364  1.00  0.00    -0.064 C 
ATOM      8  C   UNL     1       7.819  16.491 -17.913  1.00  0.00     0.015 C 
ATOM      9  C   UNL     1       8.481  17.512 -18.868  1.00  0.00    -0.035 C 
ATOM     10  C   UNL     1       8.104  13.668 -16.027  1.00  0.00    -0.006 C 
ATOM     11  C   UNL     1       6.397  13.221 -17.875  1.00  0.00    -0.027 C 
ATOM     12  C   UNL     1       8.402  18.915 -18.227  1.00  0.00     0.011 C 
ATOM     13  C   UNL     1       7.747  17.578 -20.230  1.00  0.00     0.011 C 
ATOM     14  C   UNL     1       8.182  14.913 -15.081  1.00  0.00     0.017 C 
ATOM     15  C   UNL     1       7.322  12.497 -15.215  1.00  0.00    -0.020 C 
ATOM     16  C   UNL     1       5.877  11.945 -17.276  1.00  0.00     0.032 C 
ATOM     17  C   UNL     1       6.766  11.361 -16.156  1.00  0.00     0.006 C 
ATOM     18  C   UNL     1       8.171  11.868 -14.044  1.00  0.00     0.008 C 
ATOM     19  C   UNL     1       6.048  13.130 -14.520  1.00  0.00     0.012 C 
ATOM     20  C   UNL     1       7.710  10.120 -16.564  1.00  0.00    -0.025 C 
ATOM     21  C   UNL     1       8.299  10.336 -14.077  1.00  0.00     0.005 C 
ATOM     22  C   UNL     1       8.824   9.861 -15.455  1.00  0.00     0.003 C 
ATOM     23  C   UNL     1       6.764   8.865 -16.676  1.00  0.00     0.010 C 
ATOM     24  C   UNL     1       8.380  10.347 -17.961  1.00  0.00     0.012 C 
ATOM     25  C   UNL     1       9.472   8.398 -15.449  1.00  0.00    -0.006 C 
ATOM     26  C   UNL     1       7.479   7.521 -16.785  1.00  0.00     0.033 C 
ATOM     27  C   UNL     1       8.392   7.287 -15.579  1.00  0.00     0.120 C 
ATOM     28  C   UNL     1      10.501   8.254 -16.607  1.00  0.00     0.014 C 
ATOM     29  C   UNL     1      10.299   8.126 -14.160  1.00  0.00     0.014 C 
ENDROOT
BRANCH   1  30
ATOM     30  C   UNL     1       9.511  13.336 -19.528  1.00  0.00     0.048 C 
ATOM     31  O   UNL     1      10.001  12.269 -19.070  1.00  0.00    -0.550 OA
ATOM     32  O   UNL     1       8.870  13.298 -20.765  1.00  0.00    -0.550 OA
ENDBRANCH   1  30
BRANCH  27  33
ATOM     33  O   UNL     1       7.614   7.220 -14.408  1.00  0.00    -0.393 OA
ATOM     34  H   UNL     1       6.778   7.724 -14.585  1.00  0.00     0.210 HD
ENDBRANCH  27  33
TORSDOF 2
ENDMDL
MODEL 6
REMARK VINA RESULT:    -5.270      1.995      7.450
REMARK INTER + INTRA:          -5.912
REMARK INTER:                  -6.098
REMARK INTRA:                   0.186
REMARK UNBOUND:                -0.180
REMARK SMILES CC1(C)CC[C@@]2(C(=O)[O-])CC[C@@]3(C)C(=CC[C@H]4[C@]5(C)CC[C@H](O)C(C)(C)[C@@H]5CC[C@]43C)[C@H]2C1
REMARK SMILES IDX 6 1 5 2 10 3 32 4 4 5 11 6 14 7 33 8 2 9 12 10 15 11 1 12
REMARK SMILES IDX 3 13 13 14 30 15 16 16 17 17 29 18 31 19 18 20 28 21 27 22
REMARK SMILES IDX 20 23 19 24 24 25 21 26 22 27 25 28 26 29 7 30 8 31 9 32
REMARK SMILES IDX 23 33
REMARK H PARENT 23 34
REMARK Flexibility Score: inf
ROOT
ATOM      1  C   UNL     1       8.269   9.083 -17.390  1.00  0.00     0.017 C 
ATOM      2  C   UNL     1       8.128   7.558 -17.662  1.00  0.00     0.014 C 
ATOM      3  C   UNL     1       7.032   9.853 -17.932  1.00  0.00     0.014 C 
ATOM      4  C   UNL     1       8.441   9.371 -15.860  1.00  0.00     0.028 C 
ATOM      5  C   UNL     1       7.155   6.826 -16.725  1.00  0.00     0.007 C 
ATOM      6  C   UNL     1       7.072  11.380 -17.639  1.00  0.00     0.013 C 
ATOM      7  C   UNL     1       8.410  10.890 -15.597  1.00  0.00    -0.064 C 
ATOM      8  C   UNL     1       7.484   8.572 -14.940  1.00  0.00     0.015 C 
ATOM      9  C   UNL     1       7.467   7.052 -15.227  1.00  0.00    -0.035 C 
ATOM     10  C   UNL     1       7.226  11.755 -16.126  1.00  0.00    -0.006 C 
ATOM     11  C   UNL     1       9.590  11.439 -15.206  1.00  0.00    -0.027 C 
ATOM     12  C   UNL     1       6.344   6.402 -14.389  1.00  0.00     0.011 C 
ATOM     13  C   UNL     1       8.802   6.381 -14.821  1.00  0.00     0.011 C 
ATOM     14  C   UNL     1       5.875  11.365 -15.439  1.00  0.00     0.017 C 
ATOM     15  C   UNL     1       7.475  13.335 -15.832  1.00  0.00    -0.020 C 
ATOM     16  C   UNL     1       9.943  12.898 -15.229  1.00  0.00     0.032 C 
ATOM     17  C   UNL     1       8.974  13.774 -16.054  1.00  0.00     0.006 C 
ATOM     18  C   UNL     1       6.505  14.285 -16.633  1.00  0.00     0.008 C 
ATOM     19  C   UNL     1       7.176  13.616 -14.303  1.00  0.00     0.012 C 
ATOM     20  C   UNL     1       9.475  14.210 -17.521  1.00  0.00    -0.025 C 
ATOM     21  C   UNL     1       7.196  15.385 -17.456  1.00  0.00     0.005 C 
ATOM     22  C   UNL     1       8.268  14.774 -18.394  1.00  0.00     0.003 C 
ATOM     23  C   UNL     1      10.549  15.342 -17.301  1.00  0.00     0.010 C 
ATOM     24  C   UNL     1      10.171  13.021 -18.265  1.00  0.00     0.012 C 
ATOM     25  C   UNL     1       8.677  15.706 -19.628  1.00  0.00    -0.006 C 
ATOM     26  C   UNL     1      10.965  16.097 -18.561  1.00  0.00     0.033 C 
ATOM     27  C   UNL     1       9.754  16.754 -19.229  1.00  0.00     0.120 C 
ATOM     28  C   UNL     1       9.209  14.844 -20.808  1.00  0.00     0.014 C 
ATOM     29  C   UNL     1       7.456  16.465 -20.224  1.00  0.00     0.014 C 
ENDROOT
BRANCH   1  30
ATOM     30  C   UNL     1       9.507   9.525 -18.169  1.00  0.00     0.048 C 
ATOM     31  O   UNL     1       9.400  10.222 -19.214  1.00  0.00    -0.550 OA
ATOM     32  O   UNL     1      10.780   9.287 -17.654  1.00  0.00    -0.550 OA
ENDBRANCH   1  30
BRANCH  27  33
ATOM     33  O   UNL     1       9.204  17.717 -18.361  1.00  0.00    -0.393 OA
ATOM     34  H   UNL     1       9.086  18.550 -18.888  1.00  0.00     0.210 HD
ENDBRANCH  27  33
TORSDOF 2
ENDMDL
MODEL 7
REMARK VINA RESULT:    -4.941      1.318      1.699
REMARK INTER + INTRA:          -5.555
REMARK INTER:                  -5.384
REMARK INTRA:                  -0.171
REMARK UNBOUND:                -0.180
REMARK SMILES CC1(C)CC[C@@]2(C(=O)[O-])CC[C@@]3(C)C(=CC[C@H]4[C@]5(C)CC[C@H](O)C(C)(C)[C@@H]5CC[C@]43C)[C@H]2C1
REMARK SMILES IDX 6 1 5 2 10 3 32 4 4 5 11 6 14 7 33 8 2 9 12 10 15 11 1 12
REMARK SMILES IDX 3 13 13 14 30 15 16 16 17 17 29 18 31 19 18 20 28 21 27 22
REMARK SMILES IDX 20 23 19 24 24 25 21 26 22 27 25 28 26 29 7 30 8 31 9 32
REMARK SMILES IDX 23 33
REMARK H PARENT 23 34
REMARK Flexibility Score: inf
ROOT
ATOM      1  C   UNL     1       8.330  14.423 -16.563  1.00  0.00     0.017 C 
ATOM      2  C   UNL     1       8.369  15.962 -16.339  1.00  0.00     0.014 C 
ATOM      3  C   UNL     1       6.919  13.857 -16.236  1.00  0.00     0.014 C 
ATOM      4  C   UNL     1       8.717  14.056 -18.035  1.00  0.00     0.028 C 
ATOM      5  C   UNL     1       7.689  16.789 -17.442  1.00  0.00     0.007 C 
ATOM      6  C   UNL     1       6.784  12.330 -16.498  1.00  0.00     0.013 C 
ATOM      7  C   UNL     1       8.509  12.547 -18.281  1.00  0.00    -0.064 C 
ATOM      8  C   UNL     1       8.060  14.946 -19.119  1.00  0.00     0.015 C 
ATOM      9  C   UNL     1       8.217  16.464 -18.859  1.00  0.00    -0.035 C 
ATOM     10  C   UNL     1       7.139  11.880 -17.956  1.00  0.00    -0.006 C 
ATOM     11  C   UNL     1       9.645  11.822 -18.452  1.00  0.00    -0.027 C 
ATOM     12  C   UNL     1       7.361  17.234 -19.889  1.00  0.00     0.011 C 
ATOM     13  C   UNL     1       9.685  16.923 -19.033  1.00  0.00     0.011 C 
ATOM     14  C   UNL     1       5.997  12.431 -18.874  1.00  0.00     0.017 C 
ATOM     15  C   UNL     1       7.201  10.271 -18.182  1.00  0.00    -0.020 C 
ATOM     16  C   UNL     1       9.772  10.329 -18.350  1.00  0.00     0.032 C 
ATOM     17  C   UNL     1       8.558   9.632 -17.696  1.00  0.00     0.006 C 
ATOM     18  C   UNL     1       5.979   9.499 -17.551  1.00  0.00     0.008 C 
ATOM     19  C   UNL     1       7.130   9.977 -19.736  1.00  0.00     0.012 C 
ATOM     20  C   UNL     1       8.732   9.185 -16.158  1.00  0.00    -0.025 C 
ATOM     21  C   UNL     1       6.350   8.344 -16.606  1.00  0.00     0.005 C 
ATOM     22  C   UNL     1       7.323   8.832 -15.503  1.00  0.00     0.003 C 
ATOM     23  C   UNL     1       9.650   7.905 -16.173  1.00  0.00     0.010 C 
ATOM     24  C   UNL     1       9.456  10.291 -15.319  1.00  0.00     0.012 C 
ATOM     25  C   UNL     1       7.374   7.899 -14.205  1.00  0.00    -0.006 C 
ATOM     26  C   UNL     1       9.729   7.146 -14.850  1.00  0.00     0.033 C 
ATOM     27  C   UNL     1       8.338   6.694 -14.396  1.00  0.00     0.120 C 
ATOM     28  C   UNL     1       7.817   8.721 -12.960  1.00  0.00     0.014 C 
ATOM     29  C   UNL     1       5.971   7.344 -13.822  1.00  0.00     0.014 C 
ENDROOT
BRANCH   1  30
ATOM     30  C   UNL     1       9.338  13.839 -15.574  1.00  0.00     0.048 C 
ATOM     31  O   UNL     1      10.567  13.799 -15.850  1.00  0.00    -0.550 OA
ATOM     32  O   UNL     1       8.930  13.476 -14.292  1.00  0.00    -0.550 OA
ENDBRANCH   1  30
BRANCH  27  33
ATOM     33  O   UNL     1       7.810   5.787 -15.334  1.00  0.00    -0.393 OA
ATOM     34  H   UNL     1       7.632   4.939 -14.851  1.00  0.00     0.210 HD
ENDBRANCH  27  33
TORSDOF 2
ENDMDL
