MODEL 1
REMARK VINA RESULT:    -3.780      0.000      0.000
REMARK INTER + INTRA:          -9.929
REMARK INTER:                  -7.316
REMARK INTRA:                  -2.613
REMARK UNBOUND:                -2.613
REMARK SMILES CCCCCCCCCCCCCCCCCC(=O)[O-]
REMARK SMILES IDX 10 1 11 2 12 3 13 4 14 5 15 6 16 7 17 8 18 9 19 10 20 11
REMARK SMILES IDX 9 12 8 13 7 14 6 15 5 16 4 17 3 18 2 19 1 20
REMARK H PARENT
REMARK Flexibility Score: inf
ROOT
ATOM      1  C   UNL     1       9.413 -27.195 -30.103  1.00  0.00     0.000 C 
ENDROOT
BRANCH   1   2
ATOM      2  C   UNL     1      10.662 -27.248 -30.998  1.00  0.00     0.000 C 
BRANCH   2   3
ATOM      3  C   UNL     1      11.223 -25.850 -31.309  1.00  0.00     0.000 C 
BRANCH   3   4
ATOM      4  C   UNL     1      10.257 -24.722 -30.907  1.00  0.00     0.000 C 
BRANCH   4   5
ATOM      5  C   UNL     1      10.438 -23.454 -31.753  1.00  0.00     0.000 C 
BRANCH   5   6
ATOM      6  C   UNL     1      11.197 -22.372 -30.970  1.00  0.00     0.000 C 
BRANCH   6   7
ATOM      7  C   UNL     1      12.717 -22.409 -31.210  1.00  0.00     0.006 C 
BRANCH   7   8
ATOM      8  C   UNL     1      13.535 -22.841 -29.979  1.00  0.00     0.053 C 
BRANCH   8   9
ATOM      9  C   UNL     1      14.951 -22.352 -30.023  1.00  0.00     0.041 C 
ATOM     10  O   UNL     1      15.372 -21.543 -29.154  1.00  0.00    -0.550 OA
ATOM     11  O   UNL     1      15.815 -22.812 -31.009  1.00  0.00    -0.550 OA
ENDBRANCH   8   9
ENDBRANCH   7   8
ENDBRANCH   6   7
ENDBRANCH   5   6
ENDBRANCH   4   5
ENDBRANCH   3   4
ENDBRANCH   2   3
ENDBRANCH   1   2
BRANCH   1  12
ATOM     12  C   UNL     1       9.061 -28.562 -29.496  1.00  0.00     0.000 C 
BRANCH  12  13
ATOM     13  C   UNL     1       8.868 -28.454 -27.978  1.00  0.00    -0.000 C 
BRANCH  13  14
ATOM     14  C   UNL     1       8.662 -26.994 -27.550  1.00  0.00    -0.000 C 
BRANCH  14  15
ATOM     15  C   UNL     1       9.293 -26.695 -26.173  1.00  0.00    -0.000 C 
BRANCH  15  16
ATOM     16  C   UNL     1      10.276 -25.511 -26.191  1.00  0.00    -0.000 C 
BRANCH  16  17
ATOM     17  C   UNL     1      11.112 -25.447 -27.476  1.00  0.00    -0.000 C 
BRANCH  17  18
ATOM     18  C   UNL     1      12.481 -26.107 -27.276  1.00  0.00    -0.000 C 
BRANCH  18  19
ATOM     19  C   UNL     1      12.517 -27.502 -27.911  1.00  0.00    -0.003 C 
ATOM     20  C   UNL     1      12.504 -28.594 -26.845  1.00  0.00     0.004 C 
ENDBRANCH  18  19
ENDBRANCH  17  18
ENDBRANCH  16  17
ENDBRANCH  15  16
ENDBRANCH  14  15
ENDBRANCH  13  14
ENDBRANCH  12  13
ENDBRANCH   1  12
TORSDOF 16
ENDMDL
MODEL 2
REMARK VINA RESULT:    -3.760      1.809      2.882
REMARK INTER + INTRA:          -9.890
REMARK INTER:                  -7.573
REMARK INTRA:                  -2.317
REMARK UNBOUND:                -2.613
REMARK SMILES CCCCCCCCCCCCCCCCCC(=O)[O-]
REMARK SMILES IDX 10 1 11 2 12 3 13 4 14 5 15 6 16 7 17 8 18 9 19 10 20 11
REMARK SMILES IDX 9 12 8 13 7 14 6 15 5 16 4 17 3 18 2 19 1 20
REMARK H PARENT
REMARK Flexibility Score: inf
ROOT
ATOM      1  C   UNL     1       9.122 -26.987 -29.310  1.00  0.00     0.000 C 
ENDROOT
BRANCH   1   2
ATOM      2  C   UNL     1      10.234 -27.454 -30.263  1.00  0.00     0.000 C 
BRANCH   2   3
ATOM      3  C   UNL     1      11.030 -26.280 -30.861  1.00  0.00     0.000 C 
BRANCH   3   4
ATOM      4  C   UNL     1      10.781 -24.958 -30.115  1.00  0.00     0.000 C 
BRANCH   4   5
ATOM      5  C   UNL     1      10.142 -23.883 -31.007  1.00  0.00     0.000 C 
BRANCH   5   6
ATOM      6  C   UNL     1      10.708 -23.943 -32.433  1.00  0.00     0.000 C 
BRANCH   6   7
ATOM      7  C   UNL     1      11.506 -22.685 -32.819  1.00  0.00     0.006 C 
BRANCH   7   8
ATOM      8  C   UNL     1      13.000 -22.755 -32.453  1.00  0.00     0.053 C 
BRANCH   8   9
ATOM      9  C   UNL     1      13.888 -22.834 -33.657  1.00  0.00     0.041 C 
ATOM     10  O   UNL     1      15.114 -22.557 -33.563  1.00  0.00    -0.550 OA
ATOM     11  O   UNL     1      13.368 -23.242 -34.879  1.00  0.00    -0.550 OA
ENDBRANCH   8   9
ENDBRANCH   7   8
ENDBRANCH   6   7
ENDBRANCH   5   6
ENDBRANCH   4   5
ENDBRANCH   3   4
ENDBRANCH   2   3
ENDBRANCH   1   2
BRANCH   1  12
ATOM     12  C   UNL     1       8.310 -28.154 -28.729  1.00  0.00     0.000 C 
BRANCH  12  13
ATOM     13  C   UNL     1       8.735 -29.485 -29.362  1.00  0.00    -0.000 C 
BRANCH  13  14
ATOM     14  C   UNL     1       9.297 -30.447 -28.304  1.00  0.00    -0.000 C 
BRANCH  14  15
ATOM     15  C   UNL     1      10.830 -30.334 -28.170  1.00  0.00    -0.000 C 
BRANCH  15  16
ATOM     16  C   UNL     1      11.284 -29.578 -26.909  1.00  0.00    -0.000 C 
BRANCH  16  17
ATOM     17  C   UNL     1      12.319 -28.485 -27.207  1.00  0.00    -0.000 C 
BRANCH  17  18
ATOM     18  C   UNL     1      11.753 -27.093 -26.904  1.00  0.00    -0.000 C 
BRANCH  18  19
ATOM     19  C   UNL     1      10.597 -27.175 -25.900  1.00  0.00    -0.003 C 
ATOM     20  C   UNL     1       9.760 -25.899 -25.918  1.00  0.00     0.004 C 
ENDBRANCH  18  19
ENDBRANCH  17  18
ENDBRANCH  16  17
ENDBRANCH  15  16
ENDBRANCH  14  15
ENDBRANCH  13  14
ENDBRANCH  12  13
ENDBRANCH   1  12
TORSDOF 16
ENDMDL
MODEL 3
REMARK VINA RESULT:    -3.732      2.904      6.244
REMARK INTER + INTRA:          -9.836
REMARK INTER:                  -7.539
REMARK INTRA:                  -2.297
REMARK UNBOUND:                -2.613
REMARK SMILES CCCCCCCCCCCCCCCCCC(=O)[O-]
REMARK SMILES IDX 10 1 11 2 12 3 13 4 14 5 15 6 16 7 17 8 18 9 19 10 20 11
REMARK SMILES IDX 9 12 8 13 7 14 6 15 5 16 4 17 3 18 2 19 1 20
REMARK H PARENT
REMARK Flexibility Score: inf
ROOT
ATOM      1  C   UNL     1      10.173 -25.721 -26.721  1.00  0.00     0.000 C 
ENDROOT
BRANCH   1   2
ATOM      2  C   UNL     1      10.580 -25.041 -25.404  1.00  0.00     0.000 C 
BRANCH   2   3
ATOM      3  C   UNL     1       9.499 -25.168 -24.317  1.00  0.00     0.000 C 
BRANCH   3   4
ATOM      4  C   UNL     1      10.038 -25.790 -23.017  1.00  0.00     0.000 C 
BRANCH   4   5
ATOM      5  C   UNL     1      11.430 -26.415 -23.190  1.00  0.00     0.000 C 
BRANCH   5   6
ATOM      6  C   UNL     1      11.360 -27.947 -23.102  1.00  0.00     0.000 C 
BRANCH   6   7
ATOM      7  C   UNL     1      12.167 -28.651 -24.207  1.00  0.00     0.006 C 
BRANCH   7   8
ATOM      8  C   UNL     1      12.947 -27.689 -25.122  1.00  0.00     0.053 C 
BRANCH   8   9
ATOM      9  C   UNL     1      13.017 -28.168 -26.540  1.00  0.00     0.041 C 
ATOM     10  O   UNL     1      12.069 -28.835 -27.035  1.00  0.00    -0.550 OA
ATOM     11  O   UNL     1      14.118 -27.851 -27.327  1.00  0.00    -0.550 OA
ENDBRANCH   8   9
ENDBRANCH   7   8
ENDBRANCH   6   7
ENDBRANCH   5   6
ENDBRANCH   4   5
ENDBRANCH   3   4
ENDBRANCH   2   3
ENDBRANCH   1   2
BRANCH   1  12
ATOM     12  C   UNL     1       9.164 -26.861 -26.511  1.00  0.00     0.000 C 
BRANCH  12  13
ATOM     13  C   UNL     1       8.389 -27.152 -27.803  1.00  0.00    -0.000 C 
BRANCH  13  14
ATOM     14  C   UNL     1       8.810 -28.499 -28.409  1.00  0.00    -0.000 C 
BRANCH  14  15
ATOM     15  C   UNL     1       9.376 -28.345 -29.836  1.00  0.00    -0.000 C 
BRANCH  15  16
ATOM     16  C   UNL     1      10.568 -27.375 -29.924  1.00  0.00    -0.000 C 
BRANCH  16  17
ATOM     17  C   UNL     1      10.746 -26.773 -31.324  1.00  0.00    -0.000 C 
BRANCH  17  18
ATOM     18  C   UNL     1      10.106 -25.383 -31.411  1.00  0.00    -0.000 C 
BRANCH  18  19
ATOM     19  C   UNL     1      10.283 -24.612 -30.098  1.00  0.00    -0.003 C 
ATOM     20  C   UNL     1      11.630 -23.896 -30.056  1.00  0.00     0.004 C 
ENDBRANCH  18  19
ENDBRANCH  17  18
ENDBRANCH  16  17
ENDBRANCH  15  16
ENDBRANCH  14  15
ENDBRANCH  13  14
ENDBRANCH  12  13
ENDBRANCH   1  12
TORSDOF 16
ENDMDL
MODEL 4
REMARK VINA RESULT:    -3.730      2.658      4.712
REMARK INTER + INTRA:          -9.832
REMARK INTER:                  -7.141
REMARK INTRA:                  -2.691
REMARK UNBOUND:                -2.613
REMARK SMILES CCCCCCCCCCCCCCCCCC(=O)[O-]
REMARK SMILES IDX 10 1 11 2 12 3 13 4 14 5 15 6 16 7 17 8 18 9 19 10 20 11
REMARK SMILES IDX 9 12 8 13 7 14 6 15 5 16 4 17 3 18 2 19 1 20
REMARK H PARENT
REMARK Flexibility Score: inf
ROOT
ATOM      1  C   UNL     1       9.352 -26.132 -25.381  1.00  0.00     0.000 C 
ENDROOT
BRANCH   1   2
ATOM      2  C   UNL     1      10.508 -25.122 -25.292  1.00  0.00     0.000 C 
BRANCH   2   3
ATOM      3  C   UNL     1      11.880 -25.808 -25.167  1.00  0.00     0.000 C 
BRANCH   3   4
ATOM      4  C   UNL     1      12.898 -25.287 -26.196  1.00  0.00     0.000 C 
BRANCH   4   5
ATOM      5  C   UNL     1      13.232 -26.324 -27.278  1.00  0.00     0.000 C 
BRANCH   5   6
ATOM      6  C   UNL     1      12.103 -26.423 -28.314  1.00  0.00     0.000 C 
BRANCH   6   7
ATOM      7  C   UNL     1      11.774 -25.073 -28.977  1.00  0.00     0.006 C 
BRANCH   7   8
ATOM      8  C   UNL     1      10.347 -24.989 -29.550  1.00  0.00     0.053 C 
BRANCH   8   9
ATOM      9  C   UNL     1      10.316 -25.084 -31.045  1.00  0.00     0.041 C 
ATOM     10  O   UNL     1       9.343 -24.614 -31.693  1.00  0.00    -0.550 OA
ATOM     11  O   UNL     1      11.377 -25.668 -31.727  1.00  0.00    -0.550 OA
ENDBRANCH   8   9
ENDBRANCH   7   8
ENDBRANCH   6   7
ENDBRANCH   5   6
ENDBRANCH   4   5
ENDBRANCH   3   4
ENDBRANCH   2   3
ENDBRANCH   1   2
BRANCH   1  12
ATOM     12  C   UNL     1       9.409 -26.987 -26.655  1.00  0.00     0.000 C 
BRANCH  12  13
ATOM     13  C   UNL     1       7.999 -27.355 -27.133  1.00  0.00    -0.000 C 
BRANCH  13  14
ATOM     14  C   UNL     1       8.011 -27.797 -28.604  1.00  0.00    -0.000 C 
BRANCH  14  15
ATOM     15  C   UNL     1       9.223 -28.693 -28.934  1.00  0.00    -0.000 C 
BRANCH  15  16
ATOM     16  C   UNL     1       8.969 -30.190 -28.684  1.00  0.00    -0.000 C 
BRANCH  16  17
ATOM     17  C   UNL     1      10.158 -30.896 -28.018  1.00  0.00    -0.000 C 
BRANCH  17  18
ATOM     18  C   UNL     1      11.357 -29.950 -27.889  1.00  0.00    -0.000 C 
BRANCH  18  19
ATOM     19  C   UNL     1      12.197 -30.292 -26.653  1.00  0.00    -0.003 C 
ATOM     20  C   UNL     1      11.753 -29.477 -25.442  1.00  0.00     0.004 C 
ENDBRANCH  18  19
ENDBRANCH  17  18
ENDBRANCH  16  17
ENDBRANCH  15  16
ENDBRANCH  14  15
ENDBRANCH  13  14
ENDBRANCH  12  13
ENDBRANCH   1  12
TORSDOF 16
ENDMDL
MODEL 5
REMARK VINA RESULT:    -3.674      8.552     12.459
REMARK INTER + INTRA:          -9.723
REMARK INTER:                  -7.677
REMARK INTRA:                  -2.046
REMARK UNBOUND:                -2.613
REMARK SMILES CCCCCCCCCCCCCCCCCC(=O)[O-]
REMARK SMILES IDX 10 1 11 2 12 3 13 4 14 5 15 6 16 7 17 8 18 9 19 10 20 11
REMARK SMILES IDX 9 12 8 13 7 14 6 15 5 16 4 17 3 18 2 19 1 20
REMARK H PARENT
REMARK Flexibility Score: inf
ROOT
ATOM      1  C   UNL     1      18.979 -21.505 -24.970  1.00  0.00     0.000 C 
ENDROOT
BRANCH   1   2
ATOM      2  C   UNL     1      17.938 -21.031 -25.997  1.00  0.00     0.000 C 
BRANCH   2   3
ATOM      3  C   UNL     1      18.582 -20.542 -27.306  1.00  0.00     0.000 C 
BRANCH   3   4
ATOM      4  C   UNL     1      18.842 -21.687 -28.300  1.00  0.00     0.000 C 
BRANCH   4   5
ATOM      5  C   UNL     1      20.330 -21.850 -28.644  1.00  0.00     0.000 C 
BRANCH   5   6
ATOM      6  C   UNL     1      20.845 -23.234 -28.222  1.00  0.00     0.000 C 
BRANCH   6   7
ATOM      7  C   UNL     1      19.787 -24.068 -27.477  1.00  0.00     0.006 C 
BRANCH   7   8
ATOM      8  C   UNL     1      20.247 -25.496 -27.131  1.00  0.00     0.053 C 
BRANCH   8   9
ATOM      9  C   UNL     1      19.720 -26.523 -28.087  1.00  0.00     0.041 C 
ATOM     10  O   UNL     1      20.345 -27.602 -28.271  1.00  0.00    -0.550 OA
ATOM     11  O   UNL     1      18.522 -26.301 -28.754  1.00  0.00    -0.550 OA
ENDBRANCH   8   9
ENDBRANCH   7   8
ENDBRANCH   6   7
ENDBRANCH   5   6
ENDBRANCH   4   5
ENDBRANCH   3   4
ENDBRANCH   2   3
ENDBRANCH   1   2
BRANCH   1  12
ATOM     12  C   UNL     1      20.104 -20.482 -24.751  1.00  0.00     0.000 C 
BRANCH  12  13
ATOM     13  C   UNL     1      21.479 -21.121 -24.982  1.00  0.00    -0.000 C 
BRANCH  13  14
ATOM     14  C   UNL     1      22.247 -20.392 -26.095  1.00  0.00    -0.000 C 
BRANCH  14  15
ATOM     15  C   UNL     1      21.860 -18.901 -26.191  1.00  0.00    -0.000 C 
BRANCH  15  16
ATOM     16  C   UNL     1      22.978 -18.010 -26.759  1.00  0.00    -0.000 C 
BRANCH  16  17
ATOM     17  C   UNL     1      22.749 -16.517 -26.487  1.00  0.00    -0.000 C 
BRANCH  17  18
ATOM     18  C   UNL     1      24.069 -15.809 -26.157  1.00  0.00    -0.000 C 
BRANCH  18  19
ATOM     19  C   UNL     1      25.212 -16.818 -26.006  1.00  0.00    -0.003 C 
ATOM     20  C   UNL     1      26.475 -16.330 -26.711  1.00  0.00     0.004 C 
ENDBRANCH  18  19
ENDBRANCH  17  18
ENDBRANCH  16  17
ENDBRANCH  15  16
ENDBRANCH  14  15
ENDBRANCH  13  14
ENDBRANCH  12  13
ENDBRANCH   1  12
TORSDOF 16
ENDMDL
MODEL 6
REMARK VINA RESULT:    -3.659      2.116      5.869
REMARK INTER + INTRA:          -9.696
REMARK INTER:                  -7.758
REMARK INTRA:                  -1.937
REMARK UNBOUND:                -2.613
REMARK SMILES CCCCCCCCCCCCCCCCCC(=O)[O-]
REMARK SMILES IDX 10 1 11 2 12 3 13 4 14 5 15 6 16 7 17 8 18 9 19 10 20 11
REMARK SMILES IDX 9 12 8 13 7 14 6 15 5 16 4 17 3 18 2 19 1 20
REMARK H PARENT
REMARK Flexibility Score: inf
ROOT
ATOM      1  C   UNL     1      10.655 -27.194 -31.126  1.00  0.00     0.000 C 
ENDROOT
BRANCH   1   2
ATOM      2  C   UNL     1       9.585 -27.095 -30.026  1.00  0.00     0.000 C 
BRANCH   2   3
ATOM      3  C   UNL     1       9.151 -28.474 -29.501  1.00  0.00     0.000 C 
BRANCH   3   4
ATOM      4  C   UNL     1       9.043 -28.516 -27.967  1.00  0.00     0.000 C 
BRANCH   4   5
ATOM      5  C   UNL     1       8.119 -27.426 -27.405  1.00  0.00     0.000 C 
BRANCH   5   6
ATOM      6  C   UNL     1       8.820 -26.626 -26.299  1.00  0.00     0.000 C 
BRANCH   6   7
ATOM      7  C   UNL     1      10.341 -26.862 -26.255  1.00  0.00     0.006 C 
BRANCH   7   8
ATOM      8  C   UNL     1      11.168 -25.735 -26.898  1.00  0.00     0.053 C 
BRANCH   8   9
ATOM      9  C   UNL     1      12.502 -26.206 -27.396  1.00  0.00     0.041 C 
ATOM     10  O   UNL     1      12.581 -27.219 -28.141  1.00  0.00    -0.550 OA
ATOM     11  O   UNL     1      13.655 -25.508 -27.059  1.00  0.00    -0.550 OA
ENDBRANCH   8   9
ENDBRANCH   7   8
ENDBRANCH   6   7
ENDBRANCH   5   6
ENDBRANCH   4   5
ENDBRANCH   3   4
ENDBRANCH   2   3
ENDBRANCH   1   2
BRANCH   1  12
ATOM     12  C   UNL     1      10.999 -25.830 -31.742  1.00  0.00     0.000 C 
BRANCH  12  13
ATOM     13  C   UNL     1       9.898 -24.803 -31.450  1.00  0.00    -0.000 C 
BRANCH  13  14
ATOM     14  C   UNL     1      10.457 -23.599 -30.677  1.00  0.00    -0.000 C 
BRANCH  14  15
ATOM     15  C   UNL     1      11.886 -23.854 -30.153  1.00  0.00    -0.000 C 
BRANCH  15  16
ATOM     16  C   UNL     1      12.922 -22.840 -30.671  1.00  0.00    -0.000 C 
BRANCH  16  17
ATOM     17  C   UNL     1      12.394 -21.400 -30.683  1.00  0.00    -0.000 C 
BRANCH  17  18
ATOM     18  C   UNL     1      12.274 -20.869 -32.117  1.00  0.00    -0.000 C 
BRANCH  18  19
ATOM     19  C   UNL     1      11.152 -19.830 -32.227  1.00  0.00    -0.003 C 
ATOM     20  C   UNL     1      10.299 -19.804 -30.963  1.00  0.00     0.004 C 
ENDBRANCH  18  19
ENDBRANCH  17  18
ENDBRANCH  16  17
ENDBRANCH  15  16
ENDBRANCH  14  15
ENDBRANCH  13  14
ENDBRANCH  12  13
ENDBRANCH   1  12
TORSDOF 16
ENDMDL
MODEL 7
REMARK VINA RESULT:    -3.656      1.571      3.570
REMARK INTER + INTRA:          -9.690
REMARK INTER:                  -7.051
REMARK INTRA:                  -2.639
REMARK UNBOUND:                -2.613
REMARK SMILES CCCCCCCCCCCCCCCCCC(=O)[O-]
REMARK SMILES IDX 10 1 11 2 12 3 13 4 14 5 15 6 16 7 17 8 18 9 19 10 20 11
REMARK SMILES IDX 9 12 8 13 7 14 6 15 5 16 4 17 3 18 2 19 1 20
REMARK H PARENT
REMARK Flexibility Score: inf
ROOT
ATOM      1  C   UNL     1       9.113 -26.269 -26.921  1.00  0.00     0.000 C 
ENDROOT
BRANCH   1   2
ATOM      2  C   UNL     1       8.230 -27.416 -27.441  1.00  0.00     0.000 C 
BRANCH   2   3
ATOM      3  C   UNL     1       8.592 -27.832 -28.877  1.00  0.00     0.000 C 
BRANCH   3   4
ATOM      4  C   UNL     1       9.540 -26.832 -29.561  1.00  0.00     0.000 C 
BRANCH   4   5
ATOM      5  C   UNL     1      10.378 -27.475 -30.677  1.00  0.00     0.000 C 
BRANCH   5   6
ATOM      6  C   UNL     1      11.035 -26.403 -31.559  1.00  0.00     0.000 C 
BRANCH   6   7
ATOM      7  C   UNL     1      11.063 -25.013 -30.898  1.00  0.00     0.006 C 
BRANCH   7   8
ATOM      8  C   UNL     1      11.136 -23.845 -31.899  1.00  0.00     0.053 C 
BRANCH   8   9
ATOM      9  C   UNL     1      11.944 -22.692 -31.385  1.00  0.00     0.041 C 
ATOM     10  O   UNL     1      11.395 -21.579 -31.164  1.00  0.00    -0.550 OA
ATOM     11  O   UNL     1      13.299 -22.854 -31.123  1.00  0.00    -0.550 OA
ENDBRANCH   8   9
ENDBRANCH   7   8
ENDBRANCH   6   7
ENDBRANCH   5   6
ENDBRANCH   4   5
ENDBRANCH   3   4
ENDBRANCH   2   3
ENDBRANCH   1   2
BRANCH   1  12
ATOM     12  C   UNL     1       9.113 -26.171 -25.388  1.00  0.00     0.000 C 
BRANCH  12  13
ATOM     13  C   UNL     1      10.484 -25.720 -24.868  1.00  0.00    -0.000 C 
BRANCH  13  14
ATOM     14  C   UNL     1      11.356 -25.175 -26.008  1.00  0.00    -0.000 C 
BRANCH  14  15
ATOM     15  C   UNL     1      12.583 -26.071 -26.284  1.00  0.00    -0.000 C 
BRANCH  15  16
ATOM     16  C   UNL     1      12.622 -26.638 -27.714  1.00  0.00    -0.000 C 
BRANCH  16  17
ATOM     17  C   UNL     1      12.559 -28.170 -27.752  1.00  0.00    -0.000 C 
BRANCH  17  18
ATOM     18  C   UNL     1      11.849 -28.723 -26.510  1.00  0.00    -0.000 C 
BRANCH  18  19
ATOM     19  C   UNL     1      11.586 -30.226 -26.650  1.00  0.00    -0.003 C 
ATOM     20  C   UNL     1      10.978 -30.555 -28.011  1.00  0.00     0.004 C 
ENDBRANCH  18  19
ENDBRANCH  17  18
ENDBRANCH  16  17
ENDBRANCH  15  16
ENDBRANCH  14  15
ENDBRANCH  13  14
ENDBRANCH  12  13
ENDBRANCH   1  12
TORSDOF 16
ENDMDL
MODEL 8
REMARK VINA RESULT:    -3.623      3.354      4.946
REMARK INTER + INTRA:          -9.626
REMARK INTER:                  -8.348
REMARK INTRA:                  -1.278
REMARK UNBOUND:                -2.613
REMARK SMILES CCCCCCCCCCCCCCCCCC(=O)[O-]
REMARK SMILES IDX 10 1 11 2 12 3 13 4 14 5 15 6 16 7 17 8 18 9 19 10 20 11
REMARK SMILES IDX 9 12 8 13 7 14 6 15 5 16 4 17 3 18 2 19 1 20
REMARK H PARENT
REMARK Flexibility Score: inf
ROOT
ATOM      1  C   UNL     1       8.504 -27.003 -26.903  1.00  0.00     0.000 C 
ENDROOT
BRANCH   1   2
ATOM      2  C   UNL     1       8.365 -27.972 -28.088  1.00  0.00     0.000 C 
BRANCH   2   3
ATOM      3  C   UNL     1       9.718 -28.299 -28.744  1.00  0.00     0.000 C 
BRANCH   3   4
ATOM      4  C   UNL     1       9.899 -27.606 -30.105  1.00  0.00     0.000 C 
BRANCH   4   5
ATOM      5  C   UNL     1      10.882 -26.427 -30.046  1.00  0.00     0.000 C 
BRANCH   5   6
ATOM      6  C   UNL     1      10.159 -25.126 -29.665  1.00  0.00     0.000 C 
BRANCH   6   7
ATOM      7  C   UNL     1       9.563 -24.391 -30.879  1.00  0.00     0.006 C 
BRANCH   7   8
ATOM      8  C   UNL     1      10.265 -24.710 -32.211  1.00  0.00     0.053 C 
BRANCH   8   9
ATOM      9  C   UNL     1      11.260 -23.662 -32.607  1.00  0.00     0.041 C 
ATOM     10  O   UNL     1      12.267 -23.434 -31.884  1.00  0.00    -0.550 OA
ATOM     11  O   UNL     1      11.091 -22.955 -33.792  1.00  0.00    -0.550 OA
ENDBRANCH   8   9
ENDBRANCH   7   8
ENDBRANCH   6   7
ENDBRANCH   5   6
ENDBRANCH   4   5
ENDBRANCH   3   4
ENDBRANCH   2   3
ENDBRANCH   1   2
BRANCH   1  12
ATOM     12  C   UNL     1       9.942 -26.925 -26.368  1.00  0.00     0.000 C 
BRANCH  12  13
ATOM     13  C   UNL     1      10.228 -25.545 -25.763  1.00  0.00    -0.000 C 
BRANCH  13  14
ATOM     14  C   UNL     1       9.336 -25.281 -24.541  1.00  0.00    -0.000 C 
BRANCH  14  15
ATOM     15  C   UNL     1       9.667 -23.938 -23.856  1.00  0.00    -0.000 C 
BRANCH  15  16
ATOM     16  C   UNL     1       9.271 -23.891 -22.370  1.00  0.00    -0.000 C 
BRANCH  16  17
ATOM     17  C   UNL     1      10.304 -24.560 -21.454  1.00  0.00    -0.000 C 
BRANCH  17  18
ATOM     18  C   UNL     1       9.956 -26.034 -21.215  1.00  0.00    -0.000 C 
BRANCH  18  19
ATOM     19  C   UNL     1       9.797 -26.326 -19.719  1.00  0.00    -0.003 C 
ATOM     20  C   UNL     1       8.476 -25.777 -19.187  1.00  0.00     0.004 C 
ENDBRANCH  18  19
ENDBRANCH  17  18
ENDBRANCH  16  17
ENDBRANCH  15  16
ENDBRANCH  14  15
ENDBRANCH  13  14
ENDBRANCH  12  13
ENDBRANCH   1  12
TORSDOF 16
ENDMDL
MODEL 9
REMARK VINA RESULT:    -3.606      1.199      2.323
REMARK INTER + INTRA:          -9.592
REMARK INTER:                  -7.006
REMARK INTRA:                  -2.586
REMARK UNBOUND:                -2.613
REMARK SMILES CCCCCCCCCCCCCCCCCC(=O)[O-]
REMARK SMILES IDX 10 1 11 2 12 3 13 4 14 5 15 6 16 7 17 8 18 9 19 10 20 11
REMARK SMILES IDX 9 12 8 13 7 14 6 15 5 16 4 17 3 18 2 19 1 20
REMARK H PARENT
REMARK Flexibility Score: inf
ROOT
ATOM      1  C   UNL     1       8.834 -27.613 -29.134  1.00  0.00     0.000 C 
ENDROOT
BRANCH   1   2
ATOM      2  C   UNL     1       9.932 -27.841 -30.186  1.00  0.00     0.000 C 
BRANCH   2   3
ATOM      3  C   UNL     1      10.335 -26.543 -30.907  1.00  0.00     0.000 C 
BRANCH   3   4
ATOM      4  C   UNL     1       9.840 -25.283 -30.177  1.00  0.00     0.000 C 
BRANCH   4   5
ATOM      5  C   UNL     1      10.480 -23.994 -30.714  1.00  0.00     0.000 C 
BRANCH   5   6
ATOM      6  C   UNL     1      11.292 -24.272 -31.987  1.00  0.00     0.000 C 
BRANCH   6   7
ATOM      7  C   UNL     1      11.913 -23.001 -32.595  1.00  0.00     0.006 C 
BRANCH   7   8
ATOM      8  C   UNL     1      12.420 -21.991 -31.549  1.00  0.00     0.053 C 
BRANCH   8   9
ATOM      9  C   UNL     1      13.763 -22.359 -30.992  1.00  0.00     0.041 C 
ATOM     10  O   UNL     1      13.858 -22.856 -29.838  1.00  0.00    -0.550 OA
ATOM     11  O   UNL     1      14.907 -22.179 -31.760  1.00  0.00    -0.550 OA
ENDBRANCH   8   9
ENDBRANCH   7   8
ENDBRANCH   6   7
ENDBRANCH   5   6
ENDBRANCH   4   5
ENDBRANCH   3   4
ENDBRANCH   2   3
ENDBRANCH   1   2
BRANCH   1  12
ATOM     12  C   UNL     1       9.062 -28.430 -27.853  1.00  0.00     0.000 C 
BRANCH  12  13
ATOM     13  C   UNL     1      10.328 -29.289 -27.968  1.00  0.00    -0.000 C 
BRANCH  13  14
ATOM     14  C   UNL     1      11.371 -28.880 -26.917  1.00  0.00    -0.000 C 
BRANCH  14  15
ATOM     15  C   UNL     1      12.568 -28.135 -27.542  1.00  0.00    -0.000 C 
BRANCH  15  16
ATOM     16  C   UNL     1      12.331 -26.624 -27.715  1.00  0.00    -0.000 C 
BRANCH  16  17
ATOM     17  C   UNL     1      11.898 -25.934 -26.415  1.00  0.00    -0.000 C 
BRANCH  17  18
ATOM     18  C   UNL     1      10.470 -25.389 -26.530  1.00  0.00    -0.000 C 
BRANCH  18  19
ATOM     19  C   UNL     1       9.695 -25.593 -25.223  1.00  0.00    -0.003 C 
ATOM     20  C   UNL     1      10.465 -26.494 -24.261  1.00  0.00     0.004 C 
ENDBRANCH  18  19
ENDBRANCH  17  18
ENDBRANCH  16  17
ENDBRANCH  15  16
ENDBRANCH  14  15
ENDBRANCH  13  14
ENDBRANCH  12  13
ENDBRANCH   1  12
TORSDOF 16
ENDMDL
