MODEL 1
REMARK VINA RESULT:    -6.473      0.000      0.000
REMARK INTER + INTRA:          -7.741
REMARK INTER:                  -7.608
REMARK INTRA:                  -0.133
REMARK UNBOUND:                -0.133
REMARK SMILES O=C([O-])C=Cc1ccc(O)c(O)c1
REMARK SMILES IDX 6 1 13 2 7 3 11 4 8 5 9 6 5 7 4 8 2 9 1 10 3 11 12 12 10 14
REMARK H PARENT 12 13 10 15
REMARK Flexibility Score: inf
ROOT
ATOM      1  C   UNL     1      79.443  61.734  13.096  1.00  0.00    -0.022 A 
ATOM      2  C   UNL     1      78.368  61.581  12.198  1.00  0.00     0.058 A 
ATOM      3  C   UNL     1      80.468  60.773  13.097  1.00  0.00     0.012 A 
ATOM      4  C   UNL     1      78.334  60.502  11.302  1.00  0.00     0.157 A 
ATOM      5  C   UNL     1      80.435  59.699  12.204  1.00  0.00     0.051 A 
ATOM      6  C   UNL     1      79.376  59.559  11.304  1.00  0.00     0.157 A 
ENDROOT
BRANCH   1   7
ATOM      7  C   UNL     1      79.518  62.851  14.070  1.00  0.00     0.010 C 
ATOM      8  C   UNL     1      80.396  63.860  13.979  1.00  0.00     0.025 C 
BRANCH   8   9
ATOM      9  C   UNL     1      80.451  64.947  14.971  1.00  0.00     0.064 C 
ATOM     10  O   UNL     1      79.811  64.874  16.054  1.00  0.00    -0.545 OA
ATOM     11  O   UNL     1      81.218  66.073  14.708  1.00  0.00    -0.545 OA
ENDBRANCH   8   9
ENDBRANCH   1   7
BRANCH   4  12
ATOM     12  O   UNL     1      77.268  60.360  10.416  1.00  0.00    -0.504 OA
ATOM     13  H   UNL     1      77.082  59.483   9.943  1.00  0.00     0.293 HD
ENDBRANCH   4  12
BRANCH   6  14
ATOM     14  O   UNL     1      79.372  58.477  10.424  1.00  0.00    -0.504 OA
ATOM     15  H   UNL     1      79.239  58.595   9.427  1.00  0.00     0.293 HD
ENDBRANCH   6  14
TORSDOF 4
ENDMDL
MODEL 2
REMARK VINA RESULT:    -6.087      1.208      1.808
REMARK INTER + INTRA:          -7.288
REMARK INTER:                  -7.135
REMARK INTRA:                  -0.152
REMARK UNBOUND:                -0.133
REMARK SMILES O=C([O-])C=Cc1ccc(O)c(O)c1
REMARK SMILES IDX 6 1 13 2 7 3 11 4 8 5 9 6 5 7 4 8 2 9 1 10 3 11 12 12 10 14
REMARK H PARENT 12 13 10 15
REMARK Flexibility Score: inf
ROOT
ATOM      1  C   UNL     1      79.919  61.255  12.434  1.00  0.00    -0.022 A 
ATOM      2  C   UNL     1      80.649  60.794  11.319  1.00  0.00     0.058 A 
ATOM      3  C   UNL     1      78.708  60.625  12.758  1.00  0.00     0.012 A 
ATOM      4  C   UNL     1      80.186  59.707  10.563  1.00  0.00     0.157 A 
ATOM      5  C   UNL     1      78.247  59.541  12.006  1.00  0.00     0.051 A 
ATOM      6  C   UNL     1      78.980  59.077  10.911  1.00  0.00     0.157 A 
ENDROOT
BRANCH   1   7
ATOM      7  C   UNL     1      80.362  62.407  13.257  1.00  0.00     0.010 C 
ATOM      8  C   UNL     1      79.590  63.008  14.174  1.00  0.00     0.025 C 
BRANCH   8   9
ATOM      9  C   UNL     1      80.058  64.158  14.965  1.00  0.00     0.064 C 
ATOM     10  O   UNL     1      79.613  64.376  16.124  1.00  0.00    -0.545 OA
ATOM     11  O   UNL     1      81.004  65.018  14.426  1.00  0.00    -0.545 OA
ENDBRANCH   8   9
ENDBRANCH   1   7
BRANCH   4  12
ATOM     12  O   UNL     1      80.915  59.256   9.464  1.00  0.00    -0.504 OA
ATOM     13  H   UNL     1      80.906  59.751   8.580  1.00  0.00     0.293 HD
ENDBRANCH   4  12
BRANCH   6  14
ATOM     14  O   UNL     1      78.495  57.993  10.181  1.00  0.00    -0.504 OA
ATOM     15  H   UNL     1      78.915  57.701   9.306  1.00  0.00     0.293 HD
ENDBRANCH   6  14
TORSDOF 4
ENDMDL
MODEL 3
REMARK VINA RESULT:    -5.886      2.340      6.355
REMARK INTER + INTRA:          -7.051
REMARK INTER:                  -6.925
REMARK INTRA:                  -0.126
REMARK UNBOUND:                -0.133
REMARK SMILES O=C([O-])C=Cc1ccc(O)c(O)c1
REMARK SMILES IDX 6 1 13 2 7 3 11 4 8 5 9 6 5 7 4 8 2 9 1 10 3 11 12 12 10 14
REMARK H PARENT 12 13 10 15
REMARK Flexibility Score: inf
ROOT
ATOM      1  C   UNL     1      78.896  59.719  11.492  1.00  0.00    -0.022 A 
ATOM      2  C   UNL     1      78.255  60.958  11.695  1.00  0.00     0.058 A 
ATOM      3  C   UNL     1      80.140  59.491  12.101  1.00  0.00     0.012 A 
ATOM      4  C   UNL     1      78.839  61.937  12.513  1.00  0.00     0.157 A 
ATOM      5  C   UNL     1      80.721  60.465  12.916  1.00  0.00     0.051 A 
ATOM      6  C   UNL     1      80.076  61.686  13.129  1.00  0.00     0.157 A 
ENDROOT
BRANCH   1   7
ATOM      7  C   UNL     1      78.325  58.657  10.627  1.00  0.00     0.010 C 
ATOM      8  C   UNL     1      78.583  58.544   9.316  1.00  0.00     0.025 C 
BRANCH   8   9
ATOM      9  C   UNL     1      77.989  57.484   8.485  1.00  0.00     0.064 C 
ATOM     10  O   UNL     1      76.740  57.381   8.355  1.00  0.00    -0.545 OA
ATOM     11  O   UNL     1      78.819  56.581   7.835  1.00  0.00    -0.545 OA
ENDBRANCH   8   9
ENDBRANCH   1   7
BRANCH   4  12
ATOM     12  O   UNL     1      78.197  63.158  12.710  1.00  0.00    -0.504 OA
ATOM     13  H   UNL     1      78.051  63.538  13.638  1.00  0.00     0.293 HD
ENDBRANCH   4  12
BRANCH   6  14
ATOM     14  O   UNL     1      80.680  62.639  13.949  1.00  0.00    -0.504 OA
ATOM     15  H   UNL     1      80.168  63.427  14.326  1.00  0.00     0.293 HD
ENDBRANCH   6  14
TORSDOF 4
ENDMDL
MODEL 4
REMARK VINA RESULT:    -5.700      1.203      6.123
REMARK INTER + INTRA:          -6.832
REMARK INTER:                  -6.703
REMARK INTRA:                  -0.129
REMARK UNBOUND:                -0.133
REMARK SMILES O=C([O-])C=Cc1ccc(O)c(O)c1
REMARK SMILES IDX 6 1 13 2 7 3 11 4 8 5 9 6 5 7 4 8 2 9 1 10 3 11 12 12 10 14
REMARK H PARENT 12 13 10 15
REMARK Flexibility Score: inf
ROOT
ATOM      1  C   UNL     1      79.900  62.861  14.188  1.00  0.00    -0.022 A 
ATOM      2  C   UNL     1      80.691  63.918  13.694  1.00  0.00     0.058 A 
ATOM      3  C   UNL     1      79.201  63.043  15.392  1.00  0.00     0.012 A 
ATOM      4  C   UNL     1      80.757  65.140  14.380  1.00  0.00     0.157 A 
ATOM      5  C   UNL     1      79.266  64.260  16.075  1.00  0.00     0.051 A 
ATOM      6  C   UNL     1      80.038  65.311  15.575  1.00  0.00     0.157 A 
ENDROOT
BRANCH   1   7
ATOM      7  C   UNL     1      79.806  61.547  13.505  1.00  0.00     0.010 C 
ATOM      8  C   UNL     1      78.764  61.174  12.749  1.00  0.00     0.025 C 
BRANCH   8   9
ATOM      9  C   UNL     1      78.699  59.856  12.095  1.00  0.00     0.064 C 
ATOM     10  O   UNL     1      79.696  59.378  11.491  1.00  0.00    -0.545 OA
ATOM     11  O   UNL     1      77.518  59.128  12.143  1.00  0.00    -0.545 OA
ENDBRANCH   8   9
ENDBRANCH   1   7
BRANCH   4  12
ATOM     12  O   UNL     1      81.539  66.181  13.883  1.00  0.00    -0.504 OA
ATOM     13  H   UNL     1      82.391  66.475  14.347  1.00  0.00     0.293 HD
ENDBRANCH   4  12
BRANCH   6  14
ATOM     14  O   UNL     1      80.082  66.515  16.278  1.00  0.00    -0.504 OA
ATOM     15  H   UNL     1      80.612  67.312  15.947  1.00  0.00     0.293 HD
ENDBRANCH   6  14
TORSDOF 4
ENDMDL
MODEL 5
REMARK VINA RESULT:    -5.590      2.438      6.307
REMARK INTER + INTRA:          -6.703
REMARK INTER:                  -6.577
REMARK INTRA:                  -0.126
REMARK UNBOUND:                -0.133
REMARK SMILES O=C([O-])C=Cc1ccc(O)c(O)c1
REMARK SMILES IDX 6 1 13 2 7 3 11 4 8 5 9 6 5 7 4 8 2 9 1 10 3 11 12 12 10 14
REMARK H PARENT 12 13 10 15
REMARK Flexibility Score: inf
ROOT
ATOM      1  C   UNL     1      78.897  59.795  11.713  1.00  0.00    -0.022 A 
ATOM      2  C   UNL     1      78.195  61.009  11.854  1.00  0.00     0.058 A 
ATOM      3  C   UNL     1      80.171  59.678  12.290  1.00  0.00     0.012 A 
ATOM      4  C   UNL     1      78.750  62.074  12.581  1.00  0.00     0.157 A 
ATOM      5  C   UNL     1      80.724  60.737  13.014  1.00  0.00     0.051 A 
ATOM      6  C   UNL     1      80.019  61.934  13.166  1.00  0.00     0.157 A 
ENDROOT
BRANCH   1   7
ATOM      7  C   UNL     1      78.357  58.645  10.946  1.00  0.00     0.010 C 
ATOM      8  C   UNL     1      77.438  57.796  11.425  1.00  0.00     0.025 C 
BRANCH   8   9
ATOM      9  C   UNL     1      76.933  56.657  10.640  1.00  0.00     0.064 C 
ATOM     10  O   UNL     1      77.695  56.001   9.880  1.00  0.00    -0.545 OA
ATOM     11  O   UNL     1      75.595  56.301  10.736  1.00  0.00    -0.545 OA
ENDBRANCH   8   9
ENDBRANCH   1   7
BRANCH   4  12
ATOM     12  O   UNL     1      78.047  63.270  12.718  1.00  0.00    -0.504 OA
ATOM     13  H   UNL     1      78.100  64.001  12.018  1.00  0.00     0.293 HD
ENDBRANCH   4  12
BRANCH   6  14
ATOM     14  O   UNL     1      80.596  62.973  13.895  1.00  0.00    -0.504 OA
ATOM     15  H   UNL     1      80.037  63.679  14.360  1.00  0.00     0.293 HD
ENDBRANCH   6  14
TORSDOF 4
ENDMDL
MODEL 6
REMARK VINA RESULT:    -5.551      2.506      6.715
REMARK INTER + INTRA:          -6.657
REMARK INTER:                  -6.525
REMARK INTRA:                  -0.132
REMARK UNBOUND:                -0.133
REMARK SMILES O=C([O-])C=Cc1ccc(O)c(O)c1
REMARK SMILES IDX 6 1 13 2 7 3 11 4 8 5 9 6 5 7 4 8 2 9 1 10 3 11 12 12 10 14
REMARK H PARENT 12 13 10 15
REMARK Flexibility Score: inf
ROOT
ATOM      1  C   UNL     1      78.398  59.845  11.353  1.00  0.00    -0.022 A 
ATOM      2  C   UNL     1      79.514  59.992  12.202  1.00  0.00     0.058 A 
ATOM      3  C   UNL     1      77.470  60.895  11.265  1.00  0.00     0.012 A 
ATOM      4  C   UNL     1      79.708  61.178  12.926  1.00  0.00     0.157 A 
ATOM      5  C   UNL     1      77.664  62.077  11.984  1.00  0.00     0.051 A 
ATOM      6  C   UNL     1      78.779  62.226  12.813  1.00  0.00     0.157 A 
ENDROOT
BRANCH   1   7
ATOM      7  C   UNL     1      78.144  58.607  10.576  1.00  0.00     0.010 C 
ATOM      8  C   UNL     1      78.155  58.553   9.236  1.00  0.00     0.025 C 
BRANCH   8   9
ATOM      9  C   UNL     1      77.886  57.308   8.497  1.00  0.00     0.064 C 
ATOM     10  O   UNL     1      78.813  56.680   7.920  1.00  0.00    -0.545 OA
ATOM     11  O   UNL     1      76.589  56.820   8.433  1.00  0.00    -0.545 OA
ENDBRANCH   8   9
ENDBRANCH   1   7
BRANCH   4  12
ATOM     12  O   UNL     1      80.815  61.316  13.761  1.00  0.00    -0.504 OA
ATOM     13  H   UNL     1      81.366  62.166  13.777  1.00  0.00     0.293 HD
ENDBRANCH   4  12
BRANCH   6  14
ATOM     14  O   UNL     1      78.945  63.417  13.518  1.00  0.00    -0.504 OA
ATOM     15  H   UNL     1      79.847  63.709  13.876  1.00  0.00     0.293 HD
ENDBRANCH   6  14
TORSDOF 4
ENDMDL
MODEL 7
REMARK VINA RESULT:    -5.461      2.454      6.528
REMARK INTER + INTRA:          -6.551
REMARK INTER:                  -6.398
REMARK INTRA:                  -0.153
REMARK UNBOUND:                -0.133
REMARK SMILES O=C([O-])C=Cc1ccc(O)c(O)c1
REMARK SMILES IDX 6 1 13 2 7 3 11 4 8 5 9 6 5 7 4 8 2 9 1 10 3 11 12 12 10 14
REMARK H PARENT 12 13 10 15
REMARK Flexibility Score: inf
ROOT
ATOM      1  C   UNL     1      78.813  59.826  11.260  1.00  0.00    -0.022 A 
ATOM      2  C   UNL     1      80.074  59.577  11.840  1.00  0.00     0.058 A 
ATOM      3  C   UNL     1      78.075  60.938  11.695  1.00  0.00     0.012 A 
ATOM      4  C   UNL     1      80.594  60.440  12.816  1.00  0.00     0.157 A 
ATOM      5  C   UNL     1      78.593  61.799  12.666  1.00  0.00     0.051 A 
ATOM      6  C   UNL     1      79.849  61.558  13.227  1.00  0.00     0.157 A 
ENDROOT
BRANCH   1   7
ATOM      7  C   UNL     1      78.217  58.936  10.233  1.00  0.00     0.010 C 
ATOM      8  C   UNL     1      76.939  59.011   9.834  1.00  0.00     0.025 C 
BRANCH   8   9
ATOM      9  C   UNL     1      76.377  58.103   8.820  1.00  0.00     0.064 C 
ATOM     10  O   UNL     1      75.207  58.262   8.380  1.00  0.00    -0.545 OA
ATOM     11  O   UNL     1      77.148  57.053   8.341  1.00  0.00    -0.545 OA
ENDBRANCH   8   9
ENDBRANCH   1   7
BRANCH   4  12
ATOM     12  O   UNL     1      81.842  60.188  13.381  1.00  0.00    -0.504 OA
ATOM     13  H   UNL     1      82.618  60.828  13.263  1.00  0.00     0.293 HD
ENDBRANCH   4  12
BRANCH   6  14
ATOM     14  O   UNL     1      80.340  62.436  14.193  1.00  0.00    -0.504 OA
ATOM     15  H   UNL     1      79.795  63.219  14.536  1.00  0.00     0.293 HD
ENDBRANCH   6  14
TORSDOF 4
ENDMDL
MODEL 8
REMARK VINA RESULT:    -5.434      1.411      2.420
REMARK INTER + INTRA:          -6.520
REMARK INTER:                  -6.396
REMARK INTRA:                  -0.124
REMARK UNBOUND:                -0.133
REMARK SMILES O=C([O-])C=Cc1ccc(O)c(O)c1
REMARK SMILES IDX 6 1 13 2 7 3 11 4 8 5 9 6 5 7 4 8 2 9 1 10 3 11 12 12 10 14
REMARK H PARENT 12 13 10 15
REMARK Flexibility Score: inf
ROOT
ATOM      1  C   UNL     1      78.765  60.759  12.136  1.00  0.00    -0.022 A 
ATOM      2  C   UNL     1      79.717  60.326  11.190  1.00  0.00     0.058 A 
ATOM      3  C   UNL     1      77.453  60.267  12.052  1.00  0.00     0.012 A 
ATOM      4  C   UNL     1      79.365  59.399  10.197  1.00  0.00     0.157 A 
ATOM      5  C   UNL     1      77.103  59.343  11.065  1.00  0.00     0.051 A 
ATOM      6  C   UNL     1      78.051  58.904  10.138  1.00  0.00     0.157 A 
ENDROOT
BRANCH   1   7
ATOM      7  C   UNL     1      79.086  61.745  13.197  1.00  0.00     0.010 C 
ATOM      8  C   UNL     1      79.981  62.733  13.050  1.00  0.00     0.025 C 
BRANCH   8   9
ATOM      9  C   UNL     1      80.284  63.688  14.129  1.00  0.00     0.064 C 
ATOM     10  O   UNL     1      81.142  64.597  13.973  1.00  0.00    -0.545 OA
ATOM     11  O   UNL     1      79.614  63.583  15.340  1.00  0.00    -0.545 OA
ENDBRANCH   8   9
ENDBRANCH   1   7
BRANCH   4  12
ATOM     12  O   UNL     1      80.312  58.974   9.268  1.00  0.00    -0.504 OA
ATOM     13  H   UNL     1      80.045  58.485   8.422  1.00  0.00     0.293 HD
ENDBRANCH   4  12
BRANCH   6  14
ATOM     14  O   UNL     1      77.672  57.980   9.165  1.00  0.00    -0.504 OA
ATOM     15  H   UNL     1      76.708  57.691   9.042  1.00  0.00     0.293 HD
ENDBRANCH   6  14
TORSDOF 4
ENDMDL
MODEL 9
REMARK VINA RESULT:    -5.211      2.836      6.308
REMARK INTER + INTRA:          -6.258
REMARK INTER:                  -6.111
REMARK INTRA:                  -0.146
REMARK UNBOUND:                -0.133
REMARK SMILES O=C([O-])C=Cc1ccc(O)c(O)c1
REMARK SMILES IDX 6 1 13 2 7 3 11 4 8 5 9 6 5 7 4 8 2 9 1 10 3 11 12 12 10 14
REMARK H PARENT 12 13 10 15
REMARK Flexibility Score: inf
ROOT
ATOM      1  C   UNL     1      77.807  60.243  11.954  1.00  0.00    -0.022 A 
ATOM      2  C   UNL     1      79.083  59.989  12.497  1.00  0.00     0.058 A 
ATOM      3  C   UNL     1      77.411  61.574  11.749  1.00  0.00     0.012 A 
ATOM      4  C   UNL     1      79.952  61.047  12.802  1.00  0.00     0.157 A 
ATOM      5  C   UNL     1      78.277  62.628  12.051  1.00  0.00     0.051 A 
ATOM      6  C   UNL     1      79.547  62.372  12.574  1.00  0.00     0.157 A 
ENDROOT
BRANCH   1   7
ATOM      7  C   UNL     1      76.848  59.159  11.626  1.00  0.00     0.010 C 
ATOM      8  C   UNL     1      75.517  59.292  11.709  1.00  0.00     0.025 C 
BRANCH   8   9
ATOM      9  C   UNL     1      74.594  58.191  11.387  1.00  0.00     0.064 C 
ATOM     10  O   UNL     1      73.697  58.327  10.513  1.00  0.00    -0.545 OA
ATOM     11  O   UNL     1      74.714  56.982  12.058  1.00  0.00    -0.545 OA
ENDBRANCH   8   9
ENDBRANCH   1   7
BRANCH   4  12
ATOM     12  O   UNL     1      81.213  60.786  13.335  1.00  0.00    -0.504 OA
ATOM     13  H   UNL     1      81.419  60.945  14.314  1.00  0.00     0.293 HD
ENDBRANCH   4  12
BRANCH   6  14
ATOM     14  O   UNL     1      80.389  63.445  12.865  1.00  0.00    -0.504 OA
ATOM     15  H   UNL     1      80.376  63.912  13.763  1.00  0.00     0.293 HD
ENDBRANCH   6  14
TORSDOF 4
ENDMDL
