MODEL 1
REMARK VINA RESULT:    -4.419      0.000      0.000
REMARK INTER + INTRA:         -11.290
REMARK INTER:                  -8.552
REMARK INTRA:                  -2.738
REMARK UNBOUND:                -2.738
REMARK SMILES CCCCCCCCCCCCCCCCCC(=O)[O-]
REMARK SMILES IDX 10 1 11 2 12 3 13 4 14 5 15 6 16 7 17 8 18 9 19 10 20 11
REMARK SMILES IDX 9 12 8 13 7 14 6 15 5 16 4 17 3 18 2 19 1 20
REMARK H PARENT
REMARK Flexibility Score: inf
ROOT
ATOM      1  C   UNL     1     -53.916  15.223 -28.419  1.00  0.00     0.000 C 
ENDROOT
BRANCH   1   2
ATOM      2  C   UNL     1     -53.571  13.749 -28.682  1.00  0.00     0.000 C 
BRANCH   2   3
ATOM      3  C   UNL     1     -53.557  13.404 -30.180  1.00  0.00     0.000 C 
BRANCH   3   4
ATOM      4  C   UNL     1     -53.463  11.889 -30.394  1.00  0.00     0.000 C 
BRANCH   4   5
ATOM      5  C   UNL     1     -52.289  11.536 -31.320  1.00  0.00     0.000 C 
BRANCH   5   6
ATOM      6  C   UNL     1     -51.508  10.302 -30.841  1.00  0.00     0.000 C 
BRANCH   6   7
ATOM      7  C   UNL     1     -49.984  10.487 -30.946  1.00  0.00     0.006 C 
BRANCH   7   8
ATOM      8  C   UNL     1     -49.250   9.950 -29.709  1.00  0.00     0.053 C 
BRANCH   8   9
ATOM      9  C   UNL     1     -47.971   9.262 -30.078  1.00  0.00     0.041 C 
ATOM     10  O   UNL     1     -46.974   9.325 -29.313  1.00  0.00    -0.550 OA
ATOM     11  O   UNL     1     -47.871   8.579 -31.284  1.00  0.00    -0.550 OA
ENDBRANCH   8   9
ENDBRANCH   7   8
ENDBRANCH   6   7
ENDBRANCH   5   6
ENDBRANCH   4   5
ENDBRANCH   3   4
ENDBRANCH   2   3
ENDBRANCH   1   2
BRANCH   1  12
ATOM     12  C   UNL     1     -52.819  15.953 -27.625  1.00  0.00     0.000 C 
BRANCH  12  13
ATOM     13  C   UNL     1     -52.769  17.463 -27.923  1.00  0.00    -0.000 C 
BRANCH  13  14
ATOM     14  C   UNL     1     -53.217  17.858 -29.343  1.00  0.00    -0.000 C 
BRANCH  14  15
ATOM     15  C   UNL     1     -52.114  17.792 -30.417  1.00  0.00    -0.000 C 
BRANCH  15  16
ATOM     16  C   UNL     1     -52.408  16.787 -31.550  1.00  0.00    -0.000 C 
BRANCH  16  17
ATOM     17  C   UNL     1     -51.252  15.803 -31.779  1.00  0.00    -0.000 C 
BRANCH  17  18
ATOM     18  C   UNL     1     -50.441  15.597 -30.493  1.00  0.00    -0.000 C 
BRANCH  18  19
ATOM     19  C   UNL     1     -49.896  14.167 -30.410  1.00  0.00    -0.003 C 
ATOM     20  C   UNL     1     -50.001  13.618 -28.990  1.00  0.00     0.004 C 
ENDBRANCH  18  19
ENDBRANCH  17  18
ENDBRANCH  16  17
ENDBRANCH  15  16
ENDBRANCH  14  15
ENDBRANCH  13  14
ENDBRANCH  12  13
ENDBRANCH   1  12
TORSDOF 16
ENDMDL
MODEL 2
REMARK VINA RESULT:    -4.331      1.014      2.886
REMARK INTER + INTRA:         -11.119
REMARK INTER:                  -8.683
REMARK INTRA:                  -2.436
REMARK UNBOUND:                -2.738
REMARK SMILES CCCCCCCCCCCCCCCCCC(=O)[O-]
REMARK SMILES IDX 10 1 11 2 12 3 13 4 14 5 15 6 16 7 17 8 18 9 19 10 20 11
REMARK SMILES IDX 9 12 8 13 7 14 6 15 5 16 4 17 3 18 2 19 1 20
REMARK H PARENT
REMARK Flexibility Score: inf
ROOT
ATOM      1  C   UNL     1     -50.934  12.604 -28.886  1.00  0.00     0.000 C 
ENDROOT
BRANCH   1   2
ATOM      2  C   UNL     1     -52.458  12.567 -29.072  1.00  0.00     0.000 C 
BRANCH   2   3
ATOM      3  C   UNL     1     -52.900  11.536 -30.123  1.00  0.00     0.000 C 
BRANCH   3   4
ATOM      4  C   UNL     1     -52.092  11.689 -31.417  1.00  0.00     0.000 C 
BRANCH   4   5
ATOM      5  C   UNL     1     -51.247  10.436 -31.689  1.00  0.00     0.000 C 
BRANCH   5   6
ATOM      6  C   UNL     1     -51.491   9.323 -30.659  1.00  0.00     0.000 C 
BRANCH   6   7
ATOM      7  C   UNL     1     -50.207   8.554 -30.302  1.00  0.00     0.006 C 
BRANCH   7   8
ATOM      8  C   UNL     1     -49.108   9.481 -29.762  1.00  0.00     0.053 C 
BRANCH   8   9
ATOM      9  C   UNL     1     -47.745   9.040 -30.202  1.00  0.00     0.041 C 
ATOM     10  O   UNL     1     -47.614   8.290 -31.203  1.00  0.00    -0.550 OA
ATOM     11  O   UNL     1     -46.622   9.433 -29.484  1.00  0.00    -0.550 OA
ENDBRANCH   8   9
ENDBRANCH   7   8
ENDBRANCH   6   7
ENDBRANCH   5   6
ENDBRANCH   4   5
ENDBRANCH   3   4
ENDBRANCH   2   3
ENDBRANCH   1   2
BRANCH   1  12
ATOM     12  C   UNL     1     -50.366  14.032 -28.947  1.00  0.00     0.000 C 
BRANCH  12  13
ATOM     13  C   UNL     1     -49.744  14.371 -30.314  1.00  0.00    -0.000 C 
BRANCH  13  14
ATOM     14  C   UNL     1     -50.599  15.294 -31.203  1.00  0.00    -0.000 C 
BRANCH  14  15
ATOM     15  C   UNL     1     -50.837  16.707 -30.638  1.00  0.00    -0.000 C 
BRANCH  15  16
ATOM     16  C   UNL     1     -52.310  17.164 -30.704  1.00  0.00    -0.000 C 
BRANCH  16  17
ATOM     17  C   UNL     1     -53.284  16.080 -30.221  1.00  0.00    -0.000 C 
BRANCH  17  18
ATOM     18  C   UNL     1     -53.983  16.505 -28.924  1.00  0.00    -0.000 C 
BRANCH  18  19
ATOM     19  C   UNL     1     -53.322  15.854 -27.704  1.00  0.00    -0.003 C 
ATOM     20  C   UNL     1     -52.538  16.878 -26.888  1.00  0.00     0.004 C 
ENDBRANCH  18  19
ENDBRANCH  17  18
ENDBRANCH  16  17
ENDBRANCH  15  16
ENDBRANCH  14  15
ENDBRANCH  13  14
ENDBRANCH  12  13
ENDBRANCH   1  12
TORSDOF 16
ENDMDL
MODEL 3
REMARK VINA RESULT:    -4.284      1.944      4.065
REMARK INTER + INTRA:         -11.030
REMARK INTER:                  -8.425
REMARK INTRA:                  -2.605
REMARK UNBOUND:                -2.738
REMARK SMILES CCCCCCCCCCCCCCCCCC(=O)[O-]
REMARK SMILES IDX 10 1 11 2 12 3 13 4 14 5 15 6 16 7 17 8 18 9 19 10 20 11
REMARK SMILES IDX 9 12 8 13 7 14 6 15 5 16 4 17 3 18 2 19 1 20
REMARK H PARENT
REMARK Flexibility Score: inf
ROOT
ATOM      1  C   UNL     1     -52.261  10.694 -30.696  1.00  0.00     0.000 C 
ENDROOT
BRANCH   1   2
ATOM      2  C   UNL     1     -51.088   9.716 -30.868  1.00  0.00     0.000 C 
BRANCH   2   3
ATOM      3  C   UNL     1     -49.975  10.281 -31.765  1.00  0.00     0.000 C 
BRANCH   3   4
ATOM      4  C   UNL     1     -49.605   9.288 -32.873  1.00  0.00     0.000 C 
BRANCH   4   5
ATOM      5  C   UNL     1     -50.022   7.860 -32.493  1.00  0.00     0.000 C 
BRANCH   5   6
ATOM      6  C   UNL     1     -48.862   6.858 -32.596  1.00  0.00     0.000 C 
BRANCH   6   7
ATOM      7  C   UNL     1     -48.545   6.178 -31.252  1.00  0.00     0.006 C 
BRANCH   7   8
ATOM      8  C   UNL     1     -48.649   7.153 -30.071  1.00  0.00     0.053 C 
BRANCH   8   9
ATOM      9  C   UNL     1     -47.336   7.813 -29.778  1.00  0.00     0.041 C 
ATOM     10  O   UNL     1     -46.616   7.401 -28.832  1.00  0.00    -0.550 OA
ATOM     11  O   UNL     1     -46.924   8.906 -30.531  1.00  0.00    -0.550 OA
ENDBRANCH   8   9
ENDBRANCH   7   8
ENDBRANCH   6   7
ENDBRANCH   5   6
ENDBRANCH   4   5
ENDBRANCH   3   4
ENDBRANCH   2   3
ENDBRANCH   1   2
BRANCH   1  12
ATOM     12  C   UNL     1     -52.369  11.698 -31.857  1.00  0.00     0.000 C 
BRANCH  12  13
ATOM     13  C   UNL     1     -53.058  13.013 -31.449  1.00  0.00    -0.000 C 
BRANCH  13  14
ATOM     14  C   UNL     1     -53.257  13.196 -29.932  1.00  0.00    -0.000 C 
BRANCH  14  15
ATOM     15  C   UNL     1     -52.765  14.544 -29.369  1.00  0.00    -0.000 C 
BRANCH  15  16
ATOM     16  C   UNL     1     -51.318  14.505 -28.835  1.00  0.00    -0.000 C 
BRANCH  16  17
ATOM     17  C   UNL     1     -50.275  14.513 -29.962  1.00  0.00    -0.000 C 
BRANCH  17  18
ATOM     18  C   UNL     1     -49.323  13.317 -29.839  1.00  0.00    -0.000 C 
BRANCH  18  19
ATOM     19  C   UNL     1     -49.727  12.410 -28.671  1.00  0.00    -0.003 C 
ATOM     20  C   UNL     1     -48.711  11.290 -28.464  1.00  0.00     0.004 C 
ENDBRANCH  18  19
ENDBRANCH  17  18
ENDBRANCH  16  17
ENDBRANCH  15  16
ENDBRANCH  14  15
ENDBRANCH  13  14
ENDBRANCH  12  13
ENDBRANCH   1  12
TORSDOF 16
ENDMDL
MODEL 4
REMARK VINA RESULT:    -4.262      1.435      3.281
REMARK INTER + INTRA:         -10.987
REMARK INTER:                  -9.116
REMARK INTRA:                  -1.871
REMARK UNBOUND:                -2.738
REMARK SMILES CCCCCCCCCCCCCCCCCC(=O)[O-]
REMARK SMILES IDX 10 1 11 2 12 3 13 4 14 5 15 6 16 7 17 8 18 9 19 10 20 11
REMARK SMILES IDX 9 12 8 13 7 14 6 15 5 16 4 17 3 18 2 19 1 20
REMARK H PARENT
REMARK Flexibility Score: inf
ROOT
ATOM      1  C   UNL     1     -49.974  14.761 -30.411  1.00  0.00     0.000 C 
ENDROOT
BRANCH   1   2
ATOM      2  C   UNL     1     -50.649  14.116 -29.191  1.00  0.00     0.000 C 
BRANCH   2   3
ATOM      3  C   UNL     1     -50.336  12.617 -29.066  1.00  0.00     0.000 C 
BRANCH   3   4
ATOM      4  C   UNL     1     -51.237  11.788 -29.988  1.00  0.00     0.000 C 
BRANCH   4   5
ATOM      5  C   UNL     1     -50.403  11.008 -31.015  1.00  0.00     0.000 C 
BRANCH   5   6
ATOM      6  C   UNL     1     -51.273  10.277 -32.050  1.00  0.00     0.000 C 
BRANCH   6   7
ATOM      7  C   UNL     1     -50.684   8.917 -32.465  1.00  0.00     0.006 C 
BRANCH   7   8
ATOM      8  C   UNL     1     -49.195   9.017 -32.828  1.00  0.00     0.053 C 
BRANCH   8   9
ATOM      9  C   UNL     1     -48.350   8.145 -31.950  1.00  0.00     0.041 C 
ATOM     10  O   UNL     1     -48.542   6.902 -31.919  1.00  0.00    -0.550 OA
ATOM     11  O   UNL     1     -47.373   8.711 -31.141  1.00  0.00    -0.550 OA
ENDBRANCH   8   9
ENDBRANCH   7   8
ENDBRANCH   6   7
ENDBRANCH   5   6
ENDBRANCH   4   5
ENDBRANCH   3   4
ENDBRANCH   2   3
ENDBRANCH   1   2
BRANCH   1  12
ATOM     12  C   UNL     1     -50.714  16.018 -30.901  1.00  0.00     0.000 C 
BRANCH  12  13
ATOM     13  C   UNL     1     -52.158  15.725 -31.351  1.00  0.00    -0.000 C 
BRANCH  13  14
ATOM     14  C   UNL     1     -53.072  16.962 -31.437  1.00  0.00    -0.000 C 
BRANCH  14  15
ATOM     15  C   UNL     1     -52.550  18.212 -30.702  1.00  0.00    -0.000 C 
BRANCH  15  16
ATOM     16  C   UNL     1     -53.630  18.948 -29.882  1.00  0.00    -0.000 C 
BRANCH  16  17
ATOM     17  C   UNL     1     -53.896  18.281 -28.525  1.00  0.00    -0.000 C 
BRANCH  17  18
ATOM     18  C   UNL     1     -52.582  17.873 -27.846  1.00  0.00    -0.000 C 
BRANCH  18  19
ATOM     19  C   UNL     1     -52.678  16.455 -27.271  1.00  0.00    -0.003 C 
ATOM     20  C   UNL     1     -53.772  15.650 -27.967  1.00  0.00     0.004 C 
ENDBRANCH  18  19
ENDBRANCH  17  18
ENDBRANCH  16  17
ENDBRANCH  15  16
ENDBRANCH  14  15
ENDBRANCH  13  14
ENDBRANCH  12  13
ENDBRANCH   1  12
TORSDOF 16
ENDMDL
MODEL 5
REMARK VINA RESULT:    -4.207      1.990      3.823
REMARK INTER + INTRA:         -10.881
REMARK INTER:                  -8.213
REMARK INTRA:                  -2.667
REMARK UNBOUND:                -2.738
REMARK SMILES CCCCCCCCCCCCCCCCCC(=O)[O-]
REMARK SMILES IDX 10 1 11 2 12 3 13 4 14 5 15 6 16 7 17 8 18 9 19 10 20 11
REMARK SMILES IDX 9 12 8 13 7 14 6 15 5 16 4 17 3 18 2 19 1 20
REMARK H PARENT
REMARK Flexibility Score: inf
ROOT
ATOM      1  C   UNL     1     -49.608  13.975 -30.349  1.00  0.00     0.000 C 
ENDROOT
BRANCH   1   2
ATOM      2  C   UNL     1     -50.261  13.803 -28.970  1.00  0.00     0.000 C 
BRANCH   2   3
ATOM      3  C   UNL     1     -50.258  12.342 -28.493  1.00  0.00     0.000 C 
BRANCH   3   4
ATOM      4  C   UNL     1     -49.370  11.472 -29.391  1.00  0.00     0.000 C 
BRANCH   4   5
ATOM      5  C   UNL     1     -48.282  10.764 -28.569  1.00  0.00     0.000 C 
BRANCH   5   6
ATOM      6  C   UNL     1     -47.540   9.687 -29.374  1.00  0.00     0.000 C 
BRANCH   6   7
ATOM      7  C   UNL     1     -48.495   8.766 -30.153  1.00  0.00     0.006 C 
BRANCH   7   8
ATOM      8  C   UNL     1     -48.175   8.735 -31.655  1.00  0.00     0.053 C 
BRANCH   8   9
ATOM      9  C   UNL     1     -49.398   8.961 -32.489  1.00  0.00     0.041 C 
ATOM     10  O   UNL     1     -49.552  10.046 -33.107  1.00  0.00    -0.550 OA
ATOM     11  O   UNL     1     -50.385   7.985 -32.556  1.00  0.00    -0.550 OA
ENDBRANCH   8   9
ENDBRANCH   7   8
ENDBRANCH   6   7
ENDBRANCH   5   6
ENDBRANCH   4   5
ENDBRANCH   3   4
ENDBRANCH   2   3
ENDBRANCH   1   2
BRANCH   1  12
ATOM     12  C   UNL     1     -50.059  15.263 -31.060  1.00  0.00     0.000 C 
BRANCH  12  13
ATOM     13  C   UNL     1     -51.208  15.980 -30.327  1.00  0.00    -0.000 C 
BRANCH  13  14
ATOM     14  C   UNL     1     -52.561  15.954 -31.062  1.00  0.00    -0.000 C 
BRANCH  14  15
ATOM     15  C   UNL     1     -53.706  15.263 -30.296  1.00  0.00    -0.000 C 
BRANCH  15  16
ATOM     16  C   UNL     1     -53.651  13.722 -30.352  1.00  0.00    -0.000 C 
BRANCH  16  17
ATOM     17  C   UNL     1     -53.154  13.200 -31.708  1.00  0.00    -0.000 C 
BRANCH  17  18
ATOM     18  C   UNL     1     -52.446  11.848 -31.551  1.00  0.00    -0.000 C 
BRANCH  18  19
ATOM     19  C   UNL     1     -53.085  11.020 -30.430  1.00  0.00    -0.003 C 
ATOM     20  C   UNL     1     -52.464   9.629 -30.349  1.00  0.00     0.004 C 
ENDBRANCH  18  19
ENDBRANCH  17  18
ENDBRANCH  16  17
ENDBRANCH  15  16
ENDBRANCH  14  15
ENDBRANCH  13  14
ENDBRANCH  12  13
ENDBRANCH   1  12
TORSDOF 16
ENDMDL
MODEL 6
REMARK VINA RESULT:    -4.153      1.436      3.801
REMARK INTER + INTRA:         -10.776
REMARK INTER:                  -8.961
REMARK INTRA:                  -1.815
REMARK UNBOUND:                -2.738
REMARK SMILES CCCCCCCCCCCCCCCCCC(=O)[O-]
REMARK SMILES IDX 10 1 11 2 12 3 13 4 14 5 15 6 16 7 17 8 18 9 19 10 20 11
REMARK SMILES IDX 9 12 8 13 7 14 6 15 5 16 4 17 3 18 2 19 1 20
REMARK H PARENT
REMARK Flexibility Score: inf
ROOT
ATOM      1  C   UNL     1     -49.483  13.717 -30.375  1.00  0.00     0.000 C 
ENDROOT
BRANCH   1   2
ATOM      2  C   UNL     1     -49.709  12.770 -29.187  1.00  0.00     0.000 C 
BRANCH   2   3
ATOM      3  C   UNL     1     -49.621  11.288 -29.588  1.00  0.00     0.000 C 
BRANCH   3   4
ATOM      4  C   UNL     1     -50.579  10.974 -30.743  1.00  0.00     0.000 C 
BRANCH   4   5
ATOM      5  C   UNL     1     -49.842  10.270 -31.892  1.00  0.00     0.000 C 
BRANCH   5   6
ATOM      6  C   UNL     1     -49.831   8.741 -31.739  1.00  0.00     0.000 C 
BRANCH   6   7
ATOM      7  C   UNL     1     -48.407   8.166 -31.630  1.00  0.00     0.006 C 
BRANCH   7   8
ATOM      8  C   UNL     1     -48.180   7.430 -30.302  1.00  0.00     0.053 C 
BRANCH   8   9
ATOM      9  C   UNL     1     -47.057   8.036 -29.516  1.00  0.00     0.041 C 
ATOM     10  O   UNL     1     -46.491   7.375 -28.607  1.00  0.00    -0.550 OA
ATOM     11  O   UNL     1     -46.660   9.344 -29.766  1.00  0.00    -0.550 OA
ENDBRANCH   8   9
ENDBRANCH   7   8
ENDBRANCH   6   7
ENDBRANCH   5   6
ENDBRANCH   4   5
ENDBRANCH   3   4
ENDBRANCH   2   3
ENDBRANCH   1   2
BRANCH   1  12
ATOM     12  C   UNL     1     -50.416  14.940 -30.342  1.00  0.00     0.000 C 
BRANCH  12  13
ATOM     13  C   UNL     1     -51.894  14.571 -30.563  1.00  0.00    -0.000 C 
BRANCH  13  14
ATOM     14  C   UNL     1     -52.798  14.748 -29.328  1.00  0.00    -0.000 C 
BRANCH  14  15
ATOM     15  C   UNL     1     -52.106  15.365 -28.097  1.00  0.00    -0.000 C 
BRANCH  15  16
ATOM     16  C   UNL     1     -52.897  16.524 -27.455  1.00  0.00    -0.000 C 
BRANCH  16  17
ATOM     17  C   UNL     1     -52.610  17.876 -28.126  1.00  0.00    -0.000 C 
BRANCH  17  18
ATOM     18  C   UNL     1     -53.861  18.418 -28.828  1.00  0.00    -0.000 C 
BRANCH  18  19
ATOM     19  C   UNL     1     -53.529  18.905 -30.243  1.00  0.00    -0.003 C 
ATOM     20  C   UNL     1     -52.258  18.245 -30.770  1.00  0.00     0.004 C 
ENDBRANCH  18  19
ENDBRANCH  17  18
ENDBRANCH  16  17
ENDBRANCH  15  16
ENDBRANCH  14  15
ENDBRANCH  13  14
ENDBRANCH  12  13
ENDBRANCH   1  12
TORSDOF 16
ENDMDL
MODEL 7
REMARK VINA RESULT:    -4.150      2.053      3.400
REMARK INTER + INTRA:         -10.770
REMARK INTER:                  -8.015
REMARK INTRA:                  -2.754
REMARK UNBOUND:                -2.738
REMARK SMILES CCCCCCCCCCCCCCCCCC(=O)[O-]
REMARK SMILES IDX 10 1 11 2 12 3 13 4 14 5 15 6 16 7 17 8 18 9 19 10 20 11
REMARK SMILES IDX 9 12 8 13 7 14 6 15 5 16 4 17 3 18 2 19 1 20
REMARK H PARENT
REMARK Flexibility Score: inf
ROOT
ATOM      1  C   UNL     1     -51.318  14.384 -28.626  1.00  0.00     0.000 C 
ENDROOT
BRANCH   1   2
ATOM      2  C   UNL     1     -52.562  13.488 -28.711  1.00  0.00     0.000 C 
BRANCH   2   3
ATOM      3  C   UNL     1     -53.639  14.058 -29.647  1.00  0.00     0.000 C 
BRANCH   3   4
ATOM      4  C   UNL     1     -54.070  13.018 -30.687  1.00  0.00     0.000 C 
BRANCH   4   5
ATOM      5  C   UNL     1     -53.074  12.962 -31.855  1.00  0.00     0.000 C 
BRANCH   5   6
ATOM      6  C   UNL     1     -52.146  11.739 -31.783  1.00  0.00     0.000 C 
BRANCH   6   7
ATOM      7  C   UNL     1     -52.802  10.539 -31.077  1.00  0.00     0.006 C 
BRANCH   7   8
ATOM      8  C   UNL     1     -51.762   9.568 -30.500  1.00  0.00     0.053 C 
BRANCH   8   9
ATOM      9  C   UNL     1     -51.632   8.331 -31.336  1.00  0.00     0.041 C 
ATOM     10  O   UNL     1     -51.855   7.200 -30.831  1.00  0.00    -0.550 OA
ATOM     11  O   UNL     1     -51.233   8.427 -32.663  1.00  0.00    -0.550 OA
ENDBRANCH   8   9
ENDBRANCH   7   8
ENDBRANCH   6   7
ENDBRANCH   5   6
ENDBRANCH   4   5
ENDBRANCH   3   4
ENDBRANCH   2   3
ENDBRANCH   1   2
BRANCH   1  12
ATOM     12  C   UNL     1     -50.197  13.930 -29.579  1.00  0.00     0.000 C 
BRANCH  12  13
ATOM     13  C   UNL     1     -50.019  14.871 -30.785  1.00  0.00    -0.000 C 
BRANCH  13  14
ATOM     14  C   UNL     1     -50.699  16.246 -30.640  1.00  0.00    -0.000 C 
BRANCH  14  15
ATOM     15  C   UNL     1     -51.893  16.485 -31.584  1.00  0.00    -0.000 C 
BRANCH  15  16
ATOM     16  C   UNL     1     -52.786  17.674 -31.169  1.00  0.00    -0.000 C 
BRANCH  16  17
ATOM     17  C   UNL     1     -52.389  18.262 -29.808  1.00  0.00    -0.000 C 
BRANCH  17  18
ATOM     18  C   UNL     1     -53.611  18.407 -28.893  1.00  0.00    -0.000 C 
BRANCH  18  19
ATOM     19  C   UNL     1     -53.667  17.270 -27.866  1.00  0.00    -0.003 C 
ATOM     20  C   UNL     1     -52.525  17.377 -26.861  1.00  0.00     0.004 C 
ENDBRANCH  18  19
ENDBRANCH  17  18
ENDBRANCH  16  17
ENDBRANCH  15  16
ENDBRANCH  14  15
ENDBRANCH  13  14
ENDBRANCH  12  13
ENDBRANCH   1  12
TORSDOF 16
ENDMDL
MODEL 8
REMARK VINA RESULT:    -4.137      3.580      7.573
REMARK INTER + INTRA:         -10.745
REMARK INTER:                  -9.137
REMARK INTRA:                  -1.608
REMARK UNBOUND:                -2.738
REMARK SMILES CCCCCCCCCCCCCCCCCC(=O)[O-]
REMARK SMILES IDX 10 1 11 2 12 3 13 4 14 5 15 6 16 7 17 8 18 9 19 10 20 11
REMARK SMILES IDX 9 12 8 13 7 14 6 15 5 16 4 17 3 18 2 19 1 20
REMARK H PARENT
REMARK Flexibility Score: inf
ROOT
ATOM      1  C   UNL     1     -49.633  13.493 -30.370  1.00  0.00     0.000 C 
ENDROOT
BRANCH   1   2
ATOM      2  C   UNL     1     -50.761  14.525 -30.227  1.00  0.00     0.000 C 
BRANCH   2   3
ATOM      3  C   UNL     1     -51.335  14.579 -28.802  1.00  0.00     0.000 C 
BRANCH   3   4
ATOM      4  C   UNL     1     -52.857  14.386 -28.816  1.00  0.00     0.000 C 
BRANCH   4   5
ATOM      5  C   UNL     1     -53.563  15.540 -28.089  1.00  0.00     0.000 C 
BRANCH   5   6
ATOM      6  C   UNL     1     -52.581  16.476 -27.369  1.00  0.00     0.000 C 
BRANCH   6   7
ATOM      7  C   UNL     1     -52.691  17.934 -27.850  1.00  0.00     0.006 C 
BRANCH   7   8
ATOM      8  C   UNL     1     -53.402  18.045 -29.206  1.00  0.00     0.053 C 
BRANCH   8   9
ATOM      9  C   UNL     1     -52.432  18.275 -30.325  1.00  0.00     0.041 C 
ATOM     10  O   UNL     1     -52.841  18.682 -31.443  1.00  0.00    -0.550 OA
ATOM     11  O   UNL     1     -51.082  18.008 -30.140  1.00  0.00    -0.550 OA
ENDBRANCH   8   9
ENDBRANCH   7   8
ENDBRANCH   6   7
ENDBRANCH   5   6
ENDBRANCH   4   5
ENDBRANCH   3   4
ENDBRANCH   2   3
ENDBRANCH   1   2
BRANCH   1  12
ATOM     12  C   UNL     1     -49.474  12.614 -29.118  1.00  0.00     0.000 C 
BRANCH  12  13
ATOM     13  C   UNL     1     -49.472  11.108 -29.440  1.00  0.00    -0.000 C 
BRANCH  13  14
ATOM     14  C   UNL     1     -48.154  10.378 -29.118  1.00  0.00    -0.000 C 
BRANCH  14  15
ATOM     15  C   UNL     1     -48.059   8.936 -29.653  1.00  0.00    -0.000 C 
BRANCH  15  16
ATOM     16  C   UNL     1     -47.695   8.851 -31.151  1.00  0.00    -0.000 C 
BRANCH  16  17
ATOM     17  C   UNL     1     -48.407   7.693 -31.864  1.00  0.00    -0.000 C 
BRANCH  17  18
ATOM     18  C   UNL     1     -49.256   8.206 -33.034  1.00  0.00    -0.000 C 
BRANCH  18  19
ATOM     19  C   UNL     1     -49.518   9.711 -32.905  1.00  0.00    -0.003 C 
ATOM     20  C   UNL     1     -50.993   9.993 -32.635  1.00  0.00     0.004 C 
ENDBRANCH  18  19
ENDBRANCH  17  18
ENDBRANCH  16  17
ENDBRANCH  15  16
ENDBRANCH  14  15
ENDBRANCH  13  14
ENDBRANCH  12  13
ENDBRANCH   1  12
TORSDOF 16
ENDMDL
MODEL 9
REMARK VINA RESULT:    -4.107      3.556      7.848
REMARK INTER + INTRA:         -10.687
REMARK INTER:                  -8.392
REMARK INTRA:                  -2.296
REMARK UNBOUND:                -2.738
REMARK SMILES CCCCCCCCCCCCCCCCCC(=O)[O-]
REMARK SMILES IDX 10 1 11 2 12 3 13 4 14 5 15 6 16 7 17 8 18 9 19 10 20 11
REMARK SMILES IDX 9 12 8 13 7 14 6 15 5 16 4 17 3 18 2 19 1 20
REMARK H PARENT
REMARK Flexibility Score: inf
ROOT
ATOM      1  C   UNL     1     -52.145   7.742 -31.225  1.00  0.00     0.000 C 
ENDROOT
BRANCH   1   2
ATOM      2  C   UNL     1     -51.425   8.809 -30.388  1.00  0.00     0.000 C 
BRANCH   2   3
ATOM      3  C   UNL     1     -51.616  10.227 -30.949  1.00  0.00     0.000 C 
BRANCH   3   4
ATOM      4  C   UNL     1     -50.279  10.975 -31.020  1.00  0.00     0.000 C 
BRANCH   4   5
ATOM      5  C   UNL     1     -49.599  11.018 -29.644  1.00  0.00     0.000 C 
BRANCH   5   6
ATOM      6  C   UNL     1     -49.914  12.307 -28.869  1.00  0.00     0.000 C 
BRANCH   6   7
ATOM      7  C   UNL     1     -49.717  13.574 -29.720  1.00  0.00     0.006 C 
BRANCH   7   8
ATOM      8  C   UNL     1     -50.798  14.629 -29.448  1.00  0.00     0.053 C 
BRANCH   8   9
ATOM      9  C   UNL     1     -51.439  15.108 -30.715  1.00  0.00     0.041 C 
ATOM     10  O   UNL     1     -52.671  14.941 -30.904  1.00  0.00    -0.550 OA
ATOM     11  O   UNL     1     -50.666  15.709 -31.701  1.00  0.00    -0.550 OA
ENDBRANCH   8   9
ENDBRANCH   7   8
ENDBRANCH   6   7
ENDBRANCH   5   6
ENDBRANCH   4   5
ENDBRANCH   3   4
ENDBRANCH   2   3
ENDBRANCH   1   2
BRANCH   1  12
ATOM     12  C   UNL     1     -52.415   8.204 -32.667  1.00  0.00     0.000 C 
BRANCH  12  13
ATOM     13  C   UNL     1     -52.299   7.062 -33.693  1.00  0.00    -0.000 C 
BRANCH  13  14
ATOM     14  C   UNL     1     -51.316   5.940 -33.306  1.00  0.00    -0.000 C 
BRANCH  14  15
ATOM     15  C   UNL     1     -49.871   6.140 -33.801  1.00  0.00    -0.000 C 
BRANCH  15  16
ATOM     16  C   UNL     1     -48.885   6.559 -32.690  1.00  0.00    -0.000 C 
BRANCH  16  17
ATOM     17  C   UNL     1     -48.581   8.064 -32.709  1.00  0.00    -0.000 C 
BRANCH  17  18
ATOM     18  C   UNL     1     -47.727   8.469 -31.501  1.00  0.00    -0.000 C 
BRANCH  18  19
ATOM     19  C   UNL     1     -48.016   7.566 -30.297  1.00  0.00    -0.003 C 
ATOM     20  C   UNL     1     -46.891   7.641 -29.269  1.00  0.00     0.004 C 
ENDBRANCH  18  19
ENDBRANCH  17  18
ENDBRANCH  16  17
ENDBRANCH  15  16
ENDBRANCH  14  15
ENDBRANCH  13  14
ENDBRANCH  12  13
ENDBRANCH   1  12
TORSDOF 16
ENDMDL
