MODEL 1
REMARK VINA RESULT:    -5.666      0.000      0.000
REMARK INTER + INTRA:          -6.443
REMARK INTER:                  -6.660
REMARK INTRA:                   0.218
REMARK UNBOUND:                 0.218
REMARK SMILES O=c1c(O)c(-c2ccc(O)cc2)oc2cc(O)cc(O)c12
REMARK SMILES IDX 5 1 3 2 2 3 1 4 21 5 19 6 18 7 16 8 15 9 14 10 13 11 6 12
REMARK SMILES IDX 7 13 8 14 9 15 12 16 11 17 10 18 4 20 20 22 17 24
REMARK H PARENT 10 19 4 21 20 23 17 25
REMARK Flexibility Score: inf
ROOT
ATOM      1  C   UNL     1     -17.084   3.285 -10.296  1.00  0.00     0.180 A 
ATOM      2  C   UNL     1     -16.046   3.963  -9.632  1.00  0.00     0.208 A 
ATOM      3  C   UNL     1     -15.852   5.329  -9.890  1.00  0.00     0.238 A 
ATOM      4  O   UNL     1     -14.875   5.911  -9.350  1.00  0.00    -0.285 OA
ATOM      5  C   UNL     1     -16.729   6.014 -10.766  1.00  0.00     0.111 A 
ATOM      6  C   UNL     1     -16.653   7.408 -11.065  1.00  0.00     0.134 A 
ATOM      7  C   UNL     1     -17.510   7.954 -12.029  1.00  0.00     0.093 A 
ATOM      8  C   UNL     1     -18.481   7.175 -12.655  1.00  0.00     0.123 A 
ATOM      9  C   UNL     1     -18.602   5.824 -12.329  1.00  0.00     0.094 A 
ATOM     10  C   UNL     1     -17.736   5.240 -11.400  1.00  0.00     0.146 A 
ATOM     11  O   UNL     1     -17.870   3.946 -11.135  1.00  0.00    -0.452 OA
ENDROOT
BRANCH   1  12
ATOM     12  C   UNL     1     -17.343   1.842 -10.086  1.00  0.00     0.021 A 
ATOM     13  C   UNL     1     -16.260   0.958  -9.948  1.00  0.00     0.016 A 
ATOM     14  C   UNL     1     -16.481  -0.404  -9.726  1.00  0.00     0.047 A 
ATOM     15  C   UNL     1     -17.789  -0.897  -9.623  1.00  0.00     0.115 A 
ATOM     16  C   UNL     1     -18.652   1.343  -9.960  1.00  0.00     0.016 A 
ATOM     17  C   UNL     1     -18.872  -0.020  -9.737  1.00  0.00     0.047 A 
BRANCH  15  18
ATOM     18  O   UNL     1     -18.022  -2.252  -9.401  1.00  0.00    -0.508 OA
ATOM     19  H   UNL     1     -18.603  -2.571  -8.634  1.00  0.00     0.293 HD
ENDBRANCH  15  18
ENDBRANCH   1  12
BRANCH   2  20
ATOM     20  O   UNL     1     -15.239   3.287  -8.713  1.00  0.00    -0.502 OA
ATOM     21  H   UNL     1     -14.262   3.087  -8.891  1.00  0.00     0.293 HD
ENDBRANCH   2  20
BRANCH   6  22
ATOM     22  O   UNL     1     -15.779   8.298 -10.435  1.00  0.00    -0.507 OA
ATOM     23  H   UNL     1     -15.634   8.358  -9.439  1.00  0.00     0.293 HD
ENDBRANCH   6  22
BRANCH   8  24
ATOM     24  O   UNL     1     -19.329   7.757 -13.596  1.00  0.00    -0.508 OA
ATOM     25  H   UNL     1     -18.965   8.275 -14.388  1.00  0.00     0.293 HD
ENDBRANCH   8  24
TORSDOF 5
ENDMDL
MODEL 2
REMARK VINA RESULT:    -5.605      4.072     10.149
REMARK INTER + INTRA:          -6.371
REMARK INTER:                  -6.664
REMARK INTRA:                   0.293
REMARK UNBOUND:                 0.218
REMARK SMILES O=c1c(O)c(-c2ccc(O)cc2)oc2cc(O)cc(O)c12
REMARK SMILES IDX 5 1 3 2 2 3 1 4 21 5 19 6 18 7 16 8 15 9 14 10 13 11 6 12
REMARK SMILES IDX 7 13 8 14 9 15 12 16 11 17 10 18 4 20 20 22 17 24
REMARK H PARENT 10 19 4 21 20 23 17 25
REMARK Flexibility Score: inf
ROOT
ATOM      1  C   UNL     1     -17.009  -2.942  -9.624  1.00  0.00     0.180 A 
ATOM      2  C   UNL     1     -15.991  -3.660 -10.274  1.00  0.00     0.208 A 
ATOM      3  C   UNL     1     -15.835  -5.026  -9.993  1.00  0.00     0.238 A 
ATOM      4  O   UNL     1     -14.875  -5.645 -10.522  1.00  0.00    -0.285 OA
ATOM      5  C   UNL     1     -16.734  -5.671  -9.109  1.00  0.00     0.111 A 
ATOM      6  C   UNL     1     -16.698  -7.062  -8.786  1.00  0.00     0.134 A 
ATOM      7  C   UNL     1     -17.572  -7.568  -7.817  1.00  0.00     0.093 A 
ATOM      8  C   UNL     1     -18.522  -6.751  -7.206  1.00  0.00     0.123 A 
ATOM      9  C   UNL     1     -18.604  -5.403  -7.554  1.00  0.00     0.094 A 
ATOM     10  C   UNL     1     -17.719  -4.859  -8.489  1.00  0.00     0.146 A 
ATOM     11  O   UNL     1     -17.816  -3.566  -8.776  1.00  0.00    -0.452 OA
ENDROOT
BRANCH   1  12
ATOM     12  C   UNL     1     -17.227  -1.496  -9.857  1.00  0.00     0.021 A 
ATOM     13  C   UNL     1     -18.504  -0.947  -9.653  1.00  0.00     0.016 A 
ATOM     14  C   UNL     1     -18.727   0.419  -9.844  1.00  0.00     0.047 A 
ATOM     15  C   UNL     1     -17.672   1.257 -10.228  1.00  0.00     0.115 A 
ATOM     16  C   UNL     1     -16.168  -0.644 -10.222  1.00  0.00     0.016 A 
ATOM     17  C   UNL     1     -16.393   0.723 -10.412  1.00  0.00     0.047 A 
BRANCH  15  18
ATOM     18  O   UNL     1     -17.882   2.621 -10.422  1.00  0.00    -0.508 OA
ATOM     19  H   UNL     1     -18.684   2.966 -10.937  1.00  0.00     0.293 HD
ENDBRANCH  15  18
ENDBRANCH   1  12
BRANCH   2  20
ATOM     20  O   UNL     1     -15.163  -3.022 -11.202  1.00  0.00    -0.502 OA
ATOM     21  H   UNL     1     -15.474  -2.787 -12.137  1.00  0.00     0.293 HD
ENDBRANCH   2  20
BRANCH   6  22
ATOM     22  O   UNL     1     -15.849  -7.987  -9.400  1.00  0.00    -0.507 OA
ATOM     23  H   UNL     1     -15.567  -8.868  -8.998  1.00  0.00     0.293 HD
ENDBRANCH   6  22
BRANCH   8  24
ATOM     24  O   UNL     1     -19.388  -7.293  -6.257  1.00  0.00    -0.508 OA
ATOM     25  H   UNL     1     -19.871  -6.708  -5.585  1.00  0.00     0.293 HD
ENDBRANCH   8  24
TORSDOF 5
ENDMDL
MODEL 3
REMARK VINA RESULT:    -5.289      1.131      6.450
REMARK INTER + INTRA:          -5.999
REMARK INTER:                  -6.150
REMARK INTRA:                   0.151
REMARK UNBOUND:                 0.218
REMARK SMILES O=c1c(O)c(-c2ccc(O)cc2)oc2cc(O)cc(O)c12
REMARK SMILES IDX 5 1 3 2 2 3 1 4 21 5 19 6 18 7 16 8 15 9 14 10 13 11 6 12
REMARK SMILES IDX 7 13 8 14 9 15 12 16 11 17 10 18 4 20 20 22 17 24
REMARK H PARENT 10 19 4 21 20 23 17 25
REMARK Flexibility Score: inf
ROOT
ATOM      1  C   UNL     1     -17.077   4.393 -10.756  1.00  0.00     0.180 A 
ATOM      2  C   UNL     1     -16.091   4.610  -9.777  1.00  0.00     0.208 A 
ATOM      3  C   UNL     1     -15.703   3.542  -8.954  1.00  0.00     0.238 A 
ATOM      4  O   UNL     1     -14.876   3.761  -8.031  1.00  0.00    -0.285 OA
ATOM      5  C   UNL     1     -16.263   2.256  -9.155  1.00  0.00     0.111 A 
ATOM      6  C   UNL     1     -15.910   1.090  -8.409  1.00  0.00     0.134 A 
ATOM      7  C   UNL     1     -16.607  -0.104  -8.625  1.00  0.00     0.093 A 
ATOM      8  C   UNL     1     -17.597  -0.195  -9.602  1.00  0.00     0.123 A 
ATOM      9  C   UNL     1     -17.912   0.922 -10.375  1.00  0.00     0.094 A 
ATOM     10  C   UNL     1     -17.261   2.140 -10.157  1.00  0.00     0.146 A 
ATOM     11  O   UNL     1     -17.606   3.185 -10.900  1.00  0.00    -0.452 OA
ENDROOT
BRANCH   1  12
ATOM     12  C   UNL     1     -17.548   5.473 -11.653  1.00  0.00     0.021 A 
ATOM     13  C   UNL     1     -18.926   5.628 -11.883  1.00  0.00     0.016 A 
ATOM     14  C   UNL     1     -19.395   6.655 -12.707  1.00  0.00     0.047 A 
ATOM     15  C   UNL     1     -18.493   7.549 -13.299  1.00  0.00     0.115 A 
ATOM     16  C   UNL     1     -16.651   6.388 -12.234  1.00  0.00     0.016 A 
ATOM     17  C   UNL     1     -17.122   7.415 -13.057  1.00  0.00     0.047 A 
BRANCH  15  18
ATOM     18  O   UNL     1     -18.948   8.577 -14.122  1.00  0.00    -0.508 OA
ATOM     19  H   UNL     1     -18.822   9.551 -13.871  1.00  0.00     0.293 HD
ENDBRANCH  15  18
ENDBRANCH   1  12
BRANCH   2  20
ATOM     20  O   UNL     1     -15.495   5.867  -9.646  1.00  0.00    -0.502 OA
ATOM     21  H   UNL     1     -14.928   6.279 -10.377  1.00  0.00     0.293 HD
ENDBRANCH   2  20
BRANCH   6  22
ATOM     22  O   UNL     1     -14.875   1.045  -7.470  1.00  0.00    -0.507 OA
ATOM     23  H   UNL     1     -14.641   1.789  -6.831  1.00  0.00     0.293 HD
ENDBRANCH   6  22
BRANCH   8  24
ATOM     24  O   UNL     1     -18.258  -1.406  -9.801  1.00  0.00    -0.508 OA
ATOM     25  H   UNL     1     -18.883  -1.545 -10.587  1.00  0.00     0.293 HD
ENDBRANCH   8  24
TORSDOF 5
ENDMDL
MODEL 4
REMARK VINA RESULT:    -5.053      4.249      7.287
REMARK INTER + INTRA:          -5.722
REMARK INTER:                  -5.952
REMARK INTRA:                   0.230
REMARK UNBOUND:                 0.218
REMARK SMILES O=c1c(O)c(-c2ccc(O)cc2)oc2cc(O)cc(O)c12
REMARK SMILES IDX 5 1 3 2 2 3 1 4 21 5 19 6 18 7 16 8 15 9 14 10 13 11 6 12
REMARK SMILES IDX 7 13 8 14 9 15 12 16 11 17 10 18 4 20 20 22 17 24
REMARK H PARENT 10 19 4 21 20 23 17 25
REMARK Flexibility Score: inf
ROOT
ATOM      1  C   UNL     1     -16.937  -3.582  -9.339  1.00  0.00     0.180 A 
ATOM      2  C   UNL     1     -15.984  -3.690 -10.368  1.00  0.00     0.208 A 
ATOM      3  C   UNL     1     -15.671  -2.552 -11.126  1.00  0.00     0.238 A 
ATOM      4  O   UNL     1     -14.875  -2.672 -12.094  1.00  0.00    -0.285 OA
ATOM      5  C   UNL     1     -16.270  -1.307 -10.812  1.00  0.00     0.111 A 
ATOM      6  C   UNL     1     -15.993  -0.079 -11.486  1.00  0.00     0.134 A 
ATOM      7  C   UNL     1     -16.725   1.069 -11.158  1.00  0.00     0.093 A 
ATOM      8  C   UNL     1     -17.677   1.050 -10.140  1.00  0.00     0.123 A 
ATOM      9  C   UNL     1     -17.917  -0.131  -9.437  1.00  0.00     0.094 A 
ATOM     10  C   UNL     1     -17.231  -1.303  -9.767  1.00  0.00     0.146 A 
ATOM     11  O   UNL     1     -17.505  -2.410  -9.088  1.00  0.00    -0.452 OA
ENDROOT
BRANCH   1  12
ATOM     12  C   UNL     1     -17.329  -4.741  -8.504  1.00  0.00     0.021 A 
ATOM     13  C   UNL     1     -18.674  -4.895  -8.125  1.00  0.00     0.016 A 
ATOM     14  C   UNL     1     -19.071  -5.993  -7.357  1.00  0.00     0.047 A 
ATOM     15  C   UNL     1     -18.133  -6.960  -6.973  1.00  0.00     0.115 A 
ATOM     16  C   UNL     1     -16.397  -5.727  -8.132  1.00  0.00     0.016 A 
ATOM     17  C   UNL     1     -16.797  -6.825  -7.365  1.00  0.00     0.047 A 
BRANCH  15  18
ATOM     18  O   UNL     1     -18.517  -8.059  -6.208  1.00  0.00    -0.508 OA
ATOM     19  H   UNL     1     -19.230  -7.983  -5.491  1.00  0.00     0.293 HD
ENDBRANCH  15  18
ENDBRANCH   1  12
BRANCH   2  20
ATOM     20  O   UNL     1     -15.347  -4.910 -10.612  1.00  0.00    -0.502 OA
ATOM     21  H   UNL     1     -15.580  -5.495 -11.405  1.00  0.00     0.293 HD
ENDBRANCH   2  20
BRANCH   6  22
ATOM     22  O   UNL     1     -15.000   0.075 -12.458  1.00  0.00    -0.507 OA
ATOM     23  H   UNL     1     -14.462   0.915 -12.607  1.00  0.00     0.293 HD
ENDBRANCH   6  22
BRANCH   8  24
ATOM     24  O   UNL     1     -18.374   2.216  -9.828  1.00  0.00    -0.508 OA
ATOM     25  H   UNL     1     -18.861   2.748 -10.540  1.00  0.00     0.293 HD
ENDBRANCH   8  24
TORSDOF 5
ENDMDL
MODEL 5
REMARK VINA RESULT:    -4.831     11.854     12.636
REMARK INTER + INTRA:          -5.461
REMARK INTER:                  -5.646
REMARK INTRA:                   0.185
REMARK UNBOUND:                 0.218
REMARK SMILES O=c1c(O)c(-c2ccc(O)cc2)oc2cc(O)cc(O)c12
REMARK SMILES IDX 5 1 3 2 2 3 1 4 21 5 19 6 18 7 16 8 15 9 14 10 13 11 6 12
REMARK SMILES IDX 7 13 8 14 9 15 12 16 11 17 10 18 4 20 20 22 17 24
REMARK H PARENT 10 19 4 21 20 23 17 25
REMARK Flexibility Score: inf
ROOT
ATOM      1  C   UNL     1     -16.899  -7.672 -14.393  1.00  0.00     0.180 A 
ATOM      2  C   UNL     1     -15.904  -8.256 -15.197  1.00  0.00     0.208 A 
ATOM      3  C   UNL     1     -15.906  -7.999 -16.576  1.00  0.00     0.238 A 
ATOM      4  O   UNL     1     -15.060  -8.585 -17.300  1.00  0.00    -0.285 OA
ATOM      5  C   UNL     1     -16.867  -7.116 -17.128  1.00  0.00     0.111 A 
ATOM      6  C   UNL     1     -16.934  -6.747 -18.506  1.00  0.00     0.134 A 
ATOM      7  C   UNL     1     -17.993  -5.949 -18.956  1.00  0.00     0.093 A 
ATOM      8  C   UNL     1     -18.949  -5.454 -18.071  1.00  0.00     0.123 A 
ATOM      9  C   UNL     1     -18.862  -5.761 -16.713  1.00  0.00     0.094 A 
ATOM     10  C   UNL     1     -17.839  -6.588 -16.239  1.00  0.00     0.146 A 
ATOM     11  O   UNL     1     -17.805  -6.874 -14.943  1.00  0.00    -0.452 OA
ENDROOT
BRANCH   1  12
ATOM     12  C   UNL     1     -16.971  -7.907 -12.933  1.00  0.00     0.021 A 
ATOM     13  C   UNL     1     -15.790  -7.892 -12.171  1.00  0.00     0.016 A 
ATOM     14  C   UNL     1     -15.837  -8.088 -10.788  1.00  0.00     0.047 A 
ATOM     15  C   UNL     1     -17.066  -8.286 -10.147  1.00  0.00     0.115 A 
ATOM     16  C   UNL     1     -18.203  -8.085 -12.278  1.00  0.00     0.016 A 
ATOM     17  C   UNL     1     -18.248  -8.280 -10.894  1.00  0.00     0.047 A 
BRANCH  15  18
ATOM     18  O   UNL     1     -17.126  -8.482  -8.768  1.00  0.00    -0.508 OA
ATOM     19  H   UNL     1     -17.929  -8.918  -8.330  1.00  0.00     0.293 HD
ENDBRANCH  15  18
ENDBRANCH   1  12
BRANCH   2  20
ATOM     20  O   UNL     1     -14.919  -9.063 -14.621  1.00  0.00    -0.502 OA
ATOM     21  H   UNL     1     -15.130  -9.957 -14.193  1.00  0.00     0.293 HD
ENDBRANCH   2  20
BRANCH   6  22
ATOM     22  O   UNL     1     -15.983  -7.113 -19.463  1.00  0.00    -0.507 OA
ATOM     23  H   UNL     1     -15.368  -6.473 -19.941  1.00  0.00     0.293 HD
ENDBRANCH   6  22
BRANCH   8  24
ATOM     24  O   UNL     1     -19.979  -4.647 -18.551  1.00  0.00    -0.508 OA
ATOM     25  H   UNL     1     -20.758  -5.036 -19.071  1.00  0.00     0.293 HD
ENDBRANCH   8  24
TORSDOF 5
ENDMDL
MODEL 6
REMARK VINA RESULT:    -4.793     12.048     12.963
REMARK INTER + INTRA:          -5.415
REMARK INTER:                  -5.687
REMARK INTRA:                   0.271
REMARK UNBOUND:                 0.218
REMARK SMILES O=c1c(O)c(-c2ccc(O)cc2)oc2cc(O)cc(O)c12
REMARK SMILES IDX 5 1 3 2 2 3 1 4 21 5 19 6 18 7 16 8 15 9 14 10 13 11 6 12
REMARK SMILES IDX 7 13 8 14 9 15 12 16 11 17 10 18 4 20 20 22 17 24
REMARK H PARENT 10 19 4 21 20 23 17 25
REMARK Flexibility Score: inf
ROOT
ATOM      1  C   UNL     1     -17.337  -7.837 -14.226  1.00  0.00     0.180 A 
ATOM      2  C   UNL     1     -18.573  -7.199 -14.427  1.00  0.00     0.208 A 
ATOM      3  C   UNL     1     -18.855  -6.642 -15.684  1.00  0.00     0.238 A 
ATOM      4  O   UNL     1     -19.931  -6.007 -15.835  1.00  0.00    -0.285 OA
ATOM      5  C   UNL     1     -17.922  -6.778 -16.742  1.00  0.00     0.111 A 
ATOM      6  C   UNL     1     -18.123  -6.292 -18.069  1.00  0.00     0.134 A 
ATOM      7  C   UNL     1     -17.085  -6.390 -19.004  1.00  0.00     0.093 A 
ATOM      8  C   UNL     1     -15.880  -7.013 -18.681  1.00  0.00     0.123 A 
ATOM      9  C   UNL     1     -15.694  -7.541 -17.404  1.00  0.00     0.094 A 
ATOM     10  C   UNL     1     -16.696  -7.423 -16.436  1.00  0.00     0.146 A 
ATOM     11  O   UNL     1     -16.469  -7.921 -15.226  1.00  0.00    -0.452 OA
ENDROOT
BRANCH   1  12
ATOM     12  C   UNL     1     -16.962  -8.436 -12.925  1.00  0.00     0.021 A 
ATOM     13  C   UNL     1     -16.067  -9.519 -12.895  1.00  0.00     0.016 A 
ATOM     14  C   UNL     1     -15.680 -10.085 -11.677  1.00  0.00     0.047 A 
ATOM     15  C   UNL     1     -16.172  -9.566 -10.472  1.00  0.00     0.115 A 
ATOM     16  C   UNL     1     -17.434  -7.907 -11.710  1.00  0.00     0.016 A 
ATOM     17  C   UNL     1     -17.046  -8.474 -10.492  1.00  0.00     0.047 A 
BRANCH  15  18
ATOM     18  O   UNL     1     -15.794 -10.121  -9.252  1.00  0.00    -0.508 OA
ATOM     19  H   UNL     1     -16.093 -11.050  -8.977  1.00  0.00     0.293 HD
ENDBRANCH  15  18
ENDBRANCH   1  12
BRANCH   2  20
ATOM     20  O   UNL     1     -19.513  -7.143 -13.393  1.00  0.00    -0.502 OA
ATOM     21  H   UNL     1     -19.356  -6.612 -12.545  1.00  0.00     0.293 HD
ENDBRANCH   2  20
BRANCH   6  22
ATOM     22  O   UNL     1     -19.319  -5.731 -18.526  1.00  0.00    -0.507 OA
ATOM     23  H   UNL     1     -20.221  -5.864 -18.096  1.00  0.00     0.293 HD
ENDBRANCH   6  22
BRANCH   8  24
ATOM     24  O   UNL     1     -14.876  -7.108 -19.643  1.00  0.00    -0.508 OA
ATOM     25  H   UNL     1     -13.978  -7.528 -19.431  1.00  0.00     0.293 HD
ENDBRANCH   8  24
TORSDOF 5
ENDMDL
MODEL 7
REMARK VINA RESULT:    -4.589      4.260      6.263
REMARK INTER + INTRA:          -5.177
REMARK INTER:                  -5.231
REMARK INTRA:                   0.055
REMARK UNBOUND:                 0.218
REMARK SMILES O=c1c(O)c(-c2ccc(O)cc2)oc2cc(O)cc(O)c12
REMARK SMILES IDX 5 1 3 2 2 3 1 4 21 5 19 6 18 7 16 8 15 9 14 10 13 11 6 12
REMARK SMILES IDX 7 13 8 14 9 15 12 16 11 17 10 18 4 20 20 22 17 24
REMARK H PARENT 10 19 4 21 20 23 17 25
REMARK Flexibility Score: inf
ROOT
ATOM      1  C   UNL     1     -17.138   8.115  -7.932  1.00  0.00     0.180 A 
ATOM      2  C   UNL     1     -16.418   9.158  -8.541  1.00  0.00     0.208 A 
ATOM      3  C   UNL     1     -16.386   9.235  -9.942  1.00  0.00     0.238 A 
ATOM      4  O   UNL     1     -15.678  10.125 -10.481  1.00  0.00    -0.285 OA
ATOM      5  C   UNL     1     -17.119   8.303 -10.718  1.00  0.00     0.111 A 
ATOM      6  C   UNL     1     -17.195   8.314 -12.143  1.00  0.00     0.134 A 
ATOM      7  C   UNL     1     -17.864   7.279 -12.807  1.00  0.00     0.093 A 
ATOM      8  C   UNL     1     -18.515   6.271 -12.098  1.00  0.00     0.123 A 
ATOM      9  C   UNL     1     -18.495   6.280 -10.703  1.00  0.00     0.094 A 
ATOM     10  C   UNL     1     -17.802   7.278 -10.012  1.00  0.00     0.146 A 
ATOM     11  O   UNL     1     -17.790   7.238  -8.685  1.00  0.00    -0.452 OA
ENDROOT
BRANCH   1  12
ATOM     12  C   UNL     1     -17.208   7.959  -6.462  1.00  0.00     0.021 A 
ATOM     13  C   UNL     1     -18.441   7.665  -5.856  1.00  0.00     0.016 A 
ATOM     14  C   UNL     1     -18.526   7.491  -4.471  1.00  0.00     0.047 A 
ATOM     15  C   UNL     1     -17.376   7.592  -3.677  1.00  0.00     0.115 A 
ATOM     16  C   UNL     1     -16.055   8.038  -5.660  1.00  0.00     0.016 A 
ATOM     17  C   UNL     1     -16.142   7.863  -4.275  1.00  0.00     0.047 A 
BRANCH  15  18
ATOM     18  O   UNL     1     -17.448   7.420  -2.296  1.00  0.00    -0.508 OA
ATOM     19  H   UNL     1     -18.119   7.931  -1.733  1.00  0.00     0.293 HD
ENDBRANCH  15  18
ENDBRANCH   1  12
BRANCH   2  20
ATOM     20  O   UNL     1     -15.764  10.112  -7.757  1.00  0.00    -0.502 OA
ATOM     21  H   UNL     1     -15.349   9.887  -6.861  1.00  0.00     0.293 HD
ENDBRANCH   2  20
BRANCH   6  22
ATOM     22  O   UNL     1     -16.656   9.322 -12.949  1.00  0.00    -0.507 OA
ATOM     23  H   UNL     1     -16.505  10.276 -12.658  1.00  0.00     0.293 HD
ENDBRANCH   6  22
BRANCH   8  24
ATOM     24  O   UNL     1     -19.187   5.266 -12.792  1.00  0.00    -0.508 OA
ATOM     25  H   UNL     1     -19.455   5.380 -13.763  1.00  0.00     0.293 HD
ENDBRANCH   8  24
TORSDOF 5
ENDMDL
MODEL 8
REMARK VINA RESULT:    -4.431      5.883     11.467
REMARK INTER + INTRA:          -4.991
REMARK INTER:                  -4.819
REMARK INTRA:                  -0.171
REMARK UNBOUND:                 0.218
REMARK SMILES O=c1c(O)c(-c2ccc(O)cc2)oc2cc(O)cc(O)c12
REMARK SMILES IDX 5 1 3 2 2 3 1 4 21 5 19 6 18 7 16 8 15 9 14 10 13 11 6 12
REMARK SMILES IDX 7 13 8 14 9 15 12 16 11 17 10 18 4 20 20 22 17 24
REMARK H PARENT 10 19 4 21 20 23 17 25
REMARK Flexibility Score: inf
ROOT
ATOM      1  C   UNL     1     -16.194  -4.925  -9.696  1.00  0.00     0.180 A 
ATOM      2  C   UNL     1     -16.650  -5.860  -8.750  1.00  0.00     0.208 A 
ATOM      3  C   UNL     1     -16.664  -7.221  -9.091  1.00  0.00     0.238 A 
ATOM      4  O   UNL     1     -17.143  -8.044  -8.268  1.00  0.00    -0.285 OA
ATOM      5  C   UNL     1     -16.170  -7.638 -10.352  1.00  0.00     0.111 A 
ATOM      6  C   UNL     1     -16.095  -8.997 -10.786  1.00  0.00     0.134 A 
ATOM      7  C   UNL     1     -15.688  -9.281 -12.095  1.00  0.00     0.093 A 
ATOM      8  C   UNL     1     -15.292  -8.265 -12.963  1.00  0.00     0.123 A 
ATOM      9  C   UNL     1     -15.308  -6.939 -12.532  1.00  0.00     0.094 A 
ATOM     10  C   UNL     1     -15.747  -6.619 -11.244  1.00  0.00     0.146 A 
ATOM     11  O   UNL     1     -15.767  -5.342 -10.881  1.00  0.00    -0.452 OA
ENDROOT
BRANCH   1  12
ATOM     12  C   UNL     1     -16.162  -3.471  -9.415  1.00  0.00     0.021 A 
ATOM     13  C   UNL     1     -17.370  -2.767  -9.281  1.00  0.00     0.016 A 
ATOM     14  C   UNL     1     -17.364  -1.399  -8.992  1.00  0.00     0.047 A 
ATOM     15  C   UNL     1     -16.150  -0.722  -8.819  1.00  0.00     0.115 A 
ATOM     16  C   UNL     1     -14.948  -2.789  -9.219  1.00  0.00     0.016 A 
ATOM     17  C   UNL     1     -14.944  -1.420  -8.929  1.00  0.00     0.047 A 
BRANCH  15  18
ATOM     18  O   UNL     1     -16.131   0.641  -8.531  1.00  0.00    -0.508 OA
ATOM     19  H   UNL     1     -15.696   1.309  -9.158  1.00  0.00     0.293 HD
ENDBRANCH  15  18
ENDBRANCH   1  12
BRANCH   2  20
ATOM     20  O   UNL     1     -17.060  -5.436  -7.483  1.00  0.00    -0.502 OA
ATOM     21  H   UNL     1     -16.440  -4.955  -6.843  1.00  0.00     0.293 HD
ENDBRANCH   2  20
BRANCH   6  22
ATOM     22  O   UNL     1     -16.382 -10.096  -9.972  1.00  0.00    -0.507 OA
ATOM     23  H   UNL     1     -16.805 -10.955 -10.289  1.00  0.00     0.293 HD
ENDBRANCH   6  22
BRANCH   8  24
ATOM     24  O   UNL     1     -14.875  -8.587 -14.254  1.00  0.00    -0.508 OA
ATOM     25  H   UNL     1     -15.538  -8.845 -14.976  1.00  0.00     0.293 HD
ENDBRANCH   8  24
TORSDOF 5
ENDMDL
MODEL 9
REMARK VINA RESULT:    -3.173     12.285     13.600
REMARK INTER + INTRA:          -3.512
REMARK INTER:                  -3.840
REMARK INTRA:                   0.328
REMARK UNBOUND:                 0.218
REMARK SMILES O=c1c(O)c(-c2ccc(O)cc2)oc2cc(O)cc(O)c12
REMARK SMILES IDX 5 1 3 2 2 3 1 4 21 5 19 6 18 7 16 8 15 9 14 10 13 11 6 12
REMARK SMILES IDX 7 13 8 14 9 15 12 16 11 17 10 18 4 20 20 22 17 24
REMARK H PARENT 10 19 4 21 20 23 17 25
REMARK Flexibility Score: inf
ROOT
ATOM      1  C   UNL     1     -17.172  -7.659 -14.913  1.00  0.00     0.180 A 
ATOM      2  C   UNL     1     -18.552  -7.532 -14.678  1.00  0.00     0.208 A 
ATOM      3  C   UNL     1     -19.031  -7.637 -13.363  1.00  0.00     0.238 A 
ATOM      4  O   UNL     1     -20.274  -7.598 -13.169  1.00  0.00    -0.285 OA
ATOM      5  C   UNL     1     -18.120  -7.812 -12.292  1.00  0.00     0.111 A 
ATOM      6  C   UNL     1     -18.491  -7.886 -10.915  1.00  0.00     0.134 A 
ATOM      7  C   UNL     1     -17.514  -8.167  -9.952  1.00  0.00     0.093 A 
ATOM      8  C   UNL     1     -16.174  -8.312 -10.305  1.00  0.00     0.123 A 
ATOM      9  C   UNL     1     -15.792  -8.186 -11.641  1.00  0.00     0.094 A 
ATOM     10  C   UNL     1     -16.749  -7.945 -12.631  1.00  0.00     0.146 A 
ATOM     11  O   UNL     1     -16.346  -7.854 -13.893  1.00  0.00    -0.452 OA
ENDROOT
BRANCH   1  12
ATOM     12  C   UNL     1     -16.593  -7.573 -16.273  1.00  0.00     0.021 A 
ATOM     13  C   UNL     1     -17.192  -6.734 -17.227  1.00  0.00     0.016 A 
ATOM     14  C   UNL     1     -16.648  -6.620 -18.510  1.00  0.00     0.047 A 
ATOM     15  C   UNL     1     -15.490  -7.331 -18.850  1.00  0.00     0.115 A 
ATOM     16  C   UNL     1     -15.418  -8.267 -16.615  1.00  0.00     0.016 A 
ATOM     17  C   UNL     1     -14.875  -8.151 -17.899  1.00  0.00     0.047 A 
BRANCH  15  18
ATOM     18  O   UNL     1     -14.939  -7.225 -20.125  1.00  0.00    -0.508 OA
ATOM     19  H   UNL     1     -15.174  -7.882 -20.860  1.00  0.00     0.293 HD
ENDBRANCH  15  18
ENDBRANCH   1  12
BRANCH   2  20
ATOM     20  O   UNL     1     -19.426  -7.283 -15.740  1.00  0.00    -0.502 OA
ATOM     21  H   UNL     1     -20.433  -7.320 -15.635  1.00  0.00     0.293 HD
ENDBRANCH   2  20
BRANCH   6  22
ATOM     22  O   UNL     1     -19.787  -7.670 -10.439  1.00  0.00    -0.507 OA
ATOM     23  H   UNL     1     -20.216  -8.175  -9.678  1.00  0.00     0.293 HD
ENDBRANCH   6  22
BRANCH   8  24
ATOM     24  O   UNL     1     -15.226  -8.574  -9.318  1.00  0.00    -0.508 OA
ATOM     25  H   UNL     1     -14.658  -7.834  -8.919  1.00  0.00     0.293 HD
ENDBRANCH   8  24
TORSDOF 5
ENDMDL
