MODEL 1
REMARK VINA RESULT:    -2.421      0.000      0.000
REMARK INTER + INTRA:          -5.129
REMARK INTER:                  -4.402
REMARK INTRA:                  -0.727
REMARK UNBOUND:                -0.727
REMARK SMILES CCCCCCCCCCCCCCCC(=O)[O-]
REMARK SMILES IDX 9 1 10 2 11 3 12 4 13 5 14 6 15 7 16 8 17 9 18 10 8 11 7 12
REMARK SMILES IDX 6 13 5 14 4 15 3 16 2 17 1 18
REMARK H PARENT
REMARK Flexibility Score: inf
ROOT
ATOM      1  C   UNL     1      45.949 -25.734   0.796  1.00  0.00     0.000 C 
ENDROOT
BRANCH   1   2
ATOM      2  C   UNL     1      44.884 -25.068  -0.094  1.00  0.00     0.000 C 
BRANCH   2   3
ATOM      3  C   UNL     1      45.430 -23.872  -0.889  1.00  0.00     0.000 C 
BRANCH   3   4
ATOM      4  C   UNL     1      46.123 -24.341  -2.177  1.00  0.00     0.000 C 
BRANCH   4   5
ATOM      5  C   UNL     1      45.231 -25.260  -3.028  1.00  0.00     0.000 C 
BRANCH   5   6
ATOM      6  C   UNL     1      45.681 -25.324  -4.498  1.00  0.00     0.006 C 
BRANCH   6   7
ATOM      7  C   UNL     1      46.125 -23.953  -5.026  1.00  0.00     0.053 C 
BRANCH   7   8
ATOM      8  C   UNL     1      45.864 -23.811  -6.494  1.00  0.00     0.041 C 
ATOM      9  O   UNL     1      45.582 -22.685  -6.982  1.00  0.00    -0.550 OA
ATOM     10  O   UNL     1      45.968 -24.917  -7.329  1.00  0.00    -0.550 OA
ENDBRANCH   7   8
ENDBRANCH   6   7
ENDBRANCH   5   6
ENDBRANCH   4   5
ENDBRANCH   3   4
ENDBRANCH   2   3
ENDBRANCH   1   2
BRANCH   1  11
ATOM     11  C   UNL     1      45.745 -25.542   2.309  1.00  0.00     0.000 C 
BRANCH  11  12
ATOM     12  C   UNL     1      46.024 -26.816   3.119  1.00  0.00    -0.000 C 
BRANCH  12  13
ATOM     13  C   UNL     1      45.263 -28.014   2.540  1.00  0.00    -0.000 C 
BRANCH  13  14
ATOM     14  C   UNL     1      45.610 -29.305   3.297  1.00  0.00    -0.000 C 
BRANCH  14  15
ATOM     15  C   UNL     1      46.125 -29.037   4.720  1.00  0.00    -0.000 C 
BRANCH  15  16
ATOM     16  C   UNL     1      45.946 -30.249   5.651  1.00  0.00    -0.000 C 
BRANCH  16  17
ATOM     17  C   UNL     1      45.776 -29.841   7.122  1.00  0.00    -0.003 C 
ATOM     18  C   UNL     1      45.960 -28.340   7.343  1.00  0.00     0.004 C 
ENDBRANCH  16  17
ENDBRANCH  15  16
ENDBRANCH  14  15
ENDBRANCH  13  14
ENDBRANCH  12  13
ENDBRANCH  11  12
ENDBRANCH   1  11
TORSDOF 14
ENDMDL
MODEL 2
REMARK VINA RESULT:    -1.387      1.769      2.882
REMARK INTER + INTRA:          -3.249
REMARK INTER:                  -2.773
REMARK INTRA:                  -0.476
REMARK UNBOUND:                -0.727
REMARK SMILES CCCCCCCCCCCCCCCC(=O)[O-]
REMARK SMILES IDX 9 1 10 2 11 3 12 4 13 5 14 6 15 7 16 8 17 9 18 10 8 11 7 12
REMARK SMILES IDX 6 13 5 14 4 15 3 16 2 17 1 18
REMARK H PARENT
REMARK Flexibility Score: inf
ROOT
ATOM      1  C   UNL     1      45.111 -27.224   2.183  1.00  0.00     0.000 C 
ENDROOT
BRANCH   1   2
ATOM      2  C   UNL     1      44.654 -25.784   1.890  1.00  0.00     0.000 C 
BRANCH   2   3
ATOM      3  C   UNL     1      45.766 -24.913   1.289  1.00  0.00     0.000 C 
BRANCH   3   4
ATOM      4  C   UNL     1      45.181 -23.659   0.622  1.00  0.00     0.000 C 
BRANCH   4   5
ATOM      5  C   UNL     1      45.938 -23.259  -0.655  1.00  0.00     0.000 C 
BRANCH   5   6
ATOM      6  C   UNL     1      46.119 -24.437  -1.629  1.00  0.00     0.006 C 
BRANCH   6   7
ATOM      7  C   UNL     1      46.101 -23.982  -3.094  1.00  0.00     0.053 C 
BRANCH   7   8
ATOM      8  C   UNL     1      45.858 -25.127  -4.029  1.00  0.00     0.041 C 
ATOM      9  O   UNL     1      45.528 -24.911  -5.225  1.00  0.00    -0.550 OA
ATOM     10  O   UNL     1      46.032 -26.434  -3.588  1.00  0.00    -0.550 OA
ENDBRANCH   7   8
ENDBRANCH   6   7
ENDBRANCH   5   6
ENDBRANCH   4   5
ENDBRANCH   3   4
ENDBRANCH   2   3
ENDBRANCH   1   2
BRANCH   1  11
ATOM     11  C   UNL     1      46.074 -27.371   3.374  1.00  0.00     0.000 C 
BRANCH  11  12
ATOM     12  C   UNL     1      45.391 -27.920   4.635  1.00  0.00    -0.000 C 
BRANCH  12  13
ATOM     13  C   UNL     1      46.034 -29.239   5.080  1.00  0.00    -0.000 C 
BRANCH  13  14
ATOM     14  C   UNL     1      46.125 -29.318   6.611  1.00  0.00    -0.000 C 
BRANCH  14  15
ATOM     15  C   UNL     1      46.121 -30.765   7.130  1.00  0.00    -0.000 C 
BRANCH  15  16
ATOM     16  C   UNL     1      45.156 -30.966   8.312  1.00  0.00    -0.000 C 
BRANCH  16  17
ATOM     17  C   UNL     1      45.514 -30.086   9.519  1.00  0.00    -0.003 C 
ATOM     18  C   UNL     1      45.699 -30.894  10.804  1.00  0.00     0.004 C 
ENDBRANCH  16  17
ENDBRANCH  15  16
ENDBRANCH  14  15
ENDBRANCH  13  14
ENDBRANCH  12  13
ENDBRANCH  11  12
ENDBRANCH   1  11
TORSDOF 14
ENDMDL
MODEL 3
REMARK VINA RESULT:    -0.604      5.039     10.572
REMARK INTER + INTRA:          -1.826
REMARK INTER:                  -1.161
REMARK INTRA:                  -0.664
REMARK UNBOUND:                -0.727
REMARK SMILES CCCCCCCCCCCCCCCC(=O)[O-]
REMARK SMILES IDX 9 1 10 2 11 3 12 4 13 5 14 6 15 7 16 8 17 9 18 10 8 11 7 12
REMARK SMILES IDX 6 13 5 14 4 15 3 16 2 17 1 18
REMARK H PARENT
REMARK Flexibility Score: inf
ROOT
ATOM      1  C   UNL     1      44.728 -25.006  -1.130  1.00  0.00     0.000 C 
ENDROOT
BRANCH   1   2
ATOM      2  C   UNL     1      45.717 -25.221   0.030  1.00  0.00     0.000 C 
BRANCH   2   3
ATOM      3  C   UNL     1      45.021 -25.378   1.390  1.00  0.00     0.000 C 
BRANCH   3   4
ATOM      4  C   UNL     1      45.949 -26.062   2.405  1.00  0.00     0.000 C 
BRANCH   4   5
ATOM      5  C   UNL     1      45.785 -27.591   2.421  1.00  0.00     0.000 C 
BRANCH   5   6
ATOM      6  C   UNL     1      45.909 -28.184   3.835  1.00  0.00     0.006 C 
BRANCH   6   7
ATOM      7  C   UNL     1      45.999 -27.095   4.913  1.00  0.00     0.053 C 
BRANCH   7   8
ATOM      8  C   UNL     1      46.026 -27.678   6.292  1.00  0.00     0.041 C 
ATOM      9  O   UNL     1      45.927 -26.929   7.299  1.00  0.00    -0.550 OA
ATOM     10  O   UNL     1      46.124 -29.053   6.464  1.00  0.00    -0.550 OA
ENDBRANCH   7   8
ENDBRANCH   6   7
ENDBRANCH   5   6
ENDBRANCH   4   5
ENDBRANCH   3   4
ENDBRANCH   2   3
ENDBRANCH   1   2
BRANCH   1  11
ATOM     11  C   UNL     1      45.305 -25.263  -2.533  1.00  0.00     0.000 C 
BRANCH  11  12
ATOM     12  C   UNL     1      45.647 -23.969  -3.286  1.00  0.00    -0.000 C 
BRANCH  12  13
ATOM     13  C   UNL     1      46.120 -24.272  -4.713  1.00  0.00    -0.000 C 
BRANCH  13  14
ATOM     14  C   UNL     1      45.221 -25.324  -5.380  1.00  0.00    -0.000 C 
BRANCH  14  15
ATOM     15  C   UNL     1      44.850 -24.955  -6.825  1.00  0.00    -0.000 C 
BRANCH  15  16
ATOM     16  C   UNL     1      46.083 -24.810  -7.733  1.00  0.00    -0.000 C 
BRANCH  16  17
ATOM     17  C   UNL     1      46.032 -23.540  -8.596  1.00  0.00    -0.003 C 
ATOM     18  C   UNL     1      46.121 -22.259  -7.767  1.00  0.00     0.004 C 
ENDBRANCH  16  17
ENDBRANCH  15  16
ENDBRANCH  14  15
ENDBRANCH  13  14
ENDBRANCH  12  13
ENDBRANCH  11  12
ENDBRANCH   1  11
TORSDOF 14
ENDMDL
MODEL 4
REMARK VINA RESULT:    -0.395      5.559     10.761
REMARK INTER + INTRA:          -1.446
REMARK INTER:                  -0.831
REMARK INTRA:                  -0.614
REMARK UNBOUND:                -0.727
REMARK SMILES CCCCCCCCCCCCCCCC(=O)[O-]
REMARK SMILES IDX 9 1 10 2 11 3 12 4 13 5 14 6 15 7 16 8 17 9 18 10 8 11 7 12
REMARK SMILES IDX 6 13 5 14 4 15 3 16 2 17 1 18
REMARK H PARENT
REMARK Flexibility Score: inf
ROOT
ATOM      1  C   UNL     1      44.653 -25.866   0.638  1.00  0.00     0.000 C 
ENDROOT
BRANCH   1   2
ATOM      2  C   UNL     1      45.701 -26.142   1.731  1.00  0.00     0.000 C 
BRANCH   2   3
ATOM      3  C   UNL     1      45.094 -26.213   3.140  1.00  0.00     0.000 C 
BRANCH   3   4
ATOM      4  C   UNL     1      46.083 -26.840   4.132  1.00  0.00     0.000 C 
BRANCH   4   5
ATOM      5  C   UNL     1      46.043 -28.377   4.118  1.00  0.00     0.000 C 
BRANCH   5   6
ATOM      6  C   UNL     1      46.121 -28.984   5.530  1.00  0.00     0.006 C 
BRANCH   6   7
ATOM      7  C   UNL     1      45.951 -27.923   6.625  1.00  0.00     0.053 C 
BRANCH   7   8
ATOM      8  C   UNL     1      45.738 -28.542   7.972  1.00  0.00     0.041 C 
ATOM      9  O   UNL     1      45.560 -29.784   8.077  1.00  0.00    -0.550 OA
ATOM     10  O   UNL     1      45.772 -27.753   9.114  1.00  0.00    -0.550 OA
ENDBRANCH   7   8
ENDBRANCH   6   7
ENDBRANCH   5   6
ENDBRANCH   4   5
ENDBRANCH   3   4
ENDBRANCH   2   3
ENDBRANCH   1   2
BRANCH   1  11
ATOM     11  C   UNL     1      45.201 -25.852  -0.800  1.00  0.00     0.000 C 
BRANCH  11  12
ATOM     12  C   UNL     1      45.382 -24.433  -1.359  1.00  0.00    -0.000 C 
BRANCH  12  13
ATOM     13  C   UNL     1      46.125 -24.460  -2.700  1.00  0.00    -0.000 C 
BRANCH  13  14
ATOM     14  C   UNL     1      45.541 -25.533  -3.631  1.00  0.00    -0.000 C 
BRANCH  14  15
ATOM     15  C   UNL     1      45.613 -25.133  -5.113  1.00  0.00    -0.000 C 
BRANCH  15  16
ATOM     16  C   UNL     1      45.102 -23.704  -5.366  1.00  0.00    -0.000 C 
BRANCH  16  17
ATOM     17  C   UNL     1      45.769 -23.047  -6.582  1.00  0.00    -0.003 C 
ATOM     18  C   UNL     1      46.064 -24.042  -7.704  1.00  0.00     0.004 C 
ENDBRANCH  16  17
ENDBRANCH  15  16
ENDBRANCH  14  15
ENDBRANCH  13  14
ENDBRANCH  12  13
ENDBRANCH  11  12
ENDBRANCH   1  11
TORSDOF 14
ENDMDL
MODEL 5
REMARK VINA RESULT:     0.093      1.297      1.848
REMARK INTER + INTRA:          -0.558
REMARK INTER:                  -0.128
REMARK INTRA:                  -0.429
REMARK UNBOUND:                -0.727
REMARK SMILES CCCCCCCCCCCCCCCC(=O)[O-]
REMARK SMILES IDX 9 1 10 2 11 3 12 4 13 5 14 6 15 7 16 8 17 9 18 10 8 11 7 12
REMARK SMILES IDX 6 13 5 14 4 15 3 16 2 17 1 18
REMARK H PARENT
REMARK Flexibility Score: inf
ROOT
ATOM      1  C   UNL     1      45.398 -26.690   1.045  1.00  0.00     0.000 C 
ENDROOT
BRANCH   1   2
ATOM      2  C   UNL     1      45.520 -25.321   0.351  1.00  0.00     0.000 C 
BRANCH   2   3
ATOM      3  C   UNL     1      46.125 -25.415  -1.058  1.00  0.00     0.000 C 
BRANCH   3   4
ATOM      4  C   UNL     1      45.590 -24.292  -1.959  1.00  0.00     0.000 C 
BRANCH   4   5
ATOM      5  C   UNL     1      44.222 -24.628  -2.575  1.00  0.00     0.000 C 
BRANCH   5   6
ATOM      6  C   UNL     1      44.278 -24.756  -4.108  1.00  0.00     0.006 C 
BRANCH   6   7
ATOM      7  C   UNL     1      45.408 -23.915  -4.716  1.00  0.00     0.053 C 
BRANCH   7   8
ATOM      8  C   UNL     1      45.832 -24.438  -6.054  1.00  0.00     0.041 C 
ATOM      9  O   UNL     1      45.917 -25.679  -6.251  1.00  0.00    -0.550 OA
ATOM     10  O   UNL     1      46.098 -23.556  -7.093  1.00  0.00    -0.550 OA
ENDBRANCH   7   8
ENDBRANCH   6   7
ENDBRANCH   5   6
ENDBRANCH   4   5
ENDBRANCH   3   4
ENDBRANCH   2   3
ENDBRANCH   1   2
BRANCH   1  11
ATOM     11  C   UNL     1      44.956 -26.635   2.518  1.00  0.00     0.000 C 
BRANCH  11  12
ATOM     12  C   UNL     1      46.124 -26.797   3.501  1.00  0.00    -0.000 C 
BRANCH  12  13
ATOM     13  C   UNL     1      45.614 -27.031   4.928  1.00  0.00    -0.000 C 
BRANCH  13  14
ATOM     14  C   UNL     1      45.753 -28.507   5.327  1.00  0.00    -0.000 C 
BRANCH  14  15
ATOM     15  C   UNL     1      45.798 -28.707   6.851  1.00  0.00    -0.000 C 
BRANCH  15  16
ATOM     16  C   UNL     1      45.678 -30.186   7.257  1.00  0.00    -0.000 C 
BRANCH  16  17
ATOM     17  C   UNL     1      45.727 -30.383   8.779  1.00  0.00    -0.003 C 
ATOM     18  C   UNL     1      46.106 -31.809   9.178  1.00  0.00     0.004 C 
ENDBRANCH  16  17
ENDBRANCH  15  16
ENDBRANCH  14  15
ENDBRANCH  13  14
ENDBRANCH  12  13
ENDBRANCH  11  12
ENDBRANCH   1  11
TORSDOF 14
ENDMDL
